@<TRIPOS>MOLECULE
NONAME
38 39 1 0 0 
SMALL
USER_CHARGES


@<TRIPOS>ATOM
  1 O       -0.0120     0.5670    -1.0060 O.2   1 <1>  -0.5700 
  2 C        0.0320     1.6960    -0.5400 C.2   1 <1>   0.6160 
  3 N       -1.0780     2.4800    -0.6940 N.am  1 <1>  -0.5390 
  4 C        1.1550     2.2430     0.1480 C.2   1 <1>   0.0790 
  5 C       -1.1660     3.7680    -0.2170 C.2   1 <1>  -0.0290 
  6 C        2.3140     1.4260     0.3080 C.1   1 <1>   0.4920 
  7 C        1.0830     3.5220     0.6280 C.2   1 <1>  -0.1500 
  8 C       -0.0920     4.2900     0.4420 C.2   1 <1>  -0.1500 
  9 C       -2.4900     4.4930    -0.4830 C.3   1 <1>   0.0580 
 10 N        3.2700     0.8250     0.4690 N.1   1 <1>  -0.5570 
 11 C       -2.4130     6.0180    -0.2880 C.3   1 <1>  -0.1600 
 12 C       -3.6060     3.9120     0.4000 C.3   1 <1>  -0.1600 
 13 C       -3.7590     6.6940    -0.5870 C.3   1 <1>  -0.1600 
 14 C       -4.9580     4.5840     0.1170 C.3   1 <1>  -0.1600 
 15 C       -4.8890     6.1120     0.2840 C.3   1 <1>  -0.0800 
 16 C       -6.2610     6.7300    -0.0500 C.3   1 <1>  -0.1600 
 17 C       -6.3500     8.2320     0.2610 C.3   1 <1>  -0.1600 
 18 C       -7.7710     8.7550     0.0370 C.3   1 <1>  -0.2400 
 19 H       -1.8490     2.0320    -1.1930 H     1 <1>   0.3700 
 20 H        1.9090     3.9720     1.1530 H     1 <1>   0.1500 
 21 H       -0.0940     5.2890     0.8420 H     1 <1>   0.1500 
 22 H       -2.7500     4.3180    -1.5130 H     1 <1>   0.0800 
 23 H       -1.6580     6.4260    -0.9370 H     1 <1>   0.0800 
 24 H       -2.1410     6.2410     0.7290 H     1 <1>   0.0800 
 25 H       -3.3480     4.0510     1.4360 H     1 <1>   0.0800 
 26 H       -3.6980     2.8540     0.2260 H     1 <1>   0.0800 
 27 H       -4.0020     6.5630    -1.6280 H     1 <1>   0.0800 
 28 H       -3.6560     7.7480    -0.4030 H     1 <1>   0.0800 
 29 H       -5.6970     4.1810     0.7890 H     1 <1>   0.0800 
 30 H       -5.2650     4.3480    -0.8870 H     1 <1>   0.0800 
 31 H       -4.6660     6.3240     1.3170 H     1 <1>   0.0800 
 32 H       -7.0140     6.2210     0.5260 H     1 <1>   0.0800 
 33 H       -6.4850     6.5680    -1.0910 H     1 <1>   0.0800 
 34 H       -5.6770     8.7830    -0.3720 H     1 <1>   0.0800 
 35 H       -6.0670     8.4070     1.2860 H     1 <1>   0.0800 
 36 H       -8.0700     8.6050    -0.9860 H     1 <1>   0.0800 
 37 H       -7.8140     9.8080     0.2540 H     1 <1>   0.0800 
 38 H       -8.4670     8.2450     0.6800 H     1 <1>   0.0800 
@<TRIPOS>BOND
  1   1   2  2   
  2   2   3  am  
  3   2   4  1   
  4   3   5  1   
  5   3  19  1   
  6   4   6  1   
  7   4   7  2   
  8   5   8  2   
  9   5   9  1   
 10   6  10  3   
 11   7   8  1   
 12   7  20  1   
 13   8  21  1   
 14   9  11  1   
 15   9  12  1   
 16   9  22  1   
 17  11  13  1   
 18  11  23  1   
 19  11  24  1   
 20  12  14  1   
 21  12  25  1   
 22  12  26  1   
 23  13  15  1   
 24  13  27  1   
 25  13  28  1   
 26  14  15  1   
 27  14  29  1   
 28  14  30  1   
 29  15  16  1   
 30  15  31  1   
 31  16  17  1   
 32  16  32  1   
 33  16  33  1   
 34  17  18  1   
 35  17  34  1   
 36  17  35  1   
 37  18  36  1   
 38  18  37  1   
 39  18  38  1   
@<TRIPOS>SUBSTRUCTURE
  1 ****   9 GROUP 4 **** **** 0

# MOE 2024.06 (io_trps.svl 2023.06)
