@<TRIPOS>MOLECULE
NONAME
46 48 1 0 0 
SMALL
USER_CHARGES


@<TRIPOS>ATOM
  1 S       -0.2200    -0.2470    -0.7810 S.3   1 <1>  -0.0800 
  2 C        1.4640    -0.1840    -0.2950 C.2   1 <1>   0.1040 
  3 C       -0.5200     1.3730    -0.1770 C.2   1 <1>  -0.1400 
  4 N        2.2810    -1.2920    -0.4780 N.am  1 <1>  -0.4940 
  5 C        1.7490     1.0180     0.2880 C.2   1 <1>  -0.0860 
  6 C        0.6020     1.8990     0.3470 C.2   1 <1>  -0.1810 
  7 C       -1.9310     1.9020    -0.3250 C.3   1 <1>   0.0200 
  8 C        2.1460    -2.4190    -1.2580 C.2   1 <1>   0.5440 
  9 C        3.0600     1.3450     0.7740 C.2   1 <1>   0.7160 
 10 C        0.6620     3.2960     0.9560 C.3   1 <1>   0.0210 
 11 C       -1.9630     3.2740    -1.0090 C.3   1 <1>  -0.1600 
 12 O        1.3960    -2.4220    -2.2110 O.2   1 <1>  -0.5700 
 13 C        2.9790    -3.5700    -0.9680 C.ar  1 <1>   0.0860 
 14 O        3.2510     1.7350     1.9110 O.2   1 <1>  -0.5700 
 15 N        4.1340     1.1840    -0.0580 N.am  1 <1>  -0.7300 
 16 C        0.1390     4.3830     0.0060 C.3   1 <1>  -0.1600 
 17 C       -1.3900     4.4150    -0.1550 C.3   1 <1>  -0.1600 
 18 C        3.0400    -4.1790     0.2940 C.ar  1 <1>  -0.1430 
 19 C        3.7730    -4.0990    -1.9860 C.ar  1 <1>  -0.1500 
 20 C        5.5480     1.5050     0.2650 C.3   1 <1>   0.0600 
 21 C        3.8960    -5.2480     0.5110 C.ar  1 <1>  -0.1500 
 22 C        2.1670    -3.7130     1.4550 C.3   1 <1>  -0.0970 
 23 C        4.6200    -5.1670    -1.7660 C.ar  1 <1>  -0.1500 
 24 C        4.6870    -5.7410    -0.5110 C.ar  1 <1>  -0.1500 
 25 H        3.1290    -1.2980     0.0900 H     1 <1>   0.3700 
 26 H       -2.3940     1.9580     0.6440 H     1 <1>   0.0800 
 27 H       -2.5030     1.2110    -0.9190 H     1 <1>   0.0800 
 28 H        1.6740     3.5510     1.2040 H     1 <1>   0.0800 
 29 H        0.1010     3.3050     1.8750 H     1 <1>   0.0800 
 30 H       -2.9900     3.5070    -1.2330 H     1 <1>   0.0800 
 31 H       -1.4350     3.2170    -1.9450 H     1 <1>   0.0800 
 32 H        3.9270     0.9690    -1.0370 H     1 <1>   0.3700 
 33 H        0.6080     4.2730    -0.9570 H     1 <1>   0.0800 
 34 H        0.4460     5.3350     0.4030 H     1 <1>   0.0800 
 35 H       -1.8610     4.4230     0.8140 H     1 <1>   0.0800 
 36 H       -1.6470     5.3420    -0.6380 H     1 <1>   0.0800 
 37 H        3.7190    -3.6580    -2.9670 H     1 <1>   0.1500 
 38 H        5.6550     1.7270     1.3140 H     1 <1>   0.0800 
 39 H        5.8650     2.3620    -0.3040 H     1 <1>   0.0800 
 40 H        6.1780     0.6670     0.0240 H     1 <1>   0.0800 
 41 H        3.9510    -5.7130     1.4800 H     1 <1>   0.1500 
 42 H        2.5930    -2.8420     1.9190 H     1 <1>   0.0800 
 43 H        2.0780    -4.4840     2.2000 H     1 <1>   0.0800 
 44 H        1.1750    -3.4760     1.1120 H     1 <1>   0.0800 
 45 H        5.2250    -5.5540    -2.5680 H     1 <1>   0.1500 
 46 H        5.3460    -6.5730    -0.3320 H     1 <1>   0.1500 
@<TRIPOS>BOND
  1   1   2  1   
  2   1   3  1   
  3   2   4  1   
  4   2   5  2   
  5   3   6  2   
  6   3   7  1   
  7   4   8  am  
  8   4  25  1   
  9   5   6  1   
 10   5   9  1   
 11   6  10  1   
 12   7  11  1   
 13   7  26  1   
 14   7  27  1   
 15   8  12  2   
 16   8  13  1   
 17   9  14  2   
 18   9  15  am  
 19  10  16  1   
 20  10  28  1   
 21  10  29  1   
 22  11  17  1   
 23  11  30  1   
 24  11  31  1   
 25  13  18  ar  
 26  13  19  ar  
 27  15  20  1   
 28  15  32  1   
 29  16  17  1   
 30  16  33  1   
 31  16  34  1   
 32  17  35  1   
 33  17  36  1   
 34  18  21  ar  
 35  18  22  1   
 36  19  23  ar  
 37  19  37  1   
 38  20  38  1   
 39  20  39  1   
 40  20  40  1   
 41  21  24  ar  
 42  21  41  1   
 43  22  42  1   
 44  22  43  1   
 45  22  44  1   
 46  23  24  ar  
 47  23  45  1   
 48  24  46  1   
@<TRIPOS>SUBSTRUCTURE
  1 ****   2 GROUP 4 **** **** 0

# MOE 2024.06 (io_trps.svl 2023.06)
