@<TRIPOS>MOLECULE
NONAME
41 42 1 0 0 
SMALL
USER_CHARGES


@<TRIPOS>ATOM
  1 O        0.0120     0.8930    -0.2640 O.2   1 <1>  -0.5700 
  2 C        0.7430     1.8330    -0.0120 C.2   1 <1>   0.5440 
  3 N        0.1830     3.0180     0.4220 N.am  1 <1>  -0.6600 
  4 C        2.1720     1.6780    -0.1880 C.ar  1 <1>   0.0860 
  5 C       -1.2710     3.1000     0.7470 C.3   1 <1>   0.2840 
  6 C        0.9410     4.2960     0.5140 C.3   1 <1>   0.1400 
  7 C        2.7170     1.4570    -1.4520 C.ar  1 <1>  -0.1500 
  8 C        3.0530     1.7350     0.8930 C.ar  1 <1>  -0.1500 
  9 C       -2.0260     3.8060    -0.3670 C.ar  1 <1>  -0.1440 
 10 C        1.1540     4.8920    -0.8770 C.3   1 <1>  -0.2400 
 11 C        4.0800     1.3210    -1.6330 C.ar  1 <1>  -0.1500 
 12 C        4.4190     1.6000     0.7210 C.ar  1 <1>  -0.1500 
 13 C       -2.1820     3.2200    -1.6070 C.ar  1 <1>  -0.1500 
 14 C       -2.5890     5.0580    -0.2080 C.ar  1 <1>  -0.1500 
 15 C        4.9440     1.3940    -0.5520 C.ar  1 <1>   0.0820 
 16 C       -2.8700     3.8940    -2.6010 C.ar  1 <1>   0.1600 
 17 C       -3.2580     5.6440    -1.2700 C.ar  1 <1>   0.1600 
 18 O        6.2630     1.2540    -0.8110 O.3   1 <1>  -0.3630 
 19 N       -3.4120     5.0940    -2.4630 N.ar  1 <1>  -0.6200 
 20 C        7.2300     1.2680     0.2130 C.3   1 <1>   0.1200 
 21 C        8.6000     1.0660    -0.4280 C.3   1 <1>  -0.2400 
 22 H       -1.3970     3.6280     1.6750 H     1 <1>   0.0800 
 23 H       -1.6820     2.1140     0.8820 H     1 <1>   0.0800 
 24 H        1.8940     4.1260     0.9830 H     1 <1>   0.0800 
 25 H        0.3990     4.9970     1.1250 H     1 <1>   0.0800 
 26 H        2.0530     1.3910    -2.2970 H     1 <1>   0.1500 
 27 H        2.6510     1.8860     1.8790 H     1 <1>   0.1500 
 28 H        1.7230     4.2230    -1.4950 H     1 <1>   0.0800 
 29 H        1.6950     5.8160    -0.7940 H     1 <1>   0.0800 
 30 H        0.2110     5.0960    -1.3520 H     1 <1>   0.0800 
 31 H        4.4870     1.1540    -2.6140 H     1 <1>   0.1500 
 32 H        5.0580     1.6530     1.5820 H     1 <1>   0.1500 
 33 H       -1.7670     2.2460    -1.8010 H     1 <1>   0.1500 
 34 H       -2.5120     5.5820     0.7260 H     1 <1>   0.1500 
 35 H       -2.9790     3.4190    -3.5610 H     1 <1>   0.1500 
 36 H       -3.6910     6.6200    -1.1300 H     1 <1>   0.1500 
 37 H        7.0090     0.4690     0.9000 H     1 <1>   0.0800 
 38 H        7.1810     2.2190     0.7150 H     1 <1>   0.0800 
 39 H        8.6310     0.1210    -0.9410 H     1 <1>   0.0800 
 40 H        9.3620     1.0710     0.3300 H     1 <1>   0.0800 
 41 H        8.8020     1.8600    -1.1250 H     1 <1>   0.0800 
@<TRIPOS>BOND
  1   1   2  2   
  2   2   3  am  
  3   2   4  1   
  4   3   5  1   
  5   3   6  1   
  6   4   7  ar  
  7   4   8  ar  
  8   5   9  1   
  9   5  22  1   
 10   5  23  1   
 11   6  10  1   
 12   6  24  1   
 13   6  25  1   
 14   7  11  ar  
 15   7  26  1   
 16   8  12  ar  
 17   8  27  1   
 18   9  13  ar  
 19   9  14  ar  
 20  10  28  1   
 21  10  29  1   
 22  10  30  1   
 23  11  15  ar  
 24  11  31  1   
 25  12  15  ar  
 26  12  32  1   
 27  13  16  ar  
 28  13  33  1   
 29  14  17  ar  
 30  14  34  1   
 31  15  18  1   
 32  16  19  ar  
 33  16  35  1   
 34  17  19  ar  
 35  17  36  1   
 36  18  20  1   
 37  20  21  1   
 38  20  37  1   
 39  20  38  1   
 40  21  39  1   
 41  21  40  1   
 42  21  41  1   
@<TRIPOS>SUBSTRUCTURE
  1 ****   2 GROUP 4 **** **** 0

# MOE 2024.06 (io_trps.svl 2023.06)
