@<TRIPOS>MOLECULE
NONAME
46 48 1 0 0 
SMALL
USER_CHARGES


@<TRIPOS>ATOM
  1 CL       2.8840    -0.7410     1.8950 Cl    1 <1>  -0.1770 
  2 C        2.8130    -0.6540     0.1500 C.ar  1 <1>   0.1770 
  3 C        2.8220     0.5740    -0.4990 C.ar  1 <1>  -0.1440 
  4 C        2.7620    -1.8430    -0.5550 C.ar  1 <1>  -0.1500 
  5 C        2.7870     0.5880    -1.8860 C.ar  1 <1>  -0.1500 
  6 C        2.8680     1.8920     0.2630 C.3   1 <1>   0.2540 
  7 C        2.7240    -1.8140    -1.9380 C.ar  1 <1>  -0.1500 
  8 C        2.7380    -0.5980    -2.6010 C.ar  1 <1>  -0.1500 
  9 N        4.2150     2.4930     0.1870 N.3   1 <1>  -0.8100 
 10 C        4.2260     3.8540     0.7760 C.3   1 <1>   0.1100 
 11 C        5.2440     1.6390     0.8360 C.3   1 <1>   0.1100 
 12 C        5.6290     4.5090     0.7320 C.3   1 <1>   0.3430 
 13 C        6.6600     2.2620     0.7710 C.3   1 <1>   0.3430 
 14 N        6.6320     3.5950     0.0910 N.4   1 <1>  -0.9590 
 15 C        7.9700     4.2060    -0.1160 C.3   1 <1>   0.4860 
 16 C        7.8070     5.5050    -0.8850 C.ar  1 <1>  -0.1430 
 17 C        8.0270     6.7430    -0.2850 C.ar  1 <1>  -0.1430 
 18 C        7.4190     5.4470    -2.2180 C.ar  1 <1>  -0.1500 
 19 C        7.8400     7.8990    -1.0260 C.ar  1 <1>  -0.1500 
 20 C        8.4810     6.8760     1.1640 C.3   1 <1>  -0.0970 
 21 C        7.2360     6.6070    -2.9470 C.ar  1 <1>  -0.1500 
 22 C        7.4440     7.8340    -2.3490 C.ar  1 <1>  -0.1500 
 23 H        2.7520    -2.7790    -0.0260 H     1 <1>   0.1500 
 24 H        2.7990     1.5260    -2.4150 H     1 <1>   0.1500 
 25 H        2.5780     1.7560     1.2910 H     1 <1>   0.0800 
 26 H        2.1560     2.5630    -0.1860 H     1 <1>   0.0800 
 27 H        2.6830    -2.7330    -2.4970 H     1 <1>   0.1500 
 28 H        2.7080    -0.5750    -3.6770 H     1 <1>   0.1500 
 29 H        3.8900     3.8150     1.7990 H     1 <1>   0.0800 
 30 H        3.5380     4.4820     0.2340 H     1 <1>   0.0800 
 31 H        5.2800     0.6800     0.3490 H     1 <1>   0.0800 
 32 H        4.9810     1.4650     1.8660 H     1 <1>   0.0800 
 33 H        5.9390     4.7550     1.7340 H     1 <1>   0.0800 
 34 H        5.5630     5.4310     0.1760 H     1 <1>   0.0800 
 35 H        7.3080     1.5890     0.2340 H     1 <1>   0.0800 
 36 H        7.0470     2.3630     1.7710 H     1 <1>   0.0800 
 37 H        6.2110     3.4060    -0.8310 H     1 <1>   0.4500 
 38 H        8.5990     3.5370    -0.6800 H     1 <1>   0.0800 
 39 H        8.4420     4.3940     0.8340 H     1 <1>   0.0800 
 40 H        7.2570     4.5020    -2.7080 H     1 <1>   0.1500 
 41 H        8.0040     8.8670    -0.5830 H     1 <1>   0.1500 
 42 H        7.7730     6.4200     1.8300 H     1 <1>   0.0800 
 43 H        8.5750     7.9120     1.4410 H     1 <1>   0.0800 
 44 H        9.4440     6.4150     1.2950 H     1 <1>   0.0800 
 45 H        6.9340     6.5580    -3.9800 H     1 <1>   0.1500 
 46 H        7.3030     8.7400    -2.9150 H     1 <1>   0.1500 
@<TRIPOS>BOND
  1   1   2  1   
  2   2   3  ar  
  3   2   4  ar  
  4   3   5  ar  
  5   3   6  1   
  6   4   7  ar  
  7   4  23  1   
  8   5   8  ar  
  9   5  24  1   
 10   6   9  1   
 11   6  25  1   
 12   6  26  1   
 13   7   8  ar  
 14   7  27  1   
 15   8  28  1   
 16   9  10  1   
 17   9  11  1   
 18  10  12  1   
 19  10  29  1   
 20  10  30  1   
 21  11  13  1   
 22  11  31  1   
 23  11  32  1   
 24  12  14  1   
 25  12  33  1   
 26  12  34  1   
 27  13  14  1   
 28  13  35  1   
 29  13  36  1   
 30  14  15  1   
 31  14  37  1   
 32  15  16  1   
 33  15  38  1   
 34  15  39  1   
 35  16  17  ar  
 36  16  18  ar  
 37  17  19  ar  
 38  17  20  1   
 39  18  21  ar  
 40  18  40  1   
 41  19  22  ar  
 42  19  41  1   
 43  20  42  1   
 44  20  43  1   
 45  20  44  1   
 46  21  22  ar  
 47  21  45  1   
 48  22  46  1   
@<TRIPOS>SUBSTRUCTURE
  1 ****   9 GROUP 4 **** **** 0

# MOE 2024.06 (io_trps.svl 2023.06)
