@<TRIPOS>MOLECULE
NONAME
50 51 1 0 0 
SMALL
USER_CHARGES


@<TRIPOS>ATOM
  1 O       -0.8120    -8.7700     1.1880 O.2   1 <1>  -0.5700 
  2 C       -1.0650    -7.9650     0.3310 C.2   1 <1>   0.6590 
  3 O       -2.2970    -7.7260    -0.0870 O.3   1 <1>  -0.4300 
  4 C        0.0310    -7.1560    -0.3410 C.3   1 <1>  -0.0190 
  5 C       -3.4080    -8.4020     0.4590 C.3   1 <1>   0.1200 
  6 C        1.3930    -7.8400    -0.1050 C.3   1 <1>   0.3430 
  7 C        0.0350    -5.6890     0.1320 C.3   1 <1>  -0.1600 
  8 C       -4.6630    -7.8870    -0.2370 C.3   1 <1>  -0.2400 
  9 N        2.5340    -6.8650     0.0170 N.4   1 <1>  -0.9590 
 10 C        1.1630    -4.8880    -0.5500 C.3   1 <1>  -0.1600 
 11 C        2.3890    -5.7280    -0.9380 C.3   1 <1>   0.3430 
 12 C        3.8420    -7.5880    -0.1210 C.3   1 <1>   0.3430 
 13 C        5.0450    -6.7380     0.3000 C.3   1 <1>   0.1200 
 14 O        6.1910    -7.5320     0.1270 O.3   1 <1>  -0.3630 
 15 C        7.4390    -7.0640     0.3990 C.ar  1 <1>   0.0820 
 16 C        8.5170    -7.9140     0.1490 C.ar  1 <1>  -0.1430 
 17 C        7.6630    -5.7850     0.9070 C.ar  1 <1>  -0.1500 
 18 C        9.8030    -7.4610     0.4140 C.ar  1 <1>  -0.1500 
 19 C        8.2410    -9.3170    -0.4070 C.3   1 <1>  -0.0170 
 20 C        8.9490    -5.3520     1.1640 C.ar  1 <1>  -0.1500 
 21 C       10.0190    -6.1900     0.9170 C.ar  1 <1>  -0.1500 
 22 C        9.4730   -10.1970    -0.6520 C.3   1 <1>  -0.2400 
 23 H       -0.1720    -7.1750    -1.3960 H     1 <1>   0.0800 
 24 H       -3.4450    -8.2020     1.5180 H     1 <1>   0.0800 
 25 H       -3.2820    -9.4590     0.2960 H     1 <1>   0.0800 
 26 H        1.5760    -8.5230    -0.9190 H     1 <1>   0.0800 
 27 H        1.3500    -8.4250     0.8000 H     1 <1>   0.0800 
 28 H        0.1730    -5.6660     1.2010 H     1 <1>   0.0800 
 29 H       -0.9170    -5.2270    -0.0770 H     1 <1>   0.0800 
 30 H       -4.7740    -6.8300    -0.0730 H     1 <1>   0.0800 
 31 H       -5.5280    -8.3860     0.1610 H     1 <1>   0.0800 
 32 H       -4.6110    -8.0850    -1.2930 H     1 <1>   0.0800 
 33 H        2.4790    -6.4700     0.9670 H     1 <1>   0.4500 
 34 H        1.4690    -4.0850     0.0990 H     1 <1>   0.0800 
 35 H        0.7820    -4.4300    -1.4470 H     1 <1>   0.0800 
 36 H        2.2590    -6.1150    -1.9360 H     1 <1>   0.0800 
 37 H        3.2670    -5.1020    -0.9310 H     1 <1>   0.0800 
 38 H        3.9770    -7.8990    -1.1440 H     1 <1>   0.0800 
 39 H        3.8280    -8.4700     0.5000 H     1 <1>   0.0800 
 40 H        4.9800    -6.4680     1.3390 H     1 <1>   0.0800 
 41 H        5.1510    -5.8690    -0.3240 H     1 <1>   0.0800 
 42 H        6.8590    -5.1060     1.1130 H     1 <1>   0.1500 
 43 H       10.6620    -8.0820     0.2370 H     1 <1>   0.1500 
 44 H        7.7110    -9.2130    -1.3380 H     1 <1>   0.0800 
 45 H        7.5910    -9.8310     0.2800 H     1 <1>   0.0800 
 46 H        9.1230    -4.3650     1.5560 H     1 <1>   0.1500 
 47 H       11.0220    -5.8550     1.1160 H     1 <1>   0.1500 
 48 H       10.1280    -9.7350    -1.3690 H     1 <1>   0.0800 
 49 H        9.1680   -11.1530    -1.0380 H     1 <1>   0.0800 
 50 H       10.0070   -10.3580     0.2680 H     1 <1>   0.0800 
@<TRIPOS>BOND
  1   1   2  2   
  2   2   3  1   
  3   2   4  1   
  4   3   5  1   
  5   4   6  1   
  6   4   7  1   
  7   4  23  1   
  8   5   8  1   
  9   5  24  1   
 10   5  25  1   
 11   6   9  1   
 12   6  26  1   
 13   6  27  1   
 14   7  10  1   
 15   7  28  1   
 16   7  29  1   
 17   8  30  1   
 18   8  31  1   
 19   8  32  1   
 20   9  11  1   
 21   9  12  1   
 22   9  33  1   
 23  10  11  1   
 24  10  34  1   
 25  10  35  1   
 26  11  36  1   
 27  11  37  1   
 28  12  13  1   
 29  12  38  1   
 30  12  39  1   
 31  13  14  1   
 32  13  40  1   
 33  13  41  1   
 34  14  15  1   
 35  15  16  ar  
 36  15  17  ar  
 37  16  18  ar  
 38  16  19  1   
 39  17  20  ar  
 40  17  42  1   
 41  18  21  ar  
 42  18  43  1   
 43  19  22  1   
 44  19  44  1   
 45  19  45  1   
 46  20  21  ar  
 47  20  46  1   
 48  21  47  1   
 49  22  48  1   
 50  22  49  1   
 51  22  50  1   
@<TRIPOS>SUBSTRUCTURE
  1 ****  12 GROUP 4 **** **** 0

# MOE 2024.06 (io_trps.svl 2023.06)
