@<TRIPOS>MOLECULE
NONAME
48 48 1 0 0 
SMALL
USER_CHARGES


@<TRIPOS>ATOM
  1 N        0.1110     0.1170     0.4080 N.4   1 <1>  -0.9590 
  2 C        1.3050     1.0250     0.4370 C.3   1 <1>   0.4230 
  3 C       -1.1520     0.9070     0.1410 C.3   1 <1>   0.3430 
  4 C        0.0300    -0.7590     1.6210 C.3   1 <1>   0.3430 
  5 C        2.5780     0.1840     0.2730 C.3   1 <1>  -0.1600 
  6 C        1.3280     1.8890     1.7050 C.3   1 <1>  -0.2400 
  7 C       -2.4170     0.0550    -0.1760 C.3   1 <1>   0.3430 
  8 C       -0.2250    -2.1930     1.1770 C.3   1 <1>  -0.2400 
  9 C        3.8300     1.0250    -0.0180 C.3   1 <1>  -0.0170 
 10 N       -3.6680     0.8590    -0.4490 N.4   1 <1>  -0.9590 
 11 C        4.9970     0.0970    -0.2980 C.ar  1 <1>  -0.1430 
 12 C       -4.8570    -0.0540    -0.5540 C.3   1 <1>   0.2630 
 13 C       -3.5910     1.6910    -1.6990 C.3   1 <1>   0.2630 
 14 C        5.2880    -0.2900    -1.5980 C.ar  1 <1>  -0.1500 
 15 C        5.7760    -0.3810     0.7450 C.ar  1 <1>  -0.1500 
 16 C        6.3430    -1.1500    -1.8510 C.ar  1 <1>  -0.1500 
 17 C        6.8300    -1.2400     0.4920 C.ar  1 <1>  -0.1500 
 18 C        7.1140    -1.6260    -0.8050 C.ar  1 <1>  -0.1500 
 19 H        0.2990    -0.5150    -0.3830 H     1 <1>   0.4500 
 20 H        1.2480     1.6860    -0.4140 H     1 <1>   0.0800 
 21 H       -0.9720     1.5620    -0.6960 H     1 <1>   0.0800 
 22 H       -1.3630     1.5210     1.0010 H     1 <1>   0.0800 
 23 H       -0.7480    -0.4210     2.2870 H     1 <1>   0.0800 
 24 H        0.9610    -0.7330     2.1650 H     1 <1>   0.0800 
 25 H        2.4500    -0.4940    -0.5520 H     1 <1>   0.0800 
 26 H        2.7670    -0.3990     1.1570 H     1 <1>   0.0800 
 27 H        1.5350     1.3060     2.5840 H     1 <1>   0.0800 
 28 H        0.4080     2.4260     1.8390 H     1 <1>   0.0800 
 29 H        2.1080     2.6260     1.6220 H     1 <1>   0.0800 
 30 H       -2.6060    -0.5910     0.6660 H     1 <1>   0.0800 
 31 H       -2.2110    -0.5660    -1.0320 H     1 <1>   0.0800 
 32 H       -1.1580    -2.3020     0.6580 H     1 <1>   0.0800 
 33 H       -0.2610    -2.8250     2.0480 H     1 <1>   0.0800 
 34 H        0.5800    -2.5480     0.5570 H     1 <1>   0.0800 
 35 H        4.0770     1.6530     0.8210 H     1 <1>   0.0800 
 36 H        3.6690     1.6620    -0.8710 H     1 <1>   0.0800 
 37 H       -3.8650     1.4940     0.3440 H     1 <1>   0.4500 
 38 H       -4.7400    -0.7380    -1.3800 H     1 <1>   0.0800 
 39 H       -5.7570     0.5190    -0.7130 H     1 <1>   0.0800 
 40 H       -4.9780    -0.6260     0.3520 H     1 <1>   0.0800 
 41 H       -3.4180     1.0660    -2.5610 H     1 <1>   0.0800 
 42 H       -2.7960     2.4160    -1.6310 H     1 <1>   0.0800 
 43 H       -4.5170     2.2240    -1.8500 H     1 <1>   0.0800 
 44 H        4.7020     0.0730    -2.4230 H     1 <1>   0.1500 
 45 H        5.5710    -0.0880     1.7590 H     1 <1>   0.1500 
 46 H        6.5670    -1.4470    -2.8600 H     1 <1>   0.1500 
 47 H        7.4330    -1.6090     1.3050 H     1 <1>   0.1500 
 48 H        7.9340    -2.2950    -1.0020 H     1 <1>   0.1500 
@<TRIPOS>BOND
  1   1   2  1   
  2   1   3  1   
  3   1   4  1   
  4   1  19  1   
  5   2   5  1   
  6   2   6  1   
  7   2  20  1   
  8   3   7  1   
  9   3  21  1   
 10   3  22  1   
 11   4   8  1   
 12   4  23  1   
 13   4  24  1   
 14   5   9  1   
 15   5  25  1   
 16   5  26  1   
 17   6  27  1   
 18   6  28  1   
 19   6  29  1   
 20   7  10  1   
 21   7  30  1   
 22   7  31  1   
 23   8  32  1   
 24   8  33  1   
 25   8  34  1   
 26   9  11  1   
 27   9  35  1   
 28   9  36  1   
 29  10  12  1   
 30  10  13  1   
 31  10  37  1   
 32  11  14  ar  
 33  11  15  ar  
 34  12  38  1   
 35  12  39  1   
 36  12  40  1   
 37  13  41  1   
 38  13  42  1   
 39  13  43  1   
 40  14  16  ar  
 41  14  44  1   
 42  15  17  ar  
 43  15  45  1   
 44  16  18  ar  
 45  16  46  1   
 46  17  18  ar  
 47  17  47  1   
 48  18  48  1   
@<TRIPOS>SUBSTRUCTURE
  1 ****   5 GROUP 4 **** **** 0

# MOE 2024.06 (io_trps.svl 2023.06)
