@<TRIPOS>MOLECULE
NONAME
28 29 1 0 0 
SMALL
USER_CHARGES


@<TRIPOS>ATOM
  1 CL      -0.1210    -0.5740    -1.8060 Cl    1 <1>  -0.1770 
  2 C        0.8190    -1.6980    -0.8480 C.ar  1 <1>   0.1770 
  3 C        0.1920    -2.7310    -0.1600 C.ar  1 <1>   0.0830 
  4 C        2.1880    -1.5250    -0.8000 C.ar  1 <1>  -0.1500 
  5 O       -1.1600    -2.8440    -0.2500 O.3   1 <1>  -0.3630 
  6 C        0.9830    -3.5990     0.5870 C.ar  1 <1>  -0.1500 
  7 C        2.9860    -2.3880    -0.0570 C.ar  1 <1>  -0.0090 
  8 C       -1.8690    -3.8580     0.4270 C.3   1 <1>   0.0400 
  9 C        2.3570    -3.4220     0.6310 C.ar  1 <1>  -0.1500 
 10 S        4.7870    -2.1900     0.0110 S.o2  1 <1>   1.4470 
 11 O        5.2270    -2.2620     1.3860 O.2   1 <1>  -0.6500 
 12 O        5.2010    -1.0940    -0.8340 O.2   1 <1>  -0.6500 
 13 N        5.3390    -3.5530    -0.7970 N.am  1 <1>  -0.7890 
 14 C        6.6560    -3.9750    -0.3900 C.3   1 <1>   0.1310 
 15 C        7.1080    -5.3300    -0.8150 C.3   1 <1>  -0.2000 
 16 C        6.7630    -5.0640     0.6210 C.3   1 <1>  -0.2000 
 17 H        2.6320    -0.7110    -1.3470 H     1 <1>   0.1500 
 18 H        0.5510    -4.4130     1.1380 H     1 <1>   0.1500 
 19 H       -2.9140    -3.7370     0.2060 H     1 <1>   0.0800 
 20 H       -1.7060    -3.7520     1.4850 H     1 <1>   0.0800 
 21 H       -1.5300    -4.8160     0.0770 H     1 <1>   0.0800 
 22 H        2.9590    -4.1000     1.2140 H     1 <1>   0.1500 
 23 H        5.4210    -3.2350    -1.7600 H     1 <1>   0.4200 
 24 H        7.3810    -3.1740    -0.3630 H     1 <1>   0.1000 
 25 H        8.1430    -5.4820    -1.0650 H     1 <1>   0.1000 
 26 H        6.4430    -5.9440    -1.3960 H     1 <1>   0.1000 
 27 H        5.8550    -5.4690     1.0310 H     1 <1>   0.1000 
 28 H        7.5590    -5.0150     1.3440 H     1 <1>   0.1000 
@<TRIPOS>BOND
  1   1   2  1   
  2   2   3  ar  
  3   2   4  ar  
  4   3   5  1   
  5   3   6  ar  
  6   4   7  ar  
  7   4  17  1   
  8   5   8  1   
  9   6   9  ar  
 10   6  18  1   
 11   7   9  ar  
 12   7  10  1   
 13   8  19  1   
 14   8  20  1   
 15   8  21  1   
 16   9  22  1   
 17  10  11  2   
 18  10  12  2   
 19  10  13  am  
 20  13  14  1   
 21  13  23  1   
 22  14  15  1   
 23  14  16  1   
 24  14  24  1   
 25  15  16  1   
 26  15  25  1   
 27  15  26  1   
 28  16  27  1   
 29  16  28  1   
@<TRIPOS>SUBSTRUCTURE
  1 ****   7 GROUP 4 **** **** 0

# MOE 2024.06 (io_trps.svl 2023.06)
