@<TRIPOS>MOLECULE
NONAME
48 50 1 0 0 
SMALL
USER_CHARGES


@<TRIPOS>ATOM
  1 O       -2.1240    -0.4770    -1.8540 O.3   1 <1>  -0.3630 
  2 C       -2.4740    -0.9930    -0.6490 C.ar  1 <1>   0.0820 
  3 C       -1.7950     0.8930    -1.9080 C.3   1 <1>   0.1200 
  4 C       -1.6550    -1.9210    -0.0060 C.ar  1 <1>   0.0820 
  5 C       -3.6720    -0.6150    -0.0640 C.ar  1 <1>  -0.1500 
  6 C       -0.3790     1.0960    -1.3690 C.3   1 <1>  -0.2400 
  7 O       -0.4850    -2.3140    -0.5520 O.3   1 <1>  -0.5320 
  8 C       -2.0380    -2.4500     1.2160 C.ar  1 <1>  -0.1500 
  9 C       -4.0620    -1.1470     1.1560 C.ar  1 <1>  -0.1430 
 10 C       -3.2360    -2.0630     1.7940 C.ar  1 <1>  -0.1500 
 11 C       -5.3910    -0.7350     1.7760 C.3   1 <1>   0.2530 
 12 N       -6.5210    -0.9620     0.8400 N.3   1 <1>  -0.8100 
 13 C       -7.8410    -0.5400     1.3740 C.3   1 <1>   0.1900 
 14 C       -6.5690    -2.3800     0.4060 C.3   1 <1>   0.1100 
 15 C       -9.0010    -0.8140     0.3590 C.3   1 <1>   0.4230 
 16 C       -7.8220     0.9440     1.7740 C.3   1 <1>  -0.2400 
 17 C       -7.6380    -2.6080    -0.6740 C.3   1 <1>   0.3430 
 18 N       -9.0130    -2.1940    -0.2210 N.4   1 <1>  -0.9590 
 19 C       -9.0300     0.0860    -0.8770 C.3   1 <1>  -0.1600 
 20 C       -9.9410    -2.1280    -1.3770 C.3   1 <1>   0.3430 
 21 C       -9.7940    -0.7140    -1.9360 C.3   1 <1>  -0.1600 
 22 H       -2.5150     1.4560    -1.3410 H     1 <1>   0.0800 
 23 H       -1.8460     1.1940    -2.9400 H     1 <1>   0.0800 
 24 H       -4.3080     0.0880    -0.5710 H     1 <1>   0.1500 
 25 H       -0.3330     0.8260    -0.3290 H     1 <1>   0.0800 
 26 H       -0.0960     2.1280    -1.4660 H     1 <1>   0.0800 
 27 H        0.3150     0.4920    -1.9250 H     1 <1>   0.0800 
 28 H       -0.0180    -2.9790    -0.0190 H     1 <1>   0.4500 
 29 H       -1.4090    -3.1600     1.7210 H     1 <1>   0.1500 
 30 H       -3.5190    -2.4820     2.7440 H     1 <1>   0.1500 
 31 H       -5.3130     0.3100     2.0170 H     1 <1>   0.0800 
 32 H       -5.5580    -1.2790     2.6910 H     1 <1>   0.0800 
 33 H       -8.0520    -1.1130     2.2620 H     1 <1>   0.0800 
 34 H       -6.7540    -3.0220     1.2500 H     1 <1>   0.0800 
 35 H       -5.6240    -2.6670    -0.0220 H     1 <1>   0.0800 
 36 H       -9.9310    -0.6610     0.8810 H     1 <1>   0.0800 
 37 H       -7.4130     1.5480     0.9830 H     1 <1>   0.0800 
 38 H       -7.2440     1.0940     2.6670 H     1 <1>   0.0800 
 39 H       -8.8190     1.2870     1.9870 H     1 <1>   0.0800 
 40 H       -7.6430    -3.6480    -0.9570 H     1 <1>   0.0800 
 41 H       -7.3550    -2.0320    -1.5400 H     1 <1>   0.0800 
 42 H       -9.3450    -2.8580     0.4870 H     1 <1>   0.4500 
 43 H       -8.0240     0.2810    -1.2100 H     1 <1>   0.0800 
 44 H       -9.5060     1.0270    -0.6620 H     1 <1>   0.0800 
 45 H      -10.9550    -2.2720    -1.0380 H     1 <1>   0.0800 
 46 H       -9.7090    -2.8750    -2.1190 H     1 <1>   0.0800 
 47 H       -9.2490    -0.7310    -2.8650 H     1 <1>   0.0800 
 48 H      -10.7670    -0.2920    -2.1200 H     1 <1>   0.0800 
@<TRIPOS>BOND
  1   1   2  1   
  2   1   3  1   
  3   2   4  ar  
  4   2   5  ar  
  5   3   6  1   
  6   3  22  1   
  7   3  23  1   
  8   4   7  1   
  9   4   8  ar  
 10   5   9  ar  
 11   5  24  1   
 12   6  25  1   
 13   6  26  1   
 14   6  27  1   
 15   7  28  1   
 16   8  10  ar  
 17   8  29  1   
 18   9  10  ar  
 19   9  11  1   
 20  10  30  1   
 21  11  12  1   
 22  11  31  1   
 23  11  32  1   
 24  12  13  1   
 25  12  14  1   
 26  13  15  1   
 27  13  16  1   
 28  13  33  1   
 29  14  17  1   
 30  14  34  1   
 31  14  35  1   
 32  15  18  1   
 33  15  19  1   
 34  15  36  1   
 35  16  37  1   
 36  16  38  1   
 37  16  39  1   
 38  17  18  1   
 39  17  40  1   
 40  17  41  1   
 41  18  20  1   
 42  18  42  1   
 43  19  21  1   
 44  19  43  1   
 45  19  44  1   
 46  20  21  1   
 47  20  45  1   
 48  20  46  1   
 49  21  47  1   
 50  21  48  1   
@<TRIPOS>SUBSTRUCTURE
  1 ****  12 GROUP 4 **** **** 0

# MOE 2024.06 (io_trps.svl 2023.06)
