@<TRIPOS>MOLECULE
NONAME
35 39 1 0 0 
SMALL
USER_CHARGES


@<TRIPOS>ATOM
  1 I        0.3260    -0.6030     0.4180 I     1 <1>  -0.0810 
  2 C       -1.7790    -0.2950     0.3400 C.ar  1 <1>   0.0810 
  3 C       -2.6170    -1.3750     0.5420 C.ar  1 <1>  -0.1500 
  4 C       -2.2560     0.9780     0.0900 C.ar  1 <1>  -0.1500 
  5 C       -3.9840    -1.1640     0.4900 C.ar  1 <1>  -0.1500 
  6 C       -3.6260     1.1690     0.0410 C.ar  1 <1>  -0.1500 
  7 C       -4.5070     0.1050     0.2400 C.ar  1 <1>   0.1170 
  8 N       -5.9040     0.3090     0.1890 N.am  1 <1>  -0.2370 
  9 C       -6.5950     1.3340     0.8200 C.2   1 <1>   0.5690 
 10 C       -6.8130    -0.4830    -0.4970 C.2   1 <1>   0.5690 
 11 O       -6.1550     2.3370     1.3200 O.2   1 <1>  -0.5700 
 12 C       -8.0510     0.9690     0.8020 C.3   1 <1>  -0.0190 
 13 O       -6.6370    -1.5660    -0.9930 O.2   1 <1>  -0.5700 
 14 C       -8.1080     0.2740    -0.5650 C.3   1 <1>  -0.0190 
 15 C       -9.3790     1.7370     1.0330 C.3   1 <1>   0.1530 
 16 C       -9.5800    -0.1130    -0.8900 C.3   1 <1>   0.1530 
 17 C      -10.2980     0.5480     1.3500 C.2   1 <1>  -0.2880 
 18 C       -9.9120     2.3220    -0.3130 C.3   1 <1>  -0.1950 
 19 C      -10.3590    -0.4010     0.4030 C.2   1 <1>  -0.2880 
 20 C      -10.1460     1.2600    -1.3780 C.3   1 <1>  -0.1950 
 21 C      -11.2910     2.0880    -0.8540 C.3   1 <1>  -0.2000 
 22 H       -2.2160    -2.3540     0.7330 H     1 <1>   0.1500 
 23 H       -1.5770     1.7990    -0.0610 H     1 <1>   0.1500 
 24 H       -4.6500    -1.9960     0.6420 H     1 <1>   0.1500 
 25 H       -4.0120     2.1550    -0.1500 H     1 <1>   0.1500 
 26 H       -8.0520     0.2090     1.5690 H     1 <1>   0.0800 
 27 H       -7.8460     0.9970    -1.3210 H     1 <1>   0.0800 
 28 H       -9.3340     2.4500     1.8380 H     1 <1>   0.0800 
 29 H       -9.6730    -0.8850    -1.6350 H     1 <1>   0.0800 
 30 H      -10.8010     0.5560     2.3020 H     1 <1>   0.1500 
 31 H       -9.3940     3.2170    -0.6140 H     1 <1>   0.1000 
 32 H      -10.9200    -1.3200     0.4370 H     1 <1>   0.1500 
 33 H       -9.8530     1.4790    -2.3910 H     1 <1>   0.1000 
 34 H      -11.7150     2.8360    -1.5020 H     1 <1>   0.1000 
 35 H      -12.0500     1.6190    -0.2520 H     1 <1>   0.1000 
@<TRIPOS>BOND
  1   1   2  1   
  2   2   3  ar  
  3   2   4  ar  
  4   3   5  ar  
  5   3  22  1   
  6   4   6  ar  
  7   4  23  1   
  8   5   7  ar  
  9   5  24  1   
 10   6   7  ar  
 11   6  25  1   
 12   7   8  1   
 13   8   9  am  
 14   8  10  am  
 15   9  11  2   
 16   9  12  1   
 17  10  13  2   
 18  10  14  1   
 19  12  14  1   
 20  12  15  1   
 21  12  26  1   
 22  14  16  1   
 23  14  27  1   
 24  15  17  1   
 25  15  18  1   
 26  15  28  1   
 27  16  19  1   
 28  16  20  1   
 29  16  29  1   
 30  17  19  2   
 31  17  30  1   
 32  18  20  1   
 33  18  21  1   
 34  18  31  1   
 35  19  32  1   
 36  20  21  1   
 37  20  33  1   
 38  21  34  1   
 39  21  35  1   
@<TRIPOS>SUBSTRUCTURE
  1 ****   8 GROUP 4 **** **** 0

# MOE 2024.06 (io_trps.svl 2023.06)
