@<TRIPOS>MOLECULE
NONAME
46 47 1 0 0 
SMALL
USER_CHARGES


@<TRIPOS>ATOM
  1 S        0.2030     0.0710    -0.1190 S.o2  1 <1>   1.4470 
  2 O       -0.5120     0.2330     1.1300 O.2   1 <1>  -0.6500 
  3 O       -0.0260    -1.1130    -0.9190 O.2   1 <1>  -0.6500 
  4 N       -0.2020     1.4090    -1.0870 N.am  1 <1>  -0.8490 
  5 C        1.9870     0.2760     0.1380 C.ar  1 <1>  -0.0090 
  6 C       -1.5180     1.2540    -1.7110 C.3   1 <1>   0.1160 
  7 C       -0.1360     2.6810    -0.3620 C.3   1 <1>   0.1160 
  8 C        2.8700     0.2420    -0.9340 C.ar  1 <1>  -0.1500 
  9 C        2.5210     0.4850     1.4040 C.ar  1 <1>  -0.1500 
 10 C        4.2310     0.4130    -0.7520 C.ar  1 <1>  -0.1500 
 11 C        3.8810     0.6570     1.5910 C.ar  1 <1>  -0.1500 
 12 C        4.7600     0.6280     0.5140 C.ar  1 <1>   0.1170 
 13 N        6.1450     0.7900     0.6490 N.am  1 <1>  -0.5470 
 14 C        6.8870     1.3820     1.6340 C.2   1 <1>   0.5690 
 15 O        6.4140     1.9190     2.6040 O.2   1 <1>  -0.5700 
 16 C        8.3950     1.3650     1.4780 C.3   1 <1>  -0.0990 
 17 C        8.8780     2.3600     0.4080 C.3   1 <1>  -0.1600 
 18 C       10.4090     2.3880     0.2840 C.3   1 <1>  -0.0800 
 19 C       10.8930     3.4080    -0.7420 C.3   1 <1>  -0.1600 
 20 C       11.0240     1.0760    -0.2040 C.3   1 <1>  -0.1600 
 21 C       12.3150     2.9670    -1.0900 C.3   1 <1>  -0.1600 
 22 C       12.3790     1.4630    -0.8010 C.3   1 <1>  -0.1600 
 23 H       -1.5330     0.3680    -2.3240 H     1 <1>   0.0800 
 24 H       -1.7350     2.1010    -2.3390 H     1 <1>   0.0800 
 25 H       -2.2820     1.1650    -0.9560 H     1 <1>   0.0800 
 26 H        0.8470     2.8200     0.0570 H     1 <1>   0.0800 
 27 H       -0.8600     2.7010     0.4370 H     1 <1>   0.0800 
 28 H       -0.3330     3.4990    -1.0330 H     1 <1>   0.0800 
 29 H        2.4780     0.0800    -1.9250 H     1 <1>   0.1500 
 30 H        1.8650     0.5130     2.2580 H     1 <1>   0.1500 
 31 H        4.8830     0.3830    -1.6060 H     1 <1>   0.1500 
 32 H        4.2570     0.8110     2.5870 H     1 <1>   0.1500 
 33 H        6.6910     0.4520    -0.1410 H     1 <1>   0.3700 
 34 H        8.7040     0.3660     1.2320 H     1 <1>   0.0800 
 35 H        8.8360     1.6190     2.4250 H     1 <1>   0.0800 
 36 H        8.5350     3.3450     0.6760 H     1 <1>   0.0800 
 37 H        8.4440     2.1120    -0.5450 H     1 <1>   0.0800 
 38 H       10.8440     2.6380     1.2380 H     1 <1>   0.0800 
 39 H       10.8670     4.4120    -0.3550 H     1 <1>   0.0800 
 40 H       10.2820     3.3560    -1.6270 H     1 <1>   0.0800 
 41 H       10.4100     0.6510    -0.9800 H     1 <1>   0.0800 
 42 H       11.1330     0.3600     0.5920 H     1 <1>   0.0800 
 43 H       13.0170     3.4830    -0.4580 H     1 <1>   0.0800 
 44 H       12.5480     3.1850    -2.1180 H     1 <1>   0.0800 
 45 H       12.5730     0.9020    -1.6990 H     1 <1>   0.0800 
 46 H       13.1650     1.2650    -0.0930 H     1 <1>   0.0800 
@<TRIPOS>BOND
  1   1   2  2   
  2   1   3  2   
  3   1   4  am  
  4   1   5  1   
  5   4   6  1   
  6   4   7  1   
  7   5   8  ar  
  8   5   9  ar  
  9   6  23  1   
 10   6  24  1   
 11   6  25  1   
 12   7  26  1   
 13   7  27  1   
 14   7  28  1   
 15   8  10  ar  
 16   8  29  1   
 17   9  11  ar  
 18   9  30  1   
 19  10  12  ar  
 20  10  31  1   
 21  11  12  ar  
 22  11  32  1   
 23  12  13  1   
 24  13  14  am  
 25  13  33  1   
 26  14  15  2   
 27  14  16  1   
 28  16  17  1   
 29  16  34  1   
 30  16  35  1   
 31  17  18  1   
 32  17  36  1   
 33  17  37  1   
 34  18  19  1   
 35  18  20  1   
 36  18  38  1   
 37  19  21  1   
 38  19  39  1   
 39  19  40  1   
 40  20  22  1   
 41  20  41  1   
 42  20  42  1   
 43  21  22  1   
 44  21  43  1   
 45  21  44  1   
 46  22  45  1   
 47  22  46  1   
@<TRIPOS>SUBSTRUCTURE
  1 ****  12 GROUP 4 **** **** 0

# MOE 2024.06 (io_trps.svl 2023.06)
