@<TRIPOS>MOLECULE
NONAME
46 48 1 0 0 
SMALL
USER_CHARGES


@<TRIPOS>ATOM
  1 O       -1.5410     0.3990     2.0520 O.co2 1 <1>  -0.9000 
  2 C       -1.9280     0.6480     0.8970 C.2   1 <1>   0.9790 
  3 O       -1.3260     1.5050     0.2270 O.co2 1 <1>  -0.9000 
  4 C       -3.0860    -0.0440     0.3420 C.ar  1 <1>  -0.1790 
  5 C       -3.5410     0.2220    -0.9500 C.ar  1 <1>  -0.1500 
  6 C       -3.7870    -0.9960     1.0810 C.ar  1 <1>  -0.1500 
  7 C       -4.6540    -0.4090    -1.4700 C.ar  1 <1>  -0.1500 
  8 C       -4.9010    -1.6340     0.5710 C.ar  1 <1>  -0.1500 
  9 C       -5.3510    -1.3310    -0.7050 C.ar  1 <1>  -0.1430 
 10 C       -6.6090    -1.9720    -1.2420 C.3   1 <1>   0.4870 
 11 N       -7.7640    -1.3560    -0.5360 N.4   1 <1>  -0.9590 
 12 C       -9.0350    -2.0710    -0.8260 C.3   1 <1>   0.3430 
 13 C       -7.8540     0.1110    -0.8070 C.3   1 <1>   0.3430 
 14 C      -10.1580    -1.4900     0.0300 C.3   1 <1>  -0.1600 
 15 C       -8.9650     0.7260     0.0460 C.3   1 <1>  -0.1600 
 16 C      -10.3150     0.0270    -0.1820 C.3   1 <1>  -0.0800 
 17 C      -11.4040     0.6260     0.7280 C.3   1 <1>  -0.0170 
 18 C      -12.7540    -0.0320     0.4900 C.ar  1 <1>  -0.1430 
 19 C      -13.4860     0.2690    -0.6490 C.ar  1 <1>  -0.1500 
 20 C      -13.2640    -0.9440     1.4020 C.ar  1 <1>  -0.1500 
 21 C      -14.7060    -0.3410    -0.8790 C.ar  1 <1>  -0.1500 
 22 C      -14.4850    -1.5540     1.1740 C.ar  1 <1>  -0.1500 
 23 C      -15.2060    -1.2540     0.0320 C.ar  1 <1>  -0.1500 
 24 H       -2.9980     0.9440    -1.5400 H     1 <1>   0.1500 
 25 H       -3.4350    -1.2260     2.0750 H     1 <1>   0.1500 
 26 H       -4.9610    -0.1640    -2.4720 H     1 <1>   0.1500 
 27 H       -5.4000    -2.3610     1.1870 H     1 <1>   0.1500 
 28 H       -6.5750    -3.0320    -1.0550 H     1 <1>   0.0800 
 29 H       -6.6840    -1.8080    -2.3050 H     1 <1>   0.0800 
 30 H       -7.5570    -1.4440     0.4670 H     1 <1>   0.4500 
 31 H       -8.9280    -3.1230    -0.6100 H     1 <1>   0.0800 
 32 H       -9.2870    -1.9610    -1.8690 H     1 <1>   0.0800 
 33 H       -8.0640     0.2790    -1.8500 H     1 <1>   0.0800 
 34 H       -6.9180     0.5920    -0.5670 H     1 <1>   0.0800 
 35 H       -9.9680    -1.7050     1.0670 H     1 <1>   0.0800 
 36 H      -11.0730    -1.9900    -0.2380 H     1 <1>   0.0800 
 37 H       -9.0530     1.7690    -0.2060 H     1 <1>   0.0800 
 38 H       -8.6830     0.6690     1.0830 H     1 <1>   0.0800 
 39 H      -10.6140     0.1940    -1.2050 H     1 <1>   0.0800 
 40 H      -11.4980     1.6810     0.5360 H     1 <1>   0.0800 
 41 H      -11.1250     0.5140     1.7610 H     1 <1>   0.0800 
 42 H      -13.1120     0.9820    -1.3630 H     1 <1>   0.1500 
 43 H      -12.7170    -1.1850     2.2970 H     1 <1>   0.1500 
 44 H      -15.2700    -0.1030    -1.7640 H     1 <1>   0.1500 
 45 H      -14.8760    -2.2610     1.8850 H     1 <1>   0.1500 
 46 H      -16.1550    -1.7290    -0.1460 H     1 <1>   0.1500 
@<TRIPOS>BOND
  1   1   2  ar  
  2   2   3  ar  
  3   2   4  1   
  4   4   5  ar  
  5   4   6  ar  
  6   5   7  ar  
  7   5  24  1   
  8   6   8  ar  
  9   6  25  1   
 10   7   9  ar  
 11   7  26  1   
 12   8   9  ar  
 13   8  27  1   
 14   9  10  1   
 15  10  11  1   
 16  10  28  1   
 17  10  29  1   
 18  11  12  1   
 19  11  13  1   
 20  11  30  1   
 21  12  14  1   
 22  12  31  1   
 23  12  32  1   
 24  13  15  1   
 25  13  33  1   
 26  13  34  1   
 27  14  16  1   
 28  14  35  1   
 29  14  36  1   
 30  15  16  1   
 31  15  37  1   
 32  15  38  1   
 33  16  17  1   
 34  16  39  1   
 35  17  18  1   
 36  17  40  1   
 37  17  41  1   
 38  18  19  ar  
 39  18  20  ar  
 40  19  21  ar  
 41  19  42  1   
 42  20  22  ar  
 43  20  43  1   
 44  21  23  ar  
 45  21  44  1   
 46  22  23  ar  
 47  22  45  1   
 48  23  46  1   
@<TRIPOS>SUBSTRUCTURE
  1 ****  13 GROUP 4 **** **** 0

# MOE 2024.06 (io_trps.svl 2023.06)
