@<TRIPOS>MOLECULE
NONAME
41 42 1 0 0 
SMALL
USER_CHARGES


@<TRIPOS>ATOM
  1 S        0.0940    -0.0530    -0.9780 S.3   1 <1>  -0.2860 
  2 C        1.5770    -0.1190     0.0340 C.2   1 <1>   0.2420 
  3 C       -0.8890     1.3020    -0.1660 C.3   1 <1>   0.1310 
  4 N        1.7600     0.6210     1.0680 N.2   1 <1>  -0.3380 
  5 N        2.5910    -0.9470    -0.2190 N.pl3 1 <1>   0.0480 
  6 C       -2.2480     1.4770    -0.8260 C.2   1 <1>   0.5690 
  7 N        2.9590     0.2800     1.5480 N.2   1 <1>  -0.3380 
  8 C        3.4380    -0.6430     0.7780 C.2   1 <1>   0.0060 
  9 C        2.7160    -1.9320    -1.3170 C.3   1 <1>   0.0960 
 10 O       -2.8110     2.5380    -0.7480 O.2   1 <1>  -0.5700 
 11 N       -2.8350     0.4580    -1.4850 N.am  1 <1>  -0.8000 
 12 C        4.7960    -1.2930     1.0020 C.3   1 <1>   0.0200 
 13 C        2.1460    -3.2890    -0.8920 C.3   1 <1>  -0.2400 
 14 C        5.9610    -0.4060     0.5240 C.3   1 <1>  -0.0800 
 15 C        5.9030    -0.1280    -0.9910 C.3   1 <1>  -0.1600 
 16 C        7.3080    -1.0500     0.9000 C.3   1 <1>  -0.1600 
 17 C        7.0890     0.7300    -1.4510 C.3   1 <1>  -0.1600 
 18 C        8.4930    -0.1910     0.4380 C.3   1 <1>  -0.1600 
 19 C        8.4260     0.0830    -1.0700 C.3   1 <1>  -0.1600 
 20 H       -0.3120     2.2050    -0.2470 H     1 <1>   0.0800 
 21 H       -1.0070     1.0380     0.8690 H     1 <1>   0.0800 
 22 H        3.7520    -2.0340    -1.5810 H     1 <1>   0.0800 
 23 H        2.1880    -1.5630    -2.1780 H     1 <1>   0.0800 
 24 H       -3.7420     0.5970    -1.9310 H     1 <1>   0.3700 
 25 H       -2.3780    -0.4440    -1.6260 H     1 <1>   0.3700 
 26 H        4.8390    -2.2520     0.5210 H     1 <1>   0.0800 
 27 H        4.9030    -1.4620     2.0600 H     1 <1>   0.0800 
 28 H        2.6760    -3.6700    -0.0370 H     1 <1>   0.0800 
 29 H        2.2470    -3.9930    -1.6980 H     1 <1>   0.0800 
 30 H        1.1020    -3.1960    -0.6510 H     1 <1>   0.0800 
 31 H        5.8860     0.5380     1.0400 H     1 <1>   0.0800 
 32 H        4.9920     0.3910    -1.2350 H     1 <1>   0.0800 
 33 H        5.9180    -1.0590    -1.5310 H     1 <1>   0.0800 
 34 H        7.3840    -2.0230     0.4460 H     1 <1>   0.0800 
 35 H        7.3650    -1.1760     1.9670 H     1 <1>   0.0800 
 36 H        7.0220     1.7030    -0.9930 H     1 <1>   0.0800 
 37 H        7.0460     0.8650    -2.5180 H     1 <1>   0.0800 
 38 H        9.4160    -0.6920     0.6720 H     1 <1>   0.0800 
 39 H        8.4820     0.7460     0.9690 H     1 <1>   0.0800 
 40 H        9.2350     0.7320    -1.3550 H     1 <1>   0.0800 
 41 H        8.5410    -0.8440    -1.6060 H     1 <1>   0.0800 
@<TRIPOS>BOND
  1   1   2  1   
  2   1   3  1   
  3   2   4  2   
  4   2   5  1   
  5   3   6  1   
  6   3  20  1   
  7   3  21  1   
  8   4   7  1   
  9   5   8  1   
 10   5   9  1   
 11   6  10  2   
 12   6  11  am  
 13   7   8  2   
 14   8  12  1   
 15   9  13  1   
 16   9  22  1   
 17   9  23  1   
 18  11  24  1   
 19  11  25  1   
 20  12  14  1   
 21  12  26  1   
 22  12  27  1   
 23  13  28  1   
 24  13  29  1   
 25  13  30  1   
 26  14  15  1   
 27  14  16  1   
 28  14  31  1   
 29  15  17  1   
 30  15  32  1   
 31  15  33  1   
 32  16  18  1   
 33  16  34  1   
 34  16  35  1   
 35  17  19  1   
 36  17  36  1   
 37  17  37  1   
 38  18  19  1   
 39  18  38  1   
 40  18  39  1   
 41  19  40  1   
 42  19  41  1   
@<TRIPOS>SUBSTRUCTURE
  1 ****   5 GROUP 4 **** **** 0

# MOE 2024.06 (io_trps.svl 2023.06)
