@<TRIPOS>MOLECULE
NONAME
53 55 1 0 0 
SMALL
USER_CHARGES


@<TRIPOS>ATOM
  1 O        0.3150     0.6760    -1.6510 O.2   1 <1>  -0.5700 
  2 C        0.3160     1.8090    -1.2090 C.2   1 <1>   0.5440 
  3 N       -0.8210     2.2840    -0.5890 N.am  1 <1>  -0.6600 
  4 C        1.5180     2.6130    -1.3310 C.ar  1 <1>   0.0860 
  5 C       -2.1270     1.5600    -0.6600 C.3   1 <1>   0.1400 
  6 C       -0.8260     3.4050     0.4000 C.3   1 <1>   0.1400 
  7 C        2.7590     2.0890    -0.9820 C.ar  1 <1>  -0.1500 
  8 C        1.4780     3.9250    -1.8040 C.ar  1 <1>  -0.1500 
  9 C       -2.6240     1.2000     0.7490 C.3   1 <1>   0.1200 
 10 C       -1.4070     2.9390     1.7460 C.3   1 <1>   0.1200 
 11 C        3.9270     2.8320    -1.0700 C.ar  1 <1>   0.1170 
 12 C        2.6300     4.6840    -1.9010 C.ar  1 <1>  -0.1500 
 13 O       -2.6570     2.3370     1.5660 O.3   1 <1>  -0.5600 
 14 N        5.1410     2.2290    -0.7120 N.am  1 <1>  -0.5470 
 15 C        3.8460     4.1400    -1.5340 C.ar  1 <1>  -0.1500 
 16 C        6.3110     2.7770    -0.2390 C.2   1 <1>   0.5440 
 17 O        6.3480     3.9480     0.0810 O.2   1 <1>  -0.5700 
 18 C        7.4830     1.9330    -0.0910 C.ar  1 <1>   0.0860 
 19 C        8.4080     2.1600     0.9240 C.ar  1 <1>  -0.1500 
 20 C        7.7370     0.8610    -0.9450 C.ar  1 <1>  -0.1500 
 21 C        9.5160     1.3500     1.0890 C.ar  1 <1>  -0.1500 
 22 C        8.8440     0.0490    -0.7810 C.ar  1 <1>  -0.1500 
 23 C        9.7590     0.2740     0.2430 C.ar  1 <1>  -0.1430 
 24 C       11.0090    -0.6050     0.4690 C.3   1 <1>   0.1430 
 25 C       11.1320    -1.7560    -0.5440 C.3   1 <1>  -0.2400 
 26 C       10.9530    -1.2270     1.8720 C.3   1 <1>  -0.2400 
 27 C       12.2730     0.2590     0.3450 C.3   1 <1>  -0.2400 
 28 H       -2.0360     0.6620    -1.2450 H     1 <1>   0.0800 
 29 H       -2.8540     2.1910    -1.1390 H     1 <1>   0.0800 
 30 H       -1.4250     4.2130     0.0170 H     1 <1>   0.0800 
 31 H        0.1700     3.7750     0.5650 H     1 <1>   0.0800 
 32 H        2.8000     1.0730    -0.6320 H     1 <1>   0.1500 
 33 H        0.5330     4.3470    -2.1000 H     1 <1>   0.1500 
 34 H       -1.9780     0.4660     1.2000 H     1 <1>   0.0800 
 35 H       -3.6210     0.8010     0.7000 H     1 <1>   0.0800 
 36 H       -1.5390     3.7790     2.4040 H     1 <1>   0.0800 
 37 H       -0.7480     2.2300     2.2170 H     1 <1>   0.0800 
 38 H        2.5840     5.6960    -2.2640 H     1 <1>   0.1500 
 39 H        5.1350     1.2110    -0.7360 H     1 <1>   0.3700 
 40 H        4.7380     4.7350    -1.6150 H     1 <1>   0.1500 
 41 H        8.2510     2.9890     1.5940 H     1 <1>   0.1500 
 42 H        7.0650     0.6590    -1.7610 H     1 <1>   0.1500 
 43 H       10.1950     1.5730     1.8920 H     1 <1>   0.1500 
 44 H        8.9750    -0.7600    -1.4770 H     1 <1>   0.1500 
 45 H       11.2080    -1.3710    -1.5460 H     1 <1>   0.0800 
 46 H       10.2800    -2.4080    -0.4810 H     1 <1>   0.0800 
 47 H       12.0130    -2.3400    -0.3470 H     1 <1>   0.0800 
 48 H       10.0540    -1.8070     1.9820 H     1 <1>   0.0800 
 49 H       10.9610    -0.4700     2.6340 H     1 <1>   0.0800 
 50 H       11.7980    -1.8720     2.0360 H     1 <1>   0.0800 
 51 H       12.3040     0.7270    -0.6230 H     1 <1>   0.0800 
 52 H       13.1570    -0.3410     0.4640 H     1 <1>   0.0800 
 53 H       12.2910     1.0310     1.0920 H     1 <1>   0.0800 
@<TRIPOS>BOND
  1   1   2  2   
  2   2   3  am  
  3   2   4  1   
  4   3   5  1   
  5   3   6  1   
  6   4   7  ar  
  7   4   8  ar  
  8   5   9  1   
  9   5  28  1   
 10   5  29  1   
 11   6  10  1   
 12   6  30  1   
 13   6  31  1   
 14   7  11  ar  
 15   7  32  1   
 16   8  12  ar  
 17   8  33  1   
 18   9  13  1   
 19   9  34  1   
 20   9  35  1   
 21  10  13  1   
 22  10  36  1   
 23  10  37  1   
 24  11  14  1   
 25  11  15  ar  
 26  12  15  ar  
 27  12  38  1   
 28  14  16  am  
 29  14  39  1   
 30  15  40  1   
 31  16  17  2   
 32  16  18  1   
 33  18  19  ar  
 34  18  20  ar  
 35  19  21  ar  
 36  19  41  1   
 37  20  22  ar  
 38  20  42  1   
 39  21  23  ar  
 40  21  43  1   
 41  22  23  ar  
 42  22  44  1   
 43  23  24  1   
 44  24  25  1   
 45  24  26  1   
 46  24  27  1   
 47  25  45  1   
 48  25  46  1   
 49  25  47  1   
 50  26  48  1   
 51  26  49  1   
 52  26  50  1   
 53  27  51  1   
 54  27  52  1   
 55  27  53  1   
@<TRIPOS>SUBSTRUCTURE
  1 ****  14 GROUP 4 **** **** 0

# MOE 2024.06 (io_trps.svl 2023.06)
