@<TRIPOS>MOLECULE
NONAME
53 57 1 0 0 
SMALL
USER_CHARGES


@<TRIPOS>ATOM
  1 S        0.2030     0.1300     2.0060 S.3   1 <1>  -0.2860 
  2 C       -1.4820     0.3970     1.4440 C.2   1 <1>   0.2420 
  3 C        0.6070     1.6790     2.9500 C.3   1 <1>   0.1310 
  4 N       -2.1700     1.4520     1.7050 N.2   1 <1>  -0.3380 
  5 N       -2.1310    -0.4900     0.6990 N.pl3 1 <1>   0.0480 
  6 C        2.0640     2.0600     2.7370 C.2   1 <1>   0.5690 
  7 N       -3.3450     1.2740     1.1030 N.2   1 <1>  -0.3380 
  8 C       -3.3170     0.1180     0.4970 C.2   1 <1>   0.1330 
  9 C       -1.6690    -1.8220     0.2540 C.3   1 <1>   0.0160 
 10 O        2.8850     1.5770     3.4760 O.2   1 <1>  -0.5700 
 11 N        2.4940     2.9260     1.7830 N.am  1 <1>  -0.7300 
 12 C       -4.4000    -0.4440    -0.2710 C.ar  1 <1>   0.0530 
 13 C        1.8270     3.7600     0.7660 C.3   1 <1>   0.3000 
 14 C       -4.2240    -0.8630    -1.5900 C.ar  1 <1>  -0.1500 
 15 C       -5.6670    -0.5840     0.2900 C.ar  1 <1>  -0.1500 
 16 C        2.9430     4.4030    -0.0810 C.3   1 <1>  -0.1600 
 17 C        1.0090     4.8840     1.4300 C.3   1 <1>  -0.1600 
 18 C        0.9270     2.9270    -0.1670 C.3   1 <1>  -0.1600 
 19 C       -5.2650    -1.4210    -2.3100 C.ar  1 <1>  -0.1500 
 20 C       -6.7120    -1.1400    -0.4240 C.ar  1 <1>  -0.1500 
 21 C        2.3410     5.3150    -1.1690 C.3   1 <1>  -0.0800 
 22 C        0.3820     5.7880     0.3500 C.3   1 <1>  -0.0800 
 23 C        0.3060     3.8290    -1.2500 C.3   1 <1>  -0.0800 
 24 C       -6.5120    -1.5630    -1.7260 C.ar  1 <1>  -0.1500 
 25 C        1.5050     6.4190    -0.4950 C.3   1 <1>  -0.1600 
 26 C        1.4290     4.4740    -2.0810 C.3   1 <1>  -0.1600 
 27 C       -0.5210     4.9350    -0.5640 C.3   1 <1>  -0.1600 
 28 H        0.4260     1.4660     3.9870 H     1 <1>   0.0800 
 29 H       -0.0530     2.4550     2.6260 H     1 <1>   0.0800 
 30 H       -1.0490    -2.2620     1.0150 H     1 <1>   0.0800 
 31 H       -1.1010    -1.7160    -0.6520 H     1 <1>   0.0800 
 32 H       -2.5150    -2.4610     0.0800 H     1 <1>   0.0800 
 33 H        3.5060     3.0550     1.7910 H     1 <1>   0.3700 
 34 H       -3.2640    -0.7430    -2.0580 H     1 <1>   0.1500 
 35 H       -5.8270    -0.2490     1.3010 H     1 <1>   0.1500 
 36 H        3.5320     3.6350    -0.5500 H     1 <1>   0.0800 
 37 H        3.5900     4.9880     0.5490 H     1 <1>   0.0800 
 38 H        1.6460     5.4730     2.0660 H     1 <1>   0.0800 
 39 H        0.2200     4.4770     2.0320 H     1 <1>   0.0800 
 40 H        0.1240     2.4830     0.3840 H     1 <1>   0.0800 
 41 H        1.4990     2.1420    -0.6270 H     1 <1>   0.0800 
 42 H       -5.1100    -1.7400    -3.3260 H     1 <1>   0.1500 
 43 H       -7.6820    -1.2420     0.0320 H     1 <1>   0.1500 
 44 H        3.1300     5.7590    -1.7520 H     1 <1>   0.0800 
 45 H       -0.2020     6.5630     0.8170 H     1 <1>   0.0800 
 46 H       -0.3330     3.2430    -1.8890 H     1 <1>   0.0800 
 47 H       -7.3240    -1.9960    -2.2840 H     1 <1>   0.1500 
 48 H        1.0770     7.0610    -1.2460 H     1 <1>   0.0800 
 49 H        2.1360     7.0260     0.1310 H     1 <1>   0.0800 
 50 H        2.0070     3.7090    -2.5700 H     1 <1>   0.0800 
 51 H        1.0030     5.1000    -2.8460 H     1 <1>   0.0800 
 52 H       -1.3130     4.4910     0.0140 H     1 <1>   0.0800 
 53 H       -0.9770     5.5620    -1.3110 H     1 <1>   0.0800 
@<TRIPOS>BOND
  1   1   2  1   
  2   1   3  1   
  3   2   4  2   
  4   2   5  1   
  5   3   6  1   
  6   3  28  1   
  7   3  29  1   
  8   4   7  1   
  9   5   8  1   
 10   5   9  1   
 11   6  10  2   
 12   6  11  am  
 13   7   8  2   
 14   8  12  1   
 15   9  30  1   
 16   9  31  1   
 17   9  32  1   
 18  11  13  1   
 19  11  33  1   
 20  12  14  ar  
 21  12  15  ar  
 22  13  16  1   
 23  13  17  1   
 24  13  18  1   
 25  14  19  ar  
 26  14  34  1   
 27  15  20  ar  
 28  15  35  1   
 29  16  21  1   
 30  16  36  1   
 31  16  37  1   
 32  17  22  1   
 33  17  38  1   
 34  17  39  1   
 35  18  23  1   
 36  18  40  1   
 37  18  41  1   
 38  19  24  ar  
 39  19  42  1   
 40  20  24  ar  
 41  20  43  1   
 42  21  25  1   
 43  21  26  1   
 44  21  44  1   
 45  22  25  1   
 46  22  27  1   
 47  22  45  1   
 48  23  26  1   
 49  23  27  1   
 50  23  46  1   
 51  24  47  1   
 52  25  48  1   
 53  25  49  1   
 54  26  50  1   
 55  26  51  1   
 56  27  52  1   
 57  27  53  1   
@<TRIPOS>SUBSTRUCTURE
  1 ****   4 GROUP 4 **** **** 0

# MOE 2024.06 (io_trps.svl 2023.06)
