@<TRIPOS>MOLECULE
NONAME
39 39 1 0 0 
SMALL
USER_CHARGES


@<TRIPOS>ATOM
  1 O       -0.1710     0.3730     0.3450 O.2   1 <1>  -0.5700 
  2 C       -0.9470     1.1700    -0.1430 C.2   1 <1>   0.6900 
  3 N       -2.2830     0.9270    -0.2420 N.am  1 <1>  -0.5470 
  4 N       -0.5030     2.3650    -0.6050 N.am  1 <1>  -0.7300 
  5 C       -3.0570    -0.2070     0.0440 C.ar  1 <1>   0.1170 
  6 C        0.9020     2.8150    -0.5460 C.3   1 <1>   0.1400 
  7 C       -4.4140    -0.0800     0.3770 C.ar  1 <1>  -0.1430 
  8 C       -2.4960    -1.4800    -0.0230 C.ar  1 <1>  -0.1500 
  9 C        0.9340     4.3190    -0.2730 C.3   1 <1>  -0.1600 
 10 C       -5.1520    -1.2280     0.6370 C.ar  1 <1>  -0.1500 
 11 C       -5.1560     1.2640     0.4780 C.3   1 <1>   0.0630 
 12 C       -3.2440    -2.6100     0.2390 C.ar  1 <1>  -0.1500 
 13 C        2.3740     4.8400    -0.2030 C.3   1 <1>  -0.2400 
 14 C       -4.5780    -2.4840     0.5710 C.ar  1 <1>  -0.1500 
 15 C       -5.3060     1.9300    -0.9050 C.3   1 <1>  -0.1600 
 16 C       -4.5420     2.1870     1.5430 C.3   1 <1>  -0.2400 
 17 C       -6.2220     3.1610    -0.8930 C.3   1 <1>  -0.2400 
 18 H       -2.8340     1.7670    -0.3660 H     1 <1>   0.3700 
 19 H       -1.1140     2.9160    -1.2030 H     1 <1>   0.3700 
 20 H        1.3850     2.5930    -1.4830 H     1 <1>   0.0800 
 21 H        1.4220     2.2880     0.2380 H     1 <1>   0.0800 
 22 H       -1.4610    -1.5940    -0.2870 H     1 <1>   0.1500 
 23 H        0.4430     4.5180     0.6640 H     1 <1>   0.0800 
 24 H        0.4110     4.8390    -1.0560 H     1 <1>   0.0800 
 25 H       -6.1940    -1.1600     0.8960 H     1 <1>   0.1500 
 26 H       -6.1550     1.0520     0.8200 H     1 <1>   0.0800 
 27 H       -2.7870    -3.5830     0.1850 H     1 <1>   0.1500 
 28 H        2.9130     4.3470     0.5870 H     1 <1>   0.0800 
 29 H        2.3730     5.8980    -0.0060 H     1 <1>   0.0800 
 30 H        2.8850     4.6660    -1.1330 H     1 <1>   0.0800 
 31 H       -5.1670    -3.3600     0.7770 H     1 <1>   0.1500 
 32 H       -5.7230     1.2030    -1.5820 H     1 <1>   0.0800 
 33 H       -4.3490     2.2160    -1.2980 H     1 <1>   0.0800 
 34 H       -3.6240     2.6340     1.2110 H     1 <1>   0.0800 
 35 H       -4.3420     1.6240     2.4370 H     1 <1>   0.0800 
 36 H       -5.2280     2.9750     1.7950 H     1 <1>   0.0800 
 37 H       -7.1890     2.9080    -0.4940 H     1 <1>   0.0800 
 38 H       -6.3550     3.5270    -1.8960 H     1 <1>   0.0800 
 39 H       -5.7980     3.9530    -0.3020 H     1 <1>   0.0800 
@<TRIPOS>BOND
  1   1   2  2   
  2   2   3  am  
  3   2   4  am  
  4   3   5  1   
  5   3  18  1   
  6   4   6  1   
  7   4  19  1   
  8   5   7  ar  
  9   5   8  ar  
 10   6   9  1   
 11   6  20  1   
 12   6  21  1   
 13   7  10  ar  
 14   7  11  1   
 15   8  12  ar  
 16   8  22  1   
 17   9  13  1   
 18   9  23  1   
 19   9  24  1   
 20  10  14  ar  
 21  10  25  1   
 22  11  15  1   
 23  11  16  1   
 24  11  26  1   
 25  12  14  ar  
 26  12  27  1   
 27  13  28  1   
 28  13  29  1   
 29  13  30  1   
 30  14  31  1   
 31  15  17  1   
 32  15  32  1   
 33  15  33  1   
 34  16  34  1   
 35  16  35  1   
 36  16  36  1   
 37  17  37  1   
 38  17  38  1   
 39  17  39  1   
@<TRIPOS>SUBSTRUCTURE
  1 ****   3 GROUP 4 **** **** 0

# MOE 2024.06 (io_trps.svl 2023.06)
