@<TRIPOS>MOLECULE
NONAME
38 38 1 0 0 
SMALL
USER_CHARGES


@<TRIPOS>ATOM
  1 O       -0.3290    -0.0570     0.7450 O.2   1 <1>  -0.5700 
  2 C       -0.3460     0.9530     0.0710 C.2   1 <1>   0.6900 
  3 N       -1.4700     1.7120    -0.0660 N.am  1 <1>  -0.5470 
  4 N        0.7640     1.3820    -0.5720 N.am  1 <1>  -0.7300 
  5 C       -2.7880     1.5060     0.3710 C.ar  1 <1>   0.1170 
  6 C        2.0920     0.7640    -0.5970 C.3   1 <1>   0.5000 
  7 C       -3.6200     2.6050     0.6060 C.ar  1 <1>  -0.1430 
  8 C       -3.3040     0.2270     0.5560 C.ar  1 <1>  -0.1500 
  9 C        2.8540     1.6300    -1.5490 C.1   1 <1>  -0.2000 
 10 C        1.9720    -0.6900    -1.1280 C.3   1 <1>  -0.1600 
 11 C        2.7030     0.8790     0.8210 C.3   1 <1>  -0.1600 
 12 C       -4.9290     2.4050     1.0160 C.ar  1 <1>  -0.1500 
 13 C       -3.1160     4.0320     0.4280 C.3   1 <1>  -0.0970 
 14 C       -4.6090     0.0350     0.9670 C.ar  1 <1>  -0.1500 
 15 C        3.4560     2.3280    -2.3040 C.1   1 <1>  -0.1770 
 16 C        3.1870    -1.2790    -1.8750 C.3   1 <1>  -0.2400 
 17 C        4.1450     0.3690     0.9960 C.3   1 <1>  -0.2400 
 18 C       -5.4250     1.1270     1.1970 C.ar  1 <1>  -0.1500 
 19 H       -1.2970     2.6340    -0.4450 H     1 <1>   0.3700 
 20 H        0.6910     2.1320    -1.2510 H     1 <1>   0.3700 
 21 H       -2.6830    -0.6310     0.3750 H     1 <1>   0.1500 
 22 H        1.1390    -0.7360    -1.8080 H     1 <1>   0.0800 
 23 H        1.7360    -1.3340    -0.3000 H     1 <1>   0.0800 
 24 H        2.0820     0.3410     1.5140 H     1 <1>   0.0800 
 25 H        2.6830     1.9150     1.1090 H     1 <1>   0.0800 
 26 H       -5.5760     3.2450     1.2010 H     1 <1>   0.1500 
 27 H       -2.2380     4.1910     1.0280 H     1 <1>   0.0800 
 28 H       -3.8620     4.7440     0.7330 H     1 <1>   0.0800 
 29 H       -2.8800     4.2140    -0.6050 H     1 <1>   0.0800 
 30 H       -4.9880    -0.9620     1.1060 H     1 <1>   0.1500 
 31 H        4.0080     2.9520    -2.9850 H     1 <1>   0.1770 
 32 H        3.3600    -0.7520    -2.7970 H     1 <1>   0.0800 
 33 H        2.9970    -2.3110    -2.1140 H     1 <1>   0.0800 
 34 H        4.0800    -1.2320    -1.2820 H     1 <1>   0.0800 
 35 H        4.1810    -0.7010     0.9000 H     1 <1>   0.0800 
 36 H        4.5000     0.6230     1.9790 H     1 <1>   0.0800 
 37 H        4.8050     0.8130     0.2720 H     1 <1>   0.0800 
 38 H       -6.4420     0.9820     1.5170 H     1 <1>   0.1500 
@<TRIPOS>BOND
  1   1   2  2   
  2   2   3  am  
  3   2   4  am  
  4   3   5  1   
  5   3  19  1   
  6   4   6  1   
  7   4  20  1   
  8   5   7  ar  
  9   5   8  ar  
 10   6   9  1   
 11   6  10  1   
 12   6  11  1   
 13   7  12  ar  
 14   7  13  1   
 15   8  14  ar  
 16   8  21  1   
 17   9  15  3   
 18  10  16  1   
 19  10  22  1   
 20  10  23  1   
 21  11  17  1   
 22  11  24  1   
 23  11  25  1   
 24  12  18  ar  
 25  12  26  1   
 26  13  27  1   
 27  13  28  1   
 28  13  29  1   
 29  14  18  ar  
 30  14  30  1   
 31  15  31  1   
 32  16  32  1   
 33  16  33  1   
 34  16  34  1   
 35  17  35  1   
 36  17  36  1   
 37  17  37  1   
 38  18  38  1   
@<TRIPOS>SUBSTRUCTURE
  1 ****   2 GROUP 4 **** **** 0

# MOE 2024.06 (io_trps.svl 2023.06)
