@<TRIPOS>MOLECULE
NONAME
39 41 1 0 0 
SMALL
USER_CHARGES


@<TRIPOS>ATOM
  1 BR       1.7700    -0.4630    -1.6910 Br    1 <1>  -0.1110 
  2 C        0.6590    -1.8920    -1.0370 C.ar  1 <1>   0.1110 
  3 C       -0.5380    -2.1450    -1.6770 C.ar  1 <1>  -0.1500 
  4 C        1.0870    -2.6240     0.0520 C.ar  1 <1>  -0.1500 
  5 C       -1.3440    -3.1710    -1.2060 C.ar  1 <1>  -0.1440 
  6 C        0.2820    -3.6480     0.5200 C.ar  1 <1>  -0.1500 
  7 C       -0.9340    -3.9260    -0.1050 C.ar  1 <1>   0.0830 
  8 C       -2.6650    -3.4710    -1.8890 C.3   1 <1>   0.4870 
  9 O       -1.7700    -4.9140     0.3180 O.3   1 <1>  -0.3630 
 10 N       -3.7550    -3.2990    -0.9010 N.4   1 <1>  -0.9590 
 11 C       -1.3700    -5.8380     1.3120 C.3   1 <1>   0.0400 
 12 C       -5.0520    -3.8490    -1.3700 C.3   1 <1>   0.4860 
 13 C       -3.9010    -1.9000    -0.4110 C.3   1 <1>   0.3430 
 14 C       -6.1120    -3.6980    -0.2910 C.ar  1 <1>  -0.1430 
 15 C       -4.7530    -1.8860     0.8600 C.3   1 <1>  -0.0170 
 16 C       -5.9830    -2.7750     0.7430 C.ar  1 <1>  -0.1430 
 17 C       -7.2430    -4.5000    -0.3520 C.ar  1 <1>  -0.1500 
 18 C       -6.9820    -2.6660     1.6970 C.ar  1 <1>  -0.1500 
 19 C       -8.2360    -4.3860     0.6040 C.ar  1 <1>  -0.1500 
 20 C       -8.1050    -3.4690     1.6290 C.ar  1 <1>  -0.1500 
 21 H       -0.8140    -1.5420    -2.5260 H     1 <1>   0.1500 
 22 H        2.0290    -2.3950     0.5210 H     1 <1>   0.1500 
 23 H        0.6230    -4.2120     1.3690 H     1 <1>   0.1500 
 24 H       -2.6470    -4.4890    -2.2430 H     1 <1>   0.0800 
 25 H       -2.8100    -2.8130    -2.7290 H     1 <1>   0.0800 
 26 H       -3.4620    -3.8730    -0.0920 H     1 <1>   0.4500 
 27 H       -2.1530    -6.5650     1.4330 H     1 <1>   0.0800 
 28 H       -1.2140    -5.3150     2.2390 H     1 <1>   0.0800 
 29 H       -0.4670    -6.3290     0.9930 H     1 <1>   0.0800 
 30 H       -4.9400    -4.8930    -1.6120 H     1 <1>   0.0800 
 31 H       -5.3760    -3.3250    -2.2540 H     1 <1>   0.0800 
 32 H       -4.3770    -1.2980    -1.1680 H     1 <1>   0.0800 
 33 H       -2.9350    -1.4730    -0.1920 H     1 <1>   0.0800 
 34 H       -5.0530    -0.8730     1.0660 H     1 <1>   0.0800 
 35 H       -4.1550    -2.2220     1.6880 H     1 <1>   0.0800 
 36 H       -7.3690    -5.2220    -1.1410 H     1 <1>   0.1500 
 37 H       -6.8940    -1.9580     2.5040 H     1 <1>   0.1500 
 38 H       -9.1120    -5.0110     0.5530 H     1 <1>   0.1500 
 39 H       -8.8790    -3.3790     2.3730 H     1 <1>   0.1500 
@<TRIPOS>BOND
  1   1   2  1   
  2   2   3  ar  
  3   2   4  ar  
  4   3   5  ar  
  5   3  21  1   
  6   4   6  ar  
  7   4  22  1   
  8   5   7  ar  
  9   5   8  1   
 10   6   7  ar  
 11   6  23  1   
 12   7   9  1   
 13   8  10  1   
 14   8  24  1   
 15   8  25  1   
 16   9  11  1   
 17  10  12  1   
 18  10  13  1   
 19  10  26  1   
 20  11  27  1   
 21  11  28  1   
 22  11  29  1   
 23  12  14  1   
 24  12  30  1   
 25  12  31  1   
 26  13  15  1   
 27  13  32  1   
 28  13  33  1   
 29  14  16  ar  
 30  14  17  ar  
 31  15  16  1   
 32  15  34  1   
 33  15  35  1   
 34  16  18  ar  
 35  17  19  ar  
 36  17  36  1   
 37  18  20  ar  
 38  18  37  1   
 39  19  20  ar  
 40  19  38  1   
 41  20  39  1   
@<TRIPOS>SUBSTRUCTURE
  1 ****  10 GROUP 4 **** **** 0

# MOE 2024.06 (io_trps.svl 2023.06)
