@<TRIPOS>MOLECULE
NONAME
30 31 1 0 0 
SMALL
USER_CHARGES


@<TRIPOS>ATOM
  1 O       -1.1810     0.9680    -1.1930 O.3   1 <1>  -0.2800 
  2 C       -1.4450     0.9290     0.1000 C.2   1 <1>  -0.0400 
  3 C       -0.1010     1.7040    -1.3590 C.2   1 <1>  -0.0100 
  4 C       -0.5290     1.6470     0.7880 C.2   1 <1>  -0.1500 
  5 C       -2.6500     0.1410     0.5930 C.3   1 <1>   0.2900 
  6 C        0.3530     2.1570    -0.1720 C.2   1 <1>  -0.1500 
  7 N       -3.9160     0.6420     0.0100 N.3   1 <1>  -0.8100 
  8 C       -4.1420     2.0800     0.2650 C.3   1 <1>   0.1100 
  9 C       -5.0730    -0.1800     0.4020 C.3   1 <1>   0.1100 
 10 C       -5.4140     2.5740    -0.4510 C.3   1 <1>   0.3430 
 11 C       -6.3550     0.2950    -0.3130 C.3   1 <1>   0.3430 
 12 N       -6.6220     1.7570    -0.0750 N.4   1 <1>  -0.9590 
 13 C       -7.8310     2.2140    -0.8210 C.3   1 <1>   0.2630 
 14 H        0.2770     1.8530    -2.3560 H     1 <1>   0.1500 
 15 H       -0.4540     1.8150     1.8480 H     1 <1>   0.1500 
 16 H       -2.6940     0.1950     1.6680 H     1 <1>   0.0800 
 17 H       -2.5120    -0.8890     0.3120 H     1 <1>   0.0800 
 18 H        1.2090     2.7770     0.0290 H     1 <1>   0.1500 
 19 H       -3.3090     2.6490    -0.1120 H     1 <1>   0.0800 
 20 H       -4.2170     2.2630     1.3230 H     1 <1>   0.0800 
 21 H       -5.2130    -0.1400     1.4690 H     1 <1>   0.0800 
 22 H       -4.8870    -1.2050     0.1290 H     1 <1>   0.0800 
 23 H       -5.2460     2.5060    -1.5140 H     1 <1>   0.0800 
 24 H       -5.5770     3.6100    -0.2060 H     1 <1>   0.0800 
 25 H       -7.1900    -0.2930     0.0300 H     1 <1>   0.0800 
 26 H       -6.2340     0.1170    -1.3690 H     1 <1>   0.0800 
 27 H       -6.7750     1.8840     0.9340 H     1 <1>   0.4500 
 28 H       -7.6840     2.0900    -1.8820 H     1 <1>   0.0800 
 29 H       -8.0250     3.2550    -0.6200 H     1 <1>   0.0800 
 30 H       -8.6940     1.6410    -0.5230 H     1 <1>   0.0800 
@<TRIPOS>BOND
  1   1   2  1   
  2   1   3  1   
  3   2   4  2   
  4   2   5  1   
  5   3   6  2   
  6   3  14  1   
  7   4   6  1   
  8   4  15  1   
  9   5   7  1   
 10   5  16  1   
 11   5  17  1   
 12   6  18  1   
 13   7   8  1   
 14   7   9  1   
 15   8  10  1   
 16   8  19  1   
 17   8  20  1   
 18   9  11  1   
 19   9  21  1   
 20   9  22  1   
 21  10  12  1   
 22  10  23  1   
 23  10  24  1   
 24  11  12  1   
 25  11  25  1   
 26  11  26  1   
 27  12  13  1   
 28  12  27  1   
 29  13  28  1   
 30  13  29  1   
 31  13  30  1   
@<TRIPOS>SUBSTRUCTURE
  1 ****   7 GROUP 4 **** **** 0

# MOE 2024.06 (io_trps.svl 2023.06)
