@<TRIPOS>MOLECULE
NONAME
39 40 1 0 0 
SMALL
USER_CHARGES


@<TRIPOS>ATOM
  1 F        1.2020     0.1920     1.7380 F     1 <1>  -0.3400 
  2 C        1.6700     1.4270     1.5940 C.3   1 <1>   1.1640 
  3 F        0.6130     2.2250     1.5490 F     1 <1>  -0.3400 
  4 F        2.3110     1.7130     2.7210 F     1 <1>  -0.3400 
  5 C        2.5670     1.5860     0.3540 C.ar  1 <1>  -0.1440 
  6 C        3.5200     2.5980     0.2990 C.ar  1 <1>  -0.1500 
  7 C        2.4430     0.7350    -0.7380 C.ar  1 <1>  -0.1500 
  8 C        4.3570     2.7770    -0.8020 C.ar  1 <1>   0.0860 
  9 C        3.2500     0.8960    -1.8490 C.ar  1 <1>  -0.1500 
 10 C        5.3590     3.8310    -0.8160 C.2   1 <1>   0.5440 
 11 C        4.1920     1.9060    -1.8790 C.ar  1 <1>  -0.1500 
 12 O        5.2240     4.8310    -0.1380 O.2   1 <1>  -0.5700 
 13 N        6.5280     3.7150    -1.5320 N.am  1 <1>  -0.6600 
 14 C        7.2420     4.9600    -1.9410 C.3   1 <1>   0.1400 
 15 C        7.4490     2.5830    -1.2300 C.3   1 <1>   0.1400 
 16 C        8.2100     5.3920    -0.8250 C.3   1 <1>   0.3430 
 17 C        8.4520     3.0020    -0.1320 C.3   1 <1>   0.3430 
 18 N        9.1720     4.2890    -0.4610 N.4   1 <1>  -0.9590 
 19 C       10.0430     4.7040     0.6610 C.3   1 <1>   0.4810 
 20 C       11.1370     3.6690     0.8010 C.2   1 <1>  -0.2880 
 21 C       11.2820     2.8290     1.8330 C.2   1 <1>  -0.3000 
 22 H        3.6230     3.2770     1.1310 H     1 <1>   0.1500 
 23 H        1.7120    -0.0590    -0.7360 H     1 <1>   0.1500 
 24 H        3.1390     0.2350    -2.6920 H     1 <1>   0.1500 
 25 H        4.8050     2.0250    -2.7560 H     1 <1>   0.1500 
 26 H        6.5260     5.7460    -2.1170 H     1 <1>   0.0800 
 27 H        7.7760     4.7900    -2.8600 H     1 <1>   0.0800 
 28 H        7.9760     2.2970    -2.1250 H     1 <1>   0.0800 
 29 H        6.8890     1.7280    -0.8910 H     1 <1>   0.0800 
 30 H        7.6200     5.6620     0.0380 H     1 <1>   0.0800 
 31 H        8.7510     6.2670    -1.1440 H     1 <1>   0.0800 
 32 H        9.1670     2.2080     0.0150 H     1 <1>   0.0800 
 33 H        7.9060     3.1240     0.7890 H     1 <1>   0.0800 
 34 H        9.7800     4.1090    -1.2670 H     1 <1>   0.4500 
 35 H        9.4700     4.7640     1.5730 H     1 <1>   0.0800 
 36 H       10.4820     5.6700     0.4660 H     1 <1>   0.0800 
 37 H       11.8230     3.6710    -0.0300 H     1 <1>   0.1500 
 38 H       12.0780     2.1050     1.9080 H     1 <1>   0.1500 
 39 H       10.6350     2.7870     2.6950 H     1 <1>   0.1500 
@<TRIPOS>BOND
  1   1   2  1   
  2   2   3  1   
  3   2   4  1   
  4   2   5  1   
  5   5   6  ar  
  6   5   7  ar  
  7   6   8  ar  
  8   6  22  1   
  9   7   9  ar  
 10   7  23  1   
 11   8  10  1   
 12   8  11  ar  
 13   9  11  ar  
 14   9  24  1   
 15  10  12  2   
 16  10  13  am  
 17  11  25  1   
 18  13  14  1   
 19  13  15  1   
 20  14  16  1   
 21  14  26  1   
 22  14  27  1   
 23  15  17  1   
 24  15  28  1   
 25  15  29  1   
 26  16  18  1   
 27  16  30  1   
 28  16  31  1   
 29  17  18  1   
 30  17  32  1   
 31  17  33  1   
 32  18  19  1   
 33  18  34  1   
 34  19  20  1   
 35  19  35  1   
 36  19  36  1   
 37  20  21  2   
 38  20  37  1   
 39  21  38  1   
 40  21  39  1   
@<TRIPOS>SUBSTRUCTURE
  1 ****  10 GROUP 4 **** **** 0

# MOE 2024.06 (io_trps.svl 2023.06)
