@<TRIPOS>MOLECULE
NONAME
41 42 1 0 0 
SMALL
USER_CHARGES


@<TRIPOS>ATOM
  1 O        2.4750    -3.0590    -1.6490 O.2   1 <1>  -0.5700 
  2 C        2.5530    -2.7370    -0.4890 C.2   1 <1>   0.5690 
  3 N        1.7280    -3.2510     0.4650 N.am  1 <1>  -0.7300 
  4 C        3.6570    -1.7360    -0.1020 C.3   1 <1>   0.4040 
  5 C        0.6340    -4.2090     0.1970 C.3   1 <1>   0.2200 
  6 N        5.0630    -2.3130    -0.0880 N.4   1 <1>  -0.9590 
  7 C       -0.7180    -3.5330     0.5060 C.3   1 <1>  -0.0800 
  8 C        0.8820    -5.4380     1.0690 C.3   1 <1>  -0.2400 
  9 C        6.0590    -1.3180     0.4150 C.3   1 <1>   0.2630 
 10 C        5.4470    -2.8060    -1.4530 C.3   1 <1>   0.2630 
 11 C       -1.9830    -4.4090     0.3480 C.3   1 <1>  -0.0800 
 12 C       -1.0350    -2.3260    -0.4060 C.3   1 <1>  -0.1600 
 13 C       -3.0630    -3.3420     0.2810 C.3   1 <1>  -0.1600 
 14 C       -2.0770    -4.9970    -1.0720 C.3   1 <1>  -0.1600 
 15 C       -2.4560    -2.6240    -0.9110 C.3   1 <1>  -0.0800 
 16 C       -2.3670    -3.7620    -1.9410 C.3   1 <1>  -0.1600 
 17 H        1.7610    -2.9480     1.4390 H     1 <1>   0.3700 
 18 H        3.4210    -1.3420     0.8710 H     1 <1>   0.0800 
 19 H        3.6140    -0.9220    -0.8040 H     1 <1>   0.0800 
 20 H        0.6630    -4.5010    -0.8390 H     1 <1>   0.0800 
 21 H        5.0560    -3.1320     0.5410 H     1 <1>   0.4500 
 22 H       -0.6970    -3.1930     1.5270 H     1 <1>   0.0800 
 23 H        0.8220    -5.1880     2.1130 H     1 <1>   0.0800 
 24 H        1.8480    -5.8570     0.8530 H     1 <1>   0.0800 
 25 H        0.1450    -6.1920     0.8590 H     1 <1>   0.0800 
 26 H        6.0870    -0.4560    -0.2320 H     1 <1>   0.0800 
 27 H        7.0430    -1.7580     0.4440 H     1 <1>   0.0800 
 28 H        5.8000    -0.9960     1.4100 H     1 <1>   0.0800 
 29 H        5.4150    -1.9990    -2.1680 H     1 <1>   0.0800 
 30 H        4.7660    -3.5760    -1.7820 H     1 <1>   0.0800 
 31 H        6.4430    -3.2170    -1.4400 H     1 <1>   0.0800 
 32 H       -2.1210    -5.1330     1.1330 H     1 <1>   0.0800 
 33 H       -0.3450    -2.2300    -1.2270 H     1 <1>   0.0800 
 34 H       -1.0260    -1.4150     0.1670 H     1 <1>   0.0800 
 35 H       -3.1020    -2.7250     1.1640 H     1 <1>   0.0800 
 36 H       -4.0390    -3.7450     0.0700 H     1 <1>   0.0800 
 37 H       -2.9050    -5.6830    -1.1280 H     1 <1>   0.0800 
 38 H       -1.1880    -5.5150    -1.3820 H     1 <1>   0.0800 
 39 H       -2.9940    -1.7580    -1.2570 H     1 <1>   0.0800 
 40 H       -3.3080    -3.8800    -2.4510 H     1 <1>   0.0800 
 41 H       -1.5930    -3.5890    -2.6690 H     1 <1>   0.0800 
@<TRIPOS>BOND
  1   1   2  2   
  2   2   3  am  
  3   2   4  1   
  4   3   5  1   
  5   3  17  1   
  6   4   6  1   
  7   4  18  1   
  8   4  19  1   
  9   5   7  1   
 10   5   8  1   
 11   5  20  1   
 12   6   9  1   
 13   6  10  1   
 14   6  21  1   
 15   7  11  1   
 16   7  12  1   
 17   7  22  1   
 18   8  23  1   
 19   8  24  1   
 20   8  25  1   
 21   9  26  1   
 22   9  27  1   
 23   9  28  1   
 24  10  29  1   
 25  10  30  1   
 26  10  31  1   
 27  11  13  1   
 28  11  14  1   
 29  11  32  1   
 30  12  15  1   
 31  12  33  1   
 32  12  34  1   
 33  13  15  1   
 34  13  35  1   
 35  13  36  1   
 36  14  16  1   
 37  14  37  1   
 38  14  38  1   
 39  15  16  1   
 40  15  39  1   
 41  16  40  1   
 42  16  41  1   
@<TRIPOS>SUBSTRUCTURE
  1 ****   3 GROUP 4 **** **** 0

# MOE 2024.06 (io_trps.svl 2023.06)
