@<TRIPOS>MOLECULE
NONAME
38 39 1 0 0 
SMALL
USER_CHARGES


@<TRIPOS>ATOM
  1 CL      -0.2440    -0.9670    -0.6250 Cl    1 <1>  -0.1770 
  2 C       -1.8700    -0.3710    -0.3940 C.ar  1 <1>   0.1770 
  3 C       -2.9410    -1.1750    -0.7320 C.ar  1 <1>  -0.1500 
  4 C       -2.0620     0.8950     0.1210 C.ar  1 <1>  -0.1500 
  5 C       -4.2360    -0.7130    -0.5520 C.ar  1 <1>  -0.1440 
  6 C       -3.3530     1.3580     0.2990 C.ar  1 <1>  -0.1500 
  7 C       -4.4530     0.5670    -0.0290 C.ar  1 <1>   0.1170 
  8 C       -5.4000    -1.6230    -0.9270 C.3   1 <1>  -0.0960 
  9 N       -5.7690     1.0290     0.1350 N.am  1 <1>  -0.5470 
 10 C       -6.3100     1.9830     0.9560 C.2   1 <1>   0.5690 
 11 O       -5.6640     2.6270     1.7460 O.2   1 <1>  -0.5700 
 12 C       -7.8040     2.2520     0.8700 C.3   1 <1>   0.1310 
 13 S       -8.7270     0.7830     0.1930 S.3   1 <1>  -0.2860 
 14 C      -10.4130     1.3980     0.1060 C.2   1 <1>   0.2430 
 15 N      -10.7430     2.6010     0.4080 N.2   1 <1>  -0.3380 
 16 N      -11.4390     0.6410    -0.2800 N.pl3 1 <1>   0.0480 
 17 N      -12.0640     2.6680     0.2200 N.2   1 <1>  -0.3380 
 18 C      -12.4630     1.5050    -0.1840 C.2   1 <1>   0.0060 
 19 C      -11.4220    -0.7790    -0.6870 C.3   1 <1>   0.0160 
 20 C      -13.9060     1.1350    -0.5150 C.3   1 <1>   0.0200 
 21 C      -14.9020     2.2680    -0.2380 C.3   1 <1>  -0.2400 
 22 H       -2.7480    -2.1550    -1.1300 H     1 <1>   0.1500 
 23 H       -1.2150     1.5050     0.3770 H     1 <1>   0.1500 
 24 H       -3.4990     2.3470     0.6940 H     1 <1>   0.1500 
 25 H       -5.0460    -2.5890    -1.2420 H     1 <1>   0.0800 
 26 H       -5.9620    -1.1910    -1.7350 H     1 <1>   0.0800 
 27 H       -6.0470    -1.7650    -0.0800 H     1 <1>   0.0800 
 28 H       -6.4640     0.5050    -0.3960 H     1 <1>   0.3700 
 29 H       -7.9970     3.0830     0.2160 H     1 <1>   0.0800 
 30 H       -8.2050     2.4580     1.8450 H     1 <1>   0.0800 
 31 H      -10.5900    -0.9520    -1.3440 H     1 <1>   0.0800 
 32 H      -12.3330    -1.0280    -1.1980 H     1 <1>   0.0800 
 33 H      -11.3200    -1.3950     0.1880 H     1 <1>   0.0800 
 34 H      -14.1890     0.2780     0.0700 H     1 <1>   0.0800 
 35 H      -13.9660     0.8680    -1.5550 H     1 <1>   0.0800 
 36 H      -14.8680     2.5450     0.8010 H     1 <1>   0.0800 
 37 H      -15.9010     1.9550    -0.4810 H     1 <1>   0.0800 
 38 H      -14.6550     3.1320    -0.8310 H     1 <1>   0.0800 
@<TRIPOS>BOND
  1   1   2  1   
  2   2   3  ar  
  3   2   4  ar  
  4   3   5  ar  
  5   3  22  1   
  6   4   6  ar  
  7   4  23  1   
  8   5   7  ar  
  9   5   8  1   
 10   6   7  ar  
 11   6  24  1   
 12   7   9  1   
 13   8  25  1   
 14   8  26  1   
 15   8  27  1   
 16   9  10  am  
 17   9  28  1   
 18  10  11  2   
 19  10  12  1   
 20  12  13  1   
 21  12  29  1   
 22  12  30  1   
 23  13  14  1   
 24  14  15  2   
 25  14  16  1   
 26  15  17  1   
 27  16  18  1   
 28  16  19  1   
 29  17  18  2   
 30  18  20  1   
 31  19  31  1   
 32  19  32  1   
 33  19  33  1   
 34  20  21  1   
 35  20  34  1   
 36  20  35  1   
 37  21  36  1   
 38  21  37  1   
 39  21  38  1   
@<TRIPOS>SUBSTRUCTURE
  1 ****  13 GROUP 4 **** **** 0

# MOE 2024.06 (io_trps.svl 2023.06)
