@<TRIPOS>MOLECULE
NONAME
47 49 1 0 0 
SMALL
USER_CHARGES


@<TRIPOS>ATOM
  1 S       -0.0690     0.1000    -0.7870 S.o2  1 <1>   1.4470 
  2 O       -0.5350     0.1780    -2.1550 O.2   1 <1>  -0.6500 
  3 O       -0.1890    -1.1520    -0.0720 O.2   1 <1>  -0.6500 
  4 N       -0.9280     1.2710     0.0900 N.am  1 <1>  -0.8490 
  5 C        1.6480     0.6780    -0.6870 C.ar  1 <1>  -0.0090 
  6 C       -2.2610     0.7890     0.4600 C.3   1 <1>   0.1960 
  7 C       -1.0110     2.5460    -0.6300 C.3   1 <1>   0.1960 
  8 C        2.1940     1.1050     0.5170 C.ar  1 <1>  -0.1500 
  9 C        2.4690     0.7030    -1.8090 C.ar  1 <1>  -0.1500 
 10 C       -2.9560     1.7990     1.3790 C.3   1 <1>  -0.1600 
 11 C       -1.6490     3.6150     0.2610 C.3   1 <1>  -0.1600 
 12 C        3.5030     1.5460     0.5990 C.ar  1 <1>  -0.1500 
 13 C        3.7790     1.1410    -1.7320 C.ar  1 <1>  -0.1500 
 14 C       -3.0450     3.1850     0.7280 C.3   1 <1>  -0.0800 
 15 C        4.3200     1.5690    -0.5260 C.ar  1 <1>   0.1170 
 16 C       -3.6370     4.2100     1.7010 C.3   1 <1>  -0.2400 
 17 N        5.6480     2.0150    -0.5020 N.am  1 <1>  -0.5470 
 18 C        6.5660     2.0940     0.5130 C.2   1 <1>   0.7150 
 19 O        6.3000     1.6640     1.6170 O.2   1 <1>  -0.5700 
 20 C        7.8440     2.6790     0.2220 C.2   1 <1>  -0.2370 
 21 N        8.9390     2.6100     1.0300 N.pl3 1 <1>   0.3140 
 22 C        8.2510     3.3990    -0.8630 C.2   1 <1>  -0.1500 
 23 N        9.9980     3.2410     0.5010 N.2   1 <1>  -0.7070 
 24 C        9.0670     1.9450     2.3390 C.3   1 <1>   0.0160 
 25 C        9.5760     3.7120    -0.6310 C.2   1 <1>   0.1390 
 26 H       -2.1780    -0.1490     0.9840 H     1 <1>   0.0800 
 27 H       -2.8510     0.6260    -0.4290 H     1 <1>   0.0800 
 28 H       -1.5940     2.4250    -1.5290 H     1 <1>   0.0800 
 29 H       -0.0230     2.8710    -0.9110 H     1 <1>   0.0800 
 30 H        1.5820     1.0910     1.4040 H     1 <1>   0.1500 
 31 H        2.0730     0.3730    -2.7560 H     1 <1>   0.1500 
 32 H       -2.4020     1.8580     2.3000 H     1 <1>   0.0800 
 33 H       -3.9430     1.4410     1.6120 H     1 <1>   0.0800 
 34 H       -1.7180     4.5370    -0.2890 H     1 <1>   0.0800 
 35 H       -1.0090     3.7830     1.1100 H     1 <1>   0.0800 
 36 H        3.8820     1.8750     1.5500 H     1 <1>   0.1500 
 37 H        4.3850     1.1450    -2.6200 H     1 <1>   0.1500 
 38 H       -3.6900     3.1180    -0.1340 H     1 <1>   0.0800 
 39 H       -3.0180     4.3040     2.5760 H     1 <1>   0.0800 
 40 H       -4.6220     3.9070     2.0090 H     1 <1>   0.0800 
 41 H       -3.7120     5.1740     1.2280 H     1 <1>   0.0800 
 42 H        6.0390     2.2600    -1.4070 H     1 <1>   0.3700 
 43 H        7.6950     3.6930    -1.7340 H     1 <1>   0.1500 
 44 H        8.4110     2.4220     3.0430 H     1 <1>   0.0800 
 45 H       10.0820     2.0260     2.6810 H     1 <1>   0.0800 
 46 H        8.8020     0.9100     2.2390 H     1 <1>   0.0800 
 47 H       10.2030     4.2800    -1.2990 H     1 <1>   0.1500 
@<TRIPOS>BOND
  1   1   2  2   
  2   1   3  2   
  3   1   4  am  
  4   1   5  1   
  5   4   6  1   
  6   4   7  1   
  7   5   8  ar  
  8   5   9  ar  
  9   6  10  1   
 10   6  26  1   
 11   6  27  1   
 12   7  11  1   
 13   7  28  1   
 14   7  29  1   
 15   8  12  ar  
 16   8  30  1   
 17   9  13  ar  
 18   9  31  1   
 19  10  14  1   
 20  10  32  1   
 21  10  33  1   
 22  11  14  1   
 23  11  34  1   
 24  11  35  1   
 25  12  15  ar  
 26  12  36  1   
 27  13  15  ar  
 28  13  37  1   
 29  14  16  1   
 30  14  38  1   
 31  15  17  1   
 32  16  39  1   
 33  16  40  1   
 34  16  41  1   
 35  17  18  am  
 36  17  42  1   
 37  18  19  2   
 38  18  20  1   
 39  20  21  1   
 40  20  22  2   
 41  21  23  1   
 42  21  24  1   
 43  22  25  1   
 44  22  43  1   
 45  23  25  2   
 46  24  44  1   
 47  24  45  1   
 48  24  46  1   
 49  25  47  1   
@<TRIPOS>SUBSTRUCTURE
  1 ****  12 GROUP 4 **** **** 0

# MOE 2024.06 (io_trps.svl 2023.06)
