@<TRIPOS>MOLECULE
NONAME
32 33 1 0 0 
SMALL
USER_CHARGES


@<TRIPOS>ATOM
  1 F        0.6530    -0.5460     0.5180 F     1 <1>  -0.1900 
  2 C        1.8960    -0.3040     0.2080 C.ar  1 <1>   0.1900 
  3 C        2.8390    -0.2530     1.2160 C.ar  1 <1>  -0.1500 
  4 C        2.2290    -0.1100    -1.1190 C.ar  1 <1>  -0.1500 
  5 C        4.1560     0.0070     0.8770 C.ar  1 <1>  -0.1500 
  6 C        3.5500     0.1490    -1.4380 C.ar  1 <1>  -0.1500 
  7 C        4.5370     0.2230    -0.4510 C.ar  1 <1>   0.0860 
  8 C        5.9150     0.5070    -0.8040 C.2   1 <1>   0.5440 
  9 O        6.4430    -0.0890    -1.7230 O.2   1 <1>  -0.5700 
 10 N        6.6500     1.4520    -0.1320 N.am  1 <1>  -0.6600 
 11 C        8.1170     1.6190    -0.3650 C.3   1 <1>   0.2810 
 12 C        6.0940     2.5900     0.6290 C.3   1 <1>   0.1400 
 13 C        8.9750     0.4150     0.0670 C.2   1 <1>   0.6590 
 14 C        8.4720     2.9060     0.3900 C.3   1 <1>  -0.1600 
 15 C        7.1570     3.6740     0.5110 C.3   1 <1>  -0.1600 
 16 O        8.8790    -0.0950     1.1580 O.2   1 <1>  -0.5700 
 17 O        9.8630    -0.0150    -0.8260 O.3   1 <1>  -0.4300 
 18 C       10.6880    -1.1320    -0.5720 C.3   1 <1>   0.0400 
 19 H        2.5460    -0.4180     2.2370 H     1 <1>   0.1500 
 20 H        1.4700    -0.1640    -1.8790 H     1 <1>   0.1500 
 21 H        4.9090     0.0370     1.6460 H     1 <1>   0.1500 
 22 H        3.8360     0.2960    -2.4660 H     1 <1>   0.1500 
 23 H        8.2650     1.7770    -1.4190 H     1 <1>   0.0800 
 24 H        5.9720     2.2980     1.6590 H     1 <1>   0.0800 
 25 H        5.1500     2.9120     0.2240 H     1 <1>   0.0800 
 26 H        9.2320     3.4690    -0.1230 H     1 <1>   0.0800 
 27 H        8.8320     2.6550     1.3730 H     1 <1>   0.0800 
 28 H        7.1460     4.3390     1.3580 H     1 <1>   0.0800 
 29 H        6.9800     4.2440    -0.3850 H     1 <1>   0.0800 
 30 H       11.3140    -1.2960    -1.4310 H     1 <1>   0.0800 
 31 H       10.0620    -1.9910    -0.4000 H     1 <1>   0.0800 
 32 H       11.2900    -0.9310     0.2970 H     1 <1>   0.0800 
@<TRIPOS>BOND
  1   1   2  1   
  2   2   3  ar  
  3   2   4  ar  
  4   3   5  ar  
  5   3  19  1   
  6   4   6  ar  
  7   4  20  1   
  8   5   7  ar  
  9   5  21  1   
 10   6   7  ar  
 11   6  22  1   
 12   7   8  1   
 13   8   9  2   
 14   8  10  am  
 15  10  11  1   
 16  10  12  1   
 17  11  13  1   
 18  11  14  1   
 19  11  23  1   
 20  12  15  1   
 21  12  24  1   
 22  12  25  1   
 23  13  16  2   
 24  13  17  1   
 25  14  15  1   
 26  14  26  1   
 27  14  27  1   
 28  15  28  1   
 29  15  29  1   
 30  17  18  1   
 31  18  30  1   
 32  18  31  1   
 33  18  32  1   
@<TRIPOS>SUBSTRUCTURE
  1 ****   8 GROUP 4 **** **** 0

# MOE 2024.06 (io_trps.svl 2023.06)
