@<TRIPOS>MOLECULE
NONAME
53 53 1 0 0 
SMALL
USER_CHARGES


@<TRIPOS>ATOM
  1 O       -1.2600    -4.4430     0.4100 O.3   1 <1>  -0.5600 
  2 C       -2.3830    -3.9290    -0.2370 C.3   1 <1>   0.2000 
  3 C       -0.7290    -5.6130    -0.1370 C.3   1 <1>   0.1200 
  4 C       -2.4110    -2.4230     0.0440 C.3   1 <1>  -0.1600 
  5 C       -3.6390    -4.6190     0.3120 C.3   1 <1>  -0.1600 
  6 C        0.4930    -6.0160     0.7000 C.3   1 <1>   0.2000 
  7 C       -3.6750    -1.7340    -0.5080 C.3   1 <1>   0.0000 
  8 C       -4.9180    -3.9830    -0.2570 C.3   1 <1>  -0.0800 
  9 O        1.2570    -4.8740     0.9370 O.3   1 <1>  -0.6800 
 10 C        1.3800    -7.0730     0.0140 C.3   1 <1>   0.3430 
 11 C       -4.9350    -2.4660     0.0040 C.3   1 <1>  -0.1600 
 12 C       -3.6500    -1.6990    -2.0470 C.3   1 <1>  -0.2400 
 13 C       -3.7070    -0.2820    -0.0080 C.3   1 <1>  -0.2400 
 14 C       -6.1590    -4.6420     0.3570 C.3   1 <1>  -0.2400 
 15 N        2.7730    -6.9700     0.5470 N.4   1 <1>  -0.9060 
 16 C        3.8770    -7.4500    -0.2770 C.3   1 <1>   0.5030 
 17 C        3.9440    -6.6340    -1.5680 C.3   1 <1>  -0.2400 
 18 C        3.6860    -8.9360    -0.5720 C.3   1 <1>  -0.2400 
 19 C        5.1460    -7.2360     0.5390 C.3   1 <1>  -0.2400 
 20 H       -2.2890    -4.0950    -1.2970 H     1 <1>   0.0800 
 21 H       -0.4430    -5.4130    -1.1560 H     1 <1>   0.0800 
 22 H       -1.4760    -6.3870    -0.1160 H     1 <1>   0.0800 
 23 H       -1.5350    -1.9670    -0.3820 H     1 <1>   0.0800 
 24 H       -2.3760    -2.2810     1.1100 H     1 <1>   0.0800 
 25 H       -3.6460    -4.5270     1.3840 H     1 <1>   0.0800 
 26 H       -3.6280    -5.6620     0.0560 H     1 <1>   0.0800 
 27 H        0.1540    -6.3840     1.6540 H     1 <1>   0.0800 
 28 H       -4.9470    -4.1560    -1.3190 H     1 <1>   0.0800 
 29 H        0.6140    -4.1320     1.0700 H     1 <1>   0.4000 
 30 H        1.3810    -6.8720    -1.0430 H     1 <1>   0.0800 
 31 H        0.9790    -8.0610     0.1670 H     1 <1>   0.0800 
 32 H       -5.8100    -2.0340    -0.4500 H     1 <1>   0.0800 
 33 H       -5.0170    -2.3070     1.0660 H     1 <1>   0.0800 
 34 H       -3.6260    -2.6840    -2.4720 H     1 <1>   0.0800 
 35 H       -2.7830    -1.1650    -2.3950 H     1 <1>   0.0800 
 36 H       -4.5240    -1.1970    -2.4230 H     1 <1>   0.0800 
 37 H       -3.7250    -0.2490     1.0680 H     1 <1>   0.0800 
 38 H       -4.5820     0.2250    -0.3740 H     1 <1>   0.0800 
 39 H       -2.8380     0.2550    -0.3460 H     1 <1>   0.0800 
 40 H       -6.1770    -4.5010     1.4240 H     1 <1>   0.0800 
 41 H       -6.1630    -5.6980     0.1510 H     1 <1>   0.0800 
 42 H       -7.0530    -4.2130    -0.0600 H     1 <1>   0.0800 
 43 H        2.8330    -7.3930     1.4760 H     1 <1>   0.4500 
 44 H        2.8930    -5.9540     0.7090 H     1 <1>   0.4500 
 45 H        4.8210    -6.9110    -2.1260 H     1 <1>   0.0800 
 46 H        4.0090    -5.5810    -1.3550 H     1 <1>   0.0800 
 47 H        3.0950    -6.8160    -2.2000 H     1 <1>   0.0800 
 48 H        2.8180    -9.1100    -1.1820 H     1 <1>   0.0800 
 49 H        3.6020    -9.5030     0.3380 H     1 <1>   0.0800 
 50 H        4.5380    -9.3090    -1.1140 H     1 <1>   0.0800 
 51 H        5.2890    -6.1940     0.7670 H     1 <1>   0.0800 
 52 H        6.0030    -7.5670    -0.0220 H     1 <1>   0.0800 
 53 H        5.1200    -7.7980     1.4550 H     1 <1>   0.0800 
@<TRIPOS>BOND
  1   1   2  1   
  2   1   3  1   
  3   2   4  1   
  4   2   5  1   
  5   2  20  1   
  6   3   6  1   
  7   3  21  1   
  8   3  22  1   
  9   4   7  1   
 10   4  23  1   
 11   4  24  1   
 12   5   8  1   
 13   5  25  1   
 14   5  26  1   
 15   6   9  1   
 16   6  10  1   
 17   6  27  1   
 18   7  11  1   
 19   7  12  1   
 20   7  13  1   
 21   8  11  1   
 22   8  14  1   
 23   8  28  1   
 24   9  29  1   
 25  10  15  1   
 26  10  30  1   
 27  10  31  1   
 28  11  32  1   
 29  11  33  1   
 30  12  34  1   
 31  12  35  1   
 32  12  36  1   
 33  13  37  1   
 34  13  38  1   
 35  13  39  1   
 36  14  40  1   
 37  14  41  1   
 38  14  42  1   
 39  15  16  1   
 40  15  43  1   
 41  15  44  1   
 42  16  17  1   
 43  16  18  1   
 44  16  19  1   
 45  17  45  1   
 46  17  46  1   
 47  17  47  1   
 48  18  48  1   
 49  18  49  1   
 50  18  50  1   
 51  19  51  1   
 52  19  52  1   
 53  19  53  1   
@<TRIPOS>SUBSTRUCTURE
  1 ****   1 GROUP 4 **** **** 0

# MOE 2024.06 (io_trps.svl 2023.06)
