@<TRIPOS>MOLECULE
NONAME
40 41 1 0 0 
SMALL
USER_CHARGES


@<TRIPOS>ATOM
  1 O       -1.5380     2.2380     0.3960 O.3   1 <1>  -0.2800 
  2 C       -1.7050     0.9800     0.0300 C.2   1 <1>  -0.0400 
  3 C       -0.6030     2.7580    -0.3740 C.2   1 <1>  -0.0100 
  4 C       -0.8750     0.6740    -0.9920 C.2   1 <1>  -0.1500 
  5 C       -2.7330     0.1260     0.7500 C.3   1 <1>   0.5230 
  6 C       -0.1520     1.8430    -1.2560 C.2   1 <1>  -0.1500 
  7 N       -4.0810     0.7250     0.5470 N.4   1 <1>  -0.9590 
  8 C       -4.3250     1.8490     1.4910 C.3   1 <1>   0.4860 
  9 C       -5.1960    -0.2590     0.5640 C.3   1 <1>   0.3430 
 10 C       -5.4570     2.6830     0.9290 C.ar  1 <1>  -0.1430 
 11 C       -5.1780    -1.1050    -0.7110 C.3   1 <1>  -0.1600 
 12 C       -5.2270     3.5150    -0.1570 C.ar  1 <1>  -0.1500 
 13 C       -6.7280     2.6170     1.4840 C.ar  1 <1>  -0.1500 
 14 C       -6.3830    -2.0540    -0.7830 C.3   1 <1>  -0.1600 
 15 C       -6.2610     4.2620    -0.6930 C.ar  1 <1>  -0.1500 
 16 C       -7.7610     3.3650     0.9460 C.ar  1 <1>  -0.1500 
 17 C       -7.7210    -1.3080    -0.8570 C.3   1 <1>  -0.2400 
 18 C       -7.5280     4.1850    -0.1440 C.ar  1 <1>  -0.1500 
 19 H       -0.3150     3.7870    -0.2280 H     1 <1>   0.1500 
 20 H       -0.7520    -0.2530    -1.5270 H     1 <1>   0.1500 
 21 H       -2.4960     0.0690     1.7990 H     1 <1>   0.0800 
 22 H       -2.7000    -0.8680     0.3370 H     1 <1>   0.0800 
 23 H        0.6060     1.9560    -2.0140 H     1 <1>   0.1500 
 24 H       -4.0680     1.1650    -0.3820 H     1 <1>   0.4500 
 25 H       -3.4490     2.4700     1.5810 H     1 <1>   0.0800 
 26 H       -4.5820     1.4770     2.4690 H     1 <1>   0.0800 
 27 H       -6.1360     0.2670     0.6050 H     1 <1>   0.0800 
 28 H       -5.1280    -0.8930     1.4330 H     1 <1>   0.0800 
 29 H       -4.2850    -1.7010    -0.7510 H     1 <1>   0.0800 
 30 H       -5.1990    -0.4610    -1.5740 H     1 <1>   0.0800 
 31 H       -4.2460     3.5970    -0.5950 H     1 <1>   0.1500 
 32 H       -6.9320     1.9910     2.3360 H     1 <1>   0.1500 
 33 H       -6.3870    -2.7160     0.0680 H     1 <1>   0.0800 
 34 H       -6.2870    -2.6670    -1.6640 H     1 <1>   0.0800 
 35 H       -6.0830     4.9080    -1.5370 H     1 <1>   0.1500 
 36 H       -8.7480     3.3150     1.3750 H     1 <1>   0.1500 
 37 H       -7.9220    -0.7590     0.0460 H     1 <1>   0.0800 
 38 H       -8.5210    -2.0150    -0.9970 H     1 <1>   0.0800 
 39 H       -7.7310    -0.6260    -1.6900 H     1 <1>   0.0800 
 40 H       -8.3320     4.7670    -0.5610 H     1 <1>   0.1500 
@<TRIPOS>BOND
  1   1   2  1   
  2   1   3  1   
  3   2   4  2   
  4   2   5  1   
  5   3   6  2   
  6   3  19  1   
  7   4   6  1   
  8   4  20  1   
  9   5   7  1   
 10   5  21  1   
 11   5  22  1   
 12   6  23  1   
 13   7   8  1   
 14   7   9  1   
 15   7  24  1   
 16   8  10  1   
 17   8  25  1   
 18   8  26  1   
 19   9  11  1   
 20   9  27  1   
 21   9  28  1   
 22  10  12  ar  
 23  10  13  ar  
 24  11  14  1   
 25  11  29  1   
 26  11  30  1   
 27  12  15  ar  
 28  12  31  1   
 29  13  16  ar  
 30  13  32  1   
 31  14  17  1   
 32  14  33  1   
 33  14  34  1   
 34  15  18  ar  
 35  15  35  1   
 36  16  18  ar  
 37  16  36  1   
 38  17  37  1   
 39  17  38  1   
 40  17  39  1   
 41  18  40  1   
@<TRIPOS>SUBSTRUCTURE
  1 ****   7 GROUP 4 **** **** 0

# MOE 2024.06 (io_trps.svl 2023.06)
