@<TRIPOS>MOLECULE
NONAME
36 37 1 0 0 
SMALL
USER_CHARGES


@<TRIPOS>ATOM
  1 BR       1.5840    -0.2090    -1.0750 Br    1 <1>  -0.1110 
  2 C        0.6270    -1.8000    -0.5720 C.ar  1 <1>   0.1110 
  3 C       -0.5190    -2.1310    -1.2690 C.ar  1 <1>  -0.1500 
  4 C        1.1080    -2.5670     0.4700 C.ar  1 <1>  -0.1500 
  5 C       -1.2140    -3.2760    -0.9080 C.ar  1 <1>  -0.1430 
  6 C        0.4130    -3.7090     0.8280 C.ar  1 <1>  -0.1500 
  7 C       -0.7490    -4.0680     0.1430 C.ar  1 <1>   0.0830 
  8 C       -2.4760    -3.6620    -1.6580 C.3   1 <1>   0.4870 
  9 O       -1.4760    -5.1760     0.4600 O.3   1 <1>  -0.3620 
 10 N       -3.6060    -3.6970    -0.6970 N.4   1 <1>  -0.9590 
 11 C       -0.9560    -6.1630     1.3300 C.3   1 <1>   0.0400 
 12 C       -4.8160    -4.3560    -1.2900 C.3   1 <1>   0.3430 
 13 C       -3.9000    -2.3540    -0.1200 C.3   1 <1>   0.3430 
 14 C       -5.9700    -4.4620    -0.2760 C.3   1 <1>   0.2000 
 15 C       -4.9920    -2.4790     0.9460 C.3   1 <1>  -0.1600 
 16 O       -7.0970    -4.8670    -0.9580 O.3   1 <1>  -0.6800 
 17 C       -6.2760    -3.1150     0.3870 C.3   1 <1>  -0.1600 
 18 H       -0.8400    -1.4960    -2.0770 H     1 <1>   0.1500 
 19 H        2.0060    -2.2750     0.9870 H     1 <1>   0.1500 
 20 H        0.7930    -4.2990     1.6420 H     1 <1>   0.1500 
 21 H       -2.3340    -4.6370    -2.0940 H     1 <1>   0.0800 
 22 H       -2.6750    -2.9560    -2.4470 H     1 <1>   0.0800 
 23 H       -3.2450    -4.2910     0.0700 H     1 <1>   0.4500 
 24 H       -1.6430    -6.9910     1.3540 H     1 <1>   0.0800 
 25 H       -0.8560    -5.7470     2.3170 H     1 <1>   0.0800 
 26 H       -0.0030    -6.4950     0.9570 H     1 <1>   0.0800 
 27 H       -4.5650    -5.3450    -1.6340 H     1 <1>   0.0800 
 28 H       -5.1600    -3.7760    -2.1300 H     1 <1>   0.0800 
 29 H       -4.2330    -1.6870    -0.8990 H     1 <1>   0.0800 
 30 H       -3.0100    -1.9390     0.3260 H     1 <1>   0.0800 
 31 H       -5.7410    -5.2110     0.4640 H     1 <1>   0.0800 
 32 H       -5.2200    -1.4970     1.3260 H     1 <1>   0.0800 
 33 H       -4.6190    -3.0610     1.7710 H     1 <1>   0.0800 
 34 H       -7.8620    -4.9650    -0.3530 H     1 <1>   0.4000 
 35 H       -6.9850    -3.2520     1.1860 H     1 <1>   0.0800 
 36 H       -6.7080    -2.4460    -0.3400 H     1 <1>   0.0800 
@<TRIPOS>BOND
  1   1   2  1   
  2   2   3  ar  
  3   2   4  ar  
  4   3   5  ar  
  5   3  18  1   
  6   4   6  ar  
  7   4  19  1   
  8   5   7  ar  
  9   5   8  1   
 10   6   7  ar  
 11   6  20  1   
 12   7   9  1   
 13   8  10  1   
 14   8  21  1   
 15   8  22  1   
 16   9  11  1   
 17  10  12  1   
 18  10  13  1   
 19  10  23  1   
 20  11  24  1   
 21  11  25  1   
 22  11  26  1   
 23  12  14  1   
 24  12  27  1   
 25  12  28  1   
 26  13  15  1   
 27  13  29  1   
 28  13  30  1   
 29  14  16  1   
 30  14  17  1   
 31  14  31  1   
 32  15  17  1   
 33  15  32  1   
 34  15  33  1   
 35  16  34  1   
 36  17  35  1   
 37  17  36  1   
@<TRIPOS>SUBSTRUCTURE
  1 ****   5 GROUP 4 **** **** 0

# MOE 2024.06 (io_trps.svl 2023.06)
