@<TRIPOS>MOLECULE
NONAME
40 41 1 0 0 
SMALL
USER_CHARGES


@<TRIPOS>ATOM
  1 F       -1.8600     1.9150    -2.1160 F     1 <1>  -0.1900 
  2 C       -1.0930     2.6070    -1.3160 C.ar  1 <1>   0.1900 
  3 C       -1.3690     2.6000     0.0450 C.ar  1 <1>  -0.1440 
  4 C       -0.0480     3.3220    -1.8660 C.ar  1 <1>  -0.1500 
  5 C       -0.5550     3.3460     0.8920 C.ar  1 <1>  -0.1500 
  6 C       -2.5300     1.7860     0.5870 C.3   1 <1>   0.4870 
  7 C        0.7360     4.0520    -0.9950 C.ar  1 <1>   0.1900 
  8 C        0.5030     4.0770     0.3690 C.ar  1 <1>  -0.1500 
  9 N       -3.8120     2.3400     0.0680 N.4   1 <1>  -0.9590 
 10 F        1.7310     4.7440    -1.4750 F     1 <1>  -0.1900 
 11 C       -4.0490     3.7400     0.5280 C.3   1 <1>   0.3430 
 12 C       -4.9570     1.4390     0.3710 C.3   1 <1>   0.3430 
 13 C       -5.2860     4.3020    -0.1700 C.3   1 <1>  -0.1600 
 14 C       -6.2120     1.9550    -0.3290 C.3   1 <1>  -0.1600 
 15 C       -6.5280     3.4150     0.0490 C.3   1 <1>  -0.0190 
 16 C       -7.7220     3.9380    -0.7440 C.2   1 <1>   0.6590 
 17 O       -7.6790     4.0360    -1.9420 O.2   1 <1>  -0.5700 
 18 O       -8.7900     4.2670    -0.0350 O.3   1 <1>  -0.4300 
 19 C       -9.9570     4.7610    -0.6530 C.3   1 <1>   0.1200 
 20 C      -10.9880     5.0380     0.4370 C.3   1 <1>  -0.2400 
 21 H        0.1520     3.3150    -2.9230 H     1 <1>   0.1500 
 22 H       -0.7260     3.3660     1.9560 H     1 <1>   0.1500 
 23 H       -2.5250     1.8070     1.6640 H     1 <1>   0.0800 
 24 H       -2.4170     0.7630     0.2660 H     1 <1>   0.0800 
 25 H        1.1460     4.6600     1.0060 H     1 <1>   0.1500 
 26 H       -3.7060     2.3730    -0.9580 H     1 <1>   0.4500 
 27 H       -3.1980     4.3590     0.2920 H     1 <1>   0.0800 
 28 H       -4.1960     3.7560     1.5960 H     1 <1>   0.0800 
 29 H       -5.1260     1.4040     1.4360 H     1 <1>   0.0800 
 30 H       -4.7440     0.4390     0.0270 H     1 <1>   0.0800 
 31 H       -5.0830     4.3980    -1.2230 H     1 <1>   0.0800 
 32 H       -5.4840     5.2900     0.2080 H     1 <1>   0.0800 
 33 H       -7.0470     1.3300    -0.0610 H     1 <1>   0.0800 
 34 H       -6.0820     1.8720    -1.3950 H     1 <1>   0.0800 
 35 H       -6.7900     3.4480     1.0930 H     1 <1>   0.0800 
 36 H      -10.3180     4.0190    -1.3460 H     1 <1>   0.0800 
 37 H       -9.7070     5.6620    -1.1870 H     1 <1>   0.0800 
 38 H      -11.2230     4.1330     0.9670 H     1 <1>   0.0800 
 39 H      -11.8900     5.4170    -0.0080 H     1 <1>   0.0800 
 40 H      -10.6120     5.7730     1.1260 H     1 <1>   0.0800 
@<TRIPOS>BOND
  1   1   2  1   
  2   2   3  ar  
  3   2   4  ar  
  4   3   5  ar  
  5   3   6  1   
  6   4   7  ar  
  7   4  21  1   
  8   5   8  ar  
  9   5  22  1   
 10   6   9  1   
 11   6  23  1   
 12   6  24  1   
 13   7   8  ar  
 14   7  10  1   
 15   8  25  1   
 16   9  11  1   
 17   9  12  1   
 18   9  26  1   
 19  11  13  1   
 20  11  27  1   
 21  11  28  1   
 22  12  14  1   
 23  12  29  1   
 24  12  30  1   
 25  13  15  1   
 26  13  31  1   
 27  13  32  1   
 28  14  15  1   
 29  14  33  1   
 30  14  34  1   
 31  15  16  1   
 32  15  35  1   
 33  16  17  2   
 34  16  18  1   
 35  18  19  1   
 36  19  20  1   
 37  19  36  1   
 38  19  37  1   
 39  20  38  1   
 40  20  39  1   
 41  20  40  1   
@<TRIPOS>SUBSTRUCTURE
  1 ****  11 GROUP 4 **** **** 0

# MOE 2024.06 (io_trps.svl 2023.06)
