@<TRIPOS>MOLECULE
NONAME
49 51 1 0 0 
SMALL
USER_CHARGES


@<TRIPOS>ATOM
  1 O       -3.2640    -2.9800    -1.8250 O.2   1 <1>  -0.5750 
  2 C       -3.1620    -3.5270    -0.7530 C.2   1 <1>   0.4170 
  3 C       -2.6270    -4.8650    -0.5980 C.ar  1 <1>   0.0780 
  4 C       -3.5830    -2.7450     0.5000 C.3   1 <1>   0.4090 
  5 C       -2.5520    -5.5270     0.6340 C.ar  1 <1>  -0.1570 
  6 C       -2.1440    -5.5550    -1.7120 C.ar  1 <1>  -0.1570 
  7 N       -4.0340    -1.3400     0.2350 N.pl3 1 <1>  -0.7670 
  8 C       -2.0180    -6.7970     0.7400 C.ar  1 <1>  -0.1570 
  9 C       -1.6100    -6.8250    -1.6080 C.ar  1 <1>  -0.1570 
 10 C       -3.3670    -0.3740    -0.4200 C.cat 1 <1>   1.0690 
 11 C       -5.3720    -0.9550     0.2910 C.ar  1 <1>   0.3030 
 12 C       -1.5430    -7.4570    -0.3790 C.ar  1 <1>  -0.1510 
 13 N       -4.1990     0.5980    -0.7660 N.pl3 1 <1>  -0.7040 
 14 N       -2.0710    -0.2920    -0.7130 N.pl3 1 <1>  -0.7180 
 15 C       -5.4690     0.2690    -0.3430 C.ar  1 <1>   0.3030 
 16 C       -6.5090    -1.5530     0.8290 C.ar  1 <1>  -0.1170 
 17 C       -0.9580    -8.8560    -0.2620 C.3   1 <1>  -0.0250 
 18 C       -0.9270    -1.1550    -0.3510 C.3   1 <1>   0.1600 
 19 C       -6.6840     0.9320    -0.4610 C.ar  1 <1>  -0.1170 
 20 C       -7.7220    -0.9000     0.7160 C.ar  1 <1>  -0.1570 
 21 C        0.5460    -8.7910     0.0140 C.3   1 <1>  -0.2470 
 22 C        0.3430    -0.3130    -0.3930 C.3   1 <1>  -0.1670 
 23 C       -7.8100     0.3360     0.0740 C.ar  1 <1>  -0.1570 
 24 C        1.5720    -1.1530    -0.0540 C.3   1 <1>   0.1120 
 25 O        2.6630    -0.3120    -0.1010 O.3   1 <1>  -0.6840 
 26 H       -2.7640    -2.7220     1.1950 H     1 <1>   0.0720 
 27 H       -4.3820    -3.2880     0.9710 H     1 <1>   0.0720 
 28 H       -2.9070    -5.0740     1.5400 H     1 <1>   0.1430 
 29 H       -2.1860    -5.0920    -2.6830 H     1 <1>   0.1430 
 30 H       -1.9700    -7.2820     1.7010 H     1 <1>   0.1430 
 31 H       -1.2450    -7.3250    -2.4890 H     1 <1>   0.1430 
 32 H       -3.9600     1.4410    -1.2790 H     1 <1>   0.4450 
 33 H       -1.7850     0.4770    -1.3160 H     1 <1>   0.4450 
 34 H       -6.4530    -2.5030     1.3270 H     1 <1>   0.1430 
 35 H       -1.1320    -9.4000    -1.1740 H     1 <1>   0.0720 
 36 H       -1.4470    -9.3890     0.5340 H     1 <1>   0.0720 
 37 H       -0.8470    -1.9640    -1.0600 H     1 <1>   0.0720 
 38 H       -1.0550    -1.5540     0.6390 H     1 <1>   0.0720 
 39 H       -6.7440     1.8840    -0.9580 H     1 <1>   0.1430 
 40 H       -8.6160    -1.3440     1.1250 H     1 <1>   0.1430 
 41 H        1.0470    -8.2750    -0.7850 H     1 <1>   0.0720 
 42 H        0.9500    -9.7840     0.0930 H     1 <1>   0.0720 
 43 H        0.7320    -8.2670     0.9350 H     1 <1>   0.0720 
 44 H        0.2680     0.4890     0.3220 H     1 <1>   0.0720 
 45 H        0.4750     0.0960    -1.3800 H     1 <1>   0.0720 
 46 H       -8.7690     0.8250    -0.0010 H     1 <1>   0.1430 
 47 H        1.7210    -1.9410    -0.7740 H     1 <1>   0.0720 
 48 H        1.5070    -1.5660     0.9380 H     1 <1>   0.0720 
 49 H        3.4900    -0.7970     0.0930 H     1 <1>   0.3940 
@<TRIPOS>BOND
  1   1   2  2   
  2   2   3  1   
  3   2   4  1   
  4   3   5  ar  
  5   3   6  ar  
  6   4   7  1   
  7   4  26  1   
  8   4  27  1   
  9   5   8  ar  
 10   5  28  1   
 11   6   9  ar  
 12   6  29  1   
 13   7  10  ar  
 14   7  11  1   
 15   8  12  ar  
 16   8  30  1   
 17   9  12  ar  
 18   9  31  1   
 19  10  13  ar  
 20  10  14  ar  
 21  11  15  ar  
 22  11  16  ar  
 23  12  17  1   
 24  13  15  1   
 25  13  32  1   
 26  14  18  1   
 27  14  33  1   
 28  15  19  ar  
 29  16  20  ar  
 30  16  34  1   
 31  17  21  1   
 32  17  35  1   
 33  17  36  1   
 34  18  22  1   
 35  18  37  1   
 36  18  38  1   
 37  19  23  ar  
 38  19  39  1   
 39  20  23  ar  
 40  20  40  1   
 41  21  41  1   
 42  21  42  1   
 43  21  43  1   
 44  22  24  1   
 45  22  44  1   
 46  22  45  1   
 47  23  46  1   
 48  24  25  1   
 49  24  47  1   
 50  24  48  1   
 51  25  49  1   
@<TRIPOS>SUBSTRUCTURE
  1 ****   2 GROUP 4 **** **** 0

# MOE 2024.06 (io_trps.svl 2023.06)
