@<TRIPOS>MOLECULE
NONAME
42 43 1 0 0 
SMALL
USER_CHARGES


@<TRIPOS>ATOM
  1 O        0.0470    -0.6200     1.0750 O.2   1 <1>  -0.5700 
  2 C        0.1180    -1.6350     0.4090 C.2   1 <1>   0.5440 
  3 N        1.3490    -2.0170    -0.0300 N.am  1 <1>  -0.7300 
  4 C       -1.0680    -2.4060     0.0840 C.ar  1 <1>   0.0860 
  5 C        2.6170    -1.3140     0.2940 C.3   1 <1>   0.3210 
  6 C       -2.3240    -1.8010     0.0660 C.ar  1 <1>  -0.1500 
  7 C       -0.9990    -3.7680    -0.2170 C.ar  1 <1>  -0.1500 
  8 C        3.8330    -2.0830    -0.2220 C.2   1 <1>   0.3350 
  9 C       -3.4750    -2.5100    -0.2550 C.ar  1 <1>   0.0830 
 10 C       -2.1340    -4.5000    -0.5450 C.ar  1 <1>   0.0830 
 11 N        3.7950    -3.1760    -0.8820 N.2   1 <1>  -0.4100 
 12 N        5.0660    -1.6420    -0.0090 N.2   1 <1>  -0.5650 
 13 O       -4.7110    -1.9320    -0.2770 O.3   1 <1>  -0.3630 
 14 C       -3.3750    -3.8660    -0.5670 C.ar  1 <1>   0.0830 
 15 O       -2.0870    -5.8320    -0.8400 O.3   1 <1>  -0.3630 
 16 O        5.0220    -3.5120    -1.1370 O.3   1 <1>  -0.0190 
 17 C        5.7330    -2.5580    -0.5890 C.2   1 <1>   0.2980 
 18 C       -4.8880    -0.5490    -0.0610 C.3   1 <1>   0.0400 
 19 O       -4.4820    -4.5700    -0.9130 O.3   1 <1>  -0.3630 
 20 C       -0.8660    -6.5120    -1.0260 C.3   1 <1>   0.0400 
 21 C        7.2470    -2.6180    -0.6920 C.3   1 <1>   0.0200 
 22 C       -5.2410    -5.0810     0.1550 C.3   1 <1>   0.0400 
 23 C        7.8300    -3.8010     0.0930 C.3   1 <1>  -0.2400 
 24 H        1.4700    -2.8100    -0.6650 H     1 <1>   0.3700 
 25 H        2.6970    -1.1980     1.3600 H     1 <1>   0.0800 
 26 H        2.6030    -0.3350    -0.1520 H     1 <1>   0.0800 
 27 H       -2.3710    -0.7570     0.3110 H     1 <1>   0.1500 
 28 H       -0.0420    -4.2480    -0.1800 H     1 <1>   0.1500 
 29 H       -5.9350    -0.3280    -0.1630 H     1 <1>   0.0800 
 30 H       -4.3260    -0.0060    -0.7990 H     1 <1>   0.0800 
 31 H       -4.5590    -0.3050     0.9340 H     1 <1>   0.0800 
 32 H       -1.0900    -7.5190    -1.3290 H     1 <1>   0.0800 
 33 H       -0.3260    -6.5240    -0.0970 H     1 <1>   0.0800 
 34 H       -0.3030    -6.0170    -1.7970 H     1 <1>   0.0800 
 35 H        7.6570    -1.7000    -0.3100 H     1 <1>   0.0800 
 36 H        7.5210    -2.6990    -1.7290 H     1 <1>   0.0800 
 37 H       -6.0740    -5.6220    -0.2540 H     1 <1>   0.0800 
 38 H       -5.5900    -4.2620     0.7580 H     1 <1>   0.0800 
 39 H       -4.6190    -5.7410     0.7350 H     1 <1>   0.0800 
 40 H        7.5610    -3.7220     1.1320 H     1 <1>   0.0800 
 41 H        8.9020    -3.8060     0.0130 H     1 <1>   0.0800 
 42 H        7.4500    -4.7310    -0.2920 H     1 <1>   0.0800 
@<TRIPOS>BOND
  1   1   2  2   
  2   2   3  am  
  3   2   4  1   
  4   3   5  1   
  5   3  24  1   
  6   4   6  ar  
  7   4   7  ar  
  8   5   8  1   
  9   5  25  1   
 10   5  26  1   
 11   6   9  ar  
 12   6  27  1   
 13   7  10  ar  
 14   7  28  1   
 15   8  11  2   
 16   8  12  1   
 17   9  13  1   
 18   9  14  ar  
 19  10  14  ar  
 20  10  15  1   
 21  11  16  1   
 22  12  17  2   
 23  13  18  1   
 24  14  19  1   
 25  15  20  1   
 26  16  17  1   
 27  17  21  1   
 28  18  29  1   
 29  18  30  1   
 30  18  31  1   
 31  19  22  1   
 32  20  32  1   
 33  20  33  1   
 34  20  34  1   
 35  21  23  1   
 36  21  35  1   
 37  21  36  1   
 38  22  37  1   
 39  22  38  1   
 40  22  39  1   
 41  23  40  1   
 42  23  41  1   
 43  23  42  1   
@<TRIPOS>SUBSTRUCTURE
  1 ****   3 GROUP 4 **** **** 0

# MOE 2024.06 (io_trps.svl 2023.06)
