@<TRIPOS>MOLECULE
NONAME
44 47 1 0 0 
SMALL
USER_CHARGES


@<TRIPOS>ATOM
  1 S       -0.1330    -0.4950     0.4370 S.3   1 <1>  -0.0800 
  2 C        0.4210     1.1450     0.1280 C.2   1 <1>   0.1040 
  3 C        1.4940    -1.1200     0.2830 C.2   1 <1>  -0.1400 
  4 N       -0.4760     2.1990     0.0690 N.am  1 <1>  -0.4940 
  5 C        1.7800     1.1820    -0.0420 C.2   1 <1>  -0.0860 
  6 C        2.3710    -0.1400     0.0190 C.2   1 <1>  -0.1810 
  7 C        1.7410    -2.6070     0.4230 C.3   1 <1>   0.0200 
  8 C       -1.8200     2.3390     0.3040 C.2   1 <1>   0.7150 
  9 C        2.4970     2.4160    -0.2450 C.2   1 <1>   0.7160 
 10 C        3.8410    -0.4780    -0.2160 C.3   1 <1>   0.0210 
 11 C        3.2550    -2.8640     0.5000 C.3   1 <1>  -0.1600 
 12 O       -2.4720     1.4200     0.7570 O.2   1 <1>  -0.5700 
 13 C       -2.4150     3.6120     0.0110 C.2   1 <1>  -0.2370 
 14 O        1.9440     3.3830    -0.7480 O.2   1 <1>  -0.5700 
 15 N        3.7910     2.5450     0.1710 N.am  1 <1>  -0.5790 
 16 C        4.0350    -1.9830    -0.4960 C.3   1 <1>  -0.1600 
 17 N       -3.7200     3.9420     0.2210 N.pl3 1 <1>   0.3140 
 18 C       -1.8480     4.7360    -0.5190 C.2   1 <1>  -0.1500 
 19 C        4.6480     3.7300     0.0290 C.3   1 <1>   0.0490 
 20 N       -3.9900     5.2040    -0.1470 N.2   1 <1>  -0.7070 
 21 C       -4.7940     3.1000     0.7770 C.3   1 <1>   0.0160 
 22 C       -2.8630     5.6700    -0.5900 C.2   1 <1>   0.1390 
 23 C        6.1170     3.5140    -0.1250 C.3   1 <1>  -0.2000 
 24 C        5.5680     4.0670     1.1550 C.3   1 <1>  -0.2000 
 25 H       -0.0420     3.0690    -0.2490 H     1 <1>   0.3700 
 26 H        1.3230    -3.1070    -0.4330 H     1 <1>   0.0800 
 27 H        1.2570    -2.9810     1.3080 H     1 <1>   0.0800 
 28 H        4.4070    -0.2100     0.6580 H     1 <1>   0.0800 
 29 H        4.2180     0.0780    -1.0570 H     1 <1>   0.0800 
 30 H        3.4510    -3.9040     0.3050 H     1 <1>   0.0800 
 31 H        3.5950    -2.6460     1.4980 H     1 <1>   0.0800 
 32 H        4.1820     1.7870     0.7260 H     1 <1>   0.3700 
 33 H        5.0830    -2.2230    -0.4520 H     1 <1>   0.0800 
 34 H        3.6900    -2.1980    -1.4930 H     1 <1>   0.0800 
 35 H       -0.8320     4.9020    -0.8320 H     1 <1>   0.1500 
 36 H        4.1840     4.5360    -0.5190 H     1 <1>   0.1000 
 37 H       -4.9270     2.2380     0.1510 H     1 <1>   0.0800 
 38 H       -5.7070     3.6640     0.8120 H     1 <1>   0.0800 
 39 H       -4.5220     2.7900     1.7680 H     1 <1>   0.0800 
 40 H       -2.7490     6.6740    -0.9650 H     1 <1>   0.1500 
 41 H        6.6720     4.1780    -0.7660 H     1 <1>   0.1000 
 42 H        6.5010     2.5100    -0.1390 H     1 <1>   0.1000 
 43 H        5.5650     3.4490     2.0360 H     1 <1>   0.1000 
 44 H        5.7510     5.1040     1.3790 H     1 <1>   0.1000 
@<TRIPOS>BOND
  1   1   2  1   
  2   1   3  1   
  3   2   4  1   
  4   2   5  2   
  5   3   6  2   
  6   3   7  1   
  7   4   8  am  
  8   4  25  1   
  9   5   6  1   
 10   5   9  1   
 11   6  10  1   
 12   7  11  1   
 13   7  26  1   
 14   7  27  1   
 15   8  12  2   
 16   8  13  1   
 17   9  14  2   
 18   9  15  am  
 19  10  16  1   
 20  10  28  1   
 21  10  29  1   
 22  11  16  1   
 23  11  30  1   
 24  11  31  1   
 25  13  17  1   
 26  13  18  2   
 27  15  19  1   
 28  15  32  1   
 29  16  33  1   
 30  16  34  1   
 31  17  20  1   
 32  17  21  1   
 33  18  22  1   
 34  18  35  1   
 35  19  23  1   
 36  19  24  1   
 37  19  36  1   
 38  20  22  2   
 39  21  37  1   
 40  21  38  1   
 41  21  39  1   
 42  22  40  1   
 43  23  24  1   
 44  23  41  1   
 45  23  42  1   
 46  24  43  1   
 47  24  44  1   
@<TRIPOS>SUBSTRUCTURE
  1 ****   2 GROUP 4 **** **** 0

# MOE 2024.06 (io_trps.svl 2023.06)
