@<TRIPOS>MOLECULE
NONAME
46 47 1 0 0 
SMALL
USER_CHARGES


@<TRIPOS>ATOM
  1 O        0.1080    -1.6340     1.1290 O.2   1 <1>  -0.5700 
  2 C        0.1320    -1.3730    -0.0510 C.2   1 <1>   0.5690 
  3 N       -0.9330    -0.8720    -0.7490 N.am  1 <1>  -0.5470 
  4 C        1.4660    -1.6040    -0.7790 C.3   1 <1>   0.4040 
  5 C       -2.2430    -0.5200    -0.3690 C.ar  1 <1>   0.1170 
  6 N        2.6600    -1.5490     0.1480 N.4   1 <1>  -0.9590 
  7 C       -3.0510     0.0810    -1.3410 C.ar  1 <1>   0.0830 
  8 C       -2.7700    -0.7390     0.8990 C.ar  1 <1>  -0.1500 
  9 C        2.8980    -0.1590     0.6350 C.3   1 <1>   0.3430 
 10 C        3.8460    -2.2270    -0.4400 C.3   1 <1>   0.3430 
 11 O       -2.4950     0.2730    -2.5780 O.3   1 <1>  -0.3630 
 12 C       -4.3530     0.4540    -1.0320 C.ar  1 <1>  -0.1500 
 13 C       -4.0680    -0.3660     1.2030 C.ar  1 <1>  -0.1500 
 14 C        3.4960    -0.2000     2.0400 C.3   1 <1>  -0.1600 
 15 C        4.9670    -2.4290     0.5820 C.3   1 <1>  -0.1600 
 16 C       -3.2460     0.8560    -3.6240 C.3   1 <1>   0.0400 
 17 C       -4.8650     0.2340     0.2350 C.ar  1 <1>   0.0830 
 18 C        5.0260    -0.3440     2.0990 C.3   1 <1>  -0.1600 
 19 C        5.6870    -1.1260     0.9560 C.3   1 <1>  -0.1600 
 20 O       -6.1480     0.6310     0.4490 O.3   1 <1>  -0.3620 
 21 C       -6.7630     0.4520     1.7060 C.3   1 <1>   0.0400 
 22 H       -0.8100    -0.6700    -1.7450 H     1 <1>   0.3700 
 23 H        1.5760    -0.8710    -1.5580 H     1 <1>   0.0800 
 24 H        1.4160    -2.5770    -1.2370 H     1 <1>   0.0800 
 25 H        2.3600    -2.0780     0.9860 H     1 <1>   0.4500 
 26 H       -2.1810    -1.2040     1.6660 H     1 <1>   0.1500 
 27 H        1.9550     0.3620     0.6970 H     1 <1>   0.0800 
 28 H        3.5420     0.3840    -0.0370 H     1 <1>   0.0800 
 29 H        4.2210    -1.6550    -1.2730 H     1 <1>   0.0800 
 30 H        3.5500    -3.1960    -0.8110 H     1 <1>   0.0800 
 31 H       -5.0000     0.9180    -1.7500 H     1 <1>   0.1500 
 32 H       -4.4360    -0.5520     2.1940 H     1 <1>   0.1500 
 33 H        3.0290    -0.9880     2.6070 H     1 <1>   0.0800 
 34 H        3.2400     0.7200     2.5370 H     1 <1>   0.0800 
 35 H        5.6930    -3.0780     0.1230 H     1 <1>   0.0800 
 36 H        4.6040    -2.9400     1.4570 H     1 <1>   0.0800 
 37 H       -2.6240     0.9040    -4.5000 H     1 <1>   0.0800 
 38 H       -3.5410     1.8490    -3.3320 H     1 <1>   0.0800 
 39 H       -4.1070     0.2420    -3.8220 H     1 <1>   0.0800 
 40 H        5.2830    -0.8100     3.0360 H     1 <1>   0.0800 
 41 H        5.4670     0.6400     2.1190 H     1 <1>   0.0800 
 42 H        5.7800    -0.4970     0.0870 H     1 <1>   0.0800 
 43 H        6.6910    -1.3670     1.2680 H     1 <1>   0.0800 
 44 H       -7.7660     0.8360     1.6440 H     1 <1>   0.0800 
 45 H       -6.2090     0.9980     2.4480 H     1 <1>   0.0800 
 46 H       -6.7890    -0.5980     1.9370 H     1 <1>   0.0800 
@<TRIPOS>BOND
  1   1   2  2   
  2   2   3  am  
  3   2   4  1   
  4   3   5  1   
  5   3  22  1   
  6   4   6  1   
  7   4  23  1   
  8   4  24  1   
  9   5   7  ar  
 10   5   8  ar  
 11   6   9  1   
 12   6  10  1   
 13   6  25  1   
 14   7  11  1   
 15   7  12  ar  
 16   8  13  ar  
 17   8  26  1   
 18   9  14  1   
 19   9  27  1   
 20   9  28  1   
 21  10  15  1   
 22  10  29  1   
 23  10  30  1   
 24  11  16  1   
 25  12  17  ar  
 26  12  31  1   
 27  13  17  ar  
 28  13  32  1   
 29  14  18  1   
 30  14  33  1   
 31  14  34  1   
 32  15  19  1   
 33  15  35  1   
 34  15  36  1   
 35  16  37  1   
 36  16  38  1   
 37  16  39  1   
 38  17  20  1   
 39  18  19  1   
 40  18  40  1   
 41  18  41  1   
 42  19  42  1   
 43  19  43  1   
 44  20  21  1   
 45  21  44  1   
 46  21  45  1   
 47  21  46  1   
@<TRIPOS>SUBSTRUCTURE
  1 ****   3 GROUP 4 **** **** 0

# MOE 2024.06 (io_trps.svl 2023.06)
