@<TRIPOS>MOLECULE
NONAME
34 35 1 0 0 
SMALL
USER_CHARGES


@<TRIPOS>ATOM
  1 N        0.4150     0.2240     0.5110 N.ar  1 <1>  -0.6200 
  2 C        0.3390    -1.0520     0.7960 C.ar  1 <1>   0.7710 
  3 C        1.6060     0.7060     0.2180 C.ar  1 <1>   0.4100 
  4 N        1.3990    -1.8720     0.7950 N.ar  1 <1>  -0.1790 
  5 N       -0.8710    -1.5180     1.0950 N.pl3 1 <1>  -0.9000 
  6 N        1.6570     2.0250    -0.0620 N.pl3 1 <1>  -0.8380 
  7 C        2.7760    -0.0990     0.1980 C.ar  1 <1>  -0.1430 
  8 C        2.6410    -1.4250     0.4890 C.ar  1 <1>   0.2170 
  9 C        0.9260     2.5910    -1.2230 C.3   1 <1>   0.2090 
 10 C        1.7180     3.0240     1.0330 C.3   1 <1>   0.2090 
 11 C        4.1260     0.5400    -0.1570 C.3   1 <1>  -0.0170 
 12 C        3.7550    -2.4680     0.4980 C.3   1 <1>  -0.0970 
 13 C        0.2550     3.8500    -0.6920 C.3   1 <1>  -0.1600 
 14 C        1.1650     4.3130     0.4380 C.3   1 <1>  -0.1600 
 15 C        4.3790     0.4720    -1.6650 C.3   1 <1>  -0.2400 
 16 H        1.2270    -2.8430     1.0270 H     1 <1>   0.4570 
 17 H       -1.1560    -2.4650     1.3450 H     1 <1>   0.4000 
 18 H       -1.6420    -0.8420     1.0800 H     1 <1>   0.4000 
 19 H        0.2030     1.8960    -1.6150 H     1 <1>   0.0800 
 20 H        1.6350     2.8450    -1.9920 H     1 <1>   0.0800 
 21 H        2.7290     3.1570     1.3780 H     1 <1>   0.0800 
 22 H        1.0970     2.6970     1.8510 H     1 <1>   0.0800 
 23 H        4.9310     0.0580     0.3670 H     1 <1>   0.0800 
 24 H        4.1500     1.5700     0.1540 H     1 <1>   0.0800 
 25 H        3.9890    -2.7500     1.5090 H     1 <1>   0.0800 
 26 H        4.6530    -2.1040     0.0350 H     1 <1>   0.0800 
 27 H        3.4520    -3.3450    -0.0460 H     1 <1>   0.0800 
 28 H       -0.7130     3.5890    -0.3010 H     1 <1>   0.0800 
 29 H        0.1370     4.5950    -1.4590 H     1 <1>   0.0800 
 30 H        1.9800     4.8910     0.0390 H     1 <1>   0.0800 
 31 H        0.6440     4.9000     1.1720 H     1 <1>   0.0800 
 32 H        4.3970    -0.5470    -2.0080 H     1 <1>   0.0800 
 33 H        5.3230     0.9310    -1.9010 H     1 <1>   0.0800 
 34 H        3.6040     1.0010    -2.1930 H     1 <1>   0.0800 
@<TRIPOS>BOND
  1   1   2  ar  
  2   1   3  ar  
  3   2   4  ar  
  4   2   5  1   
  5   3   6  1   
  6   3   7  ar  
  7   4   8  ar  
  8   4  16  1   
  9   5  17  1   
 10   5  18  1   
 11   6   9  1   
 12   6  10  1   
 13   7   8  ar  
 14   7  11  1   
 15   8  12  1   
 16   9  13  1   
 17   9  19  1   
 18   9  20  1   
 19  10  14  1   
 20  10  21  1   
 21  10  22  1   
 22  11  15  1   
 23  11  23  1   
 24  11  24  1   
 25  12  25  1   
 26  12  26  1   
 27  12  27  1   
 28  13  14  1   
 29  13  28  1   
 30  13  29  1   
 31  14  30  1   
 32  14  31  1   
 33  15  32  1   
 34  15  33  1   
 35  15  34  1   
@<TRIPOS>SUBSTRUCTURE
  1 ****   3 GROUP 4 **** **** 0

# MOE 2024.06 (io_trps.svl 2023.06)
