@<TRIPOS>MOLECULE
NONAME
43 44 1 0 0 
SMALL
USER_CHARGES


@<TRIPOS>ATOM
  1 O       -0.3820    -0.4140     0.0030 O.2   1 <1>  -0.5700 
  2 C       -0.2690    -1.6040     0.1810 C.2   1 <1>   0.5690 
  3 N        0.9570    -2.1770     0.4060 N.am  1 <1>  -0.6600 
  4 C       -1.5250    -2.4710     0.1520 C.3   1 <1>  -0.0990 
  5 C        2.1980    -1.3460     0.4950 C.3   1 <1>   0.1400 
  6 C        1.2310    -3.6390     0.5620 C.3   1 <1>   0.1400 
  7 C       -2.8460    -1.6820     0.0650 C.3   1 <1>  -0.1600 
  8 C        3.3020    -1.9150    -0.4110 C.3   1 <1>   0.1200 
  9 C        2.3900    -4.0750    -0.3510 C.3   1 <1>   0.1200 
 10 C       -4.0570    -2.6150     0.0570 C.3   1 <1>   0.1200 
 11 O        3.5160    -3.2720    -0.1400 O.3   1 <1>  -0.5600 
 12 O       -5.2190    -1.8240    -0.0190 O.3   1 <1>  -0.3630 
 13 C       -6.4670    -2.3690    -0.0320 C.ar  1 <1>   0.0820 
 14 C       -7.5560    -1.4980    -0.0890 C.ar  1 <1>  -0.1440 
 15 C       -6.6780    -3.7450     0.0120 C.ar  1 <1>  -0.1500 
 16 C       -8.8510    -2.0150    -0.0870 C.ar  1 <1>  -0.1440 
 17 C       -7.2840     0.0060    -0.1440 C.3   1 <1>  -0.0970 
 18 C       -7.9630    -4.2500     0.0050 C.ar  1 <1>  -0.1500 
 19 C       -9.0410    -3.3880    -0.0420 C.ar  1 <1>  -0.1500 
 20 C      -10.0850    -1.1230    -0.1280 C.3   1 <1>  -0.0970 
 21 H       -1.5400    -3.0660     1.0460 H     1 <1>   0.0800 
 22 H       -1.4540    -3.1260    -0.6960 H     1 <1>   0.0800 
 23 H        2.5450    -1.3380     1.5130 H     1 <1>   0.0800 
 24 H        1.9980    -0.3290     0.2080 H     1 <1>   0.0800 
 25 H        0.3640    -4.2250     0.3230 H     1 <1>   0.0800 
 26 H        1.4980    -3.8390     1.5850 H     1 <1>   0.0800 
 27 H       -2.8490    -1.0910    -0.8350 H     1 <1>   0.0800 
 28 H       -2.9170    -1.0160     0.9080 H     1 <1>   0.0800 
 29 H        4.2270    -1.3950    -0.2390 H     1 <1>   0.0800 
 30 H        3.0320    -1.8060    -1.4480 H     1 <1>   0.0800 
 31 H        2.1060    -4.0030    -1.3870 H     1 <1>   0.0800 
 32 H        2.6700    -5.0910    -0.1380 H     1 <1>   0.0800 
 33 H       -4.1010    -3.1910     0.9640 H     1 <1>   0.0800 
 34 H       -4.0340    -3.2630    -0.8020 H     1 <1>   0.0800 
 35 H       -5.8610    -4.4370     0.0510 H     1 <1>   0.1500 
 36 H       -6.9530     0.3440     0.8210 H     1 <1>   0.0800 
 37 H       -8.1450     0.5750    -0.4320 H     1 <1>   0.0800 
 38 H       -6.5090     0.2120    -0.8600 H     1 <1>   0.0800 
 39 H       -8.1270    -5.3120     0.0380 H     1 <1>   0.1500 
 40 H      -10.0360    -3.7980    -0.0440 H     1 <1>   0.1500 
 41 H      -10.1300    -0.6040    -1.0680 H     1 <1>   0.0800 
 42 H      -10.0480    -0.4060     0.6720 H     1 <1>   0.0800 
 43 H      -10.9850    -1.7000    -0.0180 H     1 <1>   0.0800 
@<TRIPOS>BOND
  1   1   2  2   
  2   2   3  am  
  3   2   4  1   
  4   3   5  1   
  5   3   6  1   
  6   4   7  1   
  7   4  21  1   
  8   4  22  1   
  9   5   8  1   
 10   5  23  1   
 11   5  24  1   
 12   6   9  1   
 13   6  25  1   
 14   6  26  1   
 15   7  10  1   
 16   7  27  1   
 17   7  28  1   
 18   8  11  1   
 19   8  29  1   
 20   8  30  1   
 21   9  11  1   
 22   9  31  1   
 23   9  32  1   
 24  10  12  1   
 25  10  33  1   
 26  10  34  1   
 27  12  13  1   
 28  13  14  ar  
 29  13  15  ar  
 30  14  16  ar  
 31  14  17  1   
 32  15  18  ar  
 33  15  35  1   
 34  16  19  ar  
 35  16  20  1   
 36  17  36  1   
 37  17  37  1   
 38  17  38  1   
 39  18  19  ar  
 40  18  39  1   
 41  19  40  1   
 42  20  41  1   
 43  20  42  1   
 44  20  43  1   
@<TRIPOS>SUBSTRUCTURE
  1 ****   7 GROUP 4 **** **** 0

# MOE 2024.06 (io_trps.svl 2023.06)
