@<TRIPOS>MOLECULE
NONAME
35 37 1 0 0 
SMALL
USER_CHARGES


@<TRIPOS>ATOM
  1 CL       0.0280     0.0880     0.2700 Cl    1 <1>  -0.1770 
  2 C        1.5790     0.8880     0.2030 C.ar  1 <1>   0.1770 
  3 C        1.6450     2.2070    -0.2030 C.ar  1 <1>  -0.1500 
  4 C        2.7190     0.1920     0.5570 C.ar  1 <1>  -0.1500 
  5 C        2.8760     2.8380    -0.2550 C.ar  1 <1>  -0.1500 
  6 C        3.9460     0.8320     0.5030 C.ar  1 <1>  -0.1500 
  7 C        4.0420     2.1610     0.0930 C.ar  1 <1>   0.1170 
  8 N        5.2630     2.8480     0.0370 N.am  1 <1>  -0.5470 
  9 C        6.5360     2.3900    -0.1300 C.2   1 <1>   0.6900 
 10 O        6.7760     1.2250    -0.3750 O.2   1 <1>  -0.5700 
 11 N        7.5390     3.2930    -0.0240 N.am  1 <1>  -0.7300 
 12 C        8.9740     2.9780    -0.1770 C.3   1 <1>   0.2200 
 13 C        9.7080     3.2010     1.1580 C.3   1 <1>  -0.0800 
 14 C        9.6430     4.0040    -1.1070 C.3   1 <1>  -0.1600 
 15 C        9.9810     4.6990     1.1360 C.3   1 <1>  -0.1600 
 16 C       11.1320     2.6380     1.0140 C.3   1 <1>  -0.1600 
 17 C       10.6960     4.6710    -0.2040 C.3   1 <1>  -0.0800 
 18 C       11.8110     3.6480     0.0720 C.3   1 <1>  -0.1600 
 19 H        0.7430     2.7260    -0.4740 H     1 <1>   0.1500 
 20 H        2.6470    -0.8340     0.8700 H     1 <1>   0.1500 
 21 H        2.9300     3.8630    -0.5740 H     1 <1>   0.1500 
 22 H        4.8330     0.2920     0.7830 H     1 <1>   0.1500 
 23 H        5.1910     3.8580     0.0030 H     1 <1>   0.3700 
 24 H        7.3510     4.2140     0.3580 H     1 <1>   0.3700 
 25 H        9.1070     1.9700    -0.5360 H     1 <1>   0.0800 
 26 H        9.1800     2.8240     2.0170 H     1 <1>   0.0800 
 27 H        8.9360     4.7320    -1.4630 H     1 <1>   0.0800 
 28 H       10.1020     3.5190    -1.9510 H     1 <1>   0.0800 
 29 H       10.6200     5.0180     1.9430 H     1 <1>   0.0800 
 30 H        9.0850     5.2960     1.1180 H     1 <1>   0.0800 
 31 H       11.1300     1.6410     0.6060 H     1 <1>   0.0800 
 32 H       11.6280     2.6270     1.9690 H     1 <1>   0.0800 
 33 H       11.0500     5.6230    -0.5620 H     1 <1>   0.0800 
 34 H       12.1650     3.1830    -0.8320 H     1 <1>   0.0800 
 35 H       12.6390     4.1220     0.5710 H     1 <1>   0.0800 
@<TRIPOS>BOND
  1   1   2  1   
  2   2   3  ar  
  3   2   4  ar  
  4   3   5  ar  
  5   3  19  1   
  6   4   6  ar  
  7   4  20  1   
  8   5   7  ar  
  9   5  21  1   
 10   6   7  ar  
 11   6  22  1   
 12   7   8  1   
 13   8   9  am  
 14   8  23  1   
 15   9  10  2   
 16   9  11  am  
 17  11  12  1   
 18  11  24  1   
 19  12  13  1   
 20  12  14  1   
 21  12  25  1   
 22  13  15  1   
 23  13  16  1   
 24  13  26  1   
 25  14  17  1   
 26  14  27  1   
 27  14  28  1   
 28  15  17  1   
 29  15  29  1   
 30  15  30  1   
 31  16  18  1   
 32  16  31  1   
 33  16  32  1   
 34  17  18  1   
 35  17  33  1   
 36  18  34  1   
 37  18  35  1   
@<TRIPOS>SUBSTRUCTURE
  1 ****   9 GROUP 4 **** **** 0

# MOE 2024.06 (io_trps.svl 2023.06)
