@<TRIPOS>MOLECULE
NONAME
29 30 1 0 0 
SMALL
USER_CHARGES


@<TRIPOS>ATOM
  1 S        0.0980    -0.0590    -0.7320 S.3   1 <1>  -0.3710 
  2 C       -0.3640     1.6630    -0.9480 C.2   1 <1>   0.9200 
  3 C       -0.9560    -0.8430     0.5710 C.3   1 <1>  -0.0100 
  4 N       -0.0280     2.7780    -1.4150 N.2   1 <1>  -0.3320 
  5 N       -1.2860     2.7770    -0.7570 N.2   1 <1>   0.1530 
  6 C       -2.3750     3.4950    -0.4110 C.2   1 <1>   0.5970 
  7 N       -2.2710     4.8060    -0.6420 N.2   1 <1>  -0.6610 
  8 C       -3.5660     2.9240     0.1420 C.2   1 <1>  -0.1240 
  9 C       -3.2970     5.5530    -0.3530 C.2   1 <1>   0.5500 
 10 C       -4.6190     3.7510     0.4030 C.2   1 <1>  -0.0380 
 11 C       -3.6540     1.4270     0.4260 C.3   1 <1>  -0.0220 
 12 N       -4.4380     5.0690     0.1500 N.pl3 1 <1>  -0.5500 
 13 N       -3.1960     6.8530    -0.5740 N.pl3 1 <1>  -0.8500 
 14 C       -5.9920     3.3790     0.9450 C.3   1 <1>  -0.1020 
 15 C       -4.0060     0.6450    -0.8440 C.3   1 <1>  -0.2400 
 16 H       -0.5140    -1.7960     0.8070 H     1 <1>   0.0800 
 17 H       -1.9430    -0.9890     0.1740 H     1 <1>   0.0800 
 18 H       -0.9560    -0.2120     1.4430 H     1 <1>   0.0800 
 19 H       -4.4000     1.2250     1.1750 H     1 <1>   0.0800 
 20 H       -2.7320     1.0880     0.8510 H     1 <1>   0.0800 
 21 H       -5.1850     5.7390     0.3360 H     1 <1>   0.4000 
 22 H       -2.3290     7.2270    -0.9630 H     1 <1>   0.4000 
 23 H       -3.9240     7.5410    -0.3930 H     1 <1>   0.4000 
 24 H       -6.0440     3.5990     1.9970 H     1 <1>   0.0800 
 25 H       -6.2250     2.3420     0.7950 H     1 <1>   0.0800 
 26 H       -6.7540     3.9480     0.4410 H     1 <1>   0.0800 
 27 H       -4.9410     0.9990    -1.2450 H     1 <1>   0.0800 
 28 H       -4.1200    -0.4010    -0.6170 H     1 <1>   0.0800 
 29 H       -3.2520     0.7520    -1.6020 H     1 <1>   0.0800 
@<TRIPOS>BOND
  1   1   2  1   
  2   1   3  1   
  3   2   4  2   
  4   2   5  1   
  5   3  16  1   
  6   3  17  1   
  7   3  18  1   
  8   4   5  1   
  9   5   6  2   
 10   6   7  1   
 11   6   8  1   
 12   7   9  2   
 13   8  10  2   
 14   8  11  1   
 15   9  12  1   
 16   9  13  1   
 17  10  12  1   
 18  10  14  1   
 19  11  15  1   
 20  11  19  1   
 21  11  20  1   
 22  12  21  1   
 23  13  22  1   
 24  13  23  1   
 25  14  24  1   
 26  14  25  1   
 27  14  26  1   
 28  15  27  1   
 29  15  28  1   
 30  15  29  1   
@<TRIPOS>SUBSTRUCTURE
  1 ****   6 GROUP 4 **** **** 0

# MOE 2024.06 (io_trps.svl 2023.06)
