@<TRIPOS>MOLECULE
NONAME
37 38 1 0 0 
SMALL
USER_CHARGES


@<TRIPOS>ATOM
  1 BR      -2.0030    -2.0870     2.2240 Br    1 <1>  -0.1110 
  2 C       -0.7060    -2.6320     0.9130 C.ar  1 <1>   0.1110 
  3 C        0.5300    -3.0720     1.3450 C.ar  1 <1>  -0.1500 
  4 C       -1.0480    -2.5670    -0.4250 C.ar  1 <1>  -0.1500 
  5 C        1.4880    -3.4660     0.4110 C.ar  1 <1>   0.0860 
  6 C       -0.1090    -2.9630    -1.3610 C.ar  1 <1>  -0.1500 
  7 C        1.1350    -3.4050    -0.9380 C.ar  1 <1>   0.1770 
  8 C        2.7870    -3.9260     0.8420 C.2   1 <1>   0.5440 
  9 CL       2.2790    -3.8920    -2.1650 Cl    1 <1>  -0.1770 
 10 O        2.8720    -5.0190     1.3660 O.2   1 <1>  -0.5700 
 11 N        3.9210    -3.1520     0.7100 N.am  1 <1>  -0.6600 
 12 C        5.2780    -3.6740     1.0700 C.3   1 <1>   0.1400 
 13 C        3.9400    -1.7520     0.1760 C.3   1 <1>   0.1400 
 14 C        6.2500    -3.5450    -0.1130 C.3   1 <1>   0.1400 
 15 C        4.9160    -1.6220    -1.0050 C.3   1 <1>   0.1400 
 16 N        6.2620    -2.1460    -0.6350 N.am  1 <1>  -0.6600 
 17 C        7.3830    -1.3620    -0.6840 C.2   1 <1>   0.7800 
 18 O        7.3550    -0.2020    -1.0500 O.2   1 <1>  -0.5700 
 19 O        8.5400    -1.9070    -0.3050 O.3   1 <1>  -0.4300 
 20 C        9.7340    -1.1600    -0.3320 C.3   1 <1>   0.1200 
 21 C       10.8660    -2.0580     0.1580 C.3   1 <1>  -0.2400 
 22 H        0.7550    -3.1170     2.3960 H     1 <1>   0.1500 
 23 H       -2.0230    -2.2190    -0.7210 H     1 <1>   0.1500 
 24 H       -0.3360    -2.9320    -2.4130 H     1 <1>   0.1500 
 25 H        5.2250    -4.7070     1.3650 H     1 <1>   0.0800 
 26 H        5.6610    -3.1150     1.9060 H     1 <1>   0.0800 
 27 H        4.2540    -1.0850     0.9600 H     1 <1>   0.0800 
 28 H        2.9610    -1.4450    -0.1410 H     1 <1>   0.0800 
 29 H        5.9370    -4.2110    -0.8990 H     1 <1>   0.0800 
 30 H        7.2320    -3.8480     0.2020 H     1 <1>   0.0800 
 31 H        4.9790    -0.5900    -1.3010 H     1 <1>   0.0800 
 32 H        4.5410    -2.1810    -1.8440 H     1 <1>   0.0800 
 33 H        9.6140    -0.3030     0.3100 H     1 <1>   0.0800 
 34 H        9.9090    -0.8330    -1.3430 H     1 <1>   0.0800 
 35 H       10.6710    -2.3830     1.1640 H     1 <1>   0.0800 
 36 H       11.7920    -1.5120     0.1470 H     1 <1>   0.0800 
 37 H       10.9640    -2.9130    -0.4860 H     1 <1>   0.0800 
@<TRIPOS>BOND
  1   1   2  1   
  2   2   3  ar  
  3   2   4  ar  
  4   3   5  ar  
  5   3  22  1   
  6   4   6  ar  
  7   4  23  1   
  8   5   7  ar  
  9   5   8  1   
 10   6   7  ar  
 11   6  24  1   
 12   7   9  1   
 13   8  10  2   
 14   8  11  am  
 15  11  12  1   
 16  11  13  1   
 17  12  14  1   
 18  12  25  1   
 19  12  26  1   
 20  13  15  1   
 21  13  27  1   
 22  13  28  1   
 23  14  16  1   
 24  14  29  1   
 25  14  30  1   
 26  15  16  1   
 27  15  31  1   
 28  15  32  1   
 29  16  17  am  
 30  17  18  2   
 31  17  19  1   
 32  19  20  1   
 33  20  21  1   
 34  20  33  1   
 35  20  34  1   
 36  21  35  1   
 37  21  36  1   
 38  21  37  1   
@<TRIPOS>SUBSTRUCTURE
  1 ****  11 GROUP 4 **** **** 0

# MOE 2024.06 (io_trps.svl 2023.06)
