@<TRIPOS>MOLECULE
NONAME
78 79 1 0 0 
SMALL
USER_CHARGES


@<TRIPOS>ATOM
  1 O        0.0070    -0.4700    -1.1920 O.2   1 <1>  -0.5700 
  2 C       -0.8140    -1.3160    -0.9230 C.2   1 <1>   0.5690 
  3 N       -2.0360    -0.9930    -0.4330 N.am  1 <1>  -0.7300 
  4 C       -0.4710    -2.7820    -1.1020 C.3   1 <1>  -0.0990 
  5 C       -2.5170     0.3810    -0.2360 C.3   1 <1>   0.2200 
  6 C       -0.1160    -3.5260     0.2050 C.3   1 <1>  -0.1600 
  7 C       -2.2350     0.8040     1.2030 C.3   1 <1>  -0.1600 
  8 C       -4.0180     0.4300    -0.5010 C.3   1 <1>  -0.1600 
  9 C        1.1570    -2.9910     0.8840 C.3   1 <1>  -0.1600 
 10 C       -2.7690     2.2080     1.5120 C.3   1 <1>   0.5030 
 11 C       -4.6060     1.8260    -0.2460 C.3   1 <1>   0.5030 
 12 C        0.9010    -1.8080     1.8430 C.3   1 <1>  -0.0990 
 13 N       -4.1580     2.3680     1.0480 N.4   1 <1>  -0.9060 
 14 C       -1.8840     3.3020     0.9090 C.3   1 <1>  -0.2400 
 15 C       -2.8150     2.4140     3.0240 C.3   1 <1>  -0.2400 
 16 C       -4.2680     2.8070    -1.3720 C.3   1 <1>  -0.2400 
 17 C       -6.1270     1.7280    -0.1440 C.3   1 <1>  -0.2400 
 18 C        2.0100    -0.7790     1.7860 C.2   1 <1>   0.5690 
 19 O        2.7760    -0.6600     2.7090 O.2   1 <1>  -0.5700 
 20 N        2.1160    -0.0240     0.6660 N.am  1 <1>  -0.7300 
 21 C        3.2360     0.8710     0.3780 C.3   1 <1>   0.2200 
 22 C        2.7730     1.9400    -0.6040 C.3   1 <1>  -0.1600 
 23 C        4.3590     0.0480    -0.2450 C.3   1 <1>  -0.1600 
 24 C        3.9200     2.8610    -1.0370 C.3   1 <1>   0.5030 
 25 C        5.5530     0.9150    -0.6550 C.3   1 <1>   0.5030 
 26 N        5.1120     2.0890    -1.4270 N.4   1 <1>  -0.9060 
 27 C        4.2850     3.8770     0.0490 C.3   1 <1>  -0.2400 
 28 C        3.5080     3.6340    -2.2890 C.3   1 <1>  -0.2400 
 29 C        6.3890     1.3560     0.5500 C.3   1 <1>  -0.2400 
 30 C        6.4600     0.1240    -1.5960 C.3   1 <1>  -0.2400 
 31 H       -2.6830    -1.7480    -0.1960 H     1 <1>   0.3700 
 32 H       -1.3080    -3.2700    -1.5670 H     1 <1>   0.0800 
 33 H        0.3550    -2.8570    -1.7870 H     1 <1>   0.0800 
 34 H       -1.9980     1.0300    -0.9220 H     1 <1>   0.0800 
 35 H        0.0530    -4.5590    -0.0480 H     1 <1>   0.0800 
 36 H       -0.9440    -3.5010     0.8920 H     1 <1>   0.0800 
 37 H       -1.1730     0.7890     1.3740 H     1 <1>   0.0800 
 38 H       -2.6820     0.0910     1.8740 H     1 <1>   0.0800 
 39 H       -4.5120    -0.2850     0.1330 H     1 <1>   0.0800 
 40 H       -4.2080     0.1470    -1.5220 H     1 <1>   0.0800 
 41 H        1.8730    -2.7190     0.1260 H     1 <1>   0.0800 
 42 H        1.6080    -3.7850     1.4570 H     1 <1>   0.0800 
 43 H        0.8200    -2.1770     2.8500 H     1 <1>   0.0800 
 44 H       -0.0210    -1.3140     1.6140 H     1 <1>   0.0800 
 45 H       -4.3820     3.3650     1.0660 H     1 <1>   0.4500 
 46 H       -4.7490     1.9360     1.7600 H     1 <1>   0.4500 
 47 H       -1.6850     3.1430    -0.1310 H     1 <1>   0.0800 
 48 H       -0.9280     3.3040     1.4040 H     1 <1>   0.0800 
 49 H       -2.3200     4.2760     1.0430 H     1 <1>   0.0800 
 50 H       -3.4470     1.6870     3.5030 H     1 <1>   0.0800 
 51 H       -3.1630     3.4020     3.2740 H     1 <1>   0.0800 
 52 H       -1.8270     2.3050     3.4390 H     1 <1>   0.0800 
 53 H       -3.2220     2.8280    -1.6000 H     1 <1>   0.0800 
 54 H       -4.6010     3.8020    -1.1360 H     1 <1>   0.0800 
 55 H       -4.7690     2.5050    -2.2760 H     1 <1>   0.0800 
 56 H       -6.4270     1.0700     0.6520 H     1 <1>   0.0800 
 57 H       -6.5310     1.3310    -1.0600 H     1 <1>   0.0800 
 58 H       -6.5710     2.6960     0.0130 H     1 <1>   0.0800 
 59 H        1.4430    -0.1860    -0.1000 H     1 <1>   0.3700 
 60 H        3.5660     1.3190     1.3020 H     1 <1>   0.0800 
 61 H        1.9950     2.5270    -0.1490 H     1 <1>   0.0800 
 62 H        2.3510     1.4580    -1.4700 H     1 <1>   0.0800 
 63 H        3.9760    -0.4720    -1.1050 H     1 <1>   0.0800 
 64 H        4.6870    -0.6940     0.4630 H     1 <1>   0.0800 
 65 H        5.8990     2.7350    -1.4960 H     1 <1>   0.4500 
 66 H        4.9350     1.7520    -2.3750 H     1 <1>   0.4500 
 67 H        4.4360     3.4170     1.0050 H     1 <1>   0.0800 
 68 H        3.4770     4.5760     0.1760 H     1 <1>   0.0800 
 69 H        5.1620     4.4390    -0.2180 H     1 <1>   0.0800 
 70 H        3.2620     2.9690    -3.0980 H     1 <1>   0.0800 
 71 H        4.2860     4.3040    -2.6080 H     1 <1>   0.0800 
 72 H        2.6330     4.2270    -2.0830 H     1 <1>   0.0800 
 73 H        5.7920     1.7850     1.3290 H     1 <1>   0.0800 
 74 H        7.1570     2.0510     0.2630 H     1 <1>   0.0800 
 75 H        6.8720     0.4970     0.9840 H     1 <1>   0.0800 
 76 H        5.9310    -0.1920    -2.4780 H     1 <1>   0.0800 
 77 H        6.8150    -0.7630    -1.1000 H     1 <1>   0.0800 
 78 H        7.3200     0.7000    -1.8870 H     1 <1>   0.0800 
@<TRIPOS>BOND
  1   1   2  2   
  2   2   3  am  
  3   2   4  1   
  4   3   5  1   
  5   3  31  1   
  6   4   6  1   
  7   4  32  1   
  8   4  33  1   
  9   5   7  1   
 10   5   8  1   
 11   5  34  1   
 12   6   9  1   
 13   6  35  1   
 14   6  36  1   
 15   7  10  1   
 16   7  37  1   
 17   7  38  1   
 18   8  11  1   
 19   8  39  1   
 20   8  40  1   
 21   9  12  1   
 22   9  41  1   
 23   9  42  1   
 24  10  13  1   
 25  10  14  1   
 26  10  15  1   
 27  11  13  1   
 28  11  16  1   
 29  11  17  1   
 30  12  18  1   
 31  12  43  1   
 32  12  44  1   
 33  13  45  1   
 34  13  46  1   
 35  14  47  1   
 36  14  48  1   
 37  14  49  1   
 38  15  50  1   
 39  15  51  1   
 40  15  52  1   
 41  16  53  1   
 42  16  54  1   
 43  16  55  1   
 44  17  56  1   
 45  17  57  1   
 46  17  58  1   
 47  18  19  2   
 48  18  20  am  
 49  20  21  1   
 50  20  59  1   
 51  21  22  1   
 52  21  23  1   
 53  21  60  1   
 54  22  24  1   
 55  22  61  1   
 56  22  62  1   
 57  23  25  1   
 58  23  63  1   
 59  23  64  1   
 60  24  26  1   
 61  24  27  1   
 62  24  28  1   
 63  25  26  1   
 64  25  29  1   
 65  25  30  1   
 66  26  65  1   
 67  26  66  1   
 68  27  67  1   
 69  27  68  1   
 70  27  69  1   
 71  28  70  1   
 72  28  71  1   
 73  28  72  1   
 74  29  73  1   
 75  29  74  1   
 76  29  75  1   
 77  30  76  1   
 78  30  77  1   
 79  30  78  1   
@<TRIPOS>SUBSTRUCTURE
  1 ****   1 GROUP 4 **** **** 0

# MOE 2024.06 (io_trps.svl 2023.06)
