@<TRIPOS>MOLECULE
NONAME
35 35 1 0 0 
SMALL
USER_CHARGES


@<TRIPOS>ATOM
  1 S       -0.0390     0.2490     1.8950 S.o2  1 <1>   1.3330 
  2 O        0.4900    -0.4460     3.0410 O.2   1 <1>  -0.6500 
  3 O        0.1950     1.6580     1.6970 O.2   1 <1>  -0.6500 
  4 N       -1.7320    -0.0050     2.0090 N.am  1 <1>  -0.7570 
  5 C        0.3830    -0.6670     0.4100 C.3   1 <1>  -0.0550 
  6 C       -2.7200     0.2970     1.0810 C.ar  1 <1>   0.1990 
  7 C        1.8860    -0.6560     0.0850 C.3   1 <1>  -0.1600 
  8 C       -2.6020     1.3460     0.1760 C.ar  1 <1>  -0.1500 
  9 C       -3.8700    -0.4820     1.0470 C.ar  1 <1>  -0.1500 
 10 C        2.1850    -1.4500    -1.1920 C.3   1 <1>  -0.1600 
 11 C       -3.5950     1.6020    -0.7530 C.ar  1 <1>  -0.1430 
 12 C       -4.8720    -0.2380     0.1240 C.ar  1 <1>  -0.1430 
 13 C        3.6830    -1.4340    -1.5080 C.3   1 <1>  -0.2400 
 14 C       -4.7280     0.8050    -0.7760 C.ar  1 <1>  -0.1500 
 15 C       -3.4600     2.7470    -1.7400 C.3   1 <1>  -0.0970 
 16 C       -6.1260    -1.0930     0.0870 C.3   1 <1>  -0.0970 
 17 H       -1.9390    -0.6610     2.7550 H     1 <1>   0.4200 
 18 H       -0.1520    -0.2480    -0.4210 H     1 <1>   0.0800 
 19 H        0.0610    -1.6840     0.5250 H     1 <1>   0.0800 
 20 H        2.4290    -1.0820     0.9120 H     1 <1>   0.0800 
 21 H        2.2130     0.3630    -0.0370 H     1 <1>   0.0800 
 22 H       -1.7330     1.9770     0.2020 H     1 <1>   0.1500 
 23 H       -3.9760    -1.2870     1.7490 H     1 <1>   0.1500 
 24 H        1.6450    -1.0230    -2.0210 H     1 <1>   0.0800 
 25 H        1.8620    -2.4700    -1.0710 H     1 <1>   0.0800 
 26 H        4.0260    -0.4240    -1.6560 H     1 <1>   0.0800 
 27 H        3.8760    -1.9940    -2.4060 H     1 <1>   0.0800 
 28 H        4.2430    -1.8760    -0.7030 H     1 <1>   0.0800 
 29 H       -5.5030     1.0000    -1.4960 H     1 <1>   0.1500 
 30 H       -2.5880     3.3390    -1.5260 H     1 <1>   0.0800 
 31 H       -4.3250     3.3830    -1.6830 H     1 <1>   0.0800 
 32 H       -3.3770     2.3610    -2.7400 H     1 <1>   0.0800 
 33 H       -6.0810    -1.8780     0.8210 H     1 <1>   0.0800 
 34 H       -6.2360    -1.5390    -0.8850 H     1 <1>   0.0800 
 35 H       -6.9890    -0.4840     0.2900 H     1 <1>   0.0800 
@<TRIPOS>BOND
  1   1   2  2   
  2   1   3  2   
  3   1   4  am  
  4   1   5  1   
  5   4   6  1   
  6   4  17  1   
  7   5   7  1   
  8   5  18  1   
  9   5  19  1   
 10   6   8  ar  
 11   6   9  ar  
 12   7  10  1   
 13   7  20  1   
 14   7  21  1   
 15   8  11  ar  
 16   8  22  1   
 17   9  12  ar  
 18   9  23  1   
 19  10  13  1   
 20  10  24  1   
 21  10  25  1   
 22  11  14  ar  
 23  11  15  1   
 24  12  14  ar  
 25  12  16  1   
 26  13  26  1   
 27  13  27  1   
 28  13  28  1   
 29  14  29  1   
 30  15  30  1   
 31  15  31  1   
 32  15  32  1   
 33  16  33  1   
 34  16  34  1   
 35  16  35  1   
@<TRIPOS>SUBSTRUCTURE
  1 ****   6 GROUP 4 **** **** 0

# MOE 2024.06 (io_trps.svl 2023.06)
