@<TRIPOS>MOLECULE
NONAME
48 51 1 0 0 
SMALL
USER_CHARGES


@<TRIPOS>ATOM
  1 N        1.9820     2.6180     0.8200 N.4   1 <1>  -0.8520 
  2 C        0.5620     2.4850     1.1630 C.3   1 <1>   0.2960 
  3 C        2.8150     1.5310     1.3900 C.3   1 <1>   0.4860 
  4 C        2.5010     3.9690     1.1310 C.3   1 <1>   0.4860 
  5 C       -0.3180     1.6970     0.2630 C.3   1 <1>  -0.1950 
  6 C       -0.4080     3.2020     0.2940 C.3   1 <1>  -0.1950 
  7 C        2.8860     0.4290     0.3570 C.ar  1 <1>  -0.1440 
  8 C        3.8240     4.1370     0.4120 C.ar  1 <1>  -0.1440 
  9 C       -1.7520     1.1800     0.1520 C.3   1 <1>  -0.0650 
 10 C       -0.6600     3.6380    -1.1510 C.3   1 <1>  -0.0650 
 11 C        3.7470     0.5530    -0.7240 C.ar  1 <1>  -0.1500 
 12 C        2.0920    -0.7030     0.4740 C.ar  1 <1>  -0.1500 
 13 C        5.0180     4.1120     1.1190 C.ar  1 <1>  -0.1500 
 14 C        3.8480     4.3040    -0.9660 C.ar  1 <1>  -0.1500 
 15 C       -2.2730     1.6090    -1.2390 C.3   1 <1>  -0.1600 
 16 C       -2.0630     3.1170    -1.5400 C.3   1 <1>  -0.1600 
 17 C        3.8040    -0.4410    -1.6850 C.ar  1 <1>  -0.1500 
 18 C        2.1510    -1.6960    -0.4890 C.ar  1 <1>  -0.1500 
 19 C        6.2240     4.2350     0.4520 C.ar  1 <1>  -0.1500 
 20 C        5.0560     4.4270    -1.6300 C.ar  1 <1>  -0.1500 
 21 C        3.0050    -1.5640    -1.5690 C.ar  1 <1>  -0.1500 
 22 C        6.2430     4.3900    -0.9220 C.ar  1 <1>  -0.1500 
 23 H        2.0580     2.4990    -0.1960 H     1 <1>   0.4500 
 24 H        0.3720     2.4440     2.2250 H     1 <1>   0.1000 
 25 H        2.3890     1.1650     2.3090 H     1 <1>   0.0800 
 26 H        3.8140     1.8820     1.5860 H     1 <1>   0.0800 
 27 H        2.6280     4.0900     2.1940 H     1 <1>   0.0800 
 28 H        1.8100     4.7180     0.7800 H     1 <1>   0.0800 
 29 H        0.2560     1.2080    -0.5070 H     1 <1>   0.1000 
 30 H       -1.1590     3.6730     0.9080 H     1 <1>   0.1000 
 31 H       -2.3750     1.5940     0.9260 H     1 <1>   0.0800 
 32 H       -1.7720     0.1070     0.2390 H     1 <1>   0.0800 
 33 H        0.0820     3.2290    -1.8160 H     1 <1>   0.0800 
 34 H       -0.6330     4.7110    -1.2300 H     1 <1>   0.0800 
 35 H        4.3860     1.4150    -0.8310 H     1 <1>   0.1500 
 36 H        1.4210    -0.8270     1.3070 H     1 <1>   0.1500 
 37 H        5.0300     4.0000     2.1910 H     1 <1>   0.1500 
 38 H        2.9380     4.3440    -1.5390 H     1 <1>   0.1500 
 39 H       -3.3180     1.3670    -1.3230 H     1 <1>   0.0800 
 40 H       -1.7520     1.0380    -1.9890 H     1 <1>   0.0800 
 41 H       -2.2400     3.3020    -2.5860 H     1 <1>   0.0800 
 42 H       -2.8000     3.6770    -0.9900 H     1 <1>   0.0800 
 43 H        4.4730    -0.3450    -2.5240 H     1 <1>   0.1500 
 44 H        1.5340    -2.5740    -0.4000 H     1 <1>   0.1500 
 45 H        7.1520     4.2150     0.9990 H     1 <1>   0.1500 
 46 H        5.0760     4.5560    -2.7000 H     1 <1>   0.1500 
 47 H        3.0500    -2.3370    -2.3170 H     1 <1>   0.1500 
 48 H        7.1830     4.4860    -1.4400 H     1 <1>   0.1500 
@<TRIPOS>BOND
  1   1   2  1   
  2   1   3  1   
  3   1   4  1   
  4   1  23  1   
  5   2   5  1   
  6   2   6  1   
  7   2  24  1   
  8   3   7  1   
  9   3  25  1   
 10   3  26  1   
 11   4   8  1   
 12   4  27  1   
 13   4  28  1   
 14   5   6  1   
 15   5   9  1   
 16   5  29  1   
 17   6  10  1   
 18   6  30  1   
 19   7  11  ar  
 20   7  12  ar  
 21   8  13  ar  
 22   8  14  ar  
 23   9  15  1   
 24   9  31  1   
 25   9  32  1   
 26  10  16  1   
 27  10  33  1   
 28  10  34  1   
 29  11  17  ar  
 30  11  35  1   
 31  12  18  ar  
 32  12  36  1   
 33  13  19  ar  
 34  13  37  1   
 35  14  20  ar  
 36  14  38  1   
 37  15  16  1   
 38  15  39  1   
 39  15  40  1   
 40  16  41  1   
 41  16  42  1   
 42  17  21  ar  
 43  17  43  1   
 44  18  21  ar  
 45  18  44  1   
 46  19  22  ar  
 47  19  45  1   
 48  20  22  ar  
 49  20  46  1   
 50  21  47  1   
 51  22  48  1   
@<TRIPOS>SUBSTRUCTURE
  1 ****   1 GROUP 4 **** **** 0

# MOE 2024.06 (io_trps.svl 2023.06)
