@<TRIPOS>MOLECULE
NONAME
27 27 1 0 0 
SMALL
USER_CHARGES


@<TRIPOS>ATOM
  1 F        0.4130    -3.5250     2.3910 F     1 <1>  -0.3400 
  2 C        0.1890    -2.5600     1.5050 C.3   1 <1>   1.0200 
  3 F        1.1980    -1.7040     1.6480 F     1 <1>  -0.3400 
  4 F       -0.8760    -1.9090     1.9610 F     1 <1>  -0.3400 
  5 C        0.0100    -3.0240     0.0270 C.3   1 <1>   0.4240 
  6 O       -0.0110    -1.8680    -0.8320 O.3   1 <1>  -0.6800 
  7 C       -1.3260    -3.7980    -0.1870 C.ar  1 <1>  -0.1440 
  8 C        1.2370    -3.9170    -0.3210 C.3   1 <1>   1.0200 
  9 C       -1.6440    -4.9050     0.6000 C.ar  1 <1>  -0.1500 
 10 C       -2.2470    -3.4290    -1.1680 C.ar  1 <1>  -0.1500 
 11 F        1.3760    -5.0080     0.4250 F     1 <1>  -0.3400 
 12 F        2.3910    -3.2640    -0.2220 F     1 <1>  -0.3400 
 13 F        1.2000    -4.3560    -1.5750 F     1 <1>  -0.3400 
 14 C       -2.8260    -5.5990     0.4200 C.ar  1 <1>  -0.1500 
 15 C       -3.4290    -4.1240    -1.3450 C.ar  1 <1>  -0.1500 
 16 C       -3.7410    -5.2140    -0.5490 C.ar  1 <1>   0.1000 
 17 N       -4.9370    -5.8940    -0.7400 N.pl3 1 <1>  -0.8690 
 18 C       -5.7450    -6.2820     0.4420 C.3   1 <1>   0.1290 
 19 H        0.7990    -1.3260    -0.7180 H     1 <1>   0.4000 
 20 H       -0.9840    -5.2660     1.3690 H     1 <1>   0.1500 
 21 H       -2.0670    -2.5910    -1.8200 H     1 <1>   0.1500 
 22 H       -3.0420    -6.4550     1.0310 H     1 <1>   0.1500 
 23 H       -4.1170    -3.8180    -2.1090 H     1 <1>   0.1500 
 24 H       -5.5130    -5.5090    -1.4960 H     1 <1>   0.4000 
 25 H       -5.4020    -7.2300     0.8190 H     1 <1>   0.0800 
 26 H       -6.7810    -6.3710     0.1640 H     1 <1>   0.0800 
 27 H       -5.6520    -5.5380     1.2150 H     1 <1>   0.0800 
@<TRIPOS>BOND
  1   1   2  1   
  2   2   3  1   
  3   2   4  1   
  4   2   5  1   
  5   5   6  1   
  6   5   7  1   
  7   5   8  1   
  8   6  19  1   
  9   7   9  ar  
 10   7  10  ar  
 11   8  11  1   
 12   8  12  1   
 13   8  13  1   
 14   9  14  ar  
 15   9  20  1   
 16  10  15  ar  
 17  10  21  1   
 18  14  16  ar  
 19  14  22  1   
 20  15  16  ar  
 21  15  23  1   
 22  16  17  1   
 23  17  18  1   
 24  17  24  1   
 25  18  25  1   
 26  18  26  1   
 27  18  27  1   
@<TRIPOS>SUBSTRUCTURE
  1 ****   7 GROUP 4 **** **** 0

# MOE 2024.06 (io_trps.svl 2023.06)
