@<TRIPOS>MOLECULE
NONAME
40 41 1 0 0 
SMALL
USER_CHARGES


@<TRIPOS>ATOM
  1 F        1.8420    -0.7660    -2.2510 F     1 <1>  -0.1900 
  2 C        2.5900    -1.1310    -1.2440 C.ar  1 <1>   0.1900 
  3 C        3.4340    -0.2020    -0.6710 C.ar  1 <1>  -0.1500 
  4 C        2.5040    -2.4350    -0.7930 C.ar  1 <1>  -0.1500 
  5 C        4.2370    -0.5860     0.3960 C.ar  1 <1>   0.1000 
  6 C        3.2980    -2.8150     0.2770 C.ar  1 <1>  -0.1500 
  7 N        5.1050     0.3110     1.0010 N.pl3 1 <1>  -0.8690 
  8 C        4.1530    -1.8950     0.8630 C.ar  1 <1>  -0.1500 
  9 C        6.1300     0.9770     0.1830 C.3   1 <1>   0.2890 
 10 C        7.4690     0.2770     0.4400 C.3   1 <1>  -0.1600 
 11 C        6.1340     2.4500     0.5800 C.3   1 <1>  -0.2400 
 12 C        8.5950     0.7740    -0.4770 C.3   1 <1>  -0.0170 
 13 C        9.8630    -0.0270    -0.2320 C.ar  1 <1>  -0.1430 
 14 C       10.7860     0.3960     0.7120 C.ar  1 <1>  -0.1500 
 15 C       10.1070    -1.1900    -0.9460 C.ar  1 <1>  -0.1500 
 16 C       11.9400    -0.3340     0.9350 C.ar  1 <1>  -0.1500 
 17 C       11.2610    -1.9230    -0.7250 C.ar  1 <1>  -0.1500 
 18 C       12.1870    -1.4950     0.2210 C.ar  1 <1>   0.0830 
 19 O       13.3420    -2.1510     0.5000 O.3   1 <1>  -0.3620 
 20 C       13.6980    -3.3300    -0.1850 C.3   1 <1>   0.0400 
 21 H        3.4640     0.8050    -1.0390 H     1 <1>   0.1500 
 22 H        1.8330    -3.1280    -1.2670 H     1 <1>   0.1500 
 23 H        3.2490    -3.8220     0.6520 H     1 <1>   0.1500 
 24 H        5.5070    -0.0210     1.8820 H     1 <1>   0.4000 
 25 H        4.7660    -2.1940     1.6930 H     1 <1>   0.1500 
 26 H        5.8740     0.8880    -0.8610 H     1 <1>   0.0800 
 27 H        7.3390    -0.7770     0.2680 H     1 <1>   0.0800 
 28 H        7.7620     0.4170     1.4650 H     1 <1>   0.0800 
 29 H        6.4330     2.5620     1.6060 H     1 <1>   0.0800 
 30 H        5.1480     2.8590     0.4550 H     1 <1>   0.0800 
 31 H        6.8080     3.0070    -0.0420 H     1 <1>   0.0800 
 32 H        8.7960     1.8140    -0.2960 H     1 <1>   0.0800 
 33 H        8.3000     0.6700    -1.5070 H     1 <1>   0.0800 
 34 H       10.6120     1.2950     1.2770 H     1 <1>   0.1500 
 35 H        9.3970    -1.5300    -1.6790 H     1 <1>   0.1500 
 36 H       12.6580    -0.0080     1.6650 H     1 <1>   0.1500 
 37 H       11.4190    -2.8180    -1.2950 H     1 <1>   0.1500 
 38 H       14.6470    -3.6630     0.1950 H     1 <1>   0.0800 
 39 H       13.7800    -3.1120    -1.2350 H     1 <1>   0.0800 
 40 H       12.9490    -4.0800    -0.0030 H     1 <1>   0.0800 
@<TRIPOS>BOND
  1   1   2  1   
  2   2   3  ar  
  3   2   4  ar  
  4   3   5  ar  
  5   3  21  1   
  6   4   6  ar  
  7   4  22  1   
  8   5   7  1   
  9   5   8  ar  
 10   6   8  ar  
 11   6  23  1   
 12   7   9  1   
 13   7  24  1   
 14   8  25  1   
 15   9  10  1   
 16   9  11  1   
 17   9  26  1   
 18  10  12  1   
 19  10  27  1   
 20  10  28  1   
 21  11  29  1   
 22  11  30  1   
 23  11  31  1   
 24  12  13  1   
 25  12  32  1   
 26  12  33  1   
 27  13  14  ar  
 28  13  15  ar  
 29  14  16  ar  
 30  14  34  1   
 31  15  17  ar  
 32  15  35  1   
 33  16  18  ar  
 34  16  36  1   
 35  17  18  ar  
 36  17  37  1   
 37  18  19  1   
 38  19  20  1   
 39  20  38  1   
 40  20  39  1   
 41  20  40  1   
@<TRIPOS>SUBSTRUCTURE
  1 ****  10 GROUP 4 **** **** 0

# MOE 2024.06 (io_trps.svl 2023.06)
