@<TRIPOS>MOLECULE
NONAME
37 37 1 0 0 
SMALL
USER_CHARGES


@<TRIPOS>ATOM
  1 F       -2.4110     0.3120     2.3800 F     1 <1>  -0.3400 
  2 C       -3.0870     0.8260     1.3640 C.3   1 <1>   1.1640 
  3 F       -4.2470     1.2530     1.8570 F     1 <1>  -0.3400 
  4 F       -3.3960    -0.1830     0.5610 F     1 <1>  -0.3400 
  5 C       -2.3680     1.9600     0.6090 C.ar  1 <1>  -0.1440 
  6 C       -2.8920     2.5220    -0.5650 C.ar  1 <1>  -0.1440 
  7 C       -1.1620     2.4520     1.1020 C.ar  1 <1>  -0.1500 
  8 C       -2.1960     3.5340    -1.2140 C.ar  1 <1>  -0.1500 
  9 C       -4.2090     2.0710    -1.1920 C.3   1 <1>   0.4870 
 10 C       -0.4850     3.4660     0.4520 C.ar  1 <1>  -0.1500 
 11 C       -1.0010     4.0060    -0.7080 C.ar  1 <1>  -0.1500 
 12 N       -5.3610     2.6030    -0.4040 N.4   1 <1>  -0.9590 
 13 C       -6.6580     1.9940    -0.8540 C.3   1 <1>   0.3430 
 14 C       -5.4050     4.0930    -0.4530 C.3   1 <1>   0.3430 
 15 C       -6.7960     0.5190    -0.4480 C.3   1 <1>   0.1200 
 16 C       -6.2590     4.6370     0.6940 C.3   1 <1>  -0.1600 
 17 O       -7.9910     0.0560    -0.9660 O.3   1 <1>  -0.6800 
 18 C       -6.2100     6.1680     0.7300 C.3   1 <1>  -0.2400 
 19 H       -0.7240     2.0530     2.0040 H     1 <1>   0.1500 
 20 H       -2.5690     3.9710    -2.1260 H     1 <1>   0.1500 
 21 H       -4.2400     0.9950    -1.2270 H     1 <1>   0.0800 
 22 H       -4.2660     2.4300    -2.2070 H     1 <1>   0.0800 
 23 H        0.4480     3.8340     0.8480 H     1 <1>   0.1500 
 24 H       -0.4660     4.7920    -1.2160 H     1 <1>   0.1500 
 25 H       -5.2130     2.3500     0.5850 H     1 <1>   0.4500 
 26 H       -6.7440     2.0720    -1.9250 H     1 <1>   0.0800 
 27 H       -7.4830     2.5300    -0.4140 H     1 <1>   0.0800 
 28 H       -5.7980     4.4270    -1.3990 H     1 <1>   0.0800 
 29 H       -4.4090     4.4920    -0.3440 H     1 <1>   0.0800 
 30 H       -6.8330     0.4140     0.6230 H     1 <1>   0.0800 
 31 H       -6.0070    -0.0860    -0.8570 H     1 <1>   0.0800 
 32 H       -5.8900     4.2630     1.6330 H     1 <1>   0.0800 
 33 H       -7.2860     4.3360     0.5800 H     1 <1>   0.0800 
 34 H       -8.1620    -0.8770    -0.7110 H     1 <1>   0.4000 
 35 H       -5.2010     6.5160     0.8750 H     1 <1>   0.0800 
 36 H       -6.8110     6.5370     1.5440 H     1 <1>   0.0800 
 37 H       -6.5930     6.5870    -0.1850 H     1 <1>   0.0800 
@<TRIPOS>BOND
  1   1   2  1   
  2   2   3  1   
  3   2   4  1   
  4   2   5  1   
  5   5   6  ar  
  6   5   7  ar  
  7   6   8  ar  
  8   6   9  1   
  9   7  10  ar  
 10   7  19  1   
 11   8  11  ar  
 12   8  20  1   
 13   9  12  1   
 14   9  21  1   
 15   9  22  1   
 16  10  11  ar  
 17  10  23  1   
 18  11  24  1   
 19  12  13  1   
 20  12  14  1   
 21  12  25  1   
 22  13  15  1   
 23  13  26  1   
 24  13  27  1   
 25  14  16  1   
 26  14  28  1   
 27  14  29  1   
 28  15  17  1   
 29  15  30  1   
 30  15  31  1   
 31  16  18  1   
 32  16  32  1   
 33  16  33  1   
 34  17  34  1   
 35  18  35  1   
 36  18  36  1   
 37  18  37  1   
@<TRIPOS>SUBSTRUCTURE
  1 ****   6 GROUP 4 **** **** 0

# MOE 2024.06 (io_trps.svl 2023.06)
