@<TRIPOS>MOLECULE
NONAME
52 54 1 0 0 
SMALL
USER_CHARGES


@<TRIPOS>ATOM
  1 CL       0.5380     4.7830     4.0170 Cl    1 <1>  -0.1770 
  2 C        0.3660     4.6370     2.2870 C.ar  1 <1>   0.1770 
  3 C        1.4960     4.5310     1.5020 C.ar  1 <1>  -0.1500 
  4 C       -0.9010     4.6330     1.7330 C.ar  1 <1>  -0.1500 
  5 C        1.3680     4.4240     0.1240 C.ar  1 <1>   0.1990 
  6 C       -1.0360     4.5200     0.3590 C.ar  1 <1>  -0.1500 
  7 N        2.5040     4.3360    -0.6700 N.am  1 <1>  -0.6930 
  8 C        0.0930     4.4160    -0.4360 C.ar  1 <1>  -0.1500 
  9 S        2.9260     5.6460    -1.7190 S.o2  1 <1>   1.4470 
 10 C        2.8420     2.9790    -1.1990 C.3   1 <1>   0.2570 
 11 O        4.3110     5.4110    -2.0610 O.2   1 <1>  -0.6500 
 12 O        1.9170     5.6460    -2.7520 O.2   1 <1>  -0.6500 
 13 C        2.7760     7.0940    -0.6370 C.ar  1 <1>  -0.0090 
 14 C        3.3370     1.9970    -0.1310 C.2   1 <1>   0.6590 
 15 C        1.5450     7.7010    -0.4180 C.ar  1 <1>  -0.1500 
 16 C        3.8790     7.6160     0.0290 C.ar  1 <1>  -0.1500 
 17 O        2.6220     1.0970     0.2240 O.2   1 <1>  -0.5700 
 18 O        4.5510     2.1130     0.4020 O.3   1 <1>  -0.4300 
 19 C        1.4170     8.7810     0.4380 C.ar  1 <1>  -0.1500 
 20 C        3.7590     8.6960     0.8860 C.ar  1 <1>  -0.1500 
 21 C        5.5700     3.0150     0.0330 C.3   1 <1>   0.2000 
 22 C        2.5240     9.2830     1.0980 C.ar  1 <1>  -0.1430 
 23 C        6.8940     2.2440     0.0580 C.3   1 <1>  -0.1600 
 24 C        5.5870     4.1790     1.0310 C.3   1 <1>  -0.1600 
 25 C        2.3870    10.4670     2.0370 C.3   1 <1>  -0.0960 
 26 C        8.0850     3.1770    -0.2080 C.3   1 <1>  -0.1600 
 27 C        6.7730     5.1160     0.7600 C.3   1 <1>  -0.1600 
 28 C        8.1020     4.3480     0.7840 C.3   1 <1>  -0.1600 
 29 H        2.4660     4.5340     1.9600 H     1 <1>   0.1500 
 30 H       -1.7640     4.7140     2.3700 H     1 <1>   0.1500 
 31 H       -2.0160     4.5120    -0.0880 H     1 <1>   0.1500 
 32 H       -0.0150     4.3300    -1.5030 H     1 <1>   0.1500 
 33 H        3.5760     3.0460    -1.9790 H     1 <1>   0.0800 
 34 H        1.9570     2.5590    -1.6430 H     1 <1>   0.0800 
 35 H        0.6710     7.3230    -0.9210 H     1 <1>   0.1500 
 36 H        4.8480     7.1740    -0.1240 H     1 <1>   0.1500 
 37 H        0.4490     9.2290     0.5880 H     1 <1>   0.1500 
 38 H        4.6320     9.0780     1.3870 H     1 <1>   0.1500 
 39 H        5.4010     3.3790    -0.9640 H     1 <1>   0.0800 
 40 H        6.8730     1.4700    -0.6880 H     1 <1>   0.0800 
 41 H        7.0170     1.7840     1.0240 H     1 <1>   0.0800 
 42 H        5.6680     3.7880     2.0310 H     1 <1>   0.0800 
 43 H        4.6740     4.7390     0.9580 H     1 <1>   0.0800 
 44 H        1.4180    10.4670     2.5030 H     1 <1>   0.0800 
 45 H        2.5070    11.3840     1.4880 H     1 <1>   0.0800 
 46 H        3.1330    10.4250     2.8100 H     1 <1>   0.0800 
 47 H        8.0210     3.5610    -1.2120 H     1 <1>   0.0800 
 48 H        9.0030     2.6210    -0.1260 H     1 <1>   0.0800 
 49 H        6.7940     5.8970     1.4990 H     1 <1>   0.0800 
 50 H        6.6510     5.5750    -0.2070 H     1 <1>   0.0800 
 51 H        8.9090     5.0160     0.5370 H     1 <1>   0.0800 
 52 H        8.2780     3.9720     1.7770 H     1 <1>   0.0800 
@<TRIPOS>BOND
  1   1   2  1   
  2   2   3  ar  
  3   2   4  ar  
  4   3   5  ar  
  5   3  29  1   
  6   4   6  ar  
  7   4  30  1   
  8   5   7  1   
  9   5   8  ar  
 10   6   8  ar  
 11   6  31  1   
 12   7   9  am  
 13   7  10  1   
 14   8  32  1   
 15   9  11  2   
 16   9  12  2   
 17   9  13  1   
 18  10  14  1   
 19  10  33  1   
 20  10  34  1   
 21  13  15  ar  
 22  13  16  ar  
 23  14  17  2   
 24  14  18  1   
 25  15  19  ar  
 26  15  35  1   
 27  16  20  ar  
 28  16  36  1   
 29  18  21  1   
 30  19  22  ar  
 31  19  37  1   
 32  20  22  ar  
 33  20  38  1   
 34  21  23  1   
 35  21  24  1   
 36  21  39  1   
 37  22  25  1   
 38  23  26  1   
 39  23  40  1   
 40  23  41  1   
 41  24  27  1   
 42  24  42  1   
 43  24  43  1   
 44  25  44  1   
 45  25  45  1   
 46  25  46  1   
 47  26  28  1   
 48  26  47  1   
 49  26  48  1   
 50  27  28  1   
 51  27  49  1   
 52  27  50  1   
 53  28  51  1   
 54  28  52  1   
@<TRIPOS>SUBSTRUCTURE
  1 ****   7 GROUP 4 **** **** 0

# MOE 2024.06 (io_trps.svl 2023.06)
