@<TRIPOS>MOLECULE
NONAME
43 44 1 0 0 
SMALL
USER_CHARGES


@<TRIPOS>ATOM
  1 O       -0.1280     0.3060    -0.1850 O.2   1 <1>  -0.5700 
  2 C       -0.5450    -0.8300    -0.0400 C.2   1 <1>   0.7150 
  3 N        0.3100    -1.9010    -0.0460 N.am  1 <1>  -0.5470 
  4 C       -1.9550    -1.0730     0.1490 C.2   1 <1>   0.0550 
  5 C        1.7030    -2.0590    -0.1910 C.ar  1 <1>   0.1170 
  6 O       -2.4210    -2.3100     0.3180 O.3   1 <1>  -0.2800 
  7 C       -3.0070    -0.2080     0.1950 C.2   1 <1>  -0.1500 
  8 C        2.2460    -3.3340     0.0070 C.ar  1 <1>   0.0830 
  9 C        2.5620    -1.0190    -0.5270 C.ar  1 <1>  -0.1500 
 10 C       -3.7250    -2.2540     0.4670 C.2   1 <1>  -0.0100 
 11 C       -4.1540    -0.9750     0.4010 C.2   1 <1>  -0.1500 
 12 O        1.3720    -4.3370     0.3270 O.3   1 <1>  -0.3620 
 13 C        3.6140    -3.5410    -0.1240 C.ar  1 <1>  -0.1500 
 14 C        3.9210    -1.2350    -0.6570 C.ar  1 <1>  -0.1500 
 15 C        1.8040    -5.6710     0.4820 C.3   1 <1>   0.0400 
 16 C        4.4670    -2.4970    -0.4590 C.ar  1 <1>   0.1170 
 17 N        5.8460    -2.7540    -0.5650 N.am  1 <1>  -0.5470 
 18 C        6.8130    -2.1190    -1.2930 C.2   1 <1>   0.5690 
 19 O        6.5980    -1.1880    -2.0280 O.2   1 <1>  -0.5700 
 20 C        8.2340    -2.6410    -1.1800 C.3   1 <1>  -0.0990 
 21 C        8.8690    -2.4100     0.2060 C.3   1 <1>  -0.0800 
 22 C        8.9830    -0.9140     0.5270 C.3   1 <1>  -0.2400 
 23 C       10.2570    -3.0570     0.2640 C.3   1 <1>  -0.2400 
 24 H       -0.1650    -2.7890     0.1310 H     1 <1>   0.3700 
 25 H       -2.9720     0.8630     0.0930 H     1 <1>   0.1500 
 26 H        2.1810    -0.0290    -0.6940 H     1 <1>   0.1500 
 27 H       -4.2760    -3.1670     0.6160 H     1 <1>   0.1500 
 28 H       -5.1570    -0.5970     0.4850 H     1 <1>   0.1500 
 29 H        4.0410    -4.5110     0.0260 H     1 <1>   0.1500 
 30 H        4.5580    -0.4080    -0.9140 H     1 <1>   0.1500 
 31 H        0.9440    -6.2780     0.7000 H     1 <1>   0.0800 
 32 H        2.5000    -5.7200     1.3010 H     1 <1>   0.0800 
 33 H        2.2600    -6.0010    -0.4350 H     1 <1>   0.0800 
 34 H        6.1730    -3.5540    -0.0310 H     1 <1>   0.3700 
 35 H        8.8330    -2.1580    -1.9320 H     1 <1>   0.0800 
 36 H        8.2230    -3.6910    -1.4060 H     1 <1>   0.0800 
 37 H        8.2520    -2.8720     0.9590 H     1 <1>   0.0800 
 38 H        9.5820    -0.4120    -0.2130 H     1 <1>   0.0800 
 39 H        9.4390    -0.7710     1.4900 H     1 <1>   0.0800 
 40 H        8.0120    -0.4520     0.5460 H     1 <1>   0.0800 
 41 H       10.9120    -2.6170    -0.4680 H     1 <1>   0.0800 
 42 H       10.1910    -4.1130     0.0740 H     1 <1>   0.0800 
 43 H       10.6940    -2.9180     1.2380 H     1 <1>   0.0800 
@<TRIPOS>BOND
  1   1   2  2   
  2   2   3  am  
  3   2   4  1   
  4   3   5  1   
  5   3  24  1   
  6   4   6  1   
  7   4   7  2   
  8   5   8  ar  
  9   5   9  ar  
 10   6  10  1   
 11   7  11  1   
 12   7  25  1   
 13   8  12  1   
 14   8  13  ar  
 15   9  14  ar  
 16   9  26  1   
 17  10  11  2   
 18  10  27  1   
 19  11  28  1   
 20  12  15  1   
 21  13  16  ar  
 22  13  29  1   
 23  14  16  ar  
 24  14  30  1   
 25  15  31  1   
 26  15  32  1   
 27  15  33  1   
 28  16  17  1   
 29  17  18  am  
 30  17  34  1   
 31  18  19  2   
 32  18  20  1   
 33  20  21  1   
 34  20  35  1   
 35  20  36  1   
 36  21  22  1   
 37  21  23  1   
 38  21  37  1   
 39  22  38  1   
 40  22  39  1   
 41  22  40  1   
 42  23  41  1   
 43  23  42  1   
 44  23  43  1   
@<TRIPOS>SUBSTRUCTURE
  1 ****   5 GROUP 4 **** **** 0

# MOE 2024.06 (io_trps.svl 2023.06)
