@<TRIPOS>MOLECULE
NONAME
36 38 1 0 0 
SMALL
USER_CHARGES


@<TRIPOS>ATOM
  1 O       -0.6010    -1.1630    -0.9480 O.2   1 <1>  -0.5700 
  2 C       -0.2120    -1.8850    -0.0520 C.2   1 <1>   0.6160 
  3 N       -1.0550    -2.1600     0.9850 N.am  1 <1>  -0.7300 
  4 C        1.1070    -2.4740    -0.0740 C.2   1 <1>  -0.0140 
  5 C       -2.4150    -1.5720     1.1620 C.3   1 <1>   0.1400 
  6 C        2.2900    -1.6480    -0.2100 C.ar  1 <1>   0.0280 
  7 C        1.2640    -3.8240     0.0380 C.2   1 <1>  -0.1360 
  8 C       -3.4210    -2.1050     0.1310 C.3   1 <1>   0.2000 
  9 C        3.5520    -2.2750    -0.2270 C.ar  1 <1>   0.1170 
 10 C        2.2620    -0.2520    -0.3160 C.ar  1 <1>  -0.1500 
 11 C        2.5370    -4.4480     0.0260 C.2   1 <1>   0.6160 
 12 O       -4.7020    -1.7090     0.4950 O.3   1 <1>  -0.5600 
 13 C       -3.5200    -3.6240     0.0450 C.3   1 <1>  -0.1600 
 14 N        3.6290    -3.6560    -0.1100 N.am  1 <1>  -0.5470 
 15 C        4.7150    -1.5190    -0.3520 C.ar  1 <1>  -0.1500 
 16 C        3.4200     0.4870    -0.4380 C.ar  1 <1>  -0.1500 
 17 O        2.6910    -5.6490     0.1390 O.2   1 <1>  -0.5700 
 18 C       -5.6430    -2.5100    -0.1430 C.3   1 <1>   0.1200 
 19 C       -4.9580    -3.8530    -0.3920 C.3   1 <1>  -0.1600 
 20 C        4.6530    -0.1480    -0.4570 C.ar  1 <1>  -0.1500 
 21 H       -0.7120    -2.7210     1.7660 H     1 <1>   0.3700 
 22 H       -2.3510    -0.5020     1.0600 H     1 <1>   0.0800 
 23 H       -2.7690    -1.8030     2.1510 H     1 <1>   0.0800 
 24 H        0.4260    -4.4880     0.1340 H     1 <1>   0.1500 
 25 H       -3.2160    -1.6840    -0.8400 H     1 <1>   0.0800 
 26 H        1.3230     0.2720    -0.3080 H     1 <1>   0.1500 
 27 H       -3.3540    -4.0560     1.0160 H     1 <1>   0.0800 
 28 H       -2.8050    -4.0250    -0.6510 H     1 <1>   0.0800 
 29 H        4.5250    -4.1420    -0.1240 H     1 <1>   0.3700 
 30 H        5.6700    -2.0130    -0.3660 H     1 <1>   0.1500 
 31 H        3.3700     1.5590    -0.5210 H     1 <1>   0.1500 
 32 H       -5.9170    -2.0330    -1.0680 H     1 <1>   0.0800 
 33 H       -6.5050    -2.6020     0.4950 H     1 <1>   0.0800 
 34 H       -5.4240    -4.6360     0.1790 H     1 <1>   0.0800 
 35 H       -5.0130    -4.0990    -1.4380 H     1 <1>   0.0800 
 36 H        5.5530     0.4350    -0.5540 H     1 <1>   0.1500 
@<TRIPOS>BOND
  1   1   2  2   
  2   2   3  am  
  3   2   4  1   
  4   3   5  1   
  5   3  21  1   
  6   4   6  1   
  7   4   7  2   
  8   5   8  1   
  9   5  22  1   
 10   5  23  1   
 11   6   9  ar  
 12   6  10  ar  
 13   7  11  1   
 14   7  24  1   
 15   8  12  1   
 16   8  13  1   
 17   8  25  1   
 18   9  14  1   
 19   9  15  ar  
 20  10  16  ar  
 21  10  26  1   
 22  11  14  am  
 23  11  17  2   
 24  12  18  1   
 25  13  19  1   
 26  13  27  1   
 27  13  28  1   
 28  14  29  1   
 29  15  20  ar  
 30  15  30  1   
 31  16  20  ar  
 32  16  31  1   
 33  18  19  1   
 34  18  32  1   
 35  18  33  1   
 36  19  34  1   
 37  19  35  1   
 38  20  36  1   
@<TRIPOS>SUBSTRUCTURE
  1 ****   2 GROUP 4 **** **** 0

# MOE 2024.06 (io_trps.svl 2023.06)
