@<TRIPOS>MOLECULE
NONAME
37 38 1 0 0 
SMALL
USER_CHARGES


@<TRIPOS>ATOM
  1 CL      -2.8120    -1.5530    -2.6720 Cl    1 <1>  -0.1770 
  2 C       -1.7210    -2.2800    -1.5110 C.ar  1 <1>   0.1770 
  3 C       -2.1630    -2.5540    -0.2190 C.ar  1 <1>   0.0830 
  4 C       -0.4280    -2.5670    -1.9140 C.ar  1 <1>  -0.1500 
  5 O       -3.4470    -2.2410     0.0960 O.3   1 <1>  -0.3630 
  6 C       -1.2750    -3.1320     0.6860 C.ar  1 <1>  -0.1500 
  7 C        0.4510    -3.1420    -1.0100 C.ar  1 <1>  -0.1500 
  8 C       -3.9840    -2.4740     1.3930 C.3   1 <1>   0.1810 
  9 C        0.0150    -3.4160     0.2750 C.ar  1 <1>   0.1770 
 10 C       -5.4400    -2.0300     1.4720 C.2   1 <1>   0.5690 
 11 CL       1.1240    -4.1400     1.4100 Cl    1 <1>  -0.1770 
 12 O       -6.0580    -2.2660     2.4820 O.2   1 <1>  -0.5700 
 13 N       -6.0020    -1.3900     0.4140 N.am  1 <1>  -0.7300 
 14 C       -7.3870    -0.8760     0.3420 C.3   1 <1>   0.2200 
 15 C       -8.2810    -1.8390    -0.4720 C.3   1 <1>   0.2000 
 16 C       -7.3200     0.5230    -0.2710 C.3   1 <1>  -0.2400 
 17 O       -9.5840    -1.3400    -0.5720 O.3   1 <1>  -0.5600 
 18 C       -8.4320    -3.2280     0.1370 C.3   1 <1>  -0.1600 
 19 C      -10.5360    -2.3600    -0.5440 C.3   1 <1>   0.1200 
 20 C       -9.7760    -3.6720    -0.3990 C.3   1 <1>  -0.1600 
 21 H       -0.1180    -2.3430    -2.9190 H     1 <1>   0.1500 
 22 H       -1.5530    -3.3680     1.6950 H     1 <1>   0.1500 
 23 H        1.4620    -3.3770    -1.2950 H     1 <1>   0.1500 
 24 H       -3.4060    -1.9190     2.1080 H     1 <1>   0.0800 
 25 H       -3.9250    -3.5260     1.6030 H     1 <1>   0.0800 
 26 H       -5.4240    -1.2400    -0.4180 H     1 <1>   0.3700 
 27 H       -7.7870    -0.8060     1.3410 H     1 <1>   0.0800 
 28 H       -7.9070    -1.9200    -1.4780 H     1 <1>   0.0800 
 29 H       -6.9470     0.4790    -1.2780 H     1 <1>   0.0800 
 30 H       -6.6880     1.1580     0.3230 H     1 <1>   0.0800 
 31 H       -8.3050     0.9540    -0.2930 H     1 <1>   0.0800 
 32 H       -8.4620    -3.1530     1.2100 H     1 <1>   0.0800 
 33 H       -7.6280    -3.8820    -0.1500 H     1 <1>   0.0800 
 34 H      -11.1150    -2.3230    -1.4500 H     1 <1>   0.0800 
 35 H      -11.1720    -2.1850     0.3070 H     1 <1>   0.0800 
 36 H      -10.2780    -4.3590     0.2590 H     1 <1>   0.0800 
 37 H       -9.6630    -4.1260    -1.3690 H     1 <1>   0.0800 
@<TRIPOS>BOND
  1   1   2  1   
  2   2   3  ar  
  3   2   4  ar  
  4   3   5  1   
  5   3   6  ar  
  6   4   7  ar  
  7   4  21  1   
  8   5   8  1   
  9   6   9  ar  
 10   6  22  1   
 11   7   9  ar  
 12   7  23  1   
 13   8  10  1   
 14   8  24  1   
 15   8  25  1   
 16   9  11  1   
 17  10  12  2   
 18  10  13  am  
 19  13  14  1   
 20  13  26  1   
 21  14  15  1   
 22  14  16  1   
 23  14  27  1   
 24  15  17  1   
 25  15  18  1   
 26  15  28  1   
 27  16  29  1   
 28  16  30  1   
 29  16  31  1   
 30  17  19  1   
 31  18  20  1   
 32  18  32  1   
 33  18  33  1   
 34  19  20  1   
 35  19  34  1   
 36  19  35  1   
 37  20  36  1   
 38  20  37  1   
@<TRIPOS>SUBSTRUCTURE
  1 ****   5 GROUP 4 **** **** 0

# MOE 2024.06 (io_trps.svl 2023.06)
