@<TRIPOS>MOLECULE
NONAME
40 41 1 0 0 
SMALL
USER_CHARGES


@<TRIPOS>ATOM
  1 O       -2.0940    -0.0460     1.3580 O.2   1 <1>  -0.5700 
  2 C       -2.1380    -0.2410     0.1590 C.2   1 <1>   0.5690 
  3 N       -1.8330     0.7040    -0.7740 N.am  1 <1>  -0.4100 
  4 C       -2.7330    -1.5750    -0.2900 C.3   1 <1>   0.4040 
  5 N       -1.9280     2.1300    -0.5150 N.pl3 1 <1>  -0.4890 
  6 N       -4.1770    -1.7070     0.1460 N.4   1 <1>  -0.9590 
  7 C       -3.2010     2.6750    -0.4210 C.ar  1 <1>   0.1000 
  8 C       -0.7580     2.7660     0.1390 C.3   1 <1>   0.1290 
  9 C       -4.7700    -3.0270    -0.2080 C.3   1 <1>   0.3430 
 10 C       -5.0100    -0.5490    -0.3210 C.3   1 <1>   0.3430 
 11 C       -3.7910     2.8990     0.8190 C.ar  1 <1>  -0.1500 
 12 C       -3.9370     2.9520    -1.5690 C.ar  1 <1>  -0.1500 
 13 C       -6.1640    -3.1460     0.4120 C.3   1 <1>  -0.1600 
 14 C       -6.4060    -0.6390     0.2940 C.3   1 <1>  -0.1600 
 15 C       -5.0840     3.3790     0.9110 C.ar  1 <1>  -0.1500 
 16 C       -5.2310     3.4310    -1.4810 C.ar  1 <1>  -0.1500 
 17 C       -7.0770    -1.9850    -0.0050 C.3   1 <1>  -0.1600 
 18 C       -5.8070     3.6440    -0.2400 C.ar  1 <1>  -0.1500 
 19 H       -1.7990     0.4780    -1.7730 H     1 <1>   0.3700 
 20 H       -2.1480    -2.3660     0.1480 H     1 <1>   0.0800 
 21 H       -2.6650    -1.6500    -1.3610 H     1 <1>   0.0800 
 22 H       -4.1620    -1.6280     1.1760 H     1 <1>   0.4500 
 23 H        0.1030     2.6860    -0.5000 H     1 <1>   0.0800 
 24 H       -0.5560     2.2760     1.0750 H     1 <1>   0.0800 
 25 H       -0.9650     3.8060     0.3220 H     1 <1>   0.0800 
 26 H       -4.1460    -3.8250     0.1610 H     1 <1>   0.0800 
 27 H       -4.8460    -3.1180    -1.2790 H     1 <1>   0.0800 
 28 H       -5.0910    -0.5620    -1.3960 H     1 <1>   0.0800 
 29 H       -4.5590     0.3860    -0.0260 H     1 <1>   0.0800 
 30 H       -3.2290     2.6850     1.7110 H     1 <1>   0.1500 
 31 H       -3.4830     2.7960    -2.5310 H     1 <1>   0.1500 
 32 H       -6.0770    -3.1750     1.4840 H     1 <1>   0.0800 
 33 H       -6.6080    -4.0760     0.1010 H     1 <1>   0.0800 
 34 H       -7.0120     0.1600    -0.0990 H     1 <1>   0.0800 
 35 H       -6.3340    -0.4900     1.3580 H     1 <1>   0.0800 
 36 H       -5.5280     3.5520     1.8770 H     1 <1>   0.1500 
 37 H       -5.7890     3.6480    -2.3760 H     1 <1>   0.1500 
 38 H       -8.0150    -2.0510     0.5220 H     1 <1>   0.0800 
 39 H       -7.2900    -2.0540    -1.0600 H     1 <1>   0.0800 
 40 H       -6.8130     4.0230    -0.1700 H     1 <1>   0.1500 
@<TRIPOS>BOND
  1   1   2  2   
  2   2   3  am  
  3   2   4  1   
  4   3   5  1   
  5   3  19  1   
  6   4   6  1   
  7   4  20  1   
  8   4  21  1   
  9   5   7  1   
 10   5   8  1   
 11   6   9  1   
 12   6  10  1   
 13   6  22  1   
 14   7  11  ar  
 15   7  12  ar  
 16   8  23  1   
 17   8  24  1   
 18   8  25  1   
 19   9  13  1   
 20   9  26  1   
 21   9  27  1   
 22  10  14  1   
 23  10  28  1   
 24  10  29  1   
 25  11  15  ar  
 26  11  30  1   
 27  12  16  ar  
 28  12  31  1   
 29  13  17  1   
 30  13  32  1   
 31  13  33  1   
 32  14  17  1   
 33  14  34  1   
 34  14  35  1   
 35  15  18  ar  
 36  15  36  1   
 37  16  18  ar  
 38  16  37  1   
 39  17  38  1   
 40  17  39  1   
 41  18  40  1   
@<TRIPOS>SUBSTRUCTURE
  1 ****  10 GROUP 4 **** **** 0

# MOE 2024.06 (io_trps.svl 2023.06)
