@<TRIPOS>MOLECULE
NONAME
35 36 1 0 0 
SMALL
USER_CHARGES


@<TRIPOS>ATOM
  1 S       -0.9960     1.5070     0.9960 S.3   1 <1>  -0.0800 
  2 C       -0.2530     1.5710    -0.5890 C.2   1 <1>  -0.1400 
  3 C        0.2560     2.5250     1.6680 C.2   1 <1>  -0.1100 
  4 C        0.8630     2.3190    -0.5540 C.2   1 <1>  -0.1500 
  5 C       -0.9450     0.8230    -1.7090 C.3   1 <1>  -0.0600 
  6 C        1.1810     2.8660     0.7390 C.2   1 <1>  -0.0860 
  7 C        2.3530     3.6840     0.9680 C.2   1 <1>   0.7160 
  8 O        2.2050     4.8280     1.3540 O.2   1 <1>  -0.5700 
  9 N        3.6280     3.1870     0.7800 N.am  1 <1>  -0.6600 
 10 C        3.9190     1.7290     0.8570 C.3   1 <1>   0.1400 
 11 C        4.8100     4.0850     0.9160 C.3   1 <1>   0.1400 
 12 C        4.1920     1.0950    -0.5130 C.3   1 <1>  -0.1600 
 13 C        5.0130     4.9290    -0.3470 C.3   1 <1>  -0.1600 
 14 C        5.3830     1.6820    -1.2890 C.3   1 <1>  -0.1600 
 15 C        5.7550     4.2280    -1.4970 C.3   1 <1>  -0.1600 
 16 C        5.0550     2.9790    -2.0550 C.3   1 <1>  -0.1600 
 17 H        0.1870     2.7810     2.7100 H     1 <1>   0.1500 
 18 H        1.4960     2.5320    -1.3970 H     1 <1>   0.1500 
 19 H       -1.0040    -0.2230    -1.4700 H     1 <1>   0.0800 
 20 H       -0.3990     0.9410    -2.6270 H     1 <1>   0.0800 
 21 H       -1.9400     1.2070    -1.8440 H     1 <1>   0.0800 
 22 H        3.0890     1.2190     1.3140 H     1 <1>   0.0800 
 23 H        4.7700     1.5710     1.4970 H     1 <1>   0.0800 
 24 H        5.7010     3.5170     1.1210 H     1 <1>   0.0800 
 25 H        4.6470     4.7430     1.7520 H     1 <1>   0.0800 
 26 H        3.3050     1.1240    -1.1170 H     1 <1>   0.0800 
 27 H        4.4010     0.0550    -0.3350 H     1 <1>   0.0800 
 28 H        5.5940     5.7900    -0.0680 H     1 <1>   0.0800 
 29 H        4.0610     5.2970    -0.6900 H     1 <1>   0.0800 
 30 H        5.6790     0.9470    -2.0180 H     1 <1>   0.0800 
 31 H        6.2230     1.8160    -0.6310 H     1 <1>   0.0800 
 32 H        6.7590     3.9850    -1.1920 H     1 <1>   0.0800 
 33 H        5.8400     4.9410    -2.2990 H     1 <1>   0.0800 
 34 H        3.9920     3.1460    -2.1050 H     1 <1>   0.0800 
 35 H        5.3940     2.8490    -3.0680 H     1 <1>   0.0800 
@<TRIPOS>BOND
  1   1   2  1   
  2   1   3  1   
  3   2   4  2   
  4   2   5  1   
  5   3   6  2   
  6   3  17  1   
  7   4   6  1   
  8   4  18  1   
  9   5  19  1   
 10   5  20  1   
 11   5  21  1   
 12   6   7  1   
 13   7   8  2   
 14   7   9  am  
 15   9  10  1   
 16   9  11  1   
 17  10  12  1   
 18  10  22  1   
 19  10  23  1   
 20  11  13  1   
 21  11  24  1   
 22  11  25  1   
 23  12  14  1   
 24  12  26  1   
 25  12  27  1   
 26  13  15  1   
 27  13  28  1   
 28  13  29  1   
 29  14  16  1   
 30  14  30  1   
 31  14  31  1   
 32  15  16  1   
 33  15  32  1   
 34  15  33  1   
 35  16  34  1   
 36  16  35  1   
@<TRIPOS>SUBSTRUCTURE
  1 ****   9 GROUP 4 **** **** 0

# MOE 2024.06 (io_trps.svl 2023.06)
