@<TRIPOS>MOLECULE
NONAME
36 37 1 0 0 
SMALL
USER_CHARGES


@<TRIPOS>ATOM
  1 S        0.0460     0.1900    -0.7410 S.o2  1 <1>   1.4470 
  2 O       -0.1560     0.1180    -2.1720 O.2   1 <1>  -0.6500 
  3 O        0.7680    -0.8670    -0.0680 O.2   1 <1>  -0.6500 
  4 N       -1.4880     0.2740    -0.0270 N.am  1 <1>  -0.8490 
  5 C        0.7850     1.7880    -0.2950 C.ar  1 <1>  -0.0090 
  6 C       -2.1290    -1.0500     0.0130 C.3   1 <1>   0.1960 
  7 C       -2.3840     1.2120    -0.7250 C.3   1 <1>   0.1960 
  8 C        0.9210     2.1560     1.0420 C.ar  1 <1>  -0.1500 
  9 C        1.2240     2.6790    -1.2740 C.ar  1 <1>  -0.1500 
 10 C       -3.5030    -0.9910     0.7070 C.3   1 <1>   0.1100 
 11 C       -3.7540     1.3060    -0.0280 C.3   1 <1>   0.1100 
 12 C        1.4730     3.3750     1.4010 C.ar  1 <1>  -0.1500 
 13 C        1.7780     3.9030    -0.9360 C.ar  1 <1>  -0.1500 
 14 N       -4.4070    -0.0160     0.0620 N.3   1 <1>  -0.8100 
 15 C        1.8920     4.2290     0.4010 C.ar  1 <1>   0.1900 
 16 C       -5.7280     0.0200     0.7530 C.3   1 <1>   0.1710 
 17 F        2.4110     5.3800     0.7280 F     1 <1>  -0.1900 
 18 C       -6.8180     0.8830     0.0960 C.2   1 <1>   0.5690 
 19 O       -7.6360     0.3790    -0.6300 O.2   1 <1>  -0.5700 
 20 N       -6.8970     2.2060     0.3590 N.am  1 <1>  -0.8000 
 21 H       -1.5020    -1.7390     0.5540 H     1 <1>   0.0800 
 22 H       -2.2530    -1.4300    -0.9880 H     1 <1>   0.0800 
 23 H       -2.5360     0.8940    -1.7440 H     1 <1>   0.0800 
 24 H       -1.9380     2.1920    -0.7450 H     1 <1>   0.0800 
 25 H        0.5900     1.4740     1.8080 H     1 <1>   0.1500 
 26 H        1.1300     2.4110    -2.3150 H     1 <1>   0.1500 
 27 H       -3.3570    -0.7290     1.7410 H     1 <1>   0.0800 
 28 H       -3.9510    -1.9690     0.6670 H     1 <1>   0.0800 
 29 H       -4.3760     1.9730    -0.5990 H     1 <1>   0.0800 
 30 H       -3.6200     1.7190     0.9560 H     1 <1>   0.0800 
 31 H        1.5790     3.6590     2.4330 H     1 <1>   0.1500 
 32 H        2.1170     4.5910    -1.6900 H     1 <1>   0.1500 
 33 H       -5.5930     0.3580     1.7650 H     1 <1>   0.0800 
 34 H       -6.1150    -0.9820     0.7970 H     1 <1>   0.0800 
 35 H       -7.6400     2.7490    -0.0830 H     1 <1>   0.3700 
 36 H       -6.2640     2.7090     0.9770 H     1 <1>   0.3700 
@<TRIPOS>BOND
  1   1   2  2   
  2   1   3  2   
  3   1   4  am  
  4   1   5  1   
  5   4   6  1   
  6   4   7  1   
  7   5   8  ar  
  8   5   9  ar  
  9   6  10  1   
 10   6  21  1   
 11   6  22  1   
 12   7  11  1   
 13   7  23  1   
 14   7  24  1   
 15   8  12  ar  
 16   8  25  1   
 17   9  13  ar  
 18   9  26  1   
 19  10  14  1   
 20  10  27  1   
 21  10  28  1   
 22  11  14  1   
 23  11  29  1   
 24  11  30  1   
 25  12  15  ar  
 26  12  31  1   
 27  13  15  ar  
 28  13  32  1   
 29  14  16  1   
 30  15  17  1   
 31  16  18  1   
 32  16  33  1   
 33  16  34  1   
 34  18  19  2   
 35  18  20  am  
 36  20  35  1   
 37  20  36  1   
@<TRIPOS>SUBSTRUCTURE
  1 ****   7 GROUP 4 **** **** 0

# MOE 2024.06 (io_trps.svl 2023.06)
