@<TRIPOS>MOLECULE
NONAME
54 56 1 0 0 
SMALL
USER_CHARGES


@<TRIPOS>ATOM
  1 O       -1.3860     1.9150    -1.3050 O.3   1 <1>  -0.3630 
  2 C       -0.9470     2.2650    -0.0640 C.ar  1 <1>   0.0820 
  3 C       -0.4870     1.8040    -2.3920 C.3   1 <1>   0.0400 
  4 C       -1.8350     2.1020     0.9970 C.ar  1 <1>  -0.1440 
  5 C        0.3260     2.7770     0.1720 C.ar  1 <1>  -0.1500 
  6 C       -1.4480     2.4490     2.2820 C.ar  1 <1>  -0.1500 
  7 C       -3.2250     1.5480     0.7510 C.3   1 <1>   0.4870 
  8 C        0.7070     3.1260     1.4630 C.ar  1 <1>   0.0820 
  9 C       -0.1840     2.9590     2.5090 C.ar  1 <1>  -0.1500 
 10 N       -3.9410     2.4690    -0.1640 N.4   1 <1>  -0.9590 
 11 O        1.9230     3.6320     1.7820 O.3   1 <1>  -0.3620 
 12 C       -4.1350     3.8400     0.4350 C.3   1 <1>   0.3430 
 13 C       -5.2320     1.8940    -0.6770 C.3   1 <1>   0.3430 
 14 C        2.9480     3.7730     0.8230 C.3   1 <1>   0.0400 
 15 C       -4.8340     4.8170    -0.5330 C.3   1 <1>   0.2090 
 16 C       -5.9440     2.8350    -1.6720 C.3   1 <1>   0.2090 
 17 N       -6.0640     4.2210    -1.1350 N.pl3 1 <1>  -0.8380 
 18 C       -7.2970     4.6030    -0.6070 C.ar  1 <1>   0.1000 
 19 C       -8.1550     5.4310    -1.3290 C.ar  1 <1>  -0.1430 
 20 C       -7.6890     4.1580     0.6520 C.ar  1 <1>  -0.1500 
 21 C       -9.3760     5.7940    -0.7870 C.ar  1 <1>  -0.1500 
 22 C       -7.7660     5.9420    -2.7090 C.3   1 <1>  -0.0970 
 23 C       -8.9090     4.5220     1.1930 C.ar  1 <1>  -0.1430 
 24 C       -9.7530     5.3440     0.4660 C.ar  1 <1>  -0.1500 
 25 C       -9.3390     4.0380     2.5670 C.3   1 <1>  -0.0970 
 26 H       -0.0980     2.7790    -2.6310 H     1 <1>   0.0800 
 27 H       -1.0240     1.4120    -3.2380 H     1 <1>   0.0800 
 28 H        0.3080     1.1300    -2.1240 H     1 <1>   0.0800 
 29 H        1.0160     2.9110    -0.6360 H     1 <1>   0.1500 
 30 H       -2.1150     2.3270     3.1190 H     1 <1>   0.1500 
 31 H       -3.7590     1.4510     1.6810 H     1 <1>   0.0800 
 32 H       -3.1350     0.5740     0.2980 H     1 <1>   0.0800 
 33 H        0.1280     3.2300     3.5030 H     1 <1>   0.1500 
 34 H       -3.2910     2.5800    -0.9600 H     1 <1>   0.4500 
 35 H       -3.1830     4.2560     0.7200 H     1 <1>   0.0800 
 36 H       -4.7380     3.7620     1.3240 H     1 <1>   0.0800 
 37 H       -5.9010     1.7170     0.1480 H     1 <1>   0.0800 
 38 H       -5.0470     0.9500    -1.1620 H     1 <1>   0.0800 
 39 H        3.8190     4.1620     1.3210 H     1 <1>   0.0800 
 40 H        2.6260     4.4620     0.0630 H     1 <1>   0.0800 
 41 H        3.1700     2.8070     0.4040 H     1 <1>   0.0800 
 42 H       -4.1560     5.0910    -1.3220 H     1 <1>   0.0800 
 43 H       -5.0960     5.7170    -0.0040 H     1 <1>   0.0800 
 44 H       -6.9270     2.4500    -1.8870 H     1 <1>   0.0800 
 45 H       -5.3980     2.8650    -2.5990 H     1 <1>   0.0800 
 46 H       -7.0350     3.5230     1.2120 H     1 <1>   0.1500 
 47 H      -10.0460     6.4320    -1.3360 H     1 <1>   0.1500 
 48 H       -7.6170     5.1130    -3.3760 H     1 <1>   0.0800 
 49 H       -6.8510     6.5020    -2.6440 H     1 <1>   0.0800 
 50 H       -8.5290     6.5790    -3.1180 H     1 <1>   0.0800 
 51 H      -10.7050     5.6370     0.8710 H     1 <1>   0.1500 
 52 H       -8.6120     3.3680     2.9880 H     1 <1>   0.0800 
 53 H      -10.2790     3.5220     2.4950 H     1 <1>   0.0800 
 54 H       -9.4560     4.8780     3.2280 H     1 <1>   0.0800 
@<TRIPOS>BOND
  1   1   2  1   
  2   1   3  1   
  3   2   4  ar  
  4   2   5  ar  
  5   3  26  1   
  6   3  27  1   
  7   3  28  1   
  8   4   6  ar  
  9   4   7  1   
 10   5   8  ar  
 11   5  29  1   
 12   6   9  ar  
 13   6  30  1   
 14   7  10  1   
 15   7  31  1   
 16   7  32  1   
 17   8   9  ar  
 18   8  11  1   
 19   9  33  1   
 20  10  12  1   
 21  10  13  1   
 22  10  34  1   
 23  11  14  1   
 24  12  15  1   
 25  12  35  1   
 26  12  36  1   
 27  13  16  1   
 28  13  37  1   
 29  13  38  1   
 30  14  39  1   
 31  14  40  1   
 32  14  41  1   
 33  15  17  1   
 34  15  42  1   
 35  15  43  1   
 36  16  17  1   
 37  16  44  1   
 38  16  45  1   
 39  17  18  1   
 40  18  19  ar  
 41  18  20  ar  
 42  19  21  ar  
 43  19  22  1   
 44  20  23  ar  
 45  20  46  1   
 46  21  24  ar  
 47  21  47  1   
 48  22  48  1   
 49  22  49  1   
 50  22  50  1   
 51  23  24  ar  
 52  23  25  1   
 53  24  51  1   
 54  25  52  1   
 55  25  53  1   
 56  25  54  1   
@<TRIPOS>SUBSTRUCTURE
  1 ****  12 GROUP 4 **** **** 0

# MOE 2024.06 (io_trps.svl 2023.06)
