@<TRIPOS>MOLECULE
NONAME
35 35 1 0 0 
SMALL
USER_CHARGES


@<TRIPOS>ATOM
  1 O      -11.7460     1.7640    -0.1600 O.3   1 <1>  -0.3630 
  2 C      -10.4230     1.5800     0.0670 C.ar  1 <1>   0.0830 
  3 C      -12.4940     0.8590    -0.9420 C.3   1 <1>   0.0400 
  4 C       -9.7940     2.5160     0.8700 C.ar  1 <1>  -0.1500 
  5 C       -9.6850     0.5210    -0.4540 C.ar  1 <1>  -0.1500 
  6 C       -8.4440     2.4090     1.1520 C.ar  1 <1>  -0.1500 
  7 C       -8.3340     0.4130    -0.1730 C.ar  1 <1>  -0.1500 
  8 C       -7.7060     1.3570     0.6270 C.ar  1 <1>  -0.1430 
  9 C       -6.2270     1.2510     0.9160 C.3   1 <1>   0.4860 
 10 N       -5.5500     2.1250    -0.0560 N.4   1 <1>  -0.9060 
 11 C       -4.0790     2.1820     0.0450 C.3   1 <1>   0.4230 
 12 C       -3.6160     3.5840    -0.4150 C.3   1 <1>   0.1200 
 13 C       -3.4660     1.0420    -0.7810 C.3   1 <1>  -0.1600 
 14 O       -4.5570     4.5420    -0.0210 O.3   1 <1>  -0.6800 
 15 C       -1.9370     0.9680    -0.6470 C.3   1 <1>  -0.2400 
 16 H      -13.5110     1.2070    -0.9720 H     1 <1>   0.0800 
 17 H      -12.4550    -0.1140    -0.4850 H     1 <1>   0.0800 
 18 H      -12.0860     0.8370    -1.9370 H     1 <1>   0.0800 
 19 H      -10.3750     3.3280     1.2720 H     1 <1>   0.1500 
 20 H      -10.1480    -0.2220    -1.0750 H     1 <1>   0.1500 
 21 H       -7.9870     3.1530     1.7830 H     1 <1>   0.1500 
 22 H       -7.7860    -0.4170    -0.5870 H     1 <1>   0.1500 
 23 H       -5.9010     0.2300     0.8010 H     1 <1>   0.0800 
 24 H       -6.0220     1.5750     1.9240 H     1 <1>   0.0800 
 25 H       -5.8530     3.1020     0.1060 H     1 <1>   0.4500 
 26 H       -5.8600     1.9040    -1.0050 H     1 <1>   0.4500 
 27 H       -3.7880     2.0640     1.0770 H     1 <1>   0.0800 
 28 H       -3.5260     3.6250    -1.4880 H     1 <1>   0.0800 
 29 H       -2.6630     3.8290     0.0250 H     1 <1>   0.0800 
 30 H       -3.7150     1.1650    -1.8210 H     1 <1>   0.0800 
 31 H       -3.8690     0.1010    -0.4470 H     1 <1>   0.0800 
 32 H       -4.2460     5.4510    -0.2380 H     1 <1>   0.4000 
 33 H       -1.4640     1.8500    -1.0450 H     1 <1>   0.0800 
 34 H       -1.5640     0.1200    -1.1970 H     1 <1>   0.0800 
 35 H       -1.6450     0.8510     0.3820 H     1 <1>   0.0800 
@<TRIPOS>BOND
  1   1   2  1   
  2   1   3  1   
  3   2   4  ar  
  4   2   5  ar  
  5   3  16  1   
  6   3  17  1   
  7   3  18  1   
  8   4   6  ar  
  9   4  19  1   
 10   5   7  ar  
 11   5  20  1   
 12   6   8  ar  
 13   6  21  1   
 14   7   8  ar  
 15   7  22  1   
 16   8   9  1   
 17   9  10  1   
 18   9  23  1   
 19   9  24  1   
 20  10  11  1   
 21  10  25  1   
 22  10  26  1   
 23  11  12  1   
 24  11  13  1   
 25  11  27  1   
 26  12  14  1   
 27  12  28  1   
 28  12  29  1   
 29  13  15  1   
 30  13  30  1   
 31  13  31  1   
 32  14  32  1   
 33  15  33  1   
 34  15  34  1   
 35  15  35  1   
@<TRIPOS>SUBSTRUCTURE
  1 ****   8 GROUP 4 **** **** 0

# MOE 2024.06 (io_trps.svl 2023.06)
