@<TRIPOS>MOLECULE
NONAME
34 36 1 0 0 
SMALL
USER_CHARGES


@<TRIPOS>ATOM
  1 S        0.2440    -1.0660    -0.9430 S.3   1 <1>  -0.4600 
  2 C        1.8210    -0.2360    -1.2690 C.3   1 <1>   0.0700 
  3 C        0.7690    -2.5640    -0.0700 C.3   1 <1>   0.0700 
  4 C        2.5840    -0.0840     0.0530 C.3   1 <1>   0.3430 
  5 C        1.6470    -2.1630     1.1230 C.3   1 <1>   0.3430 
  6 N        2.8770    -1.4100     0.7030 N.4   1 <1>  -0.9590 
  7 C        3.8510    -1.2920     1.8230 C.3   1 <1>   0.4810 
  8 C        5.2080    -0.8530     1.3010 C.2   1 <1>  -0.1240 
  9 C        5.8040    -1.6450     0.2720 C.2   1 <1>   0.4690 
 10 C        5.8540     0.2320     1.7820 C.2   1 <1>  -0.0730 
 11 O        5.1830    -2.5700    -0.2250 O.2   1 <1>  -0.5700 
 12 C        7.1210    -1.2660    -0.1680 C.ar  1 <1>   0.0860 
 13 O        7.0550     0.5970     1.3270 O.3   1 <1>  -0.1590 
 14 C        7.7090    -0.1230     0.3890 C.ar  1 <1>   0.0830 
 15 C        7.8460    -1.9730    -1.1310 C.ar  1 <1>  -0.1500 
 16 C        8.9720     0.2940    -0.0080 C.ar  1 <1>  -0.1500 
 17 C        9.1020    -1.5570    -1.5240 C.ar  1 <1>  -0.1500 
 18 C        9.6670    -0.4210    -0.9630 C.ar  1 <1>  -0.1500 
 19 H        1.5890     0.7230    -1.6980 H     1 <1>   0.0800 
 20 H        2.3680    -0.8280    -1.9820 H     1 <1>   0.0800 
 21 H        1.3010    -3.1860    -0.7680 H     1 <1>   0.0800 
 22 H       -0.1240    -3.0680     0.2550 H     1 <1>   0.0800 
 23 H        2.0010     0.5280     0.7220 H     1 <1>   0.0800 
 24 H        3.5080     0.4330    -0.1480 H     1 <1>   0.0800 
 25 H        1.9350    -3.0600     1.6470 H     1 <1>   0.0800 
 26 H        1.0610    -1.5570     1.7960 H     1 <1>   0.0800 
 27 H        3.3800    -1.9980     0.0050 H     1 <1>   0.4500 
 28 H        3.9660    -2.2520     2.3000 H     1 <1>   0.0800 
 29 H        3.4900    -0.5900     2.5570 H     1 <1>   0.0800 
 30 H        5.4820     0.8810     2.5580 H     1 <1>   0.1500 
 31 H        7.4150    -2.8560    -1.5720 H     1 <1>   0.1500 
 32 H        9.4060     1.1750     0.4330 H     1 <1>   0.1500 
 33 H        9.6500    -2.1120    -2.2670 H     1 <1>   0.1500 
 34 H       10.6480    -0.1010    -1.2730 H     1 <1>   0.1500 
@<TRIPOS>BOND
  1   1   2  1   
  2   1   3  1   
  3   2   4  1   
  4   2  19  1   
  5   2  20  1   
  6   3   5  1   
  7   3  21  1   
  8   3  22  1   
  9   4   6  1   
 10   4  23  1   
 11   4  24  1   
 12   5   6  1   
 13   5  25  1   
 14   5  26  1   
 15   6   7  1   
 16   6  27  1   
 17   7   8  1   
 18   7  28  1   
 19   7  29  1   
 20   8   9  1   
 21   8  10  2   
 22   9  11  2   
 23   9  12  1   
 24  10  13  1   
 25  10  30  1   
 26  12  14  ar  
 27  12  15  ar  
 28  13  14  1   
 29  14  16  ar  
 30  15  17  ar  
 31  15  31  1   
 32  16  18  ar  
 33  16  32  1   
 34  17  18  ar  
 35  17  33  1   
 36  18  34  1   
@<TRIPOS>SUBSTRUCTURE
  1 ****   9 GROUP 4 **** **** 0

# MOE 2024.06 (io_trps.svl 2023.06)
