@<TRIPOS>MOLECULE
NONAME
37 37 1 0 0 
SMALL
USER_CHARGES


@<TRIPOS>ATOM
  1 O        1.2000    -0.1730     0.5840 O.co2 1 <1>  -0.9000 
  2 C        1.7440     0.5100    -0.2960 C.2   1 <1>   0.9060 
  3 O        1.4050     0.4610    -1.4800 O.co2 1 <1>  -0.9000 
  4 C        2.6790     1.6090     0.2620 C.3   1 <1>   0.3170 
  5 N        2.0050     2.2090     1.4840 N.4   1 <1>  -0.9060 
  6 C        3.2120     2.6810    -0.7310 C.3   1 <1>  -0.0800 
  7 C        0.9400     3.2330     1.2510 C.3   1 <1>   0.3430 
  8 C        4.1240     2.0430    -1.7940 C.3   1 <1>  -0.2400 
  9 C        4.0260     3.7900    -0.0330 C.3   1 <1>  -0.2400 
 10 C       -0.2530     2.6850     0.4620 C.3   1 <1>  -0.0990 
 11 C       -1.4100     3.6650     0.4500 C.2   1 <1>   0.4230 
 12 O       -1.2690     4.6810     1.0830 O.2   1 <1>  -0.5700 
 13 C       -2.6100     3.3480    -0.3020 C.ar  1 <1>   0.0860 
 14 C       -3.6940     4.2300    -0.2950 C.ar  1 <1>  -0.1500 
 15 C       -2.7540     2.1770    -1.0570 C.ar  1 <1>  -0.1500 
 16 C       -4.8560     3.9650    -0.9960 C.ar  1 <1>  -0.1500 
 17 C       -3.9130     1.9070    -1.7600 C.ar  1 <1>  -0.1500 
 18 C       -4.9680     2.8000    -1.7320 C.ar  1 <1>  -0.1500 
 19 H        3.5390     1.0660     0.6090 H     1 <1>   0.0800 
 20 H        2.7030     2.5200     2.1600 H     1 <1>   0.4500 
 21 H        1.5300     1.3580     1.8600 H     1 <1>   0.4500 
 22 H        2.3750     3.1220    -1.2470 H     1 <1>   0.0800 
 23 H        1.3450     4.0830     0.7280 H     1 <1>   0.0800 
 24 H        0.5770     3.5820     2.2050 H     1 <1>   0.0800 
 25 H        4.9710     1.5610    -1.3380 H     1 <1>   0.0800 
 26 H        4.4850     2.7910    -2.4780 H     1 <1>   0.0800 
 27 H        3.5890     1.3120    -2.3730 H     1 <1>   0.0800 
 28 H        4.8620     3.3690     0.4990 H     1 <1>   0.0800 
 29 H        3.4290     4.3580     0.6560 H     1 <1>   0.0800 
 30 H        4.4100     4.4800    -0.7650 H     1 <1>   0.0800 
 31 H       -0.5930     1.7650     0.9020 H     1 <1>   0.0800 
 32 H        0.0370     2.5140    -0.5570 H     1 <1>   0.0800 
 33 H       -3.6230     5.1420     0.2730 H     1 <1>   0.1500 
 34 H       -1.9580     1.4520    -1.1100 H     1 <1>   0.1500 
 35 H       -5.6730     4.6650    -0.9700 H     1 <1>   0.1500 
 36 H       -3.9930     0.9980    -2.3330 H     1 <1>   0.1500 
 37 H       -5.8700     2.5900    -2.2800 H     1 <1>   0.1500 
@<TRIPOS>BOND
  1   1   2  ar  
  2   2   3  ar  
  3   2   4  1   
  4   4   5  1   
  5   4   6  1   
  6   4  19  1   
  7   5   7  1   
  8   5  20  1   
  9   5  21  1   
 10   6   8  1   
 11   6   9  1   
 12   6  22  1   
 13   7  10  1   
 14   7  23  1   
 15   7  24  1   
 16   8  25  1   
 17   8  26  1   
 18   8  27  1   
 19   9  28  1   
 20   9  29  1   
 21   9  30  1   
 22  10  11  1   
 23  10  31  1   
 24  10  32  1   
 25  11  12  2   
 26  11  13  1   
 27  13  14  ar  
 28  13  15  ar  
 29  14  16  ar  
 30  14  33  1   
 31  15  17  ar  
 32  15  34  1   
 33  16  18  ar  
 34  16  35  1   
 35  17  18  ar  
 36  17  36  1   
 37  18  37  1   
@<TRIPOS>SUBSTRUCTURE
  1 ****  10 GROUP 4 **** **** 0

# MOE 2024.06 (io_trps.svl 2023.06)
