@<TRIPOS>MOLECULE
NONAME
54 57 1 0 0 
SMALL
USER_CHARGES


@<TRIPOS>ATOM
  1 S        0.2520     0.3940     1.3280 S.3   1 <1>  -0.3320 
  2 C        1.2280     1.8500     0.9650 C.ar  1 <1>   0.7220 
  3 C       -1.5060     0.9650     1.4190 C.3   1 <1>   0.0700 
  4 N        0.5790     3.0090     0.9030 N.ar  1 <1>  -0.3100 
  5 N        2.5040     1.6330     0.8000 N.ar  1 <1>  -0.6200 
  6 C       -2.0630     1.0580    -0.0040 C.3   1 <1>  -0.1600 
  7 N        1.2510     4.0910     0.6350 N.ar  1 <1>  -0.3100 
  8 C        3.1840     2.7320     0.5270 C.ar  1 <1>   0.3930 
  9 C       -3.5260     1.5150     0.0050 C.3   1 <1>  -0.1600 
 10 C        2.5750     4.0060     0.4350 C.ar  1 <1>   0.3100 
 11 O        4.4870     2.4500     0.3640 O.3   1 <1>  -0.3620 
 12 C       -4.0810     1.6070    -1.4190 C.3   1 <1>  -0.2400 
 13 C        3.2310     5.2740     0.1290 C.ar  1 <1>   0.0000 
 14 C        5.4840     3.4060     0.2000 C.3   1 <1>   0.7130 
 15 C        4.4200     5.3480    -0.6140 C.ar  1 <1>   0.1000 
 16 C        2.6710     6.4920     0.5370 C.ar  1 <1>  -0.1500 
 17 N        5.1010     4.2050    -0.9540 N.pl3 1 <1>  -0.8690 
 18 C        6.8170     2.7300    -0.0880 C.ar  1 <1>  -0.1440 
 19 C        4.9630     6.5750    -0.9750 C.ar  1 <1>  -0.1500 
 20 C        3.2250     7.7100     0.1950 C.ar  1 <1>  -0.1500 
 21 C        7.9850     3.2620     0.4500 C.ar  1 <1>   0.0820 
 22 C        6.8830     1.5990    -0.8920 C.ar  1 <1>  -0.1500 
 23 C        4.3720     7.7540    -0.5750 C.ar  1 <1>  -0.1500 
 24 O        7.8700     4.3780     1.2190 O.3   1 <1>  -0.3620 
 25 C        9.2090     2.6510     0.1830 C.ar  1 <1>  -0.1500 
 26 C        8.1060     0.9890    -1.1560 C.ar  1 <1>   0.0820 
 27 C        8.9980     4.9880     1.8070 C.3   1 <1>   0.0400 
 28 C        9.2620     1.5230    -0.6140 C.ar  1 <1>  -0.1500 
 29 O        8.2470    -0.1210    -1.9260 O.3   1 <1>  -0.3620 
 30 C        7.1180    -0.7970    -2.4350 C.3   1 <1>   0.0400 
 31 H       -1.5260     1.9120     1.9280 H     1 <1>   0.0800 
 32 H       -2.0400     0.2320     1.9970 H     1 <1>   0.0800 
 33 H       -1.9890     0.0930    -0.4760 H     1 <1>   0.0800 
 34 H       -1.4760     1.7580    -0.5740 H     1 <1>   0.0800 
 35 H       -3.6000     2.4810     0.4760 H     1 <1>   0.0800 
 36 H       -4.1210     0.8190     0.5720 H     1 <1>   0.0800 
 37 H       -3.5130     2.3150    -1.9980 H     1 <1>   0.0800 
 38 H       -5.1070     1.9310    -1.3950 H     1 <1>   0.0800 
 39 H       -4.0370     0.6480    -1.9040 H     1 <1>   0.0800 
 40 H        5.5280     4.0000     1.0980 H     1 <1>   0.0800 
 41 H        1.7730     6.4970     1.1310 H     1 <1>   0.1500 
 42 H        5.9410     4.3480    -1.5200 H     1 <1>   0.4000 
 43 H        5.8600     6.6050    -1.5650 H     1 <1>   0.1500 
 44 H        2.7610     8.6260     0.5210 H     1 <1>   0.1500 
 45 H        5.9720     1.2060    -1.3050 H     1 <1>   0.1500 
 46 H        4.8010     8.7020    -0.8540 H     1 <1>   0.1500 
 47 H       10.1280     3.0340     0.5840 H     1 <1>   0.1500 
 48 H        8.6640     5.8450     2.3640 H     1 <1>   0.0800 
 49 H        9.6730     5.3000     1.0300 H     1 <1>   0.0800 
 50 H        9.4710     4.2850     2.4700 H     1 <1>   0.0800 
 51 H       10.2030     1.0460    -0.8240 H     1 <1>   0.1500 
 52 H        7.4610    -1.6630    -2.9720 H     1 <1>   0.0800 
 53 H        6.5880    -0.1400    -3.1010 H     1 <1>   0.0800 
 54 H        6.4920    -1.1000    -1.6140 H     1 <1>   0.0800 
@<TRIPOS>BOND
  1   1   2  1   
  2   1   3  1   
  3   2   4  ar  
  4   2   5  ar  
  5   3   6  1   
  6   3  31  1   
  7   3  32  1   
  8   4   7  ar  
  9   5   8  ar  
 10   6   9  1   
 11   6  33  1   
 12   6  34  1   
 13   7  10  ar  
 14   8  10  ar  
 15   8  11  1   
 16   9  12  1   
 17   9  35  1   
 18   9  36  1   
 19  10  13  1   
 20  11  14  1   
 21  12  37  1   
 22  12  38  1   
 23  12  39  1   
 24  13  15  ar  
 25  13  16  ar  
 26  14  17  1   
 27  14  18  1   
 28  14  40  1   
 29  15  17  1   
 30  15  19  ar  
 31  16  20  ar  
 32  16  41  1   
 33  17  42  1   
 34  18  21  ar  
 35  18  22  ar  
 36  19  23  ar  
 37  19  43  1   
 38  20  23  ar  
 39  20  44  1   
 40  21  24  1   
 41  21  25  ar  
 42  22  26  ar  
 43  22  45  1   
 44  23  46  1   
 45  24  27  1   
 46  25  28  ar  
 47  25  47  1   
 48  26  28  ar  
 49  26  29  1   
 50  27  48  1   
 51  27  49  1   
 52  27  50  1   
 53  28  51  1   
 54  29  30  1   
 55  30  52  1   
 56  30  53  1   
 57  30  54  1   
@<TRIPOS>SUBSTRUCTURE
  1 ****  11 GROUP 4 **** **** 0

# MOE 2024.06 (io_trps.svl 2023.06)
