@<TRIPOS>MOLECULE
NONAME
32 33 1 0 0 
SMALL
USER_CHARGES


@<TRIPOS>ATOM
  1 CL      -1.6690     1.0710    -1.6240 Cl    1 <1>  -0.1770 
  2 C       -0.8170     2.2620    -0.6710 C.ar  1 <1>   0.1770 
  3 C       -1.2920     2.6010     0.5900 C.ar  1 <1>  -0.1440 
  4 C        0.3120     2.8510    -1.2050 C.ar  1 <1>  -0.1500 
  5 C       -0.6070     3.5580     1.3310 C.ar  1 <1>  -0.1500 
  6 C       -2.5350     1.9320     1.1500 C.3   1 <1>   0.4870 
  7 C        0.9740     3.8010    -0.4520 C.ar  1 <1>   0.1770 
  8 C        0.5270     4.1590     0.8070 C.ar  1 <1>  -0.1500 
  9 N       -3.7280     2.3510     0.3600 N.4   1 <1>  -0.9590 
 10 CL       2.3980     4.5650    -1.1030 Cl    1 <1>  -0.1770 
 11 C       -3.9680     3.8250     0.4400 C.3   1 <1>   0.3430 
 12 C       -4.9300     1.5490     0.7320 C.3   1 <1>   0.3430 
 13 C       -5.1170     4.2120    -0.4880 C.3   1 <1>  -0.1600 
 14 C       -6.0930     1.9030    -0.1910 C.3   1 <1>  -0.1600 
 15 C       -6.3640     3.4030    -0.1450 C.3   1 <1>   0.2000 
 16 O       -7.3450     3.7010    -1.0560 O.3   1 <1>  -0.6800 
 17 H        0.6720     2.5810    -2.1820 H     1 <1>   0.1500 
 18 H       -0.9370     3.8430     2.3180 H     1 <1>   0.1500 
 19 H       -2.6620     2.2010     2.1860 H     1 <1>   0.0800 
 20 H       -2.4130     0.8620     1.0900 H     1 <1>   0.0800 
 21 H        1.0700     4.9010     1.3680 H     1 <1>   0.1500 
 22 H       -3.5010     2.1300    -0.6220 H     1 <1>   0.4500 
 23 H       -3.0800     4.3650     0.1490 H     1 <1>   0.0800 
 24 H       -4.2150     4.1020     1.4520 H     1 <1>   0.0800 
 25 H       -5.2070     1.7570     1.7540 H     1 <1>   0.0800 
 26 H       -4.7150     0.4950     0.6470 H     1 <1>   0.0800 
 27 H       -4.8220     4.0440    -1.5080 H     1 <1>   0.0800 
 28 H       -5.3280     5.2600    -0.3640 H     1 <1>   0.0800 
 29 H       -6.9710     1.3730     0.1350 H     1 <1>   0.0800 
 30 H       -5.8600     1.5880    -1.1930 H     1 <1>   0.0800 
 31 H       -6.7360     3.6860     0.8280 H     1 <1>   0.0800 
 32 H       -7.0840     3.4720    -1.9690 H     1 <1>   0.4000 
@<TRIPOS>BOND
  1   1   2  1   
  2   2   3  ar  
  3   2   4  ar  
  4   3   5  ar  
  5   3   6  1   
  6   4   7  ar  
  7   4  17  1   
  8   5   8  ar  
  9   5  18  1   
 10   6   9  1   
 11   6  19  1   
 12   6  20  1   
 13   7   8  ar  
 14   7  10  1   
 15   8  21  1   
 16   9  11  1   
 17   9  12  1   
 18   9  22  1   
 19  11  13  1   
 20  11  23  1   
 21  11  24  1   
 22  12  14  1   
 23  12  25  1   
 24  12  26  1   
 25  13  15  1   
 26  13  27  1   
 27  13  28  1   
 28  14  15  1   
 29  14  29  1   
 30  14  30  1   
 31  15  16  1   
 32  15  31  1   
 33  16  32  1   
@<TRIPOS>SUBSTRUCTURE
  1 ****   9 GROUP 4 **** **** 0

# MOE 2024.06 (io_trps.svl 2023.06)
