@<TRIPOS>MOLECULE
NONAME
44 46 1 0 0 
SMALL
USER_CHARGES


@<TRIPOS>ATOM
  1 S        0.5970    -0.1500    -0.4330 S.3   1 <1>  -0.3320 
  2 C       -0.9620    -1.0400    -0.2880 C.ar  1 <1>   0.1020 
  3 C        1.4770    -0.3590     1.1910 C.3   1 <1>   0.1310 
  4 C       -1.7350    -1.1420    -1.4290 C.ar  1 <1>  -0.1500 
  5 C       -1.3850    -1.6030     0.9060 C.ar  1 <1>  -0.1500 
  6 C        2.8830     0.2260     1.1390 C.2   1 <1>   0.5690 
  7 C       -2.9400    -1.8210    -1.3820 C.ar  1 <1>  -0.1500 
  8 C       -2.5920    -2.2810     0.9460 C.ar  1 <1>  -0.1500 
  9 O        3.1060     1.1760     1.8540 O.2   1 <1>  -0.5700 
 10 N        3.8640    -0.3220     0.3480 N.am  1 <1>  -0.6600 
 11 C       -3.3720    -2.3950    -0.1960 C.ar  1 <1>  -0.1430 
 12 C        5.2450     0.2580     0.3000 C.3   1 <1>   0.1400 
 13 C        3.7020    -1.5130    -0.5490 C.3   1 <1>   0.1400 
 14 C       -4.6950    -3.1380    -0.1470 C.3   1 <1>  -0.0970 
 15 C        6.3150    -0.8130     0.5690 C.3   1 <1>   0.2090 
 16 C        4.7880    -2.5710    -0.2850 C.3   1 <1>   0.2090 
 17 N        6.1590    -1.9800    -0.3480 N.pl3 1 <1>  -0.8380 
 18 C        7.2290    -2.8500    -0.4150 C.ar  1 <1>   0.4100 
 19 N        7.1120    -4.0110     0.2210 N.ar  1 <1>  -0.6200 
 20 C        8.3680    -2.4790    -1.1240 C.ar  1 <1>  -0.1500 
 21 C        8.1600    -4.8150     0.1490 C.ar  1 <1>   0.1600 
 22 C        9.4500    -3.3250    -1.1900 C.ar  1 <1>  -0.1500 
 23 C        9.3320    -4.5300    -0.5280 C.ar  1 <1>  -0.1500 
 24 H        1.5140    -1.4080     1.4130 H     1 <1>   0.0800 
 25 H        0.8920     0.1560     1.9320 H     1 <1>   0.0800 
 26 H       -1.3950    -0.6940    -2.3460 H     1 <1>   0.1500 
 27 H       -0.8030    -1.5240     1.8030 H     1 <1>   0.1500 
 28 H       -3.5410    -1.8980    -2.2710 H     1 <1>   0.1500 
 29 H       -2.9250    -2.7190     1.8700 H     1 <1>   0.1500 
 30 H        5.3500     1.0470     1.0240 H     1 <1>   0.0800 
 31 H        5.4110     0.6820    -0.6740 H     1 <1>   0.0800 
 32 H        3.7760    -1.1900    -1.5730 H     1 <1>   0.0800 
 33 H        2.7400    -1.9710    -0.4200 H     1 <1>   0.0800 
 34 H       -5.4890    -2.4520     0.0880 H     1 <1>   0.0800 
 35 H       -4.6690    -3.9080     0.6030 H     1 <1>   0.0800 
 36 H       -4.9040    -3.5980    -1.0960 H     1 <1>   0.0800 
 37 H        6.2320    -1.1500     1.5890 H     1 <1>   0.0800 
 38 H        7.2920    -0.3800     0.4420 H     1 <1>   0.0800 
 39 H        4.7070    -3.3570    -1.0170 H     1 <1>   0.0800 
 40 H        4.6320    -3.0070     0.6870 H     1 <1>   0.0800 
 41 H        8.3800    -1.5270    -1.6180 H     1 <1>   0.1500 
 42 H        8.0790    -5.7590     0.6610 H     1 <1>   0.1500 
 43 H       10.3430    -3.0640    -1.7320 H     1 <1>   0.1500 
 44 H       10.1390    -5.2410    -0.5380 H     1 <1>   0.1500 
@<TRIPOS>BOND
  1   1   2  1   
  2   1   3  1   
  3   2   4  ar  
  4   2   5  ar  
  5   3   6  1   
  6   3  24  1   
  7   3  25  1   
  8   4   7  ar  
  9   4  26  1   
 10   5   8  ar  
 11   5  27  1   
 12   6   9  2   
 13   6  10  am  
 14   7  11  ar  
 15   7  28  1   
 16   8  11  ar  
 17   8  29  1   
 18  10  12  1   
 19  10  13  1   
 20  11  14  1   
 21  12  15  1   
 22  12  30  1   
 23  12  31  1   
 24  13  16  1   
 25  13  32  1   
 26  13  33  1   
 27  14  34  1   
 28  14  35  1   
 29  14  36  1   
 30  15  17  1   
 31  15  37  1   
 32  15  38  1   
 33  16  17  1   
 34  16  39  1   
 35  16  40  1   
 36  17  18  1   
 37  18  19  ar  
 38  18  20  ar  
 39  19  21  ar  
 40  20  22  ar  
 41  20  41  1   
 42  21  23  ar  
 43  21  42  1   
 44  22  23  ar  
 45  22  43  1   
 46  23  44  1   
@<TRIPOS>SUBSTRUCTURE
  1 ****  13 GROUP 4 **** **** 0

# MOE 2024.06 (io_trps.svl 2023.06)
