@<TRIPOS>MOLECULE
NONAME
51 53 1 0 0 
SMALL
USER_CHARGES


@<TRIPOS>ATOM
  1 O       -0.5200    -2.9430     1.7540 O.2   1 <1>  -0.5700 
  2 C        0.3180    -3.1480     0.9050 C.2   1 <1>   0.6900 
  3 N        0.0500    -3.3920    -0.4060 N.am  1 <1>  -0.4200 
  4 N        1.6370    -3.1300     1.1510 N.am  1 <1>  -0.7300 
  5 C        1.2230    -3.4930    -1.0950 C.2   1 <1>   0.5690 
  6 C       -1.2810    -3.2190    -1.0410 C.3   1 <1>   0.2010 
  7 C        2.4030    -3.3010    -0.1080 C.3   1 <1>   0.5050 
  8 O        1.3040    -3.7110    -2.2830 O.2   1 <1>  -0.5700 
  9 C       -1.6530    -1.7430    -1.2010 C.2   1 <1>   0.5690 
 10 C        3.0970    -1.9290    -0.3610 C.ar  1 <1>  -0.1440 
 11 C        3.2650    -4.6330     0.0070 C.3   1 <1>   0.0000 
 12 O       -1.1570    -1.1600    -2.1370 O.2   1 <1>  -0.5700 
 13 N       -2.5040    -1.0880    -0.3400 N.am  1 <1>  -0.6600 
 14 C        2.3010    -0.8330    -0.7010 C.ar  1 <1>  -0.1500 
 15 C        4.4680    -1.6940    -0.2540 C.ar  1 <1>  -0.1500 
 16 C        2.3600    -5.8930     0.0720 C.3   1 <1>  -0.2400 
 17 C        4.1160    -4.7000     1.3020 C.3   1 <1>  -0.2400 
 18 C        4.1830    -4.8560    -1.2190 C.3   1 <1>  -0.2400 
 19 C       -3.0930    -1.6340     0.9230 C.3   1 <1>   0.1400 
 20 C       -2.8480     0.3530    -0.5450 C.3   1 <1>   0.1400 
 21 C        2.8390     0.4210    -0.9280 C.ar  1 <1>  -0.1500 
 22 C        5.0120    -0.4410    -0.4770 C.ar  1 <1>  -0.1500 
 23 C       -4.5890    -1.2920     1.0220 C.3   1 <1>   0.1200 
 24 C       -4.3590     0.5810    -0.3740 C.3   1 <1>   0.1200 
 25 C        4.1990     0.6210    -0.8160 C.ar  1 <1>  -0.1500 
 26 O       -4.7990     0.0810     0.8570 O.3   1 <1>  -0.5600 
 27 H        2.0210    -2.5440     1.8890 H     1 <1>   0.3700 
 28 H       -2.0200    -3.7470    -0.4730 H     1 <1>   0.0800 
 29 H       -1.2550    -3.6590    -2.0220 H     1 <1>   0.0800 
 30 H        1.2330    -0.9220    -0.8030 H     1 <1>   0.1500 
 31 H        5.1620    -2.4660     0.0000 H     1 <1>   0.1500 
 32 H        1.6600    -5.8280     0.8860 H     1 <1>   0.0800 
 33 H        2.9530    -6.7780     0.2230 H     1 <1>   0.0800 
 34 H        1.8090    -6.0350    -0.8410 H     1 <1>   0.0800 
 35 H        3.4800    -4.7830     2.1660 H     1 <1>   0.0800 
 36 H        4.7360    -3.8420     1.4510 H     1 <1>   0.0800 
 37 H        4.7550    -5.5650     1.2890 H     1 <1>   0.0800 
 38 H        3.6050    -4.9000    -2.1250 H     1 <1>   0.0800 
 39 H        4.7150    -5.7870    -1.1280 H     1 <1>   0.0800 
 40 H        4.9130    -4.0820    -1.3410 H     1 <1>   0.0800 
 41 H       -2.5800    -1.2000     1.7640 H     1 <1>   0.0800 
 42 H       -2.9760    -2.6980     0.9890 H     1 <1>   0.0800 
 43 H       -2.5540     0.6800    -1.5270 H     1 <1>   0.0800 
 44 H       -2.3160     0.9490     0.1750 H     1 <1>   0.0800 
 45 H        2.1930     1.2400    -1.1940 H     1 <1>   0.1500 
 46 H        6.0740    -0.2930    -0.3890 H     1 <1>   0.1500 
 47 H       -4.9680    -1.5660     1.9910 H     1 <1>   0.0800 
 48 H       -5.1500    -1.8190     0.2690 H     1 <1>   0.0800 
 49 H       -4.9060     0.0950    -1.1620 H     1 <1>   0.0800 
 50 H       -4.5790     1.6340    -0.3980 H     1 <1>   0.0800 
 51 H        4.6210     1.5950    -0.9920 H     1 <1>   0.1500 
@<TRIPOS>BOND
  1   1   2  2   
  2   2   3  am  
  3   2   4  am  
  4   3   5  am  
  5   3   6  1   
  6   4   7  1   
  7   4  27  1   
  8   5   7  1   
  9   5   8  2   
 10   6   9  1   
 11   6  28  1   
 12   6  29  1   
 13   7  10  1   
 14   7  11  1   
 15   9  12  2   
 16   9  13  am  
 17  10  14  ar  
 18  10  15  ar  
 19  11  16  1   
 20  11  17  1   
 21  11  18  1   
 22  13  19  1   
 23  13  20  1   
 24  14  21  ar  
 25  14  30  1   
 26  15  22  ar  
 27  15  31  1   
 28  16  32  1   
 29  16  33  1   
 30  16  34  1   
 31  17  35  1   
 32  17  36  1   
 33  17  37  1   
 34  18  38  1   
 35  18  39  1   
 36  18  40  1   
 37  19  23  1   
 38  19  41  1   
 39  19  42  1   
 40  20  24  1   
 41  20  43  1   
 42  20  44  1   
 43  21  25  ar  
 44  21  45  1   
 45  22  25  ar  
 46  22  46  1   
 47  23  26  1   
 48  23  47  1   
 49  23  48  1   
 50  24  26  1   
 51  24  49  1   
 52  24  50  1   
 53  25  51  1   
@<TRIPOS>SUBSTRUCTURE
  1 ****   3 GROUP 4 **** **** 0

# MOE 2024.06 (io_trps.svl 2023.06)
