@<TRIPOS>MOLECULE
NONAME
54 57 1 0 0 
SMALL
USER_CHARGES


@<TRIPOS>ATOM
  1 S        0.6050     0.3830     0.4980 S.3   1 <1>  -0.0800 
  2 C        1.4980    -0.8460    -0.4150 C.2   1 <1>   0.4620 
  3 C       -0.8900    -0.4600     0.1690 C.ar  1 <1>   0.0400 
  4 N        0.7520    -1.7690    -0.9020 N.2   1 <1>  -0.5650 
  5 N        2.8660    -0.7370    -0.5420 N.pl3 1 <1>  -0.8220 
  6 C       -0.5840    -1.5740    -0.5890 C.ar  1 <1>   0.2270 
  7 C       -2.1720    -0.1260     0.5630 C.ar  1 <1>  -0.1500 
  8 C        3.6430    -1.7250    -1.3500 C.3   1 <1>   0.2090 
  9 C        3.7140     0.3320     0.0690 C.3   1 <1>   0.2090 
 10 C       -1.6290    -2.4030    -0.9740 C.ar  1 <1>  -0.1500 
 11 C       -3.2000    -0.9660     0.1690 C.ar  1 <1>  -0.1500 
 12 C        4.8430    -2.2700    -0.5530 C.3   1 <1>   0.1100 
 13 C        4.9170    -0.2770     0.8150 C.3   1 <1>   0.1100 
 14 C       -2.9280    -2.0980    -0.5960 C.ar  1 <1>  -0.1500 
 15 N        5.7170    -1.1870    -0.0460 N.3   1 <1>  -0.8100 
 16 C        6.8740    -1.7540     0.7140 C.3   1 <1>   0.1710 
 17 C        8.0130    -0.7560     0.9350 C.2   1 <1>   0.5690 
 18 O        8.7690    -0.9240     1.8610 O.2   1 <1>  -0.5700 
 19 N        8.0850     0.2780     0.0450 N.am  1 <1>  -0.5470 
 20 C        8.9480     1.3740    -0.0980 C.ar  1 <1>   0.1170 
 21 C        8.6590     2.3200    -1.0730 C.ar  1 <1>  -0.1500 
 22 C       10.0820     1.5650     0.6840 C.ar  1 <1>  -0.1500 
 23 C        9.4720     3.4220    -1.2620 C.ar  1 <1>  -0.1500 
 24 C       10.8970     2.6670     0.4970 C.ar  1 <1>  -0.1500 
 25 C       10.6020     3.6090    -0.4780 C.ar  1 <1>  -0.1430 
 26 C       11.5140     4.8190    -0.6690 C.3   1 <1>   0.0630 
 27 C       10.7550     6.1240    -0.4040 C.3   1 <1>  -0.2400 
 28 C       12.1290     4.8230    -2.0720 C.3   1 <1>  -0.2400 
 29 H       -2.3540     0.7540     1.1530 H     1 <1>   0.1500 
 30 H        3.9990    -1.2450    -2.2440 H     1 <1>   0.0800 
 31 H        3.0150    -2.5480    -1.6450 H     1 <1>   0.0800 
 32 H        3.1490     0.9290     0.7600 H     1 <1>   0.0800 
 33 H        4.0740     0.9810    -0.7100 H     1 <1>   0.0800 
 34 H       -1.4090    -3.2740    -1.5640 H     1 <1>   0.1500 
 35 H       -4.2150    -0.7450     0.4530 H     1 <1>   0.1500 
 36 H        5.4120    -2.9180    -1.1960 H     1 <1>   0.0800 
 37 H        4.4700    -2.8570     0.2690 H     1 <1>   0.0800 
 38 H        4.5480    -0.8160     1.6710 H     1 <1>   0.0800 
 39 H        5.5380     0.5260     1.1740 H     1 <1>   0.0800 
 40 H       -3.7360    -2.7430    -0.8960 H     1 <1>   0.1500 
 41 H        7.2880    -2.5810     0.1650 H     1 <1>   0.0800 
 42 H        6.5440    -2.1250     1.6680 H     1 <1>   0.0800 
 43 H        7.3030     0.2370    -0.6150 H     1 <1>   0.3700 
 44 H        7.7910     2.1950    -1.6930 H     1 <1>   0.1500 
 45 H       10.3390     0.8530     1.4450 H     1 <1>   0.1500 
 46 H        9.2220     4.1370    -2.0250 H     1 <1>   0.1500 
 47 H       11.7660     2.7840     1.1200 H     1 <1>   0.1500 
 48 H       12.3200     4.7600     0.0420 H     1 <1>   0.0800 
 49 H        9.9650     6.2600    -1.1200 H     1 <1>   0.0800 
 50 H       11.4240     6.9630    -0.4650 H     1 <1>   0.0800 
 51 H       10.3240     6.1000     0.5820 H     1 <1>   0.0800 
 52 H       11.3680     4.9310    -2.8240 H     1 <1>   0.0800 
 53 H       12.6510     3.8980    -2.2430 H     1 <1>   0.0800 
 54 H       12.8280     5.6340    -2.1700 H     1 <1>   0.0800 
@<TRIPOS>BOND
  1   1   2  1   
  2   1   3  1   
  3   2   4  2   
  4   2   5  1   
  5   3   6  ar  
  6   3   7  ar  
  7   4   6  1   
  8   5   8  1   
  9   5   9  1   
 10   6  10  ar  
 11   7  11  ar  
 12   7  29  1   
 13   8  12  1   
 14   8  30  1   
 15   8  31  1   
 16   9  13  1   
 17   9  32  1   
 18   9  33  1   
 19  10  14  ar  
 20  10  34  1   
 21  11  14  ar  
 22  11  35  1   
 23  12  15  1   
 24  12  36  1   
 25  12  37  1   
 26  13  15  1   
 27  13  38  1   
 28  13  39  1   
 29  14  40  1   
 30  15  16  1   
 31  16  17  1   
 32  16  41  1   
 33  16  42  1   
 34  17  18  2   
 35  17  19  am  
 36  19  20  1   
 37  19  43  1   
 38  20  21  ar  
 39  20  22  ar  
 40  21  23  ar  
 41  21  44  1   
 42  22  24  ar  
 43  22  45  1   
 44  23  25  ar  
 45  23  46  1   
 46  24  25  ar  
 47  24  47  1   
 48  25  26  1   
 49  26  27  1   
 50  26  28  1   
 51  26  48  1   
 52  27  49  1   
 53  27  50  1   
 54  27  51  1   
 55  28  52  1   
 56  28  53  1   
 57  28  54  1   
@<TRIPOS>SUBSTRUCTURE
  1 ****  13 GROUP 4 **** **** 0

# MOE 2024.06 (io_trps.svl 2023.06)
