@<TRIPOS>MOLECULE
NONAME
37 38 1 0 0 
SMALL
USER_CHARGES


@<TRIPOS>ATOM
  1 S       -0.4570     0.0050    -1.2250 S.o2  1 <1>   1.4470 
  2 O       -1.3600     0.3880    -2.2900 O.2   1 <1>  -0.6500 
  3 O       -0.0890    -1.3870    -1.0820 O.2   1 <1>  -0.6500 
  4 N       -1.1750     0.4970     0.2290 N.am  1 <1>  -0.8490 
  5 C        1.0580     1.0030    -1.3170 C.ar  1 <1>  -0.0090 
  6 C       -2.1990    -0.4530     0.6710 C.3   1 <1>   0.1960 
  7 C       -1.7200     1.8570     0.1440 C.3   1 <1>   0.1960 
  8 C        1.7960     1.3020    -0.1790 C.ar  1 <1>  -0.1500 
  9 C        1.5250     1.4800    -2.5350 C.ar  1 <1>  -0.1500 
 10 C       -2.7110    -0.0730     2.0640 C.3   1 <1>  -0.1600 
 11 C       -2.1980     2.3200     1.5240 C.3   1 <1>  -0.1600 
 12 C        2.9650     2.0610    -0.2140 C.ar  1 <1>   0.0860 
 13 C        2.6800     2.2380    -2.6080 C.ar  1 <1>  -0.1500 
 14 C       -3.2490     1.3630     2.0970 C.3   1 <1>  -0.1600 
 15 C        3.6980     2.3540     1.0050 C.2   1 <1>   0.5440 
 16 C        3.3880     2.5270    -1.4580 C.ar  1 <1>  -0.1500 
 17 O        3.1080     2.5150     2.0540 O.2   1 <1>  -0.5700 
 18 N        5.0640     2.4410     0.9920 N.am  1 <1>  -0.7300 
 19 C        5.9200     2.7400     2.1700 C.3   1 <1>   0.0600 
 20 H       -1.7790    -1.4450     0.7200 H     1 <1>   0.0800 
 21 H       -3.0130    -0.4670    -0.0350 H     1 <1>   0.0800 
 22 H       -2.5410     1.8820    -0.5540 H     1 <1>   0.0800 
 23 H       -0.9600     2.5350    -0.2060 H     1 <1>   0.0800 
 24 H        1.4540     0.9360     0.7760 H     1 <1>   0.1500 
 25 H        0.9750     1.2580    -3.4350 H     1 <1>   0.1500 
 26 H       -1.9010    -0.1730     2.7660 H     1 <1>   0.0800 
 27 H       -3.4860    -0.7570     2.3580 H     1 <1>   0.0800 
 28 H       -2.6120     3.3090     1.4450 H     1 <1>   0.0800 
 29 H       -1.3490     2.3700     2.1850 H     1 <1>   0.0800 
 30 H        3.0220     2.6040    -3.5620 H     1 <1>   0.1500 
 31 H       -3.4900     1.6430     3.1080 H     1 <1>   0.0800 
 32 H       -4.1470     1.4220     1.5070 H     1 <1>   0.0800 
 33 H        4.2770     3.1300    -1.5250 H     1 <1>   0.1500 
 34 H        5.5620     2.1910     0.1360 H     1 <1>   0.3700 
 35 H        5.3130     3.0050     3.0190 H     1 <1>   0.0800 
 36 H        6.5760     3.5630     1.9440 H     1 <1>   0.0800 
 37 H        6.5070     1.8740     2.4220 H     1 <1>   0.0800 
@<TRIPOS>BOND
  1   1   2  2   
  2   1   3  2   
  3   1   4  am  
  4   1   5  1   
  5   4   6  1   
  6   4   7  1   
  7   5   8  ar  
  8   5   9  ar  
  9   6  10  1   
 10   6  20  1   
 11   6  21  1   
 12   7  11  1   
 13   7  22  1   
 14   7  23  1   
 15   8  12  ar  
 16   8  24  1   
 17   9  13  ar  
 18   9  25  1   
 19  10  14  1   
 20  10  26  1   
 21  10  27  1   
 22  11  14  1   
 23  11  28  1   
 24  11  29  1   
 25  12  15  1   
 26  12  16  ar  
 27  13  16  ar  
 28  13  30  1   
 29  14  31  1   
 30  14  32  1   
 31  15  17  2   
 32  15  18  am  
 33  16  33  1   
 34  18  19  1   
 35  18  34  1   
 36  19  35  1   
 37  19  36  1   
 38  19  37  1   
@<TRIPOS>SUBSTRUCTURE
  1 ****   8 GROUP 4 **** **** 0

# MOE 2024.06 (io_trps.svl 2023.06)
