@<TRIPOS>MOLECULE
NONAME
41 42 1 0 0 
SMALL
USER_CHARGES


@<TRIPOS>ATOM
  1 F       -1.7140     3.0090     2.8990 F     1 <1>  -0.3400 
  2 C       -1.1630     2.2560     1.9550 C.3   1 <1>   1.1640 
  3 F       -1.3670     0.9960     2.3180 F     1 <1>  -0.3400 
  4 F        0.1460     2.4600     2.0260 F     1 <1>  -0.3400 
  5 C       -1.7560     2.5640     0.5680 C.ar  1 <1>  -0.1440 
  6 C       -3.0090     2.0690     0.2210 C.ar  1 <1>  -0.1500 
  7 C       -1.0720     3.3440    -0.3570 C.ar  1 <1>  -0.1500 
  8 C       -3.5770     2.3490    -1.0140 C.ar  1 <1>  -0.1440 
  9 C       -1.6250     3.6190    -1.5940 C.ar  1 <1>  -0.1500 
 10 C       -2.8730     3.1240    -1.9230 C.ar  1 <1>  -0.1500 
 11 C       -4.9570     1.8250    -1.3750 C.3   1 <1>   0.4870 
 12 N       -5.9910     2.3980    -0.4710 N.4   1 <1>  -0.9590 
 13 C       -7.3470     1.8600    -0.7710 C.3   1 <1>   0.4860 
 14 C       -5.9310     3.8930    -0.3490 C.3   1 <1>   0.3430 
 15 C       -8.3710     2.4110     0.2030 C.ar  1 <1>  -0.1430 
 16 C       -5.9650     4.3000     1.1410 C.3   1 <1>   0.1200 
 17 C       -8.4210     1.9440     1.5100 C.ar  1 <1>  -0.1500 
 18 C       -9.2650     3.3910    -0.2050 C.ar  1 <1>  -0.1500 
 19 O       -5.3970     3.2950     1.9350 O.3   1 <1>  -0.6800 
 20 C       -9.3460     2.4600     2.3990 C.ar  1 <1>  -0.1500 
 21 C      -10.1890     3.9060     0.6860 C.ar  1 <1>  -0.1500 
 22 C      -10.2290     3.4430     1.9880 C.ar  1 <1>  -0.1500 
 23 H       -3.5460     1.4640     0.9340 H     1 <1>   0.1500 
 24 H       -0.0980     3.7460    -0.1240 H     1 <1>   0.1500 
 25 H       -1.0790     4.2210    -2.3020 H     1 <1>   0.1500 
 26 H       -3.2810     3.3520    -2.8940 H     1 <1>   0.1500 
 27 H       -4.9550     0.7500    -1.2950 H     1 <1>   0.0800 
 28 H       -5.1800     2.0860    -2.3960 H     1 <1>   0.0800 
 29 H       -5.7470     2.1180     0.4980 H     1 <1>   0.4500 
 30 H       -7.3400     0.7840    -0.6980 H     1 <1>   0.0800 
 31 H       -7.6340     2.1270    -1.7740 H     1 <1>   0.0800 
 32 H       -6.7430     4.3600    -0.8790 H     1 <1>   0.0800 
 33 H       -5.0100     4.2620    -0.7680 H     1 <1>   0.0800 
 34 H       -6.9800     4.4510     1.4670 H     1 <1>   0.0800 
 35 H       -5.4150     5.2140     1.2910 H     1 <1>   0.0800 
 36 H       -7.7440     1.1790     1.8520 H     1 <1>   0.1500 
 37 H       -9.2600     3.7630    -1.2160 H     1 <1>   0.1500 
 38 H       -5.3420     3.5880     2.8730 H     1 <1>   0.4000 
 39 H       -9.3850     2.0970     3.4130 H     1 <1>   0.1500 
 40 H      -10.8850     4.6660     0.3690 H     1 <1>   0.1500 
 41 H      -10.9500     3.8420     2.6810 H     1 <1>   0.1500 
@<TRIPOS>BOND
  1   1   2  1   
  2   2   3  1   
  3   2   4  1   
  4   2   5  1   
  5   5   6  ar  
  6   5   7  ar  
  7   6   8  ar  
  8   6  23  1   
  9   7   9  ar  
 10   7  24  1   
 11   8  10  ar  
 12   8  11  1   
 13   9  10  ar  
 14   9  25  1   
 15  10  26  1   
 16  11  12  1   
 17  11  27  1   
 18  11  28  1   
 19  12  13  1   
 20  12  14  1   
 21  12  29  1   
 22  13  15  1   
 23  13  30  1   
 24  13  31  1   
 25  14  16  1   
 26  14  32  1   
 27  14  33  1   
 28  15  17  ar  
 29  15  18  ar  
 30  16  19  1   
 31  16  34  1   
 32  16  35  1   
 33  17  20  ar  
 34  17  36  1   
 35  18  21  ar  
 36  18  37  1   
 37  19  38  1   
 38  20  22  ar  
 39  20  39  1   
 40  21  22  ar  
 41  21  40  1   
 42  22  41  1   
@<TRIPOS>SUBSTRUCTURE
  1 ****  12 GROUP 4 **** **** 0

# MOE 2024.06 (io_trps.svl 2023.06)
