@<TRIPOS>MOLECULE
NONAME
53 55 1 0 0 
SMALL
USER_CHARGES


@<TRIPOS>ATOM
  1 O        0.6780     1.0040    -1.4060 O.2   1 <1>  -0.5700 
  2 C        0.4780     1.9530    -0.6730 C.2   1 <1>   0.5440 
  3 N        1.4520     2.3200     0.2370 N.am  1 <1>  -0.6600 
  4 C       -0.7780     2.6700    -0.7830 C.ar  1 <1>   0.0860 
  5 C        2.6680     1.4870     0.4540 C.3   1 <1>   0.1400 
  6 C        1.4510     3.6210     0.9640 C.3   1 <1>   0.1400 
  7 C       -1.1490     3.2840    -1.9770 C.ar  1 <1>  -0.1500 
  8 C       -1.6580     2.7680     0.2960 C.ar  1 <1>  -0.1500 
  9 C        3.9170     2.2820     0.0660 C.3   1 <1>  -0.1600 
 10 C        2.6980     4.4250     0.5860 C.3   1 <1>  -0.1600 
 11 C       -2.3390     3.9810    -2.0890 C.ar  1 <1>  -0.1500 
 12 C       -2.8500     3.4620     0.1920 C.ar  1 <1>  -0.1500 
 13 C        3.9920     3.6210     0.8190 C.3   1 <1>  -0.0190 
 14 C       -3.1910     4.0720    -1.0020 C.ar  1 <1>  -0.1500 
 15 C        5.2440     4.4030     0.4200 C.2   1 <1>   0.5690 
 16 O        5.2340     5.0980    -0.5670 O.2   1 <1>  -0.5700 
 17 N        6.3560     4.2790     1.1910 N.am  1 <1>  -0.7300 
 18 C        7.6350     4.9800     0.9280 C.3   1 <1>   0.1400 
 19 C        8.5500     4.0970     0.0800 C.3   1 <1>  -0.0170 
 20 C        9.8650     4.8120    -0.1860 C.ar  1 <1>  -0.1430 
 21 C       10.9810     4.5530     0.5940 C.ar  1 <1>  -0.1500 
 22 C        9.9530     5.7370    -1.2140 C.ar  1 <1>  -0.1500 
 23 C       12.1710     5.2150     0.3470 C.ar  1 <1>  -0.1500 
 24 C       11.1420     6.4010    -1.4630 C.ar  1 <1>  -0.1500 
 25 C       12.2620     6.1410    -0.6790 C.ar  1 <1>   0.0820 
 26 O       13.4640     6.7460    -0.8530 O.3   1 <1>  -0.3620 
 27 C       13.6590     7.7030    -1.8700 C.3   1 <1>   0.0400 
 28 H        2.6220     0.5820    -0.1280 H     1 <1>   0.0800 
 29 H        2.7170     1.2070     1.4920 H     1 <1>   0.0800 
 30 H        1.4440     3.4290     2.0240 H     1 <1>   0.0800 
 31 H        0.5780     4.2000     0.7230 H     1 <1>   0.0800 
 32 H       -0.4890     3.2060    -2.8240 H     1 <1>   0.1500 
 33 H       -1.3970     2.2870     1.2220 H     1 <1>   0.1500 
 34 H        3.8960     2.4630    -0.9960 H     1 <1>   0.0800 
 35 H        4.7910     1.6930     0.2780 H     1 <1>   0.0800 
 36 H        2.7270     5.3320     1.1620 H     1 <1>   0.0800 
 37 H        2.6240     4.7030    -0.4520 H     1 <1>   0.0800 
 38 H       -2.6040     4.4490    -3.0220 H     1 <1>   0.1500 
 39 H       -3.5140     3.5260     1.0360 H     1 <1>   0.1500 
 40 H        4.0600     3.4110     1.8710 H     1 <1>   0.0800 
 41 H       -4.1180     4.6130    -1.0870 H     1 <1>   0.1500 
 42 H        6.3500     3.6540     1.9970 H     1 <1>   0.3700 
 43 H        8.1140     5.2220     1.8610 H     1 <1>   0.0800 
 44 H        7.4410     5.9010     0.4020 H     1 <1>   0.0800 
 45 H        8.0670     3.8800    -0.8560 H     1 <1>   0.0800 
 46 H        8.7370     3.1690     0.5900 H     1 <1>   0.0800 
 47 H       10.9330     3.8380     1.3960 H     1 <1>   0.1500 
 48 H        9.0910     5.9460    -1.8250 H     1 <1>   0.1500 
 49 H       13.0390     5.0170     0.9490 H     1 <1>   0.1500 
 50 H       11.1750     7.1110    -2.2660 H     1 <1>   0.1500 
 51 H       14.6780     8.0410    -1.8190 H     1 <1>   0.0800 
 52 H       12.9900     8.5290    -1.7040 H     1 <1>   0.0800 
 53 H       13.4740     7.2400    -2.8230 H     1 <1>   0.0800 
@<TRIPOS>BOND
  1   1   2  2   
  2   2   3  am  
  3   2   4  1   
  4   3   5  1   
  5   3   6  1   
  6   4   7  ar  
  7   4   8  ar  
  8   5   9  1   
  9   5  28  1   
 10   5  29  1   
 11   6  10  1   
 12   6  30  1   
 13   6  31  1   
 14   7  11  ar  
 15   7  32  1   
 16   8  12  ar  
 17   8  33  1   
 18   9  13  1   
 19   9  34  1   
 20   9  35  1   
 21  10  13  1   
 22  10  36  1   
 23  10  37  1   
 24  11  14  ar  
 25  11  38  1   
 26  12  14  ar  
 27  12  39  1   
 28  13  15  1   
 29  13  40  1   
 30  14  41  1   
 31  15  16  2   
 32  15  17  am  
 33  17  18  1   
 34  17  42  1   
 35  18  19  1   
 36  18  43  1   
 37  18  44  1   
 38  19  20  1   
 39  19  45  1   
 40  19  46  1   
 41  20  21  ar  
 42  20  22  ar  
 43  21  23  ar  
 44  21  47  1   
 45  22  24  ar  
 46  22  48  1   
 47  23  25  ar  
 48  23  49  1   
 49  24  25  ar  
 50  24  50  1   
 51  25  26  1   
 52  26  27  1   
 53  27  51  1   
 54  27  52  1   
 55  27  53  1   
@<TRIPOS>SUBSTRUCTURE
  1 ****  15 GROUP 4 **** **** 0

# MOE 2024.06 (io_trps.svl 2023.06)
