@<TRIPOS>MOLECULE
NONAME
49 52 1 0 0 
SMALL
USER_CHARGES


@<TRIPOS>ATOM
  1 S       -0.3520    -0.3720     0.0970 S.3   1 <1>  -0.2860 
  2 C        1.3830    -0.5660     0.5180 C.2   1 <1>   0.2420 
  3 C       -1.0070    -2.1040     0.2780 C.3   1 <1>   0.1310 
  4 N        1.9020    -1.6760     0.8990 N.2   1 <1>  -0.3380 
  5 N        2.2500     0.4410     0.4650 N.pl3 1 <1>   0.0480 
  6 C       -2.5030    -2.1650     0.0140 C.2   1 <1>   0.5690 
  7 N        3.1920    -1.4130     1.1220 N.2   1 <1>  -0.3380 
  8 C        3.3970    -0.1520     0.8520 C.2   1 <1>   0.1870 
  9 C        1.9860     1.8580     0.1380 C.3   1 <1>   0.0160 
 10 O       -2.9760    -3.2060    -0.3720 O.2   1 <1>  -0.5700 
 11 N       -3.2690    -1.0630     0.2290 N.am  1 <1>  -0.7300 
 12 C        4.6600     0.5310     0.9630 C.2   1 <1>  -0.0010 
 13 C       -4.7210    -0.9730     0.0190 C.3   1 <1>   0.2200 
 14 C        5.2960     1.2790    -0.0650 C.ar  1 <1>   0.0000 
 15 C        5.4770     0.6080     2.0520 C.2   1 <1>  -0.3020 
 16 C       -4.9980     0.0450    -1.0920 C.3   1 <1>  -0.1600 
 17 C       -5.3860    -0.5570     1.3350 C.3   1 <1>  -0.1600 
 18 C        6.4630     1.8060     0.4780 C.ar  1 <1>  -0.1520 
 19 C        4.9880     1.5370    -1.4050 C.ar  1 <1>  -0.1500 
 20 N        6.5650     1.3760     1.7750 N.pl3 1 <1>   0.0330 
 21 C       -6.5070     0.2640    -1.2810 C.3   1 <1>  -0.1600 
 22 C       -6.8960    -0.3400     1.1500 C.3   1 <1>  -0.1600 
 23 C        7.3110     2.6160    -0.2800 C.ar  1 <1>  -0.1500 
 24 C        5.8240     2.3330    -2.1540 C.ar  1 <1>  -0.1500 
 25 C       -7.1770     0.6780     0.0360 C.3   1 <1>  -0.1600 
 26 C        6.9830     2.8770    -1.5900 C.ar  1 <1>  -0.1500 
 27 H       -0.7910    -2.4270     1.2790 H     1 <1>   0.0800 
 28 H       -0.4770    -2.7190    -0.4250 H     1 <1>   0.0800 
 29 H        1.0730     2.1710     0.6110 H     1 <1>   0.0800 
 30 H        1.8940     1.9660    -0.9270 H     1 <1>   0.0800 
 31 H        2.7940     2.4730     0.4930 H     1 <1>   0.0800 
 32 H       -2.8110    -0.1940     0.5060 H     1 <1>   0.3700 
 33 H       -5.1060    -1.9350    -0.2810 H     1 <1>   0.0800 
 34 H        5.3260     0.1460     3.0120 H     1 <1>   0.1500 
 35 H       -4.5730    -0.3120    -2.0130 H     1 <1>   0.0800 
 36 H       -4.5380     0.9850    -0.8430 H     1 <1>   0.0800 
 37 H       -4.9430     0.3570     1.6910 H     1 <1>   0.0800 
 38 H       -5.2260    -1.3250     2.0710 H     1 <1>   0.0800 
 39 H        4.1070     1.1000    -1.8390 H     1 <1>   0.1500 
 40 H        7.3410     1.5900     2.4100 H     1 <1>   0.2700 
 41 H       -6.9560    -0.6480    -1.6370 H     1 <1>   0.0800 
 42 H       -6.6710     1.0240    -2.0250 H     1 <1>   0.0800 
 43 H       -7.3270     0.0060     2.0730 H     1 <1>   0.0800 
 44 H       -7.3620    -1.2780     0.9000 H     1 <1>   0.0800 
 45 H        8.2050     3.0230     0.1590 H     1 <1>   0.1500 
 46 H        5.5970     2.5410    -3.1860 H     1 <1>   0.1500 
 47 H       -8.2400     0.7630    -0.1130 H     1 <1>   0.0800 
 48 H       -6.8090     1.6450     0.3350 H     1 <1>   0.0800 
 49 H        7.6200     3.4980    -2.1960 H     1 <1>   0.1500 
@<TRIPOS>BOND
  1   1   2  1   
  2   1   3  1   
  3   2   4  2   
  4   2   5  1   
  5   3   6  1   
  6   3  27  1   
  7   3  28  1   
  8   4   7  1   
  9   5   8  1   
 10   5   9  1   
 11   6  10  2   
 12   6  11  am  
 13   7   8  2   
 14   8  12  1   
 15   9  29  1   
 16   9  30  1   
 17   9  31  1   
 18  11  13  1   
 19  11  32  1   
 20  12  14  1   
 21  12  15  2   
 22  13  16  1   
 23  13  17  1   
 24  13  33  1   
 25  14  18  ar  
 26  14  19  ar  
 27  15  20  1   
 28  15  34  1   
 29  16  21  1   
 30  16  35  1   
 31  16  36  1   
 32  17  22  1   
 33  17  37  1   
 34  17  38  1   
 35  18  20  1   
 36  18  23  ar  
 37  19  24  ar  
 38  19  39  1   
 39  20  40  1   
 40  21  25  1   
 41  21  41  1   
 42  21  42  1   
 43  22  25  1   
 44  22  43  1   
 45  22  44  1   
 46  23  26  ar  
 47  23  45  1   
 48  24  26  ar  
 49  24  46  1   
 50  25  47  1   
 51  25  48  1   
 52  26  49  1   
@<TRIPOS>SUBSTRUCTURE
  1 ****   2 GROUP 4 **** **** 0

# MOE 2024.06 (io_trps.svl 2023.06)
