@<TRIPOS>MOLECULE
NONAME
37 37 1 0 0 
SMALL
USER_CHARGES


@<TRIPOS>ATOM
  1 S        0.0100     0.0120    -0.3690 S.o2  1 <1>   1.3330 
  2 O       -0.6590     1.2560    -0.6680 O.2   1 <1>  -0.6500 
  3 O        1.3090    -0.2810    -0.9300 O.2   1 <1>  -0.6500 
  4 N       -1.0380    -1.2960    -0.8280 N.am  1 <1>  -0.6930 
  5 C        0.0980    -0.2050     1.4140 C.3   1 <1>  -0.0550 
  6 C       -2.3920    -1.3170    -0.5310 C.ar  1 <1>   0.1990 
  7 C       -0.4140    -2.4550    -1.5120 C.3   1 <1>   0.1160 
  8 C        1.0030     0.8090     2.1360 C.3   1 <1>  -0.2400 
  9 C       -2.9360    -2.3490     0.2260 C.ar  1 <1>  -0.1500 
 10 C       -3.2520    -0.3230    -0.9830 C.ar  1 <1>  -0.1500 
 11 C       -4.2840    -2.3770     0.5260 C.ar  1 <1>  -0.1500 
 12 C       -4.6000    -0.3520    -0.6820 C.ar  1 <1>  -0.1500 
 13 C       -5.1570    -1.3780     0.0880 C.ar  1 <1>   0.0860 
 14 C       -6.5690    -1.4220     0.4220 C.2   1 <1>   0.5440 
 15 O       -7.0980    -2.4650     0.7560 O.2   1 <1>  -0.5700 
 16 N       -7.3400    -0.2960     0.3870 N.am  1 <1>  -0.7300 
 17 C       -8.7760    -0.2550     0.6910 C.3   1 <1>   0.2780 
 18 C       -9.3600     0.9200    -0.0620 C.2   1 <1>  -0.2880 
 19 C       -9.9080     2.0040     0.4960 C.2   1 <1>  -0.3000 
 20 H        0.4580    -1.1940     1.6240 H     1 <1>   0.0800 
 21 H       -0.8920    -0.1280     1.8190 H     1 <1>   0.0800 
 22 H        0.0920    -2.1180    -2.4010 H     1 <1>   0.0800 
 23 H       -1.1620    -3.1750    -1.7940 H     1 <1>   0.0800 
 24 H        0.3030    -2.9230    -0.8600 H     1 <1>   0.0800 
 25 H        2.0110     0.7350     1.7650 H     1 <1>   0.0800 
 26 H        1.0070     0.6190     3.1940 H     1 <1>   0.0800 
 27 H        0.6470     1.8100     1.9640 H     1 <1>   0.0800 
 28 H       -2.2940    -3.1340     0.5820 H     1 <1>   0.1500 
 29 H       -2.8560     0.4770    -1.5840 H     1 <1>   0.1500 
 30 H       -4.6810    -3.1890     1.1130 H     1 <1>   0.1500 
 31 H       -5.2300     0.4320    -1.0610 H     1 <1>   0.1500 
 32 H       -6.9170     0.6190     0.2400 H     1 <1>   0.3700 
 33 H       -8.9120    -0.1340     1.7520 H     1 <1>   0.0800 
 34 H       -9.2490    -1.1730     0.3830 H     1 <1>   0.0800 
 35 H       -9.2880     0.7890    -1.1280 H     1 <1>   0.1500 
 36 H      -10.3180     2.8260    -0.0660 H     1 <1>   0.1500 
 37 H       -9.9950     2.1640     1.5580 H     1 <1>   0.1500 
@<TRIPOS>BOND
  1   1   2  2   
  2   1   3  2   
  3   1   4  am  
  4   1   5  1   
  5   4   6  1   
  6   4   7  1   
  7   5   8  1   
  8   5  20  1   
  9   5  21  1   
 10   6   9  ar  
 11   6  10  ar  
 12   7  22  1   
 13   7  23  1   
 14   7  24  1   
 15   8  25  1   
 16   8  26  1   
 17   8  27  1   
 18   9  11  ar  
 19   9  28  1   
 20  10  12  ar  
 21  10  29  1   
 22  11  13  ar  
 23  11  30  1   
 24  12  13  ar  
 25  12  31  1   
 26  13  14  1   
 27  14  15  2   
 28  14  16  am  
 29  16  17  1   
 30  16  32  1   
 31  17  18  1   
 32  17  33  1   
 33  17  34  1   
 34  18  19  2   
 35  18  35  1   
 36  19  36  1   
 37  19  37  1   
@<TRIPOS>SUBSTRUCTURE
  1 ****  12 GROUP 4 **** **** 0

# MOE 2024.06 (io_trps.svl 2023.06)
