@<TRIPOS>MOLECULE
NONAME
31 31 1 0 0 
SMALL
USER_CHARGES


@<TRIPOS>ATOM
  1 P        0.1570     0.0780     0.2400 P.3   1 <1>   1.2420 
  2 O        0.6390    -0.2850     1.5720 O.2   1 <1>  -0.7000 
  3 O        0.6190     1.5540    -0.2000 O.3   1 <1>  -0.5510 
  4 O        0.7360    -0.8590    -0.9310 O.3   1 <1>  -0.5510 
  5 C       -1.6120     0.0990     0.0120 C.3   1 <1>   0.0210 
  6 C        1.7100     2.1640     0.4050 C.3   1 <1>   0.0400 
  7 C        2.1010    -1.0410    -1.0930 C.3   1 <1>   0.0400 
  8 C       -2.4510    -1.1740     0.1630 C.2   1 <1>  -0.1810 
  9 C       -2.1920    -2.4590     0.5180 C.2   1 <1>  -0.0400 
 10 C       -3.8250    -1.1410    -0.0910 C.2   1 <1>  -0.1500 
 11 O       -3.2990    -3.1630     0.4880 O.3   1 <1>  -0.2800 
 12 C       -0.9510    -3.2300     0.9270 C.3   1 <1>  -0.0600 
 13 C       -4.3140    -2.3950     0.1220 C.2   1 <1>   0.0550 
 14 C       -5.6480    -2.9270     0.0100 C.2   1 <1>   0.5940 
 15 O       -5.9590    -4.0720     0.2290 O.2   1 <1>  -0.5700 
 16 C       -6.7580    -1.9890    -0.4160 C.3   1 <1>  -0.1790 
 17 H       -1.8110     0.4750    -0.9720 H     1 <1>   0.0800 
 18 H       -2.0260     0.8190     0.6910 H     1 <1>   0.0800 
 19 H        1.8560     3.1290    -0.0490 H     1 <1>   0.0800 
 20 H        2.5840     1.5540     0.2630 H     1 <1>   0.0800 
 21 H        1.5080     2.2800     1.4570 H     1 <1>   0.0800 
 22 H        2.5510    -0.1040    -1.3670 H     1 <1>   0.0800 
 23 H        2.2540    -1.7620    -1.8760 H     1 <1>   0.0800 
 24 H        2.5180    -1.4070    -0.1700 H     1 <1>   0.0800 
 25 H       -4.3740    -0.2700    -0.3990 H     1 <1>   0.1500 
 26 H       -0.0650    -2.6340     0.9000 H     1 <1>   0.0800 
 27 H       -0.8170    -4.0650     0.2650 H     1 <1>   0.0800 
 28 H       -1.0790    -3.6030     1.9270 H     1 <1>   0.0800 
 29 H       -6.5440    -1.5920    -1.3900 H     1 <1>   0.0800 
 30 H       -6.8450    -1.1870     0.2920 H     1 <1>   0.0800 
 31 H       -7.6910    -2.5210    -0.4550 H     1 <1>   0.0800 
@<TRIPOS>BOND
  1   1   2  2   
  2   1   3  1   
  3   1   4  1   
  4   1   5  1   
  5   3   6  1   
  6   4   7  1   
  7   5   8  1   
  8   5  17  1   
  9   5  18  1   
 10   6  19  1   
 11   6  20  1   
 12   6  21  1   
 13   7  22  1   
 14   7  23  1   
 15   7  24  1   
 16   8   9  2   
 17   8  10  1   
 18   9  11  1   
 19   9  12  1   
 20  10  13  2   
 21  10  25  1   
 22  11  13  1   
 23  12  26  1   
 24  12  27  1   
 25  12  28  1   
 26  13  14  1   
 27  14  15  2   
 28  14  16  1   
 29  16  29  1   
 30  16  30  1   
 31  16  31  1   
@<TRIPOS>SUBSTRUCTURE
  1 ****   8 GROUP 4 **** **** 0

# MOE 2024.06 (io_trps.svl 2023.06)
