@<TRIPOS>MOLECULE
NONAME
41 41 1 0 0 
SMALL
USER_CHARGES


@<TRIPOS>ATOM
  1 CL      -0.7670    -0.7870     0.3900 Cl    1 <1>  -0.1770 
  2 C        0.4050    -2.0470     0.0850 C.ar  1 <1>   0.1770 
  3 C        0.0670    -3.0960    -0.7510 C.ar  1 <1>  -0.1440 
  4 C        1.6380    -1.9760     0.7020 C.ar  1 <1>  -0.1500 
  5 C        1.0020    -4.0950    -0.9620 C.ar  1 <1>  -0.1500 
  6 C       -1.2890    -3.1490    -1.4140 C.3   1 <1>   0.4870 
  7 C        2.5790    -2.9820     0.4940 C.ar  1 <1>   0.0830 
  8 C        2.2480    -4.0570    -0.3550 C.ar  1 <1>   0.0830 
  9 N       -2.2580    -3.6020    -0.3950 N.4   1 <1>  -0.9060 
 10 O        3.7960    -2.9350     1.1070 O.3   1 <1>  -0.3620 
 11 O        3.0340    -5.1240    -0.6730 O.3   1 <1>  -0.3620 
 12 C       -3.6420    -3.7360    -0.9070 C.3   1 <1>   0.3430 
 13 C        4.2010    -1.8570     1.9240 C.3   1 <1>   0.0400 
 14 C        4.4030    -5.2110    -0.3480 C.3   1 <1>   0.1200 
 15 C       -4.5770    -4.2220     0.2110 C.3   1 <1>  -0.0800 
 16 C        4.9680    -6.4590    -1.0180 C.3   1 <1>  -0.2400 
 17 C       -4.1470    -5.5800     0.7940 C.3   1 <1>  -0.2400 
 18 C       -6.0090    -4.3320    -0.3270 C.3   1 <1>  -0.2400 
 19 H        1.8340    -1.1340     1.3380 H     1 <1>   0.1500 
 20 H        0.7870    -4.9300    -1.6080 H     1 <1>   0.1500 
 21 H       -1.2650    -3.8370    -2.2440 H     1 <1>   0.0800 
 22 H       -1.5570    -2.1700    -1.7800 H     1 <1>   0.0800 
 23 H       -2.2380    -2.9320     0.3850 H     1 <1>   0.4500 
 24 H       -1.9410    -4.5010    -0.0130 H     1 <1>   0.4500 
 25 H       -3.6680    -4.4430    -1.7210 H     1 <1>   0.0800 
 26 H       -3.9930    -2.7840    -1.2750 H     1 <1>   0.0800 
 27 H        5.2040    -2.0530     2.2610 H     1 <1>   0.0800 
 28 H        3.5420    -1.7910     2.7720 H     1 <1>   0.0800 
 29 H        4.1840    -0.9510     1.3460 H     1 <1>   0.0800 
 30 H        4.4960    -5.2810     0.7220 H     1 <1>   0.0800 
 31 H        4.8980    -4.3270    -0.7100 H     1 <1>   0.0800 
 32 H       -4.5840    -3.4890     1.0020 H     1 <1>   0.0800 
 33 H        4.4570    -7.3350    -0.6610 H     1 <1>   0.0800 
 34 H        6.0130    -6.5530    -0.7860 H     1 <1>   0.0800 
 35 H        4.8590    -6.3880    -2.0860 H     1 <1>   0.0800 
 36 H       -4.0900    -6.3300     0.0230 H     1 <1>   0.0800 
 37 H       -4.8680    -5.9110     1.5230 H     1 <1>   0.0800 
 38 H       -3.1970    -5.5170     1.2930 H     1 <1>   0.0800 
 39 H       -6.0730    -5.0640    -1.1140 H     1 <1>   0.0800 
 40 H       -6.3470    -3.3840    -0.7110 H     1 <1>   0.0800 
 41 H       -6.6830    -4.6260     0.4600 H     1 <1>   0.0800 
@<TRIPOS>BOND
  1   1   2  1   
  2   2   3  ar  
  3   2   4  ar  
  4   3   5  ar  
  5   3   6  1   
  6   4   7  ar  
  7   4  19  1   
  8   5   8  ar  
  9   5  20  1   
 10   6   9  1   
 11   6  21  1   
 12   6  22  1   
 13   7   8  ar  
 14   7  10  1   
 15   8  11  1   
 16   9  12  1   
 17   9  23  1   
 18   9  24  1   
 19  10  13  1   
 20  11  14  1   
 21  12  15  1   
 22  12  25  1   
 23  12  26  1   
 24  13  27  1   
 25  13  28  1   
 26  13  29  1   
 27  14  16  1   
 28  14  30  1   
 29  14  31  1   
 30  15  17  1   
 31  15  18  1   
 32  15  32  1   
 33  16  33  1   
 34  16  34  1   
 35  16  35  1   
 36  17  36  1   
 37  17  37  1   
 38  17  38  1   
 39  18  39  1   
 40  18  40  1   
 41  18  41  1   
@<TRIPOS>SUBSTRUCTURE
  1 ****   3 GROUP 4 **** **** 0

# MOE 2024.06 (io_trps.svl 2023.06)
