@<TRIPOS>MOLECULE
Structure2310
23 24 1 0 0 
SMALL
USER_CHARGES


@<TRIPOS>ATOM
  1 O       -0.1880    -0.2290    -0.2430 O.3   1 <1>  -0.3400 
  2 C       -1.5080    -0.5140    -0.1300 C.ar  1 <1>   0.0830 
  3 C        0.7240    -1.2370    -0.6210 C.3   1 <1>   0.2580 
  4 C       -2.1290    -1.5460    -0.8300 C.ar  1 <1>  -0.1500 
  5 C       -2.2510     0.2710     0.7370 C.ar  1 <1>  -0.1500 
  6 C        0.9000    -2.3040     0.4880 C.3   1 <1>   0.4720 
  7 C        2.1760    -0.8080    -0.3070 C.3   1 <1>   0.4720 
  8 C       -3.4770    -1.7950    -0.6370 C.ar  1 <1>  -0.1500 
  9 C       -3.5980     0.0200     0.9260 C.ar  1 <1>  -0.1500 
 10 N        2.3900    -2.1240     0.3890 N.4   1 <1>  -0.8440 
 11 C       -4.2100    -1.0150     0.2410 C.ar  1 <1>  -0.1500 
 12 H        0.5630    -1.5990    -1.6210 H     1 <1>   0.0000 
 13 H       -1.5970    -2.1560    -1.5340 H     1 <1>   0.1500 
 14 H       -1.7770     1.0790     1.2660 H     1 <1>   0.1500 
 15 H        0.6030    -3.2950     0.1990 H     1 <1>   0.0000 
 16 H        0.5370    -1.9830     1.4480 H     1 <1>   0.0000 
 17 H        2.2370     0.0090     0.3890 H     1 <1>   0.0000 
 18 H        2.8060    -0.7130    -1.1730 H     1 <1>   0.0000 
 19 H       -3.9640    -2.5910    -1.1740 H     1 <1>   0.1500 
 20 H       -4.1720     0.6310     1.6020 H     1 <1>   0.1500 
 21 H        2.8400    -2.8250    -0.2090 H     1 <1>   0.4500 
 22 H        2.8430    -2.0250     1.3040 H     1 <1>   0.4500 
 23 H       -5.2590    -1.2100     0.3880 H     1 <1>   0.1500 
@<TRIPOS>BOND
  1   1   2  1   
  2   1   3  1   
  3   2   4  ar  
  4   2   5  ar  
  5   3   6  1   
  6   3   7  1   
  7   3  12  1   
  8   4   8  ar  
  9   4  13  1   
 10   5   9  ar  
 11   5  14  1   
 12   6  10  1   
 13   6  15  1   
 14   6  16  1   
 15   7  10  1   
 16   7  17  1   
 17   7  18  1   
 18   8  11  ar  
 19   8  19  1   
 20   9  11  ar  
 21   9  20  1   
 22  10  21  1   
 23  10  22  1   
 24  11  23  1   
@<TRIPOS>SUBSTRUCTURE
  1 ****   2 GROUP 4 **** **** 0

# MOE 2024.06 (io_trps.svl 2023.06)
