@<TRIPOS>MOLECULE
NONAME
45 46 1 0 0 
SMALL
USER_CHARGES


@<TRIPOS>ATOM
  1 F        0.2890     0.3370     0.3280 F     1 <1>  -0.1900 
  2 C        1.5070     0.7890     0.1790 C.ar  1 <1>   0.1900 
  3 C        2.5670    -0.0220     0.5410 C.ar  1 <1>  -0.1500 
  4 C        1.6890     2.0580    -0.3360 C.ar  1 <1>  -0.1500 
  5 C        3.8570     0.4570     0.3820 C.ar  1 <1>  -0.1500 
  6 C        2.9820     2.5290    -0.4900 C.ar  1 <1>  -0.1500 
  7 C        4.0670     1.7370    -0.1350 C.ar  1 <1>   0.0830 
  8 O        5.2970     2.2800    -0.3210 O.3   1 <1>  -0.3630 
  9 C        6.4700     1.5670     0.0040 C.3   1 <1>   0.1200 
 10 C        7.6670     2.4540    -0.3240 C.3   1 <1>   0.1200 
 11 O        8.8390     1.7630    -0.0050 O.3   1 <1>  -0.5600 
 12 C       10.0060     2.4690    -0.2630 C.3   1 <1>   0.1200 
 13 C       11.1830     1.5640     0.1230 C.3   1 <1>   0.3430 
 14 N       12.5190     2.1850    -0.1610 N.4   1 <1>  -0.9590 
 15 C       13.5940     1.1580    -0.0320 C.3   1 <1>   0.3430 
 16 C       12.7940     3.3650     0.7150 C.3   1 <1>   0.3430 
 17 C       14.9340     1.7570    -0.4570 C.3   1 <1>  -0.1600 
 18 C       14.1180     4.0120     0.3060 C.3   1 <1>  -0.1600 
 19 C       15.2790     3.0090     0.3620 C.3   1 <1>  -0.0800 
 20 C       16.5730     3.6510    -0.1510 C.3   1 <1>  -0.2400 
 21 H        2.3800    -1.0040     0.9370 H     1 <1>   0.1500 
 22 H        0.8400     2.6590    -0.6060 H     1 <1>   0.1500 
 23 H        4.6770    -0.1760     0.6650 H     1 <1>   0.1500 
 24 H        3.1580     3.5120    -0.8880 H     1 <1>   0.1500 
 25 H        6.4950     0.6680    -0.5860 H     1 <1>   0.0800 
 26 H        6.4470     1.3400     1.0550 H     1 <1>   0.0800 
 27 H        7.6250     3.3570     0.2600 H     1 <1>   0.0800 
 28 H        7.6740     2.6850    -1.3760 H     1 <1>   0.0800 
 29 H        9.9930     3.3680     0.3290 H     1 <1>   0.0800 
 30 H       10.0350     2.7050    -1.3130 H     1 <1>   0.0800 
 31 H       11.0900     0.6480    -0.4370 H     1 <1>   0.0800 
 32 H       11.1090     1.3270     1.1720 H     1 <1>   0.0800 
 33 H       12.5340     2.5090    -1.1370 H     1 <1>   0.4500 
 34 H       13.3700     0.3060    -0.6550 H     1 <1>   0.0800 
 35 H       13.6580     0.8220     0.9910 H     1 <1>   0.0800 
 36 H       12.8510     3.0500     1.7450 H     1 <1>   0.0800 
 37 H       12.0030     4.0910     0.6250 H     1 <1>   0.0800 
 38 H       14.9020     1.9930    -1.5070 H     1 <1>   0.0800 
 39 H       15.7040     1.0180    -0.3180 H     1 <1>   0.0800 
 40 H       14.3240     4.8320     0.9730 H     1 <1>   0.0800 
 41 H       14.0240     4.4200    -0.6850 H     1 <1>   0.0800 
 42 H       15.4340     2.7180     1.3890 H     1 <1>   0.0800 
 43 H       16.4720     3.9610    -1.1770 H     1 <1>   0.0800 
 44 H       17.3890     2.9530    -0.0860 H     1 <1>   0.0800 
 45 H       16.8240     4.5130     0.4420 H     1 <1>   0.0800 
@<TRIPOS>BOND
  1   1   2  1   
  2   2   3  ar  
  3   2   4  ar  
  4   3   5  ar  
  5   3  21  1   
  6   4   6  ar  
  7   4  22  1   
  8   5   7  ar  
  9   5  23  1   
 10   6   7  ar  
 11   6  24  1   
 12   7   8  1   
 13   8   9  1   
 14   9  10  1   
 15   9  25  1   
 16   9  26  1   
 17  10  11  1   
 18  10  27  1   
 19  10  28  1   
 20  11  12  1   
 21  12  13  1   
 22  12  29  1   
 23  12  30  1   
 24  13  14  1   
 25  13  31  1   
 26  13  32  1   
 27  14  15  1   
 28  14  16  1   
 29  14  33  1   
 30  15  17  1   
 31  15  34  1   
 32  15  35  1   
 33  16  18  1   
 34  16  36  1   
 35  16  37  1   
 36  17  19  1   
 37  17  38  1   
 38  17  39  1   
 39  18  19  1   
 40  18  40  1   
 41  18  41  1   
 42  19  20  1   
 43  19  42  1   
 44  20  43  1   
 45  20  44  1   
 46  20  45  1   
@<TRIPOS>SUBSTRUCTURE
  1 ****  11 GROUP 4 **** **** 0

# MOE 2024.06 (io_trps.svl 2023.06)
