@<TRIPOS>MOLECULE
NONAME
51 53 1 0 0 
SMALL
USER_CHARGES


@<TRIPOS>ATOM
  1 S       -0.4340     0.4900     1.9200 S.o2  1 <1>   1.4470 
  2 O        0.1190    -0.4340     2.8890 O.2   1 <1>  -0.6500 
  3 O       -1.2580     1.5850     2.3820 O.2   1 <1>  -0.6500 
  4 N        0.8890     1.1650     1.1000 N.am  1 <1>  -0.8490 
  5 C       -1.3160    -0.4180     0.6210 C.ar  1 <1>  -0.0090 
  6 C        1.8680     0.1460     0.7070 C.3   1 <1>   0.1960 
  7 C        1.5060     2.2390     1.8800 C.3   1 <1>   0.1960 
  8 C       -1.5830     0.1720    -0.6090 C.ar  1 <1>  -0.1500 
  9 C       -1.7520    -1.7240     0.8220 C.ar  1 <1>  -0.1500 
 10 C        2.9640     0.7720    -0.1580 C.3   1 <1>  -0.1600 
 11 C        2.6030     2.9300     1.0640 C.3   1 <1>  -0.1600 
 12 C       -2.2520    -0.5170    -1.6050 C.ar  1 <1>  -0.1500 
 13 C       -2.4230    -2.4220    -0.1680 C.ar  1 <1>  -0.1500 
 14 C        3.6620     1.9260     0.5810 C.3   1 <1>  -0.0190 
 15 C       -2.6760    -1.8170    -1.3950 C.ar  1 <1>   0.0820 
 16 C        4.7200     2.6040    -0.2910 C.2   1 <1>   0.5690 
 17 O       -3.3230    -2.4250    -2.4180 O.3   1 <1>  -0.3630 
 18 O        4.3920     3.0420    -1.3660 O.2   1 <1>  -0.5700 
 19 N        5.9960     2.6720     0.2010 N.am  1 <1>  -0.5470 
 20 C       -3.8200    -3.7390    -2.2990 C.3   1 <1>   0.0400 
 21 C        7.1700     3.2310    -0.3300 C.ar  1 <1>   0.1170 
 22 C        8.3910     2.8370     0.2050 C.ar  1 <1>  -0.1500 
 23 C        7.1770     4.1720    -1.3550 C.ar  1 <1>  -0.1500 
 24 C        9.5810     3.3600    -0.2680 C.ar  1 <1>  -0.1500 
 25 C        8.3660     4.6960    -1.8310 C.ar  1 <1>  -0.1500 
 26 C        9.5760     4.2930    -1.2920 C.ar  1 <1>  -0.1440 
 27 C       10.8780     4.8700    -1.8150 C.3   1 <1>  -0.0970 
 28 H        1.3790    -0.6290     0.1400 H     1 <1>   0.0800 
 29 H        2.3050    -0.3040     1.5840 H     1 <1>   0.0800 
 30 H        1.9140     1.8390     2.7940 H     1 <1>   0.0800 
 31 H        0.7610     2.9750     2.1400 H     1 <1>   0.0800 
 32 H       -1.2600     1.1850    -0.7880 H     1 <1>   0.1500 
 33 H       -1.5630    -2.2010     1.7690 H     1 <1>   0.1500 
 34 H        2.5210     1.1340    -1.0700 H     1 <1>   0.0800 
 35 H        3.6860     0.0190    -0.4220 H     1 <1>   0.0800 
 36 H        3.0670     3.6920     1.6640 H     1 <1>   0.0800 
 37 H        2.1470     3.4140     0.2170 H     1 <1>   0.0800 
 38 H       -2.4510    -0.0490    -2.5530 H     1 <1>   0.1500 
 39 H       -2.7400    -3.4280     0.0330 H     1 <1>   0.1500 
 40 H        4.1480     1.5160     1.4480 H     1 <1>   0.0800 
 41 H        6.1340     2.2130     1.0970 H     1 <1>   0.3700 
 42 H       -4.2980    -4.0000    -3.2250 H     1 <1>   0.0800 
 43 H       -4.5360    -3.7700    -1.4960 H     1 <1>   0.0800 
 44 H       -2.9980    -4.4070    -2.1100 H     1 <1>   0.0800 
 45 H        8.4190     2.1120     0.9970 H     1 <1>   0.1500 
 46 H        6.2540     4.5080    -1.7890 H     1 <1>   0.1500 
 47 H       10.5130     3.0390     0.1620 H     1 <1>   0.1500 
 48 H        8.3420     5.4220    -2.6240 H     1 <1>   0.1500 
 49 H       11.6790     4.1630    -1.6950 H     1 <1>   0.0800 
 50 H       11.1220     5.7670    -1.2730 H     1 <1>   0.0800 
 51 H       10.7900     5.1080    -2.8600 H     1 <1>   0.0800 
@<TRIPOS>BOND
  1   1   2  2   
  2   1   3  2   
  3   1   4  am  
  4   1   5  1   
  5   4   6  1   
  6   4   7  1   
  7   5   8  ar  
  8   5   9  ar  
  9   6  10  1   
 10   6  28  1   
 11   6  29  1   
 12   7  11  1   
 13   7  30  1   
 14   7  31  1   
 15   8  12  ar  
 16   8  32  1   
 17   9  13  ar  
 18   9  33  1   
 19  10  14  1   
 20  10  34  1   
 21  10  35  1   
 22  11  14  1   
 23  11  36  1   
 24  11  37  1   
 25  12  15  ar  
 26  12  38  1   
 27  13  15  ar  
 28  13  39  1   
 29  14  16  1   
 30  14  40  1   
 31  15  17  1   
 32  16  18  2   
 33  16  19  am  
 34  17  20  1   
 35  19  21  1   
 36  19  41  1   
 37  20  42  1   
 38  20  43  1   
 39  20  44  1   
 40  21  22  ar  
 41  21  23  ar  
 42  22  24  ar  
 43  22  45  1   
 44  23  25  ar  
 45  23  46  1   
 46  24  26  ar  
 47  24  47  1   
 48  25  26  ar  
 49  25  48  1   
 50  26  27  1   
 51  27  49  1   
 52  27  50  1   
 53  27  51  1   
@<TRIPOS>SUBSTRUCTURE
  1 ****  10 GROUP 4 **** **** 0

# MOE 2024.06 (io_trps.svl 2023.06)
