@<TRIPOS>MOLECULE
NONAME
43 44 1 0 0 
SMALL
USER_CHARGES


@<TRIPOS>ATOM
  1 O       -1.0110    -0.3230    -0.5310 O.2   1 <1>  -0.5700 
  2 C       -0.2450    -1.2400    -0.3510 C.2   1 <1>   0.5690 
  3 N        1.1170    -1.0730    -0.4570 N.am  1 <1>  -0.6600 
  4 C       -0.8210    -2.6080     0.0050 C.3   1 <1>  -0.0990 
  5 C        1.7070     0.2670    -0.7420 C.3   1 <1>   0.0600 
  6 C        2.1320    -2.1530    -0.3070 C.3   1 <1>   0.0600 
  7 C       -2.3420    -2.6120     0.2540 C.3   1 <1>  -0.1600 
  8 C       -2.8610    -4.0090     0.6250 C.3   1 <1>   0.0200 
  9 C       -4.3640    -4.0050     0.8280 C.2   1 <1>   0.2980 
 10 O       -4.8600    -3.3620     1.8530 O.3   1 <1>  -0.0190 
 11 N       -5.2100    -4.5820     0.0810 N.2   1 <1>  -0.5650 
 12 N       -6.1390    -3.5360     1.7440 N.2   1 <1>  -0.4100 
 13 C       -6.3500    -4.2400     0.6890 C.2   1 <1>   0.4620 
 14 C       -7.6370    -4.6670     0.1840 C.ar  1 <1>   0.0540 
 15 C       -8.6540    -3.7550    -0.1260 C.ar  1 <1>   0.0820 
 16 C       -7.8910    -6.0240    -0.0110 C.ar  1 <1>  -0.1500 
 17 O       -8.3830    -2.4340     0.0320 O.3   1 <1>  -0.3630 
 18 C       -9.8850    -4.2100    -0.5940 C.ar  1 <1>  -0.1500 
 19 C       -9.1120    -6.4720    -0.4790 C.ar  1 <1>  -0.1500 
 20 C       -9.3160    -1.4230    -0.2590 C.3   1 <1>   0.1200 
 21 C      -10.1130    -5.5620    -0.7680 C.ar  1 <1>  -0.1500 
 22 C       -8.6550    -0.0810     0.0370 C.3   1 <1>  -0.2400 
 23 H       -0.3250    -2.9590     0.8900 H     1 <1>   0.0800 
 24 H       -0.5990    -3.2790    -0.8040 H     1 <1>   0.0800 
 25 H        0.9480     1.0300    -0.7550 H     1 <1>   0.0800 
 26 H        2.1940     0.2520    -1.7010 H     1 <1>   0.0800 
 27 H        2.4270     0.5170     0.0180 H     1 <1>   0.0800 
 28 H        1.6840    -3.1280    -0.3500 H     1 <1>   0.0800 
 29 H        2.6390    -2.0420     0.6360 H     1 <1>   0.0800 
 30 H        2.8550    -2.0820    -1.1020 H     1 <1>   0.0800 
 31 H       -2.8490    -2.2720    -0.6340 H     1 <1>   0.0800 
 32 H       -2.5750    -1.9200     1.0460 H     1 <1>   0.0800 
 33 H       -2.3920    -4.3510     1.5300 H     1 <1>   0.0800 
 34 H       -2.6240    -4.7030    -0.1620 H     1 <1>   0.0800 
 35 H       -7.1130    -6.7340     0.2110 H     1 <1>   0.1500 
 36 H      -10.6790    -3.5270    -0.8300 H     1 <1>   0.1500 
 37 H       -9.2840    -7.5250    -0.6190 H     1 <1>   0.1500 
 38 H      -10.1810    -1.5670     0.3650 H     1 <1>   0.0800 
 39 H       -9.5840    -1.4950    -1.2990 H     1 <1>   0.0800 
 40 H      -11.0650    -5.9090    -1.1310 H     1 <1>   0.1500 
 41 H       -8.3750    -0.0300     1.0740 H     1 <1>   0.0800 
 42 H       -9.3390     0.7200    -0.1760 H     1 <1>   0.0800 
 43 H       -7.7790     0.0410    -0.5760 H     1 <1>   0.0800 
@<TRIPOS>BOND
  1   1   2  2   
  2   2   3  am  
  3   2   4  1   
  4   3   5  1   
  5   3   6  1   
  6   4   7  1   
  7   4  23  1   
  8   4  24  1   
  9   5  25  1   
 10   5  26  1   
 11   5  27  1   
 12   6  28  1   
 13   6  29  1   
 14   6  30  1   
 15   7   8  1   
 16   7  31  1   
 17   7  32  1   
 18   8   9  1   
 19   8  33  1   
 20   8  34  1   
 21   9  10  1   
 22   9  11  2   
 23  10  12  1   
 24  11  13  1   
 25  12  13  2   
 26  13  14  1   
 27  14  15  ar  
 28  14  16  ar  
 29  15  17  1   
 30  15  18  ar  
 31  16  19  ar  
 32  16  35  1   
 33  17  20  1   
 34  18  21  ar  
 35  18  36  1   
 36  19  21  ar  
 37  19  37  1   
 38  20  22  1   
 39  20  38  1   
 40  20  39  1   
 41  21  40  1   
 42  22  41  1   
 43  22  42  1   
 44  22  43  1   
@<TRIPOS>SUBSTRUCTURE
  1 ****   9 GROUP 4 **** **** 0

# MOE 2024.06 (io_trps.svl 2023.06)
