@<TRIPOS>MOLECULE
NONAME
41 42 1 0 0 
SMALL
USER_CHARGES


@<TRIPOS>ATOM
  1 O       -0.4790     7.0700     0.3350 O.3   1 <1>  -0.3630 
  2 C        0.7640     6.5830     0.0990 C.ar  1 <1>   0.0830 
  3 C       -1.6280     6.3520    -0.0400 C.3   1 <1>   0.1200 
  4 C        1.0170     5.3770    -0.5510 C.ar  1 <1>  -0.1500 
  5 C        1.8290     7.3510     0.5420 C.ar  1 <1>  -0.1500 
  6 C       -2.8390     7.1860     0.3890 C.3   1 <1>   0.3430 
  7 C        2.3210     4.9570    -0.7470 C.ar  1 <1>  -0.1500 
  8 C        3.1300     6.9270     0.3450 C.ar  1 <1>  -0.1500 
  9 N       -4.1500     6.5600     0.0110 N.4   1 <1>  -0.9590 
 10 C        3.3830     5.7270    -0.2990 C.ar  1 <1>  -0.1430 
 11 C       -5.2370     7.5730     0.1490 C.3   1 <1>   0.3430 
 12 C       -4.4050     5.3160     0.7960 C.3   1 <1>   0.3430 
 13 C        4.8120     5.2620    -0.5180 C.3   1 <1>  -0.0970 
 14 C       -6.3500     7.2790    -0.8570 C.3   1 <1>  -0.1600 
 15 C       -5.6170     4.5400     0.2770 C.3   1 <1>  -0.1600 
 16 C       -7.4120     6.2700    -0.3910 C.3   1 <1>  -0.1600 
 17 C       -6.9570     5.2070     0.6190 C.3   1 <1>  -0.1600 
 18 H       -1.6020     5.4040     0.4660 H     1 <1>   0.0800 
 19 H       -1.6060     6.2250    -1.1080 H     1 <1>   0.0800 
 20 H        0.2260     4.7520    -0.9140 H     1 <1>   0.1500 
 21 H        1.6370     8.2820     1.0430 H     1 <1>   0.1500 
 22 H       -2.7570     8.1510    -0.0850 H     1 <1>   0.0800 
 23 H       -2.8030     7.3320     1.4570 H     1 <1>   0.0800 
 24 H        2.5110     4.0250    -1.2510 H     1 <1>   0.1500 
 25 H        3.9460     7.5350     0.6940 H     1 <1>   0.1500 
 26 H       -4.1150     6.3030    -0.9840 H     1 <1>   0.4500 
 27 H       -4.8400     8.5510    -0.0710 H     1 <1>   0.0800 
 28 H       -5.6270     7.5880     1.1540 H     1 <1>   0.0800 
 29 H       -4.5550     5.5620     1.8360 H     1 <1>   0.0800 
 30 H       -3.5450     4.6710     0.7320 H     1 <1>   0.0800 
 31 H        4.8620     4.1880    -0.5240 H     1 <1>   0.0800 
 32 H        5.4500     5.6250     0.2680 H     1 <1>   0.0800 
 33 H        5.1750     5.6330    -1.4590 H     1 <1>   0.0800 
 34 H       -5.9200     6.9540    -1.7890 H     1 <1>   0.0800 
 35 H       -6.8590     8.2050    -1.0670 H     1 <1>   0.0800 
 36 H       -5.6040     3.5810     0.7670 H     1 <1>   0.0800 
 37 H       -5.5340     4.3500    -0.7790 H     1 <1>   0.0800 
 38 H       -7.8130     5.7750    -1.2610 H     1 <1>   0.0800 
 39 H       -8.2320     6.8100     0.0540 H     1 <1>   0.0800 
 40 H       -6.9120     5.6340     1.6070 H     1 <1>   0.0800 
 41 H       -7.7200     4.4450     0.6510 H     1 <1>   0.0800 
@<TRIPOS>BOND
  1   1   2  1   
  2   1   3  1   
  3   2   4  ar  
  4   2   5  ar  
  5   3   6  1   
  6   3  18  1   
  7   3  19  1   
  8   4   7  ar  
  9   4  20  1   
 10   5   8  ar  
 11   5  21  1   
 12   6   9  1   
 13   6  22  1   
 14   6  23  1   
 15   7  10  ar  
 16   7  24  1   
 17   8  10  ar  
 18   8  25  1   
 19   9  11  1   
 20   9  12  1   
 21   9  26  1   
 22  10  13  1   
 23  11  14  1   
 24  11  27  1   
 25  11  28  1   
 26  12  15  1   
 27  12  29  1   
 28  12  30  1   
 29  13  31  1   
 30  13  32  1   
 31  13  33  1   
 32  14  16  1   
 33  14  34  1   
 34  14  35  1   
 35  15  17  1   
 36  15  36  1   
 37  15  37  1   
 38  16  17  1   
 39  16  38  1   
 40  16  39  1   
 41  17  40  1   
 42  17  41  1   
@<TRIPOS>SUBSTRUCTURE
  1 ****   3 GROUP 4 **** **** 0

# MOE 2024.06 (io_trps.svl 2023.06)
