@<TRIPOS>MOLECULE
NONAME
38 39 1 0 0 
SMALL
USER_CHARGES


@<TRIPOS>ATOM
  1 O        0.4280     0.1950    -2.3430 O.2   1 <1>  -0.5700 
  2 C        0.2430    -0.8000    -1.6850 C.2   1 <1>   0.5690 
  3 N        1.2020    -1.3720    -0.8890 N.am  1 <1>  -0.5470 
  4 C       -1.1200    -1.5020    -1.7690 C.3   1 <1>   0.1710 
  5 C        2.5380    -1.0330    -0.6180 C.ar  1 <1>   0.1170 
  6 N       -2.0750    -1.2460    -0.6520 N.3   1 <1>  -0.8100 
  7 C        3.1530    -1.5250     0.5380 C.ar  1 <1>  -0.1430 
  8 C        3.2830    -0.2380    -1.4840 C.ar  1 <1>  -0.1500 
  9 C       -3.3630    -1.9240    -0.9010 C.3   1 <1>   0.1100 
 10 C       -1.5600    -1.6030     0.6850 C.3   1 <1>   0.1100 
 11 C        4.4810    -1.2190     0.7950 C.ar  1 <1>  -0.1500 
 12 C        2.4080    -2.3940     1.5490 C.3   1 <1>  -0.0170 
 13 C        4.6040     0.0660    -1.2170 C.ar  1 <1>  -0.1500 
 14 C       -4.3580    -1.6840     0.2480 C.3   1 <1>   0.1200 
 15 C       -2.6240    -1.3740     1.7740 C.3   1 <1>   0.1200 
 16 C        5.2060    -0.4260    -0.0760 C.ar  1 <1>  -0.1500 
 17 C        2.3690    -3.8570     1.0980 C.3   1 <1>  -0.2400 
 18 O       -3.7950    -2.0730     1.4680 O.3   1 <1>  -0.5600 
 19 H        0.8760    -2.1690    -0.3490 H     1 <1>   0.3700 
 20 H       -0.9500    -2.5590    -1.8550 H     1 <1>   0.0800 
 21 H       -1.5810    -1.1760    -2.6850 H     1 <1>   0.0800 
 22 H        2.8360     0.1490    -2.3800 H     1 <1>   0.1500 
 23 H       -3.2080    -2.9840    -1.0080 H     1 <1>   0.0800 
 24 H       -3.7910    -1.5510    -1.8160 H     1 <1>   0.0800 
 25 H       -0.7090    -0.9880     0.9180 H     1 <1>   0.0800 
 26 H       -1.2610    -2.6370     0.7040 H     1 <1>   0.0800 
 27 H        4.9640    -1.5950     1.6800 H     1 <1>   0.1500 
 28 H        1.4100    -2.0210     1.6940 H     1 <1>   0.0800 
 29 H        2.9000    -2.3370     2.5050 H     1 <1>   0.0800 
 30 H        5.1610     0.6850    -1.8990 H     1 <1>   0.1500 
 31 H       -5.2510    -2.2630     0.0980 H     1 <1>   0.0800 
 32 H       -4.6230    -0.6420     0.3060 H     1 <1>   0.0800 
 33 H       -2.8580    -0.3270     1.8580 H     1 <1>   0.0800 
 34 H       -2.2690    -1.7280     2.7260 H     1 <1>   0.0800 
 35 H        6.2360    -0.1930     0.1350 H     1 <1>   0.1500 
 36 H        1.8780    -3.9550     0.1480 H     1 <1>   0.0800 
 37 H        1.8460    -4.4550     1.8230 H     1 <1>   0.0800 
 38 H        3.3720    -4.2360     1.0020 H     1 <1>   0.0800 
@<TRIPOS>BOND
  1   1   2  2   
  2   2   3  am  
  3   2   4  1   
  4   3   5  1   
  5   3  19  1   
  6   4   6  1   
  7   4  20  1   
  8   4  21  1   
  9   5   7  ar  
 10   5   8  ar  
 11   6   9  1   
 12   6  10  1   
 13   7  11  ar  
 14   7  12  1   
 15   8  13  ar  
 16   8  22  1   
 17   9  14  1   
 18   9  23  1   
 19   9  24  1   
 20  10  15  1   
 21  10  25  1   
 22  10  26  1   
 23  11  16  ar  
 24  11  27  1   
 25  12  17  1   
 26  12  28  1   
 27  12  29  1   
 28  13  16  ar  
 29  13  30  1   
 30  14  18  1   
 31  14  31  1   
 32  14  32  1   
 33  15  18  1   
 34  15  33  1   
 35  15  34  1   
 36  16  35  1   
 37  17  36  1   
 38  17  37  1   
 39  17  38  1   
@<TRIPOS>SUBSTRUCTURE
  1 ****   3 GROUP 4 **** **** 0

# MOE 2024.06 (io_trps.svl 2023.06)
