@<TRIPOS>MOLECULE
NONAME
49 51 1 0 0 
SMALL
USER_CHARGES


@<TRIPOS>ATOM
  1 S        0.9660     0.2560     0.3070 S.o2  1 <1>   1.4470 
  2 O       -0.4160     0.3540     0.7280 O.2   1 <1>  -0.6500 
  3 O        1.5650    -1.0470     0.1190 O.2   1 <1>  -0.6500 
  4 N        1.0840     1.0590    -1.1800 N.am  1 <1>  -0.8490 
  5 C        2.0280     1.2530     1.3860 C.ar  1 <1>  -0.0090 
  6 C        0.5170     0.2520    -2.2700 C.3   1 <1>   0.1960 
  7 C        0.4310     2.3790    -1.1660 C.3   1 <1>   0.1960 
  8 C        3.3230     1.5660     0.9980 C.ar  1 <1>  -0.1500 
  9 C        1.5790     1.7330     2.6110 C.ar  1 <1>  -0.1500 
 10 C        0.6240     0.9890    -3.6180 C.3   1 <1>   0.1200 
 11 C        0.5530     3.0670    -2.5380 C.3   1 <1>   0.1200 
 12 C        4.1610     2.3460     1.7830 C.ar  1 <1>   0.1170 
 13 C        2.3980     2.5080     3.4130 C.ar  1 <1>  -0.1500 
 14 O        0.0220     2.2510    -3.5440 O.3   1 <1>  -0.5600 
 15 N        5.4490     2.6130     1.3090 N.am  1 <1>  -0.5470 
 16 C        3.6810     2.8130     3.0010 C.ar  1 <1>  -0.1500 
 17 C        6.3550     3.5920     1.6020 C.2   1 <1>   0.5690 
 18 O        6.1720     4.4500     2.4310 O.2   1 <1>  -0.5700 
 19 C        7.6640     3.5800     0.8320 C.3   1 <1>   0.0440 
 20 C        7.4480     3.5360    -0.6830 C.ar  1 <1>  -0.1430 
 21 C        7.1720     2.3420    -1.3480 C.ar  1 <1>   0.0820 
 22 C        7.5270     4.7170    -1.4050 C.ar  1 <1>  -0.1500 
 23 O        7.0770     1.2080    -0.6040 O.3   1 <1>  -0.3620 
 24 C        6.9910     2.3490    -2.7300 C.ar  1 <1>  -0.1500 
 25 C        7.3430     4.7170    -2.7760 C.ar  1 <1>  -0.1500 
 26 C        6.9030    -0.0610    -1.1990 C.3   1 <1>   0.0400 
 27 C        7.0770     3.5330    -3.4390 C.ar  1 <1>  -0.1500 
 28 H       -0.5190     0.0320    -2.0690 H     1 <1>   0.0800 
 29 H        1.0470    -0.6820    -2.3420 H     1 <1>   0.0800 
 30 H        0.8900     3.0060    -0.4210 H     1 <1>   0.0800 
 31 H       -0.6140     2.2790    -0.9210 H     1 <1>   0.0800 
 32 H        3.6830     1.1980     0.0540 H     1 <1>   0.1500 
 33 H        0.5790     1.5000     2.9390 H     1 <1>   0.1500 
 34 H        0.1230     0.4310    -4.3890 H     1 <1>   0.0800 
 35 H        1.6560     1.1160    -3.8960 H     1 <1>   0.0800 
 36 H        1.5840     3.2720    -2.7670 H     1 <1>   0.0800 
 37 H        0.0050     3.9920    -2.5420 H     1 <1>   0.0800 
 38 H        2.0380     2.8740     4.3600 H     1 <1>   0.1500 
 39 H        5.7640     2.0120     0.5390 H     1 <1>   0.3700 
 40 H        4.3110     3.4140     3.6310 H     1 <1>   0.1500 
 41 H        8.2400     2.7300     1.1470 H     1 <1>   0.0800 
 42 H        8.2250     4.4570     1.0960 H     1 <1>   0.0800 
 43 H        7.7320     5.6480    -0.9050 H     1 <1>   0.1500 
 44 H        6.7800     1.4470    -3.2720 H     1 <1>   0.1500 
 45 H        7.4080     5.6390    -3.3270 H     1 <1>   0.1500 
 46 H        6.9030    -0.8010    -0.4180 H     1 <1>   0.0800 
 47 H        7.7190    -0.2450    -1.8750 H     1 <1>   0.0800 
 48 H        5.9610    -0.0800    -1.7180 H     1 <1>   0.0800 
 49 H        6.9380     3.5350    -4.5060 H     1 <1>   0.1500 
@<TRIPOS>BOND
  1   1   2  2   
  2   1   3  2   
  3   1   4  am  
  4   1   5  1   
  5   4   6  1   
  6   4   7  1   
  7   5   8  ar  
  8   5   9  ar  
  9   6  10  1   
 10   6  28  1   
 11   6  29  1   
 12   7  11  1   
 13   7  30  1   
 14   7  31  1   
 15   8  12  ar  
 16   8  32  1   
 17   9  13  ar  
 18   9  33  1   
 19  10  14  1   
 20  10  34  1   
 21  10  35  1   
 22  11  14  1   
 23  11  36  1   
 24  11  37  1   
 25  12  15  1   
 26  12  16  ar  
 27  13  16  ar  
 28  13  38  1   
 29  15  17  am  
 30  15  39  1   
 31  16  40  1   
 32  17  18  2   
 33  17  19  1   
 34  19  20  1   
 35  19  41  1   
 36  19  42  1   
 37  20  21  ar  
 38  20  22  ar  
 39  21  23  1   
 40  21  24  ar  
 41  22  25  ar  
 42  22  43  1   
 43  23  26  1   
 44  24  27  ar  
 45  24  44  1   
 46  25  27  ar  
 47  25  45  1   
 48  26  46  1   
 49  26  47  1   
 50  26  48  1   
 51  27  49  1   
@<TRIPOS>SUBSTRUCTURE
  1 ****   8 GROUP 4 **** **** 0

# MOE 2024.06 (io_trps.svl 2023.06)
