@<TRIPOS>MOLECULE
NONAME
45 48 1 0 0 
SMALL
USER_CHARGES


@<TRIPOS>ATOM
  1 CL      -1.4200    -2.1420    -2.6810 Cl    1 <1>  -0.1770 
  2 C       -2.2540    -2.0220    -1.1420 C.ar  1 <1>   0.1770 
  3 C       -1.6150    -2.3960     0.0480 C.ar  1 <1>   0.1000 
  4 C       -3.5520    -1.5470    -1.1530 C.ar  1 <1>  -0.1500 
  5 N       -0.3040    -2.8840     0.1270 N.pl3 1 <1>  -0.8380 
  6 C       -2.3380    -2.2740     1.2280 C.ar  1 <1>  -0.1500 
  7 C       -4.2490    -1.4350     0.0380 C.ar  1 <1>  -0.1500 
  8 C        0.7790    -1.8960    -0.1600 C.3   1 <1>   0.2090 
  9 C       -0.0770    -4.2470    -0.4400 C.3   1 <1>   0.2090 
 10 C       -3.6390    -1.8000     1.2270 C.ar  1 <1>  -0.1500 
 11 C        2.1690    -2.4670     0.1910 C.3   1 <1>   0.3430 
 12 C        1.3260    -4.7750    -0.0760 C.3   1 <1>   0.3430 
 13 N        2.4270    -3.8110    -0.4500 N.4   1 <1>  -0.9590 
 14 C        3.7610    -4.3920    -0.1050 C.3   1 <1>   0.3430 
 15 C        4.9280    -3.6100    -0.7380 C.3   1 <1>  -0.0800 
 16 C        6.2610    -4.5770    -0.8260 C.3   1 <1>   0.0580 
 17 C        5.3900    -2.2220     0.1190 C.3   1 <1>  -0.1600 
 18 C        7.7820    -4.6520    -0.2680 C.2   1 <1>  -0.2880 
 19 C        6.5930    -3.4580    -0.1910 C.3   1 <1>  -0.1600 
 20 C        6.9870    -2.3850     0.4890 C.3   1 <1>   0.0580 
 21 C        8.1630    -3.5000     0.4230 C.2   1 <1>  -0.2880 
 22 H       -4.0120    -1.2680    -2.0830 H     1 <1>   0.1500 
 23 H       -1.8730    -2.5540     2.1550 H     1 <1>   0.1500 
 24 H       -5.2610    -1.0670     0.0400 H     1 <1>   0.1500 
 25 H        0.6050    -1.0050     0.4200 H     1 <1>   0.0800 
 26 H        0.7590    -1.6180    -1.1990 H     1 <1>   0.0800 
 27 H       -0.1870    -4.2250    -1.5100 H     1 <1>   0.0800 
 28 H       -0.8230    -4.9180    -0.0480 H     1 <1>   0.0800 
 29 H       -4.1800    -1.7130     2.1540 H     1 <1>   0.1500 
 30 H        2.2330    -2.5610     1.2620 H     1 <1>   0.0800 
 31 H        2.9160    -1.7600    -0.1250 H     1 <1>   0.0800 
 32 H        1.4800    -5.7190    -0.5730 H     1 <1>   0.0800 
 33 H        1.3490    -4.9540     0.9860 H     1 <1>   0.0800 
 34 H        2.3790    -3.6790    -1.4690 H     1 <1>   0.4500 
 35 H        3.8040    -5.4040    -0.4740 H     1 <1>   0.0800 
 36 H        3.8890    -4.4290     0.9650 H     1 <1>   0.0800 
 37 H        4.6450    -3.3380    -1.7450 H     1 <1>   0.0800 
 38 H        6.4160    -4.6790    -1.8920 H     1 <1>   0.0800 
 39 H        4.8300    -2.1140     1.0350 H     1 <1>   0.0800 
 40 H        5.2320    -1.3350    -0.4750 H     1 <1>   0.0800 
 41 H        8.3640    -5.5400    -0.4630 H     1 <1>   0.1500 
 42 H        6.9050    -2.9510    -1.2020 H     1 <1>   0.0800 
 43 H        6.2150    -3.9590     0.8510 H     1 <1>   0.0800 
 44 H        7.4440    -1.5440    -0.0150 H     1 <1>   0.0800 
 45 H        9.1090    -3.2800     0.8940 H     1 <1>   0.1500 
@<TRIPOS>BOND
  1   1   2  1   
  2   2   3  ar  
  3   2   4  ar  
  4   3   5  1   
  5   3   6  ar  
  6   4   7  ar  
  7   4  22  1   
  8   5   8  1   
  9   5   9  1   
 10   6  10  ar  
 11   6  23  1   
 12   7  10  ar  
 13   7  24  1   
 14   8  11  1   
 15   8  25  1   
 16   8  26  1   
 17   9  12  1   
 18   9  27  1   
 19   9  28  1   
 20  10  29  1   
 21  11  13  1   
 22  11  30  1   
 23  11  31  1   
 24  12  13  1   
 25  12  32  1   
 26  12  33  1   
 27  13  14  1   
 28  13  34  1   
 29  14  15  1   
 30  14  35  1   
 31  14  36  1   
 32  15  16  1   
 33  15  17  1   
 34  15  37  1   
 35  16  18  1   
 36  16  19  1   
 37  16  38  1   
 38  17  20  1   
 39  17  39  1   
 40  17  40  1   
 41  18  21  2   
 42  18  41  1   
 43  19  20  1   
 44  19  42  1   
 45  19  43  1   
 46  20  21  1   
 47  20  44  1   
 48  21  45  1   
@<TRIPOS>SUBSTRUCTURE
  1 ****  11 GROUP 4 **** **** 0

# MOE 2024.06 (io_trps.svl 2023.06)
