@<TRIPOS>MOLECULE
NONAME
43 44 1 0 0 
SMALL
USER_CHARGES


@<TRIPOS>ATOM
  1 S       -0.1770     0.5690     1.3650 S.o2  1 <1>   1.4470 
  2 O        0.5210    -0.6980     1.3040 O.2   1 <1>  -0.6500 
  3 O       -0.0520     1.3660     2.5690 O.2   1 <1>  -0.6500 
  4 N        0.4100     1.5460     0.1060 N.am  1 <1>  -0.8490 
  5 C       -1.9360     0.3280     0.9520 C.ar  1 <1>  -0.0090 
  6 C       -0.1410     2.9010     0.1580 C.3   1 <1>   0.1960 
  7 C        1.8740     1.5450     0.0480 C.3   1 <1>   0.1960 
  8 C       -2.3780    -0.3110    -0.2110 C.ar  1 <1>  -0.1440 
  9 C       -2.9070     0.8140     1.8230 C.ar  1 <1>  -0.1500 
 10 C       -0.0920     3.5320    -1.2320 C.3   1 <1>  -0.2400 
 11 C        2.3150     0.6240    -1.0850 C.3   1 <1>  -0.2400 
 12 C       -3.7350    -0.4390    -0.4690 C.ar  1 <1>  -0.1500 
 13 C       -1.3970    -0.8810    -1.2300 C.3   1 <1>  -0.0970 
 14 C       -4.2560     0.6810     1.5600 C.ar  1 <1>  -0.1500 
 15 C       -4.6970     0.0510     0.4060 C.ar  1 <1>   0.1170 
 16 N       -6.0710    -0.0950     0.1360 N.am  1 <1>  -0.4770 
 17 C       -7.0800     0.7840     0.4120 C.2   1 <1>   0.5690 
 18 C       -6.6040    -1.3320    -0.4700 C.3   1 <1>   0.1400 
 19 O       -6.9720     1.8830     0.8970 O.2   1 <1>  -0.5700 
 20 C       -8.4210     0.2170     0.0300 C.3   1 <1>  -0.0990 
 21 C       -8.1200    -1.2600    -0.2550 C.3   1 <1>  -0.1600 
 22 H        0.3970     3.4990     0.8760 H     1 <1>   0.0800 
 23 H       -1.1730     2.8650     0.4670 H     1 <1>   0.0800 
 24 H        2.2960     1.2120     0.9830 H     1 <1>   0.0800 
 25 H        2.2550     2.5330    -0.1440 H     1 <1>   0.0800 
 26 H       -2.6040     1.3100     2.7300 H     1 <1>   0.1500 
 27 H        0.9190     3.6610    -1.5690 H     1 <1>   0.0800 
 28 H       -0.5630     4.4980    -1.2030 H     1 <1>   0.0800 
 29 H       -0.6270     2.9160    -1.9320 H     1 <1>   0.0800 
 30 H        1.9940    -0.3840    -0.8950 H     1 <1>   0.0800 
 31 H        3.3860     0.6300    -1.1600 H     1 <1>   0.0800 
 32 H        1.9020     0.9610    -2.0180 H     1 <1>   0.0800 
 33 H       -4.0560    -0.9220    -1.3720 H     1 <1>   0.1500 
 34 H       -0.7530    -1.6070    -0.7660 H     1 <1>   0.0800 
 35 H       -0.7930    -0.0950    -1.6470 H     1 <1>   0.0800 
 36 H       -1.9120    -1.3660    -2.0380 H     1 <1>   0.0800 
 37 H       -4.9750     1.0730     2.2580 H     1 <1>   0.1500 
 38 H       -6.1790    -2.2000     0.0050 H     1 <1>   0.0800 
 39 H       -6.3730    -1.3390    -1.5210 H     1 <1>   0.0800 
 40 H       -8.7730     0.7210    -0.8510 H     1 <1>   0.0800 
 41 H       -9.1280     0.3360     0.8300 H     1 <1>   0.0800 
 42 H       -8.3780    -1.8540     0.6040 H     1 <1>   0.0800 
 43 H       -8.6610    -1.6290    -1.1080 H     1 <1>   0.0800 
@<TRIPOS>BOND
  1   1   2  2   
  2   1   3  2   
  3   1   4  am  
  4   1   5  1   
  5   4   6  1   
  6   4   7  1   
  7   5   8  ar  
  8   5   9  ar  
  9   6  10  1   
 10   6  22  1   
 11   6  23  1   
 12   7  11  1   
 13   7  24  1   
 14   7  25  1   
 15   8  12  ar  
 16   8  13  1   
 17   9  14  ar  
 18   9  26  1   
 19  10  27  1   
 20  10  28  1   
 21  10  29  1   
 22  11  30  1   
 23  11  31  1   
 24  11  32  1   
 25  12  15  ar  
 26  12  33  1   
 27  13  34  1   
 28  13  35  1   
 29  13  36  1   
 30  14  15  ar  
 31  14  37  1   
 32  15  16  1   
 33  16  17  am  
 34  16  18  1   
 35  17  19  2   
 36  17  20  1   
 37  18  21  1   
 38  18  38  1   
 39  18  39  1   
 40  20  21  1   
 41  20  40  1   
 42  20  41  1   
 43  21  42  1   
 44  21  43  1   
@<TRIPOS>SUBSTRUCTURE
  1 ****   8 GROUP 4 **** **** 0

# MOE 2024.06 (io_trps.svl 2023.06)
