@<TRIPOS>MOLECULE
NONAME
41 42 1 0 0 
SMALL
USER_CHARGES


@<TRIPOS>ATOM
  1 BR      -0.3370    -0.0250     1.7740 Br    1 <1>  -0.1110 
  2 C       -0.4620    -1.8520     1.1580 C.ar  1 <1>   0.1110 
  3 C        0.5830    -2.4100     0.4360 C.ar  1 <1>   0.0820 
  4 C       -1.6100    -2.5550     1.4640 C.ar  1 <1>  -0.1500 
  5 O        1.6760    -1.6390     0.1820 O.3   1 <1>  -0.3630 
  6 C        0.4540    -3.7290     0.0130 C.ar  1 <1>  -0.1500 
  7 C       -1.7370    -3.8690     1.0350 C.ar  1 <1>  -0.1430 
  8 C        2.7870    -2.1370    -0.5300 C.3   1 <1>   0.0400 
  9 C       -0.6990    -4.4570     0.3110 C.ar  1 <1>   0.0830 
 10 C       -3.0080    -4.6380     1.3750 C.3   1 <1>   0.3530 
 11 O       -0.8630    -5.7500    -0.0780 O.3   1 <1>  -0.3630 
 12 N       -4.1770    -3.8590     0.9120 N.pl3 1 <1>  -0.8690 
 13 C        0.0690    -6.4120    -0.9040 C.3   1 <1>   0.0400 
 14 C       -5.3300    -4.5620     0.5900 C.ar  1 <1>   0.1000 
 15 C       -5.9110    -4.4100    -0.6610 C.ar  1 <1>  -0.1500 
 16 C       -5.9260    -5.4250     1.4980 C.ar  1 <1>  -0.1500 
 17 C       -7.0540    -5.1090    -1.0160 C.ar  1 <1>  -0.1430 
 18 C       -7.0650    -6.1270     1.1560 C.ar  1 <1>  -0.1500 
 19 C       -7.6370    -5.9790    -0.1000 C.ar  1 <1>  -0.1430 
 20 C       -7.6450    -4.9050    -2.4030 C.3   1 <1>  -0.0970 
 21 C       -8.8910    -6.7710    -0.4400 C.3   1 <1>  -0.0970 
 22 H       -2.3940    -2.0800     2.0270 H     1 <1>   0.1500 
 23 H        1.2460    -4.1850    -0.5410 H     1 <1>   0.1500 
 24 H        3.5170    -1.3510    -0.5970 H     1 <1>   0.0800 
 25 H        2.4700    -2.4260    -1.5160 H     1 <1>   0.0800 
 26 H        3.2000    -2.9730     0.0060 H     1 <1>   0.0800 
 27 H       -3.0720    -4.7710     2.4410 H     1 <1>   0.0800 
 28 H       -3.0220    -5.6090     0.9120 H     1 <1>   0.0800 
 29 H       -3.8720    -3.2280     0.1660 H     1 <1>   0.4000 
 30 H       -0.3070    -7.3990    -1.1070 H     1 <1>   0.0800 
 31 H        1.0090    -6.4810    -0.3850 H     1 <1>   0.0800 
 32 H        0.1720    -5.8650    -1.8240 H     1 <1>   0.0800 
 33 H       -5.4540    -3.7360    -1.3600 H     1 <1>   0.1500 
 34 H       -5.4980    -5.5380     2.4760 H     1 <1>   0.1500 
 35 H       -7.5070    -6.7910     1.8770 H     1 <1>   0.1500 
 36 H       -7.0700    -4.1930    -2.9670 H     1 <1>   0.0800 
 37 H       -8.6520    -4.5380    -2.3240 H     1 <1>   0.0800 
 38 H       -7.6500    -5.8360    -2.9410 H     1 <1>   0.0800 
 39 H       -9.7000    -6.1000    -0.6640 H     1 <1>   0.0800 
 40 H       -9.1880    -7.3950     0.3830 H     1 <1>   0.0800 
 41 H       -8.7090    -7.4010    -1.2920 H     1 <1>   0.0800 
@<TRIPOS>BOND
  1   1   2  1   
  2   2   3  ar  
  3   2   4  ar  
  4   3   5  1   
  5   3   6  ar  
  6   4   7  ar  
  7   4  22  1   
  8   5   8  1   
  9   6   9  ar  
 10   6  23  1   
 11   7   9  ar  
 12   7  10  1   
 13   8  24  1   
 14   8  25  1   
 15   8  26  1   
 16   9  11  1   
 17  10  12  1   
 18  10  27  1   
 19  10  28  1   
 20  11  13  1   
 21  12  14  1   
 22  12  29  1   
 23  13  30  1   
 24  13  31  1   
 25  13  32  1   
 26  14  15  ar  
 27  14  16  ar  
 28  15  17  ar  
 29  15  33  1   
 30  16  18  ar  
 31  16  34  1   
 32  17  19  ar  
 33  17  20  1   
 34  18  19  ar  
 35  18  35  1   
 36  19  21  1   
 37  20  36  1   
 38  20  37  1   
 39  20  38  1   
 40  21  39  1   
 41  21  40  1   
 42  21  41  1   
@<TRIPOS>SUBSTRUCTURE
  1 ****  10 GROUP 4 **** **** 0

# MOE 2024.06 (io_trps.svl 2023.06)
