@<TRIPOS>MOLECULE
NONAME
32 32 1 0 0 
SMALL
USER_CHARGES


@<TRIPOS>ATOM
  1 S       -0.0630    -0.2090     0.0390 S.3   1 <1>  -0.3320 
  2 C       -1.5530     0.7900    -0.0420 C.ar  1 <1>   0.4120 
  3 C        1.3800     0.9510    -0.0330 C.3   1 <1>   0.0700 
  4 N       -2.6590     0.0890    -0.2250 N.ar  1 <1>  -0.6200 
  5 C       -1.4920     2.1710     0.0830 C.ar  1 <1>  -0.1500 
  6 C        2.6870     0.1520    -0.0160 C.3   1 <1>   0.2000 
  7 C       -3.7690     0.8050    -0.2910 C.ar  1 <1>   0.1600 
  8 C       -2.6610     2.8990     0.0090 C.ar  1 <1>  -0.1500 
  9 O        2.9270    -0.3060     1.2670 O.3   1 <1>  -0.6800 
 10 C        3.8940     0.9970    -0.4440 C.3   1 <1>   0.1200 
 11 C       -3.8260     2.1850    -0.1830 C.ar  1 <1>  -0.1500 
 12 O        5.0710     0.2830    -0.1850 O.3   1 <1>  -0.5600 
 13 C        6.2520     0.9560    -0.4660 C.3   1 <1>   0.2000 
 14 C        7.2990    -0.1080    -0.7700 C.3   1 <1>  -0.2400 
 15 C        6.6450     1.7850     0.7570 C.3   1 <1>  -0.2400 
 16 H        1.3240     1.6100     0.8140 H     1 <1>   0.0800 
 17 H        1.2780     1.5020    -0.9500 H     1 <1>   0.0800 
 18 H       -0.5640     2.6790     0.2390 H     1 <1>   0.1500 
 19 H        2.6040    -0.7020    -0.6660 H     1 <1>   0.0800 
 20 H       -4.6870     0.2600    -0.4390 H     1 <1>   0.1500 
 21 H       -2.6670     3.9720     0.1000 H     1 <1>   0.1500 
 22 H        3.8690    -0.5850     1.2950 H     1 <1>   0.4000 
 23 H        3.9110     1.9180     0.1120 H     1 <1>   0.0800 
 24 H        3.8430     1.2120    -1.4970 H     1 <1>   0.0800 
 25 H       -4.7720     2.6910    -0.2490 H     1 <1>   0.1500 
 26 H        6.1110     1.5830    -1.3320 H     1 <1>   0.0800 
 27 H        7.4300    -0.7580     0.0770 H     1 <1>   0.0800 
 28 H        8.2410     0.3550    -0.9980 H     1 <1>   0.0800 
 29 H        6.9920    -0.6910    -1.6200 H     1 <1>   0.0800 
 30 H        6.7290     1.1530     1.6230 H     1 <1>   0.0800 
 31 H        5.9210     2.5550     0.9470 H     1 <1>   0.0800 
 32 H        7.5950     2.2570     0.5860 H     1 <1>   0.0800 
@<TRIPOS>BOND
  1   1   2  1   
  2   1   3  1   
  3   2   4  ar  
  4   2   5  ar  
  5   3   6  1   
  6   3  16  1   
  7   3  17  1   
  8   4   7  ar  
  9   5   8  ar  
 10   5  18  1   
 11   6   9  1   
 12   6  10  1   
 13   6  19  1   
 14   7  11  ar  
 15   7  20  1   
 16   8  11  ar  
 17   8  21  1   
 18   9  22  1   
 19  10  12  1   
 20  10  23  1   
 21  10  24  1   
 22  11  25  1   
 23  12  13  1   
 24  13  14  1   
 25  13  15  1   
 26  13  26  1   
 27  14  27  1   
 28  14  28  1   
 29  14  29  1   
 30  15  30  1   
 31  15  31  1   
 32  15  32  1   
@<TRIPOS>SUBSTRUCTURE
  1 ****   3 GROUP 4 **** **** 0

# MOE 2024.06 (io_trps.svl 2023.06)
