@<TRIPOS>MOLECULE
NONAME
28 28 1 0 0 
SMALL
USER_CHARGES


@<TRIPOS>ATOM
  1 BR       0.4210    -0.5540    -1.0950 Br    1 <1>  -0.1110 
  2 C       -1.3460    -1.3270    -0.9920 C.ar  1 <1>   0.1110 
  3 C       -1.6240    -2.3500    -0.0910 C.ar  1 <1>  -0.1440 
  4 C       -2.2950    -0.8030    -1.8450 C.ar  1 <1>  -0.1500 
  5 C       -2.9300    -2.8420    -0.0370 C.ar  1 <1>  -0.1440 
  6 C       -0.5000    -2.8840     0.7980 C.3   1 <1>  -0.0960 
  7 C       -3.5750    -1.3130    -1.7990 C.ar  1 <1>  -0.1500 
  8 C       -3.9040    -2.3240    -0.9030 C.ar  1 <1>   0.1170 
  9 C       -3.3010    -3.9360     0.9690 C.3   1 <1>  -0.0960 
 10 N       -5.2170    -2.8050    -0.9080 N.am  1 <1>  -0.5470 
 11 C       -6.3520    -2.2310    -0.4330 C.2   1 <1>   0.5690 
 12 O       -7.3940    -2.8310    -0.4950 O.2   1 <1>  -0.5700 
 13 C       -6.3310    -0.8440     0.1930 C.3   1 <1>  -0.0990 
 14 C       -5.7890    -0.8470     1.6310 C.3   1 <1>  -0.2400 
 15 H       -2.0330    -0.0170    -2.5290 H     1 <1>   0.1500 
 16 H        0.4140    -2.9730     0.2390 H     1 <1>   0.0800 
 17 H       -0.7140    -3.8600     1.1890 H     1 <1>   0.0800 
 18 H       -0.3360    -2.2110     1.6210 H     1 <1>   0.0800 
 19 H       -4.3290    -0.9290    -2.4640 H     1 <1>   0.1500 
 20 H       -2.8930    -3.7040     1.9360 H     1 <1>   0.0800 
 21 H       -2.9080    -4.8810     0.6410 H     1 <1>   0.0800 
 22 H       -4.3620    -4.0380     1.0990 H     1 <1>   0.0800 
 23 H       -5.3540    -3.7640    -1.2270 H     1 <1>   0.3700 
 24 H       -7.3370    -0.4640     0.2000 H     1 <1>   0.0800 
 25 H       -5.7420    -0.1850    -0.4160 H     1 <1>   0.0800 
 26 H       -4.7660    -1.1800     1.6470 H     1 <1>   0.0800 
 27 H       -6.3770    -1.5050     2.2460 H     1 <1>   0.0800 
 28 H       -5.8330     0.1440     2.0450 H     1 <1>   0.0800 
@<TRIPOS>BOND
  1   1   2  1   
  2   2   3  ar  
  3   2   4  ar  
  4   3   5  ar  
  5   3   6  1   
  6   4   7  ar  
  7   4  15  1   
  8   5   8  ar  
  9   5   9  1   
 10   6  16  1   
 11   6  17  1   
 12   6  18  1   
 13   7   8  ar  
 14   7  19  1   
 15   8  10  1   
 16   9  20  1   
 17   9  21  1   
 18   9  22  1   
 19  10  11  am  
 20  10  23  1   
 21  11  12  2   
 22  11  13  1   
 23  13  14  1   
 24  13  24  1   
 25  13  25  1   
 26  14  26  1   
 27  14  27  1   
 28  14  28  1   
@<TRIPOS>SUBSTRUCTURE
  1 ****   8 GROUP 4 **** **** 0

# MOE 2024.06 (io_trps.svl 2023.06)
