@<TRIPOS>MOLECULE
NONAME
45 46 1 0 0 
SMALL
USER_CHARGES


@<TRIPOS>ATOM
  1 N       -1.1150     0.5500    -2.3550 N.ar  1 <1>  -0.6200 
  2 C       -1.6850     0.7550    -1.2020 C.ar  1 <1>   0.4100 
  3 C       -1.6090    -0.4470    -3.0940 C.ar  1 <1>   0.4700 
  4 N       -1.2330     1.8290    -0.4710 N.pl3 1 <1>  -0.8380 
  5 C       -2.7370    -0.0720    -0.7280 C.ar  1 <1>   0.0000 
  6 N       -2.5860    -1.2460    -2.8060 N.ar  1 <1>  -0.6200 
  7 C       -2.1460     2.9950    -0.2710 C.3   1 <1>   0.2090 
  8 C        0.2390     2.0410    -0.3320 C.3   1 <1>   0.2090 
  9 C       -3.1710    -1.0720    -1.6030 C.ar  1 <1>   0.3100 
 10 C       -3.3520     0.0250     0.5370 C.ar  1 <1>  -0.1500 
 11 C       -1.9620     4.0780    -1.3560 C.3   1 <1>  -0.0800 
 12 C        0.6500     2.4080     1.1080 C.3   1 <1>  -0.0800 
 13 C       -4.2230    -1.9120    -1.2170 C.ar  1 <1>  -0.1500 
 14 C       -4.3780    -0.8090     0.9050 C.ar  1 <1>  -0.1440 
 15 C       -1.0540     5.2250    -0.8850 C.3   1 <1>  -0.2400 
 16 C       -3.3220     4.6590    -1.7700 C.3   1 <1>  -0.2400 
 17 C        2.1610     2.6670     1.1730 C.3   1 <1>  -0.2400 
 18 C        0.2760     1.3070     2.1120 C.3   1 <1>  -0.2400 
 19 C       -4.8210    -1.7860     0.0110 C.ar  1 <1>  -0.1500 
 20 C       -5.0410    -0.6960     2.2660 C.3   1 <1>  -0.0970 
 21 H       -1.1270    -0.5870    -4.0470 H     1 <1>   0.1500 
 22 H       -2.0060     3.4110     0.7100 H     1 <1>   0.0800 
 23 H       -3.1590     2.6350    -0.3170 H     1 <1>   0.0800 
 24 H        0.5540     2.8030    -1.0210 H     1 <1>   0.0800 
 25 H        0.7500     1.1350    -0.6110 H     1 <1>   0.0800 
 26 H       -2.9920     0.7740     1.2180 H     1 <1>   0.1500 
 27 H       -1.5290     3.6180    -2.2290 H     1 <1>   0.0800 
 28 H        0.1520     3.3190     1.3890 H     1 <1>   0.0800 
 29 H       -4.5450    -2.6620    -1.9140 H     1 <1>   0.1500 
 30 H       -1.4810     5.7190    -0.0300 H     1 <1>   0.0800 
 31 H       -0.9330     5.9480    -1.6720 H     1 <1>   0.0800 
 32 H       -0.0800     4.8640    -0.6160 H     1 <1>   0.0800 
 33 H       -3.8130     5.1200    -0.9310 H     1 <1>   0.0800 
 34 H       -3.9560     3.8790    -2.1560 H     1 <1>   0.0800 
 35 H       -3.1940     5.3970    -2.5420 H     1 <1>   0.0800 
 36 H        2.7090     1.7800     0.9040 H     1 <1>   0.0800 
 37 H        2.4480     2.9590     2.1670 H     1 <1>   0.0800 
 38 H        2.4340     3.4580     0.4970 H     1 <1>   0.0800 
 39 H        0.7440     0.3760     1.8420 H     1 <1>   0.0800 
 40 H       -0.7880     1.1580     2.1240 H     1 <1>   0.0800 
 41 H        0.5900     1.5780     3.1040 H     1 <1>   0.0800 
 42 H       -5.6280    -2.4400     0.2940 H     1 <1>   0.1500 
 43 H       -4.5960     0.0920     2.8460 H     1 <1>   0.0800 
 44 H       -4.9310    -1.6210     2.8040 H     1 <1>   0.0800 
 45 H       -6.0890    -0.4850     2.1470 H     1 <1>   0.0800 
@<TRIPOS>BOND
  1   1   2  ar  
  2   1   3  ar  
  3   2   4  1   
  4   2   5  ar  
  5   3   6  ar  
  6   3  21  1   
  7   4   7  1   
  8   4   8  1   
  9   5   9  ar  
 10   5  10  ar  
 11   6   9  ar  
 12   7  11  1   
 13   7  22  1   
 14   7  23  1   
 15   8  12  1   
 16   8  24  1   
 17   8  25  1   
 18   9  13  ar  
 19  10  14  ar  
 20  10  26  1   
 21  11  15  1   
 22  11  16  1   
 23  11  27  1   
 24  12  17  1   
 25  12  18  1   
 26  12  28  1   
 27  13  19  ar  
 28  13  29  1   
 29  14  19  ar  
 30  14  20  1   
 31  15  30  1   
 32  15  31  1   
 33  15  32  1   
 34  16  33  1   
 35  16  34  1   
 36  16  35  1   
 37  17  36  1   
 38  17  37  1   
 39  17  38  1   
 40  18  39  1   
 41  18  40  1   
 42  18  41  1   
 43  19  42  1   
 44  20  43  1   
 45  20  44  1   
 46  20  45  1   
@<TRIPOS>SUBSTRUCTURE
  1 ****   2 GROUP 4 **** **** 0

# MOE 2024.06 (io_trps.svl 2023.06)
