@<TRIPOS>MOLECULE
NONAME
40 42 1 0 0 
SMALL
USER_CHARGES


@<TRIPOS>ATOM
  1 BR      -0.4060    -0.5050     2.0530 Br    1 <1>  -0.1110 
  2 C       -1.9400    -1.0890     1.0530 C.ar  1 <1>   0.1110 
  3 C       -2.6750    -2.1590     1.5240 C.ar  1 <1>  -0.1500 
  4 C       -2.2680    -0.4260    -0.1130 C.ar  1 <1>  -0.1500 
  5 C       -3.7820    -2.5750     0.8020 C.ar  1 <1>  -0.1500 
  6 C       -3.3760    -0.8480    -0.8280 C.ar  1 <1>  -0.1500 
  7 C       -4.1400    -1.9180    -0.3710 C.ar  1 <1>  -0.1430 
  8 C       -5.3630    -2.3640    -1.1510 C.3   1 <1>   0.4870 
  9 N       -6.5810    -1.9060    -0.4290 N.4   1 <1>  -0.9590 
 10 C       -7.8390    -2.4740    -1.0410 C.3   1 <1>   0.3430 
 11 C       -6.6470    -0.3960    -0.3490 C.3   1 <1>   0.3430 
 12 C       -9.1200    -1.9840    -0.3330 C.3   1 <1>   0.2090 
 13 C       -7.9210     0.1080     0.3620 C.3   1 <1>   0.2090 
 14 N       -9.1400    -0.4950    -0.2530 N.pl3 1 <1>  -0.8380 
 15 C      -10.3550     0.0880     0.0880 C.ar  1 <1>   0.1000 
 16 C      -11.0600     0.8040    -0.8750 C.ar  1 <1>  -0.1500 
 17 C      -10.8820    -0.0300     1.3730 C.ar  1 <1>  -0.1500 
 18 C      -12.2730     1.3960    -0.5700 C.ar  1 <1>  -0.1500 
 19 C      -12.0940     0.5560     1.6940 C.ar  1 <1>  -0.1500 
 20 C      -12.7680     1.2600     0.7140 C.ar  1 <1>   0.1900 
 21 F      -13.9140     1.8170     1.0110 F     1 <1>  -0.1900 
 22 H       -2.3800    -2.6540     2.4340 H     1 <1>   0.1500 
 23 H       -1.6640     0.3990    -0.4500 H     1 <1>   0.1500 
 24 H       -4.3480    -3.4160     1.1660 H     1 <1>   0.1500 
 25 H       -3.6270    -0.3350    -1.7420 H     1 <1>   0.1500 
 26 H       -5.3590    -3.4390    -1.2320 H     1 <1>   0.0800 
 27 H       -5.3380    -1.9470    -2.1450 H     1 <1>   0.0800 
 28 H       -6.5030    -2.2490     0.5360 H     1 <1>   0.4500 
 29 H       -7.8120    -3.5510    -1.0080 H     1 <1>   0.0800 
 30 H       -7.9010    -2.1770    -2.0750 H     1 <1>   0.0800 
 31 H       -6.6380     0.0180    -1.3440 H     1 <1>   0.0800 
 32 H       -5.7840    -0.0170     0.1740 H     1 <1>   0.0800 
 33 H       -9.1780    -2.4020     0.6570 H     1 <1>   0.0800 
 34 H       -9.9840    -2.3180    -0.8840 H     1 <1>   0.0800 
 35 H       -7.9770     1.1800     0.2780 H     1 <1>   0.0800 
 36 H       -7.8800    -0.1390     1.4080 H     1 <1>   0.0800 
 37 H      -10.6500     0.8930    -1.8640 H     1 <1>   0.1500 
 38 H      -10.3440    -0.5810     2.1220 H     1 <1>   0.1500 
 39 H      -12.8260     1.9520    -1.3050 H     1 <1>   0.1500 
 40 H      -12.5140     0.4740     2.6800 H     1 <1>   0.1500 
@<TRIPOS>BOND
  1   1   2  1   
  2   2   3  ar  
  3   2   4  ar  
  4   3   5  ar  
  5   3  22  1   
  6   4   6  ar  
  7   4  23  1   
  8   5   7  ar  
  9   5  24  1   
 10   6   7  ar  
 11   6  25  1   
 12   7   8  1   
 13   8   9  1   
 14   8  26  1   
 15   8  27  1   
 16   9  10  1   
 17   9  11  1   
 18   9  28  1   
 19  10  12  1   
 20  10  29  1   
 21  10  30  1   
 22  11  13  1   
 23  11  31  1   
 24  11  32  1   
 25  12  14  1   
 26  12  33  1   
 27  12  34  1   
 28  13  14  1   
 29  13  35  1   
 30  13  36  1   
 31  14  15  1   
 32  15  16  ar  
 33  15  17  ar  
 34  16  18  ar  
 35  16  37  1   
 36  17  19  ar  
 37  17  38  1   
 38  18  20  ar  
 39  18  39  1   
 40  19  20  ar  
 41  19  40  1   
 42  20  21  1   
@<TRIPOS>SUBSTRUCTURE
  1 ****  11 GROUP 4 **** **** 0

# MOE 2024.06 (io_trps.svl 2023.06)
