@<TRIPOS>MOLECULE
NONAME
33 34 1 0 0 
SMALL
USER_CHARGES


@<TRIPOS>ATOM
  1 S       -0.1290     2.0500    -0.9930 S.3   1 <1>  -0.4600 
  2 C       -1.3150     0.7540    -1.4690 C.3   1 <1>   0.2140 
  3 C        1.4350     1.5220    -1.7850 C.3   1 <1>   0.1310 
  4 C       -1.5650    -0.1590    -0.2730 C.ar  1 <1>  -0.1440 
  5 C        2.0120     0.2630    -1.1550 C.2   1 <1>   0.5690 
  6 C       -1.3230    -1.5320    -0.3100 C.ar  1 <1>  -0.1440 
  7 C       -2.0770     0.4090     0.8850 C.ar  1 <1>  -0.1500 
  8 O        2.6840    -0.4630    -1.8500 O.2   1 <1>  -0.5700 
  9 N        1.7630     0.0010     0.1540 N.am  1 <1>  -0.5790 
 10 C       -1.6010    -2.3030     0.8090 C.ar  1 <1>  -0.1500 
 11 C       -0.7620    -2.2260    -1.5430 C.3   1 <1>  -0.0970 
 12 C       -2.3510    -0.3670     1.9960 C.ar  1 <1>  -0.1500 
 13 C        2.2820    -1.1380     0.9210 C.3   1 <1>   0.0490 
 14 C       -2.1140    -1.7270     1.9570 C.ar  1 <1>  -0.1500 
 15 C        1.5260    -1.5610     2.1350 C.3   1 <1>  -0.2000 
 16 C        2.8460    -0.8680     2.2770 C.3   1 <1>  -0.2000 
 17 H       -0.9110     0.2400    -2.3200 H     1 <1>   0.0800 
 18 H       -2.2240     1.2540    -1.7530 H     1 <1>   0.0800 
 19 H        2.1300     2.3330    -1.6770 H     1 <1>   0.0800 
 20 H        1.2300     1.3600    -2.8270 H     1 <1>   0.0800 
 21 H       -2.2690     1.4670     0.9260 H     1 <1>   0.1500 
 22 H        1.0530     0.5640     0.6300 H     1 <1>   0.3700 
 23 H       -1.4200    -3.3630     0.7960 H     1 <1>   0.1500 
 24 H       -1.4140    -2.0750    -2.3840 H     1 <1>   0.0800 
 25 H       -0.6680    -3.2850    -1.3810 H     1 <1>   0.0800 
 26 H        0.2140    -1.8410    -1.7770 H     1 <1>   0.0800 
 27 H       -2.7480     0.0870     2.8870 H     1 <1>   0.1500 
 28 H        2.7520    -1.8900     0.3070 H     1 <1>   0.1000 
 29 H       -2.3270    -2.3370     2.8180 H     1 <1>   0.1500 
 30 H        1.4680    -2.6110     2.3630 H     1 <1>   0.1000 
 31 H        0.6270    -1.0310     2.3950 H     1 <1>   0.1000 
 32 H        2.8700     0.1470     2.6320 H     1 <1>   0.1000 
 33 H        3.6910    -1.4450     2.6070 H     1 <1>   0.1000 
@<TRIPOS>BOND
  1   1   2  1   
  2   1   3  1   
  3   2   4  1   
  4   2  17  1   
  5   2  18  1   
  6   3   5  1   
  7   3  19  1   
  8   3  20  1   
  9   4   6  ar  
 10   4   7  ar  
 11   5   8  2   
 12   5   9  am  
 13   6  10  ar  
 14   6  11  1   
 15   7  12  ar  
 16   7  21  1   
 17   9  13  1   
 18   9  22  1   
 19  10  14  ar  
 20  10  23  1   
 21  11  24  1   
 22  11  25  1   
 23  11  26  1   
 24  12  14  ar  
 25  12  27  1   
 26  13  15  1   
 27  13  16  1   
 28  13  28  1   
 29  14  29  1   
 30  15  16  1   
 31  15  30  1   
 32  15  31  1   
 33  16  32  1   
 34  16  33  1   
@<TRIPOS>SUBSTRUCTURE
  1 ****   4 GROUP 4 **** **** 0

# MOE 2024.06 (io_trps.svl 2023.06)
