@<TRIPOS>MOLECULE
NONAME
47 49 1 0 0 
SMALL
USER_CHARGES


@<TRIPOS>ATOM
  1 O       -7.8410     0.7510     0.0720 O.3   1 <1>  -0.3630 
  2 C       -6.6270     1.3410    -0.0590 C.ar  1 <1>   0.0830 
  3 C       -9.0340     1.4880    -0.0700 C.3   1 <1>   0.1200 
  4 C       -5.5190     0.5390     0.1780 C.ar  1 <1>  -0.1500 
  5 C       -6.4490     2.6810    -0.4090 C.ar  1 <1>  -0.1500 
  6 C      -10.2060     0.5320     0.1650 C.3   1 <1>   0.1100 
  7 C       -4.2520     1.0800     0.0650 C.ar  1 <1>  -0.1440 
  8 C       -5.1730     3.2120    -0.5180 C.ar  1 <1>  -0.1500 
  9 N      -11.5150     1.2170     0.0570 N.3   1 <1>  -0.8100 
 10 C       -4.0820     2.3980    -0.2770 C.ar  1 <1>  -0.1430 
 11 C       -2.9280     0.3920     0.2780 C.3   1 <1>  -0.0170 
 12 C      -12.6020     0.2280    -0.1380 C.3   1 <1>   0.1100 
 13 C      -11.8040     2.0640     1.2440 C.3   1 <1>   0.1100 
 14 C       -2.6190     2.7630    -0.3380 C.3   1 <1>  -0.0170 
 15 C       -1.9080     1.4000    -0.2810 C.3   1 <1>  -0.1600 
 16 C      -13.9980     0.8890    -0.2570 C.3   1 <1>   0.3430 
 17 C      -13.2070     2.7190     1.1850 C.3   1 <1>   0.3430 
 18 N      -13.9160     2.3770    -0.0940 N.4   1 <1>  -0.9590 
 19 C      -15.2240     3.0500    -0.2830 C.3   1 <1>   0.3430 
 20 C      -15.0110     4.5440    -0.4920 C.3   1 <1>  -0.2400 
 21 H       -9.0690     1.8860    -1.0680 H     1 <1>   0.0800 
 22 H       -9.0210     2.2770     0.6590 H     1 <1>   0.0800 
 23 H       -5.6540    -0.4920     0.4460 H     1 <1>   0.1500 
 24 H       -7.2850     3.3240    -0.6020 H     1 <1>   0.1500 
 25 H      -10.1080     0.0710     1.1330 H     1 <1>   0.0800 
 26 H      -10.1460    -0.2380    -0.5860 H     1 <1>   0.0800 
 27 H       -5.0300     4.2430    -0.7880 H     1 <1>   0.1500 
 28 H       -2.8830    -0.5480    -0.2430 H     1 <1>   0.0800 
 29 H       -2.7720     0.2360     1.3310 H     1 <1>   0.0800 
 30 H      -12.6120    -0.4690     0.6840 H     1 <1>   0.0800 
 31 H      -12.4130    -0.3380    -1.0350 H     1 <1>   0.0800 
 32 H      -11.0680     2.8460     1.3160 H     1 <1>   0.0800 
 33 H      -11.7320     1.4730     2.1420 H     1 <1>   0.0800 
 34 H       -2.3640     3.3610     0.5190 H     1 <1>   0.0800 
 35 H       -2.3820     3.2960    -1.2420 H     1 <1>   0.0800 
 36 H       -1.6460     1.1050    -1.2820 H     1 <1>   0.0800 
 37 H       -1.0150     1.4390     0.3180 H     1 <1>   0.0800 
 38 H      -14.6510     0.4710     0.4920 H     1 <1>   0.0800 
 39 H      -14.4130     0.6500    -1.2220 H     1 <1>   0.0800 
 40 H      -13.0920     3.7870     1.2710 H     1 <1>   0.0800 
 41 H      -13.7890     2.3850     2.0280 H     1 <1>   0.0800 
 42 H      -13.2570     2.6700    -0.8330 H     1 <1>   0.4500 
 43 H      -15.8580     2.8800     0.5730 H     1 <1>   0.0800 
 44 H      -15.7160     2.6440    -1.1540 H     1 <1>   0.0800 
 45 H      -14.6160     5.0130     0.3910 H     1 <1>   0.0800 
 46 H      -15.9580     5.0060    -0.7100 H     1 <1>   0.0800 
 47 H      -14.3550     4.7240    -1.3250 H     1 <1>   0.0800 
@<TRIPOS>BOND
  1   1   2  1   
  2   1   3  1   
  3   2   4  ar  
  4   2   5  ar  
  5   3   6  1   
  6   3  21  1   
  7   3  22  1   
  8   4   7  ar  
  9   4  23  1   
 10   5   8  ar  
 11   5  24  1   
 12   6   9  1   
 13   6  25  1   
 14   6  26  1   
 15   7  10  ar  
 16   7  11  1   
 17   8  10  ar  
 18   8  27  1   
 19   9  12  1   
 20   9  13  1   
 21  10  14  1   
 22  11  15  1   
 23  11  28  1   
 24  11  29  1   
 25  12  16  1   
 26  12  30  1   
 27  12  31  1   
 28  13  17  1   
 29  13  32  1   
 30  13  33  1   
 31  14  15  1   
 32  14  34  1   
 33  14  35  1   
 34  15  36  1   
 35  15  37  1   
 36  16  18  1   
 37  16  38  1   
 38  16  39  1   
 39  17  18  1   
 40  17  40  1   
 41  17  41  1   
 42  18  19  1   
 43  18  42  1   
 44  19  20  1   
 45  19  43  1   
 46  19  44  1   
 47  20  45  1   
 48  20  46  1   
 49  20  47  1   
@<TRIPOS>SUBSTRUCTURE
  1 ****   3 GROUP 4 **** **** 0

# MOE 2024.06 (io_trps.svl 2023.06)
