@<TRIPOS>MOLECULE
NONAME
29 28 1 0 0 
SMALL
USER_CHARGES


@<TRIPOS>ATOM
  1 O        0.8980     0.3690    -0.9390 O.co2 1 <1>  -0.9000 
  2 C        0.5710    -0.8360    -0.9940 C.2   1 <1>   0.9060 
  3 O       -0.4860    -1.2900    -1.4920 O.co2 1 <1>  -0.9000 
  4 C        1.5630    -1.8470    -0.3830 C.3   1 <1>   0.0340 
  5 N        1.0670    -3.2380    -0.3120 N.am  1 <1>  -0.7300 
  6 C        1.6400    -4.3310     0.2390 C.2   1 <1>   0.5690 
  7 O        1.0810    -5.3990     0.2160 O.2   1 <1>  -0.5700 
  8 C        3.0000    -4.2410     0.9120 C.3   1 <1>  -0.0990 
  9 C        4.1560    -4.4950    -0.0690 C.3   1 <1>  -0.1600 
 10 C        5.5210    -4.3840     0.6330 C.3   1 <1>  -0.0990 
 11 C        6.6800    -4.6440    -0.3140 C.2   1 <1>   0.5690 
 12 O        7.1650    -3.7080    -0.8990 O.2   1 <1>  -0.5700 
 13 N        7.1640    -5.8950    -0.4890 N.am  1 <1>  -0.7300 
 14 C        6.7350    -7.1680     0.1300 C.3   1 <1>   0.0340 
 15 C        7.6070    -8.3880    -0.2290 C.2   1 <1>   0.9060 
 16 O        7.3630    -9.4480     0.3860 O.co2 1 <1>  -0.9000 
 17 O        8.4960    -8.2300    -1.0990 O.co2 1 <1>  -0.9000 
 18 H        1.7960    -1.4840     0.6160 H     1 <1>   0.0800 
 19 H        2.4670    -1.8080    -0.9880 H     1 <1>   0.0800 
 20 H        0.1520    -3.3510    -0.7390 H     1 <1>   0.3700 
 21 H        3.0300    -4.9770     1.6950 H     1 <1>   0.0800 
 22 H        3.1080    -3.2760     1.3700 H     1 <1>   0.0800 
 23 H        4.1110    -3.7790    -0.8720 H     1 <1>   0.0800 
 24 H        4.0500    -5.4770    -0.4970 H     1 <1>   0.0800 
 25 H        5.5700    -5.0720     1.4550 H     1 <1>   0.0800 
 26 H        5.6360    -3.3930     1.0310 H     1 <1>   0.0800 
 27 H        7.9480    -6.0110    -1.1250 H     1 <1>   0.3700 
 28 H        5.7190    -7.4040    -0.1800 H     1 <1>   0.0800 
 29 H        6.7590    -7.0790     1.2140 H     1 <1>   0.0800 
@<TRIPOS>BOND
  1   1   2  ar  
  2   2   3  ar  
  3   2   4  1   
  4   4   5  1   
  5   4  18  1   
  6   4  19  1   
  7   5   6  am  
  8   5  20  1   
  9   6   7  2   
 10   6   8  1   
 11   8   9  1   
 12   8  21  1   
 13   8  22  1   
 14   9  10  1   
 15   9  23  1   
 16   9  24  1   
 17  10  11  1   
 18  10  25  1   
 19  10  26  1   
 20  11  12  2   
 21  11  13  am  
 22  13  14  1   
 23  13  27  1   
 24  14  15  1   
 25  14  28  1   
 26  14  29  1   
 27  15  16  ar  
 28  15  17  ar  
@<TRIPOS>SUBSTRUCTURE
  1 ****   9 GROUP 4 **** **** 0

# MOE 2024.06 (io_trps.svl 2023.06)
