@<TRIPOS>MOLECULE
NONAME
55 57 1 0 0 
SMALL
USER_CHARGES


@<TRIPOS>ATOM
  1 O       -0.9330    -0.8040     2.9220 O.2   1 <1>  -0.5700 
  2 C       -0.8980    -1.8700     2.3580 C.2   1 <1>   0.5690 
  3 N       -0.6710    -1.8790     1.0190 N.am  1 <1>  -0.7300 
  4 C       -1.0870    -3.1260     3.2180 C.3   1 <1>   0.1810 
  5 C       -0.7550    -2.9830     0.0490 C.3   1 <1>   0.2200 
  6 O       -1.9760    -4.0970     2.6800 O.3   1 <1>  -0.3630 
  7 C        0.5580    -3.0620    -0.7360 C.3   1 <1>  -0.1600 
  8 C       -1.9370    -2.7180    -0.8900 C.3   1 <1>  -0.1600 
  9 C       -3.2400    -3.7880     2.3010 C.ar  1 <1>   0.0820 
 10 C        0.4800    -4.1410    -1.8280 C.3   1 <1>  -0.1600 
 11 C       -2.0320    -3.8000    -1.9730 C.3   1 <1>  -0.1600 
 12 C       -3.8690    -4.6790     1.4520 C.ar  1 <1>  -0.1500 
 13 C       -3.9070    -2.6320     2.6890 C.ar  1 <1>  -0.1500 
 14 C       -0.7180    -3.9070    -2.7600 C.3   1 <1>  -0.1600 
 15 C       -5.1320    -4.4050     0.9630 C.ar  1 <1>  -0.1500 
 16 C       -5.1730    -2.3640     2.1980 C.ar  1 <1>  -0.1500 
 17 C       -5.8020    -3.2380     1.3140 C.ar  1 <1>  -0.1440 
 18 C       -7.1970    -2.9780     0.7050 C.3   1 <1>   0.2870 
 19 C       -7.1290    -3.1590    -0.8280 C.ar  1 <1>  -0.1440 
 20 C       -7.7110    -1.5510     0.9600 C.3   1 <1>  -0.2400 
 21 C       -8.1740    -3.9500     1.3870 C.3   1 <1>  -0.2400 
 22 C       -6.0820    -2.5670    -1.5280 C.ar  1 <1>  -0.1500 
 23 C       -8.0720    -3.8800    -1.5550 C.ar  1 <1>  -0.1500 
 24 C       -5.9710    -2.6950    -2.9010 C.ar  1 <1>  -0.1500 
 25 C       -7.9650    -4.0100    -2.9290 C.ar  1 <1>  -0.1500 
 26 C       -6.9140    -3.4190    -3.6050 C.ar  1 <1>  -0.1500 
 27 H       -0.5690    -0.9560     0.5970 H     1 <1>   0.3700 
 28 H       -1.4580    -2.8460     4.1870 H     1 <1>   0.0800 
 29 H       -0.1350    -3.6030     3.3460 H     1 <1>   0.0800 
 30 H       -0.9060    -3.9200     0.5530 H     1 <1>   0.0800 
 31 H        1.3640    -3.2950    -0.0630 H     1 <1>   0.0800 
 32 H        0.7610    -2.1110    -1.1970 H     1 <1>   0.0800 
 33 H       -1.8170    -1.7590    -1.3620 H     1 <1>   0.0800 
 34 H       -2.8510    -2.7020    -0.3240 H     1 <1>   0.0800 
 35 H        0.3840    -5.1090    -1.3650 H     1 <1>   0.0800 
 36 H        1.3900    -4.1400    -2.4020 H     1 <1>   0.0800 
 37 H       -2.8410    -3.5690    -2.6450 H     1 <1>   0.0800 
 38 H       -2.2520    -4.7480    -1.5110 H     1 <1>   0.0800 
 39 H       -3.3610    -5.5820     1.1650 H     1 <1>   0.1500 
 40 H       -3.4580    -1.9300     3.3660 H     1 <1>   0.1500 
 41 H       -0.7870    -4.7150    -3.4680 H     1 <1>   0.0800 
 42 H       -0.5630    -2.9970    -3.3150 H     1 <1>   0.0800 
 43 H       -5.5920    -5.1070     0.2890 H     1 <1>   0.1500 
 44 H       -5.6480    -1.4560     2.5180 H     1 <1>   0.1500 
 45 H       -7.8650    -1.3790     2.0100 H     1 <1>   0.0800 
 46 H       -8.6470    -1.4030     0.4530 H     1 <1>   0.0800 
 47 H       -7.0100    -0.8280     0.5850 H     1 <1>   0.0800 
 48 H       -8.1090    -3.8430     2.4550 H     1 <1>   0.0800 
 49 H       -7.9290    -4.9660     1.1360 H     1 <1>   0.0800 
 50 H       -9.1870    -3.7510     1.0900 H     1 <1>   0.0800 
 51 H       -5.3360    -1.9980    -1.0000 H     1 <1>   0.1500 
 52 H       -8.9070    -4.3520    -1.0720 H     1 <1>   0.1500 
 53 H       -5.1510    -2.2300    -3.4190 H     1 <1>   0.1500 
 54 H       -8.7030    -4.5730    -3.4740 H     1 <1>   0.1500 
 55 H       -6.8310    -3.5210    -4.6720 H     1 <1>   0.1500 
@<TRIPOS>BOND
  1   1   2  2   
  2   2   3  am  
  3   2   4  1   
  4   3   5  1   
  5   3  27  1   
  6   4   6  1   
  7   4  28  1   
  8   4  29  1   
  9   5   7  1   
 10   5   8  1   
 11   5  30  1   
 12   6   9  1   
 13   7  10  1   
 14   7  31  1   
 15   7  32  1   
 16   8  11  1   
 17   8  33  1   
 18   8  34  1   
 19   9  12  ar  
 20   9  13  ar  
 21  10  14  1   
 22  10  35  1   
 23  10  36  1   
 24  11  14  1   
 25  11  37  1   
 26  11  38  1   
 27  12  15  ar  
 28  12  39  1   
 29  13  16  ar  
 30  13  40  1   
 31  14  41  1   
 32  14  42  1   
 33  15  17  ar  
 34  15  43  1   
 35  16  17  ar  
 36  16  44  1   
 37  17  18  1   
 38  18  19  1   
 39  18  20  1   
 40  18  21  1   
 41  19  22  ar  
 42  19  23  ar  
 43  20  45  1   
 44  20  46  1   
 45  20  47  1   
 46  21  48  1   
 47  21  49  1   
 48  21  50  1   
 49  22  24  ar  
 50  22  51  1   
 51  23  25  ar  
 52  23  52  1   
 53  24  26  ar  
 54  24  53  1   
 55  25  26  ar  
 56  25  54  1   
 57  26  55  1   
@<TRIPOS>SUBSTRUCTURE
  1 ****  15 GROUP 4 **** **** 0

# MOE 2024.06 (io_trps.svl 2023.06)
