@<TRIPOS>MOLECULE
NONAME
38 39 1 0 0 
SMALL
USER_CHARGES


@<TRIPOS>ATOM
  1 S       -0.0520     0.2970     0.1750 S.3   1 <1>  -0.2860 
  2 C       -1.5330    -0.5970     0.6320 C.2   1 <1>   0.2420 
  3 C        1.2020    -0.3670     1.3700 C.3   1 <1>   0.1310 
  4 N       -1.5990    -1.4740     1.5670 N.2   1 <1>  -0.3380 
  5 N       -2.6840    -0.4020     0.0140 N.pl3 1 <1>   0.0330 
  6 C        2.5620     0.2420     1.0980 C.2   1 <1>   0.6590 
  7 N       -2.8670    -1.8930     1.5750 N.2   1 <1>  -0.3380 
  8 C       -3.5160    -1.2460     0.6430 C.2   1 <1>   0.1330 
  9 O        3.0650     1.0320     1.8550 O.2   1 <1>  -0.5700 
 10 O        3.1710    -0.1560    -0.0130 O.3   1 <1>  -0.4300 
 11 C       -4.9150    -1.4010     0.3110 C.ar  1 <1>   0.0530 
 12 C        4.4360     0.3440    -0.3770 C.3   1 <1>   0.1200 
 13 C       -5.6250    -0.4230    -0.3890 C.ar  1 <1>  -0.1500 
 14 C       -5.6100    -2.5520     0.6830 C.ar  1 <1>  -0.1500 
 15 C        4.8410    -0.3100    -1.6940 C.3   1 <1>  -0.2400 
 16 C       -6.9590    -0.5960    -0.7090 C.ar  1 <1>  -0.1500 
 17 C       -6.9440    -2.7310     0.3670 C.ar  1 <1>  -0.1500 
 18 C       -7.6300    -1.7480    -0.3380 C.ar  1 <1>   0.0830 
 19 O       -8.9340    -1.8380    -0.6920 O.3   1 <1>  -0.3630 
 20 C       -9.7130    -2.9610    -0.3490 C.3   1 <1>   0.1200 
 21 C      -11.1230    -2.7400    -0.8890 C.3   1 <1>  -0.2400 
 22 H        1.2320    -1.4340     1.2470 H     1 <1>   0.0800 
 23 H        0.8650    -0.1170     2.3590 H     1 <1>   0.0800 
 24 H       -2.8730     0.2290    -0.7630 H     1 <1>   0.2700 
 25 H        5.1360     0.1060     0.4060 H     1 <1>   0.0800 
 26 H        4.3610     1.4140    -0.4830 H     1 <1>   0.0800 
 27 H       -5.1440     0.4900    -0.6860 H     1 <1>   0.1500 
 28 H       -5.0900    -3.3200     1.2300 H     1 <1>   0.1500 
 29 H        4.9010    -1.3770    -1.5750 H     1 <1>   0.0800 
 30 H        5.8050     0.0550    -1.9980 H     1 <1>   0.0800 
 31 H        4.1270    -0.0720    -2.4620 H     1 <1>   0.0800 
 32 H       -7.4960     0.1640    -1.2490 H     1 <1>   0.1500 
 33 H       -7.4290    -3.6370     0.6780 H     1 <1>   0.1500 
 34 H       -9.7260    -3.0520     0.7230 H     1 <1>   0.0800 
 35 H       -9.2670    -3.8340    -0.7950 H     1 <1>   0.0800 
 36 H      -11.5510    -1.8560    -0.4510 H     1 <1>   0.0800 
 37 H      -11.7430    -3.5820    -0.6430 H     1 <1>   0.0800 
 38 H      -11.0960    -2.6330    -1.9590 H     1 <1>   0.0800 
@<TRIPOS>BOND
  1   1   2  1   
  2   1   3  1   
  3   2   4  2   
  4   2   5  1   
  5   3   6  1   
  6   3  22  1   
  7   3  23  1   
  8   4   7  1   
  9   5   8  1   
 10   5  24  1   
 11   6   9  2   
 12   6  10  1   
 13   7   8  2   
 14   8  11  1   
 15  10  12  1   
 16  11  13  ar  
 17  11  14  ar  
 18  12  15  1   
 19  12  25  1   
 20  12  26  1   
 21  13  16  ar  
 22  13  27  1   
 23  14  17  ar  
 24  14  28  1   
 25  15  29  1   
 26  15  30  1   
 27  15  31  1   
 28  16  18  ar  
 29  16  32  1   
 30  17  18  ar  
 31  17  33  1   
 32  18  19  1   
 33  19  20  1   
 34  20  21  1   
 35  20  34  1   
 36  20  35  1   
 37  21  36  1   
 38  21  37  1   
 39  21  38  1   
@<TRIPOS>SUBSTRUCTURE
  1 ****   5 GROUP 4 **** **** 0

# MOE 2024.06 (io_trps.svl 2023.06)
