@<TRIPOS>MOLECULE
NONAME
35 36 1 0 0 
SMALL
USER_CHARGES


@<TRIPOS>ATOM
  1 CL      -1.4400    -0.2900    -1.2640 Cl    1 <1>  -0.1770 
  2 C       -1.6160     1.3880    -0.8210 C.ar  1 <1>   0.1770 
  3 C       -0.4920     2.1860    -0.7430 C.ar  1 <1>  -0.1500 
  4 C       -2.8770     1.8880    -0.5580 C.ar  1 <1>  -0.1500 
  5 C       -0.6630     3.5110    -0.3920 C.ar  1 <1>   0.1770 
  6 C       -3.0440     3.2220    -0.2020 C.ar  1 <1>   0.1170 
  7 CL       0.7380     4.5470    -0.2900 Cl    1 <1>  -0.1770 
  8 C       -1.9140     4.0330    -0.1250 C.ar  1 <1>  -0.1500 
  9 N       -4.3420     3.6920     0.0500 N.am  1 <1>  -0.5470 
 10 C       -4.7880     4.7720     0.7660 C.2   1 <1>   0.5690 
 11 O       -4.0510     5.5240     1.3550 O.2   1 <1>  -0.5700 
 12 C       -6.2830     5.0420     0.8260 C.3   1 <1>   0.1310 
 13 S       -7.2690     3.4980     0.4930 S.3   1 <1>  -0.2860 
 14 C       -8.9570     4.1140     0.4760 C.2   1 <1>   0.2430 
 15 N       -9.2550     5.3550     0.6190 N.2   1 <1>  -0.3380 
 16 N      -10.0180     3.3240     0.3110 N.pl3 1 <1>   0.0480 
 17 N      -10.5880     5.4170     0.5460 N.2   1 <1>  -0.3380 
 18 C      -11.0210     4.2130     0.3650 C.2   1 <1>   0.0060 
 19 C      -10.0630     1.8570     0.1250 C.3   1 <1>   0.0960 
 20 C      -12.4890     3.8600     0.2290 C.3   1 <1>  -0.0600 
 21 C       -9.9620     1.4960    -1.3600 C.3   1 <1>  -0.2400 
 22 H        0.4850     1.7900    -0.9490 H     1 <1>   0.1500 
 23 H       -3.7240     1.2310    -0.6280 H     1 <1>   0.1500 
 24 H       -1.9970     5.0710     0.1390 H     1 <1>   0.1500 
 25 H       -5.0960     3.0990    -0.3020 H     1 <1>   0.3700 
 26 H       -6.5610     5.7680     0.0850 H     1 <1>   0.0800 
 27 H       -6.5640     5.3950     1.8010 H     1 <1>   0.0800 
 28 H      -10.9830     1.4810     0.5350 H     1 <1>   0.0800 
 29 H       -9.2490     1.4120     0.6690 H     1 <1>   0.0800 
 30 H      -12.7890     3.2070     1.0280 H     1 <1>   0.0800 
 31 H      -12.6700     3.3790    -0.7150 H     1 <1>   0.0800 
 32 H      -13.0840     4.7550     0.2770 H     1 <1>   0.0800 
 33 H      -10.7800     1.9280    -1.9100 H     1 <1>   0.0800 
 34 H       -9.9990     0.4280    -1.4780 H     1 <1>   0.0800 
 35 H       -9.0330     1.8510    -1.7700 H     1 <1>   0.0800 
@<TRIPOS>BOND
  1   1   2  1   
  2   2   3  ar  
  3   2   4  ar  
  4   3   5  ar  
  5   3  22  1   
  6   4   6  ar  
  7   4  23  1   
  8   5   7  1   
  9   5   8  ar  
 10   6   8  ar  
 11   6   9  1   
 12   8  24  1   
 13   9  10  am  
 14   9  25  1   
 15  10  11  2   
 16  10  12  1   
 17  12  13  1   
 18  12  26  1   
 19  12  27  1   
 20  13  14  1   
 21  14  15  2   
 22  14  16  1   
 23  15  17  1   
 24  16  18  1   
 25  16  19  1   
 26  17  18  2   
 27  18  20  1   
 28  19  21  1   
 29  19  28  1   
 30  19  29  1   
 31  20  30  1   
 32  20  31  1   
 33  20  32  1   
 34  21  33  1   
 35  21  34  1   
 36  21  35  1   
@<TRIPOS>SUBSTRUCTURE
  1 ****   9 GROUP 4 **** **** 0

# MOE 2024.06 (io_trps.svl 2023.06)
