@<TRIPOS>MOLECULE
NONAME
31 31 1 0 0 
SMALL
USER_CHARGES


@<TRIPOS>ATOM
  1 O        0.8980    -0.3530    -0.2440 O.3   1 <1>  -0.3630 
  2 C        2.0110    -1.1020    -0.1750 C.ar  1 <1>   0.7020 
  3 C       -0.3970    -0.9120    -0.1300 C.3   1 <1>   0.0400 
  4 N        1.8820    -2.3920     0.0100 N.ar  1 <1>  -0.6200 
  5 N        3.1250    -0.4400    -0.3030 N.ar  1 <1>  -0.6200 
  6 C        3.0250    -3.0170     0.0590 C.ar  1 <1>   0.7200 
  7 C        4.1830    -1.1960    -0.2340 C.ar  1 <1>   0.7200 
  8 N        4.2110    -2.4880    -0.0560 N.ar  1 <1>  -0.6200 
  9 N        2.9280    -4.3490     0.2470 N.pl3 1 <1>  -0.8690 
 10 N        5.3520    -0.5370    -0.3630 N.pl3 1 <1>  -0.8690 
 11 C        3.9910    -5.2150     0.7630 C.3   1 <1>   0.3470 
 12 C        6.6210    -1.1330    -0.7900 C.3   1 <1>   0.3470 
 13 C        3.3760    -6.0590     1.8570 C.2   1 <1>  -0.2880 
 14 C        7.1770    -0.2490    -1.8850 C.2   1 <1>  -0.2880 
 15 C        3.2270    -7.3880     1.8280 C.2   1 <1>  -0.3000 
 16 C        8.3120     0.4540    -1.8180 C.2   1 <1>  -0.3000 
 17 H       -1.1160    -0.1180    -0.2190 H     1 <1>   0.0800 
 18 H       -0.4880    -1.3870     0.8310 H     1 <1>   0.0800 
 19 H       -0.5370    -1.6280    -0.9200 H     1 <1>   0.0800 
 20 H        1.9840    -4.6880     0.4170 H     1 <1>   0.4000 
 21 H        5.2520     0.4520    -0.5830 H     1 <1>   0.4000 
 22 H        4.8080    -4.6350     1.1590 H     1 <1>   0.0800 
 23 H        4.3600    -5.8380    -0.0340 H     1 <1>   0.0800 
 24 H        6.4730    -2.1340    -1.1620 H     1 <1>   0.0800 
 25 H        7.2960    -1.1690     0.0480 H     1 <1>   0.0800 
 26 H        3.0590    -5.4590     2.6930 H     1 <1>   0.1500 
 27 H        6.5410    -0.2440    -2.7540 H     1 <1>   0.1500 
 28 H        2.7840    -7.9590     2.6260 H     1 <1>   0.1500 
 29 H        3.5310    -8.0160     1.0080 H     1 <1>   0.1500 
 30 H        8.6790     1.0750    -2.6180 H     1 <1>   0.1500 
 31 H        8.9680     0.4720    -0.9650 H     1 <1>   0.1500 
@<TRIPOS>BOND
  1   1   2  1   
  2   1   3  1   
  3   2   4  ar  
  4   2   5  ar  
  5   3  17  1   
  6   3  18  1   
  7   3  19  1   
  8   4   6  ar  
  9   5   7  ar  
 10   6   8  ar  
 11   6   9  1   
 12   7   8  ar  
 13   7  10  1   
 14   9  11  1   
 15   9  20  1   
 16  10  12  1   
 17  10  21  1   
 18  11  13  1   
 19  11  22  1   
 20  11  23  1   
 21  12  14  1   
 22  12  24  1   
 23  12  25  1   
 24  13  15  2   
 25  13  26  1   
 26  14  16  2   
 27  14  27  1   
 28  15  28  1   
 29  15  29  1   
 30  16  30  1   
 31  16  31  1   
@<TRIPOS>SUBSTRUCTURE
  1 ****   8 GROUP 4 **** **** 0

# MOE 2024.06 (io_trps.svl 2023.06)
