@<TRIPOS>MOLECULE
NONAME
38 39 1 0 0 
SMALL
USER_CHARGES


@<TRIPOS>ATOM
  1 S       -0.7290    -0.0650    -1.3280 S.3   1 <1>  -0.0800 
  2 C       -1.1120    -1.1220     0.0130 C.2   1 <1>  -0.1400 
  3 C       -2.2220     0.8070    -1.1170 C.2   1 <1>  -0.1100 
  4 C       -2.3060    -0.8000     0.5520 C.2   1 <1>  -0.1810 
  5 C       -0.0610    -2.1730     0.3220 C.3   1 <1>  -0.0600 
  6 C       -2.9680     0.3150    -0.0970 C.2   1 <1>  -0.0860 
  7 C       -2.9360    -1.5170     1.7390 C.3   1 <1>  -0.0590 
  8 C       -4.2670     0.8510     0.2680 C.2   1 <1>   0.7160 
  9 O       -4.7110     0.8050     1.4020 O.2   1 <1>  -0.5700 
 10 N       -5.1100     1.3690    -0.6880 N.am  1 <1>  -0.6600 
 11 C       -6.0460     2.4840    -0.3410 C.3   1 <1>   0.1400 
 12 C       -5.4830     0.5510    -1.8670 C.3   1 <1>   0.1400 
 13 C       -7.4280     1.9980     0.1500 C.3   1 <1>   0.3430 
 14 C       -6.3200    -0.6540    -1.4140 C.3   1 <1>  -0.1600 
 15 N       -7.4380     0.5400     0.4960 N.4   1 <1>  -0.9590 
 16 C       -7.6400    -0.3220    -0.7060 C.3   1 <1>   0.3430 
 17 C       -8.4210     0.2360     1.5750 C.3   1 <1>   0.2630 
 18 H       -2.4060     1.6240    -1.7910 H     1 <1>   0.1500 
 19 H        0.8740    -1.6930     0.5460 H     1 <1>   0.0800 
 20 H        0.0740    -2.8120    -0.5310 H     1 <1>   0.0800 
 21 H       -0.3440    -2.7770     1.1630 H     1 <1>   0.0800 
 22 H       -2.3490    -2.3620     2.0460 H     1 <1>   0.0800 
 23 H       -3.9180    -1.8680     1.4820 H     1 <1>   0.0800 
 24 H       -3.0120    -0.8430     2.5740 H     1 <1>   0.0800 
 25 H       -6.1700     3.1320    -1.1910 H     1 <1>   0.0800 
 26 H       -5.6000     3.0770     0.4400 H     1 <1>   0.0800 
 27 H       -4.5910     0.2010    -2.3610 H     1 <1>   0.0800 
 28 H       -6.0330     1.1500    -2.5730 H     1 <1>   0.0800 
 29 H       -8.1680     2.1980    -0.6070 H     1 <1>   0.0800 
 30 H       -7.6920     2.5800     1.0180 H     1 <1>   0.0800 
 31 H       -5.7250    -1.2900    -0.7820 H     1 <1>   0.0800 
 32 H       -6.5560    -1.2350    -2.2880 H     1 <1>   0.0800 
 33 H       -6.4790     0.3580     0.8670 H     1 <1>   0.4500 
 34 H       -8.0980    -1.2510    -0.4050 H     1 <1>   0.0800 
 35 H       -8.3110     0.1660    -1.3940 H     1 <1>   0.0800 
 36 H       -9.4240     0.4460     1.2420 H     1 <1>   0.0800 
 37 H       -8.2100     0.8340     2.4480 H     1 <1>   0.0800 
 38 H       -8.3580    -0.8030     1.8540 H     1 <1>   0.0800 
@<TRIPOS>BOND
  1   1   2  1   
  2   1   3  1   
  3   2   4  2   
  4   2   5  1   
  5   3   6  2   
  6   3  18  1   
  7   4   6  1   
  8   4   7  1   
  9   5  19  1   
 10   5  20  1   
 11   5  21  1   
 12   6   8  1   
 13   7  22  1   
 14   7  23  1   
 15   7  24  1   
 16   8   9  2   
 17   8  10  am  
 18  10  11  1   
 19  10  12  1   
 20  11  13  1   
 21  11  25  1   
 22  11  26  1   
 23  12  14  1   
 24  12  27  1   
 25  12  28  1   
 26  13  15  1   
 27  13  29  1   
 28  13  30  1   
 29  14  16  1   
 30  14  31  1   
 31  14  32  1   
 32  15  16  1   
 33  15  17  1   
 34  15  33  1   
 35  16  34  1   
 36  16  35  1   
 37  17  36  1   
 38  17  37  1   
 39  17  38  1   
@<TRIPOS>SUBSTRUCTURE
  1 ****   8 GROUP 4 **** **** 0

# MOE 2024.06 (io_trps.svl 2023.06)
