@<TRIPOS>MOLECULE
NONAME
29 29 1 0 0 
SMALL
USER_CHARGES


@<TRIPOS>ATOM
  1 S       -0.2110     0.1640     0.4530 S.o2  1 <1>   1.4470 
  2 O       -0.4630     0.9950    -0.7020 O.2   1 <1>  -0.6500 
  3 O       -0.3120     0.7080     1.7860 O.2   1 <1>  -0.6500 
  4 N       -1.3900    -1.0290     0.4700 N.am  1 <1>  -0.9140 
  5 C        1.3320    -0.7500     0.2330 C.ar  1 <1>  -0.0090 
  6 C       -2.6700    -0.5720    -0.0400 C.3   1 <1>   0.1960 
  7 C        2.5500    -0.1210     0.4540 C.ar  1 <1>   0.1900 
  8 C        1.3760    -2.0800    -0.1790 C.ar  1 <1>  -0.1500 
  9 C       -3.7050    -1.6740     0.1780 C.3   1 <1>  -0.1600 
 10 F        2.5600     1.1310     0.8240 F     1 <1>  -0.1900 
 11 C        3.7770    -0.7480     0.3010 C.ar  1 <1>  -0.1500 
 12 C        2.5990    -2.7100    -0.3330 C.ar  1 <1>   0.1900 
 13 C       -5.0810    -1.2550    -0.3570 C.3   1 <1>  -0.1600 
 14 C        3.8040    -2.0720    -0.1000 C.ar  1 <1>  -0.1500 
 15 F        2.6160    -3.9580    -0.7150 F     1 <1>  -0.1900 
 16 C       -6.1160    -2.3620    -0.1390 C.3   1 <1>  -0.2400 
 17 H       -1.5200    -1.1960     1.4670 H     1 <1>   0.4200 
 18 H       -2.5850    -0.3540    -1.0930 H     1 <1>   0.0800 
 19 H       -2.9730     0.3280     0.4740 H     1 <1>   0.0800 
 20 H        0.4730    -2.6290    -0.3840 H     1 <1>   0.1500 
 21 H       -3.7850    -1.8890     1.2290 H     1 <1>   0.0800 
 22 H       -3.3820    -2.5640    -0.3340 H     1 <1>   0.0800 
 23 H        4.6870    -0.2050     0.4910 H     1 <1>   0.1500 
 24 H       -5.0110    -1.0400    -1.4100 H     1 <1>   0.0800 
 25 H       -5.4100    -0.3610     0.1460 H     1 <1>   0.0800 
 26 H        4.7320    -2.6000    -0.2320 H     1 <1>   0.1500 
 27 H       -5.8200    -3.2610    -0.6510 H     1 <1>   0.0800 
 28 H       -7.0730    -2.0520    -0.5210 H     1 <1>   0.0800 
 29 H       -6.2220    -2.5800     0.9090 H     1 <1>   0.0800 
@<TRIPOS>BOND
  1   1   2  2   
  2   1   3  2   
  3   1   4  am  
  4   1   5  1   
  5   4   6  1   
  6   4  17  1   
  7   5   7  ar  
  8   5   8  ar  
  9   6   9  1   
 10   6  18  1   
 11   6  19  1   
 12   7  10  1   
 13   7  11  ar  
 14   8  12  ar  
 15   8  20  1   
 16   9  13  1   
 17   9  21  1   
 18   9  22  1   
 19  11  14  ar  
 20  11  23  1   
 21  12  14  ar  
 22  12  15  1   
 23  13  16  1   
 24  13  24  1   
 25  13  25  1   
 26  14  26  1   
 27  16  27  1   
 28  16  28  1   
 29  16  29  1   
@<TRIPOS>SUBSTRUCTURE
  1 ****   1 GROUP 4 **** **** 0

# MOE 2024.06 (io_trps.svl 2023.06)
