@<TRIPOS>MOLECULE
NONAME
40 41 1 0 0 
SMALL
USER_CHARGES


@<TRIPOS>ATOM
  1 S        0.2030     0.3410     0.4390 S.o2  1 <1>   1.3330 
  2 O        1.3060    -0.0010     1.2990 O.2   1 <1>  -0.6500 
  3 O       -0.3490     1.6710     0.4070 O.2   1 <1>  -0.6500 
  4 N       -1.0390    -0.7450     0.9110 N.am  1 <1>  -0.7570 
  5 C        0.5730    -0.2090    -1.2130 C.3   1 <1>  -0.1350 
  6 C       -2.3850    -0.7650     0.5860 C.ar  1 <1>   0.1990 
  7 C       -3.1990    -1.7340     1.1630 C.ar  1 <1>  -0.1500 
  8 C       -2.9740     0.1320    -0.3010 C.ar  1 <1>  -0.1500 
  9 C       -4.5470    -1.8000     0.8710 C.ar  1 <1>  -0.1500 
 10 C       -4.3220     0.0630    -0.5920 C.ar  1 <1>  -0.1500 
 11 C       -5.1480    -0.8980    -0.0070 C.ar  1 <1>   0.0860 
 12 C       -6.5660    -0.9710    -0.2970 C.2   1 <1>   0.5440 
 13 O       -7.0560    -2.0530    -0.5670 O.2   1 <1>  -0.5700 
 14 N       -7.3830     0.1450    -0.2720 N.am  1 <1>  -0.6600 
 15 C       -7.0150     1.3540     0.5250 C.3   1 <1>   0.1400 
 16 C       -8.7260     0.0650    -0.9210 C.3   1 <1>   0.1400 
 17 C       -8.1700     1.9040     1.3710 C.3   1 <1>  -0.1600 
 18 C       -9.2260     1.4020    -1.4830 C.3   1 <1>  -0.1600 
 19 C       -9.0540     2.8990     0.6060 C.3   1 <1>  -0.1600 
 20 C       -9.9660     2.2520    -0.4410 C.3   1 <1>  -0.1600 
 21 H       -0.7060    -1.3310     1.6710 H     1 <1>   0.4200 
 22 H        1.3750     0.3730    -1.6210 H     1 <1>   0.0800 
 23 H       -0.2870    -0.1010    -1.8430 H     1 <1>   0.0800 
 24 H        0.8670    -1.2400    -1.2030 H     1 <1>   0.0800 
 25 H       -2.7710    -2.4440     1.8470 H     1 <1>   0.1500 
 26 H       -2.3840     0.8980    -0.7690 H     1 <1>   0.1500 
 27 H       -5.1610    -2.5620     1.3230 H     1 <1>   0.1500 
 28 H       -4.7540     0.7620    -1.2870 H     1 <1>   0.1500 
 29 H       -6.6470     2.1180    -0.1370 H     1 <1>   0.0800 
 30 H       -6.2170     1.0990     1.2000 H     1 <1>   0.0800 
 31 H       -9.4350    -0.3340    -0.2160 H     1 <1>   0.0800 
 32 H       -8.6650    -0.6330    -1.7390 H     1 <1>   0.0800 
 33 H       -7.7340     2.4380     2.1970 H     1 <1>   0.0800 
 34 H       -8.7510     1.0990     1.7850 H     1 <1>   0.0800 
 35 H       -9.9310     1.1720    -2.2630 H     1 <1>   0.0800 
 36 H       -8.4180     1.9480    -1.9370 H     1 <1>   0.0800 
 37 H       -8.4320     3.6380     0.1290 H     1 <1>   0.0800 
 38 H       -9.6760     3.4190     1.3140 H     1 <1>   0.0800 
 39 H      -10.7040     1.6450     0.0570 H     1 <1>   0.0800 
 40 H      -10.4960     3.0370    -0.9530 H     1 <1>   0.0800 
@<TRIPOS>BOND
  1   1   2  2   
  2   1   3  2   
  3   1   4  am  
  4   1   5  1   
  5   4   6  1   
  6   4  21  1   
  7   5  22  1   
  8   5  23  1   
  9   5  24  1   
 10   6   7  ar  
 11   6   8  ar  
 12   7   9  ar  
 13   7  25  1   
 14   8  10  ar  
 15   8  26  1   
 16   9  11  ar  
 17   9  27  1   
 18  10  11  ar  
 19  10  28  1   
 20  11  12  1   
 21  12  13  2   
 22  12  14  am  
 23  14  15  1   
 24  14  16  1   
 25  15  17  1   
 26  15  29  1   
 27  15  30  1   
 28  16  18  1   
 29  16  31  1   
 30  16  32  1   
 31  17  19  1   
 32  17  33  1   
 33  17  34  1   
 34  18  20  1   
 35  18  35  1   
 36  18  36  1   
 37  19  20  1   
 38  19  37  1   
 39  19  38  1   
 40  20  39  1   
 41  20  40  1   
@<TRIPOS>SUBSTRUCTURE
  1 ****  10 GROUP 4 **** **** 0

# MOE 2024.06 (io_trps.svl 2023.06)
