@<TRIPOS>MOLECULE
NONAME
35 36 1 0 0 
SMALL
USER_CHARGES


@<TRIPOS>ATOM
  1 F        0.1410     4.2730     2.4210 F     1 <1>  -0.1900 
  2 C        1.1530     4.0560     1.6240 C.ar  1 <1>   0.1900 
  3 C        1.2010     2.8690     0.9200 C.ar  1 <1>  -0.1500 
  4 C        2.1360     5.0180     1.5190 C.ar  1 <1>  -0.1500 
  5 C        2.2740     2.6270     0.0750 C.ar  1 <1>  -0.1440 
  6 C        3.2080     4.7790     0.6770 C.ar  1 <1>  -0.1500 
  7 C        3.2820     3.5870    -0.0460 C.ar  1 <1>   0.0830 
  8 C        2.3130     1.3150    -0.7050 C.3   1 <1>  -0.0160 
  9 O        4.3280     3.3130    -0.8700 O.3   1 <1>  -0.3630 
 10 C        3.0240     0.2100     0.0940 C.3   1 <1>  -0.0800 
 11 C        5.0720     4.3640    -1.4530 C.3   1 <1>   0.0400 
 12 C        4.4460     0.6470     0.4780 C.3   1 <1>   0.3430 
 13 C        3.0490    -1.1050    -0.7060 C.3   1 <1>  -0.1600 
 14 N        5.1540    -0.4480     1.2030 N.4   1 <1>  -0.9060 
 15 C        3.8530    -2.1840     0.0340 C.3   1 <1>  -0.1600 
 16 C        5.2570    -1.6960     0.4010 C.3   1 <1>   0.3430 
 17 H        0.4020     2.1580     1.0370 H     1 <1>   0.1500 
 18 H        2.0600     5.9300     2.0840 H     1 <1>   0.1500 
 19 H        3.9750     5.5270     0.6010 H     1 <1>   0.1500 
 20 H        2.8030     1.4680    -1.6520 H     1 <1>   0.0800 
 21 H        1.3050     1.0070    -0.9240 H     1 <1>   0.0800 
 22 H        2.4640     0.0550     1.0010 H     1 <1>   0.0800 
 23 H        5.7000     3.9470    -2.2200 H     1 <1>   0.0800 
 24 H        5.6810     4.8280    -0.6980 H     1 <1>   0.0800 
 25 H        4.3920     5.0760    -1.8880 H     1 <1>   0.0800 
 26 H        4.3940     1.5270     1.1000 H     1 <1>   0.0800 
 27 H        4.9900     0.9070    -0.4170 H     1 <1>   0.0800 
 28 H        3.4940    -0.9340    -1.6730 H     1 <1>   0.0800 
 29 H        2.0420    -1.4550    -0.8680 H     1 <1>   0.0800 
 30 H        4.6410    -0.6470     2.0690 H     1 <1>   0.4500 
 31 H        6.0910    -0.1250     1.4730 H     1 <1>   0.4500 
 32 H        3.9380    -3.0550    -0.5930 H     1 <1>   0.0800 
 33 H        3.3320    -2.4840     0.9280 H     1 <1>   0.0800 
 34 H        5.7720    -2.4590     0.9630 H     1 <1>   0.0800 
 35 H        5.8160    -1.5040    -0.5020 H     1 <1>   0.0800 
@<TRIPOS>BOND
  1   1   2  1   
  2   2   3  ar  
  3   2   4  ar  
  4   3   5  ar  
  5   3  17  1   
  6   4   6  ar  
  7   4  18  1   
  8   5   7  ar  
  9   5   8  1   
 10   6   7  ar  
 11   6  19  1   
 12   7   9  1   
 13   8  10  1   
 14   8  20  1   
 15   8  21  1   
 16   9  11  1   
 17  10  12  1   
 18  10  13  1   
 19  10  22  1   
 20  11  23  1   
 21  11  24  1   
 22  11  25  1   
 23  12  14  1   
 24  12  26  1   
 25  12  27  1   
 26  13  15  1   
 27  13  28  1   
 28  13  29  1   
 29  14  16  1   
 30  14  30  1   
 31  14  31  1   
 32  15  16  1   
 33  15  32  1   
 34  15  33  1   
 35  16  34  1   
 36  16  35  1   
@<TRIPOS>SUBSTRUCTURE
  1 ****   5 GROUP 4 **** **** 0

# MOE 2024.06 (io_trps.svl 2023.06)
