@<TRIPOS>MOLECULE
NONAME
35 35 1 0 0 
SMALL
USER_CHARGES


@<TRIPOS>ATOM
  1 CL      -0.3240    -0.3290    -0.1390 Cl    1 <1>  -0.1770 
  2 C       -0.0510     1.3940    -0.0690 C.ar  1 <1>   0.1770 
  3 C        1.2470     1.8690    -0.0600 C.ar  1 <1>  -0.1500 
  4 C       -1.1380     2.2470    -0.0240 C.ar  1 <1>  -0.1500 
  5 C        1.4620     3.2430    -0.0040 C.ar  1 <1>   0.0830 
  6 C       -0.9210     3.6140     0.0320 C.ar  1 <1>  -0.1500 
  7 O        2.6920     3.8130     0.0100 O.3   1 <1>  -0.3630 
  8 C        0.3740     4.1040     0.0420 C.ar  1 <1>  -0.1500 
  9 C        3.8630     3.0360    -0.0330 C.3   1 <1>   0.1200 
 10 C        5.0510     4.0000    -0.0020 C.3   1 <1>  -0.1600 
 11 C        6.3950     3.2590    -0.0450 C.3   1 <1>  -0.1600 
 12 C        7.5530     4.2550    -0.0130 C.3   1 <1>   0.3430 
 13 N        8.8360     3.5140    -0.0550 N.4   1 <1>  -0.9060 
 14 C       10.0070     4.4410    -0.0260 C.3   1 <1>   0.3430 
 15 C       11.3390     3.6820    -0.0700 C.3   1 <1>   0.1200 
 16 O       12.3500     4.6220    -0.0380 O.3   1 <1>  -0.6800 
 17 H        2.0500     1.1610    -0.0970 H     1 <1>   0.1500 
 18 H       -2.1350     1.8450    -0.0320 H     1 <1>   0.1500 
 19 H       -1.7560     4.2930     0.0680 H     1 <1>   0.1500 
 20 H        0.5500     5.1640     0.0850 H     1 <1>   0.1500 
 21 H        3.8540     2.4600    -0.9420 H     1 <1>   0.0800 
 22 H        3.8690     2.3850     0.8250 H     1 <1>   0.0800 
 23 H        4.9880     4.5880     0.8980 H     1 <1>   0.0800 
 24 H        4.9730     4.6620    -0.8490 H     1 <1>   0.0800 
 25 H        6.4410     2.6740    -0.9480 H     1 <1>   0.0800 
 26 H        6.4560     2.6000     0.8040 H     1 <1>   0.0800 
 27 H        7.4960     4.8460     0.8880 H     1 <1>   0.0800 
 28 H        7.4810     4.9200    -0.8600 H     1 <1>   0.0800 
 29 H        8.8670     2.9430    -0.9090 H     1 <1>   0.4500 
 30 H        8.8820     2.8720     0.7460 H     1 <1>   0.4500 
 31 H        9.9800     5.0330     0.8750 H     1 <1>   0.0800 
 32 H        9.9650     5.1070    -0.8720 H     1 <1>   0.0800 
 33 H       11.4380     3.1170    -0.9810 H     1 <1>   0.0800 
 34 H       11.4540     3.0410     0.7880 H     1 <1>   0.0800 
 35 H       13.2390     4.2070    -0.0640 H     1 <1>   0.4000 
@<TRIPOS>BOND
  1   1   2  1   
  2   2   3  ar  
  3   2   4  ar  
  4   3   5  ar  
  5   3  17  1   
  6   4   6  ar  
  7   4  18  1   
  8   5   7  1   
  9   5   8  ar  
 10   6   8  ar  
 11   6  19  1   
 12   7   9  1   
 13   8  20  1   
 14   9  10  1   
 15   9  21  1   
 16   9  22  1   
 17  10  11  1   
 18  10  23  1   
 19  10  24  1   
 20  11  12  1   
 21  11  25  1   
 22  11  26  1   
 23  12  13  1   
 24  12  27  1   
 25  12  28  1   
 26  13  14  1   
 27  13  29  1   
 28  13  30  1   
 29  14  15  1   
 30  14  31  1   
 31  14  32  1   
 32  15  16  1   
 33  15  33  1   
 34  15  34  1   
 35  16  35  1   
@<TRIPOS>SUBSTRUCTURE
  1 ****   9 GROUP 4 **** **** 0

# MOE 2024.06 (io_trps.svl 2023.06)
