@<TRIPOS>MOLECULE
NONAME
39 40 1 0 0 
SMALL
USER_CHARGES


@<TRIPOS>ATOM
  1 O        3.8960     2.2250    -0.4780 O.2   1 <1>  -0.5700 
  2 C        2.7200     2.0150    -0.6980 C.2   1 <1>   0.5690 
  3 N        1.7520     2.8470    -0.1530 N.am  1 <1>  -0.2980 
  4 C        2.3380     0.7920    -1.5870 C.3   1 <1>   0.0610 
  5 N        0.3820     2.6510    -0.0740 N.2   1 <1>  -0.5120 
  6 C        2.1300     4.1260     0.4960 C.3   1 <1>   0.7240 
  7 C        1.4590     1.2150    -2.7820 C.3   1 <1>  -0.2400 
  8 C        1.6010    -0.2870    -0.7680 C.3   1 <1>  -0.2400 
  9 C        3.5970     0.1190    -2.1820 C.3   1 <1>  -0.2400 
 10 C       -0.1420     3.5870     0.5810 C.2   1 <1>   0.3280 
 11 O        2.9830     3.8200     1.5300 O.3   1 <1>  -0.6800 
 12 C        2.7660     5.1390    -0.4740 C.ar  1 <1>  -0.1440 
 13 C        0.8130     4.6420     1.0700 C.3   1 <1>  -0.0990 
 14 C       -1.6140     3.7250     0.8930 C.3   1 <1>  -0.1790 
 15 C        2.3250     5.2180    -1.7920 C.ar  1 <1>  -0.1500 
 16 C        3.7700     6.0090    -0.0610 C.ar  1 <1>  -0.1500 
 17 C        2.8770     6.1330    -2.6720 C.ar  1 <1>  -0.1500 
 18 C        4.3220     6.9250    -0.9400 C.ar  1 <1>  -0.1500 
 19 C        3.8770     6.9870    -2.2470 C.ar  1 <1>  -0.1500 
 20 H        1.2660     0.3770    -3.4280 H     1 <1>   0.0800 
 21 H        1.9540     1.9810    -3.3520 H     1 <1>   0.0800 
 22 H        0.5120     1.5990    -2.4500 H     1 <1>   0.0800 
 23 H        0.6620     0.0820    -0.4000 H     1 <1>   0.0800 
 24 H        2.1990    -0.5840     0.0750 H     1 <1>   0.0800 
 25 H        1.4030    -1.1550    -1.3710 H     1 <1>   0.0800 
 26 H        4.1510     0.8250    -2.7760 H     1 <1>   0.0800 
 27 H        3.3340    -0.7180    -2.8030 H     1 <1>   0.0800 
 28 H        4.2410    -0.2330    -1.3950 H     1 <1>   0.0800 
 29 H        3.6910     3.2820     1.1100 H     1 <1>   0.4000 
 30 H        0.5590     5.6000     0.6590 H     1 <1>   0.0800 
 31 H        0.8320     4.6870     2.1420 H     1 <1>   0.0800 
 32 H       -1.7630     3.7330     1.9570 H     1 <1>   0.0800 
 33 H       -2.1540     2.8940     0.4740 H     1 <1>   0.0800 
 34 H       -1.9970     4.6360     0.4720 H     1 <1>   0.0800 
 35 H        1.5460     4.5650    -2.1470 H     1 <1>   0.1500 
 36 H        4.1330     5.9820     0.9530 H     1 <1>   0.1500 
 37 H        2.5280     6.1790    -3.6890 H     1 <1>   0.1500 
 38 H        5.1010     7.5880    -0.6050 H     1 <1>   0.1500 
 39 H        4.3070     7.6970    -2.9310 H     1 <1>   0.1500 
@<TRIPOS>BOND
  1   1   2  2   
  2   2   3  am  
  3   2   4  1   
  4   3   5  1   
  5   3   6  1   
  6   4   7  1   
  7   4   8  1   
  8   4   9  1   
  9   5  10  2   
 10   6  11  1   
 11   6  12  1   
 12   6  13  1   
 13   7  20  1   
 14   7  21  1   
 15   7  22  1   
 16   8  23  1   
 17   8  24  1   
 18   8  25  1   
 19   9  26  1   
 20   9  27  1   
 21   9  28  1   
 22  10  13  1   
 23  10  14  1   
 24  11  29  1   
 25  12  15  ar  
 26  12  16  ar  
 27  13  30  1   
 28  13  31  1   
 29  14  32  1   
 30  14  33  1   
 31  14  34  1   
 32  15  17  ar  
 33  15  35  1   
 34  16  18  ar  
 35  16  36  1   
 36  17  19  ar  
 37  17  37  1   
 38  18  19  ar  
 39  18  38  1   
 40  19  39  1   
@<TRIPOS>SUBSTRUCTURE
  1 ****   3 GROUP 4 **** **** 0

# MOE 2024.06 (io_trps.svl 2023.06)
