@<TRIPOS>MOLECULE
NONAME
54 56 1 0 0 
SMALL
USER_CHARGES


@<TRIPOS>ATOM
  1 S        0.2680    -0.1550    -0.9610 S.o2  1 <1>   1.3330 
  2 O        1.2930    -0.4100    -1.9510 O.2   1 <1>  -0.6500 
  3 O       -0.9920     0.3980    -1.3980 O.2   1 <1>  -0.6500 
  4 N        0.0040    -1.6010    -0.1100 N.am  1 <1>  -0.8490 
  5 C        0.9070     0.9340     0.2970 C.3   1 <1>  -0.1350 
  6 C       -1.3500    -2.1600    -0.3190 C.3   1 <1>   0.2760 
  7 C        1.1600    -2.5520    -0.1460 C.3   1 <1>   0.2570 
  8 C       -2.2910    -1.5270     0.7210 C.3   1 <1>  -0.1600 
  9 C       -1.4500    -3.6970    -0.2170 C.3   1 <1>  -0.1600 
 10 C        2.5030    -2.0230     0.3870 C.2   1 <1>   0.5690 
 11 C       -3.7410    -2.0010     0.5450 C.3   1 <1>  -0.1600 
 12 C       -2.8950    -4.1810    -0.4150 C.3   1 <1>  -0.1600 
 13 O        2.7470    -2.1540     1.5620 O.2   1 <1>  -0.5700 
 14 N        3.3650    -1.4190    -0.4890 N.am  1 <1>  -0.5470 
 15 C       -3.8380    -3.5290     0.6020 C.3   1 <1>  -0.1600 
 16 C        4.6300    -0.8450    -0.2990 C.ar  1 <1>   0.1170 
 17 C        5.4840    -1.2150     0.7360 C.ar  1 <1>  -0.1500 
 18 C        5.0530     0.1290    -1.1960 C.ar  1 <1>  -0.1500 
 19 C        6.7240    -0.6180     0.8780 C.ar  1 <1>  -0.1500 
 20 C        6.2920     0.7300    -1.0600 C.ar  1 <1>  -0.1500 
 21 C        7.1290     0.3620    -0.0150 C.ar  1 <1>   0.0820 
 22 O        8.3540     0.9230     0.1530 O.3   1 <1>  -0.1650 
 23 C        8.5590     2.2530    -0.0260 C.ar  1 <1>   0.0820 
 24 C        7.6030     3.2010     0.3250 C.ar  1 <1>  -0.1500 
 25 C        9.7700     2.6610    -0.5630 C.ar  1 <1>  -0.1500 
 26 C        7.8590     4.5460     0.1250 C.ar  1 <1>  -0.1500 
 27 C       10.0230     4.0070    -0.7620 C.ar  1 <1>  -0.1500 
 28 C        9.0670     4.9490    -0.4200 C.ar  1 <1>  -0.1500 
 29 H        1.8150     0.5520     0.7160 H     1 <1>   0.0800 
 30 H        0.1870     1.0430     1.0840 H     1 <1>   0.0800 
 31 H        1.1040     1.9010    -0.1220 H     1 <1>   0.0800 
 32 H       -1.6940    -1.8980    -1.3070 H     1 <1>   0.0800 
 33 H        1.3010    -2.9030    -1.1530 H     1 <1>   0.0800 
 34 H        0.9420    -3.4040     0.4690 H     1 <1>   0.0800 
 35 H       -2.2740    -0.4560     0.6360 H     1 <1>   0.0800 
 36 H       -1.9510    -1.7880     1.7080 H     1 <1>   0.0800 
 37 H       -1.1210    -4.0200     0.7560 H     1 <1>   0.0800 
 38 H       -0.8400    -4.1580    -0.9720 H     1 <1>   0.0800 
 39 H       -4.1140    -1.6530    -0.4040 H     1 <1>   0.0800 
 40 H       -4.3560    -1.5710     1.3160 H     1 <1>   0.0800 
 41 H       -2.9360    -5.2510    -0.3080 H     1 <1>   0.0800 
 42 H       -3.2220    -3.9370    -1.4120 H     1 <1>   0.0800 
 43 H        2.9340    -1.1920    -1.3960 H     1 <1>   0.3700 
 44 H       -4.8510    -3.8340     0.4030 H     1 <1>   0.0800 
 45 H       -3.5820    -3.8650     1.5930 H     1 <1>   0.0800 
 46 H        5.1850    -1.9740     1.4350 H     1 <1>   0.1500 
 47 H        4.4100     0.4220    -2.0070 H     1 <1>   0.1500 
 48 H        7.3790    -0.9070     1.6800 H     1 <1>   0.1500 
 49 H        6.6100     1.4780    -1.7650 H     1 <1>   0.1500 
 50 H        6.6690     2.8920     0.7590 H     1 <1>   0.1500 
 51 H       10.5080     1.9240    -0.8230 H     1 <1>   0.1500 
 52 H        7.1200     5.2810     0.3950 H     1 <1>   0.1500 
 53 H       10.9630     4.3220    -1.1810 H     1 <1>   0.1500 
 54 H        9.2640     5.9960    -0.5750 H     1 <1>   0.1500 
@<TRIPOS>BOND
  1   1   2  2   
  2   1   3  2   
  3   1   4  am  
  4   1   5  1   
  5   4   6  1   
  6   4   7  1   
  7   5  29  1   
  8   5  30  1   
  9   5  31  1   
 10   6   8  1   
 11   6   9  1   
 12   6  32  1   
 13   7  10  1   
 14   7  33  1   
 15   7  34  1   
 16   8  11  1   
 17   8  35  1   
 18   8  36  1   
 19   9  12  1   
 20   9  37  1   
 21   9  38  1   
 22  10  13  2   
 23  10  14  am  
 24  11  15  1   
 25  11  39  1   
 26  11  40  1   
 27  12  15  1   
 28  12  41  1   
 29  12  42  1   
 30  14  16  1   
 31  14  43  1   
 32  15  44  1   
 33  15  45  1   
 34  16  17  ar  
 35  16  18  ar  
 36  17  19  ar  
 37  17  46  1   
 38  18  20  ar  
 39  18  47  1   
 40  19  21  ar  
 41  19  48  1   
 42  20  21  ar  
 43  20  49  1   
 44  21  22  1   
 45  22  23  1   
 46  23  24  ar  
 47  23  25  ar  
 48  24  26  ar  
 49  24  50  1   
 50  25  27  ar  
 51  25  51  1   
 52  26  28  ar  
 53  26  52  1   
 54  27  28  ar  
 55  27  53  1   
 56  28  54  1   
@<TRIPOS>SUBSTRUCTURE
  1 ****  14 GROUP 4 **** **** 0

# MOE 2024.06 (io_trps.svl 2023.06)
