@<TRIPOS>MOLECULE
NONAME
41 44 1 0 0 
SMALL
USER_CHARGES


@<TRIPOS>ATOM
  1 S       -0.1070     0.6450     0.0270 S.3   1 <1>  -0.3320 
  2 C        1.6740     0.4720     0.0600 C.ar  1 <1>   0.7220 
  3 C       -0.7550    -1.0860    -0.0510 C.3   1 <1>   0.0700 
  4 N        2.1480    -0.7980     0.0250 N.ar  1 <1>  -0.3100 
  5 N        2.3530     1.5910     0.1160 N.ar  1 <1>  -0.5670 
  6 C       -2.2840    -1.0130    -0.0970 C.3   1 <1>  -0.0990 
  7 N        3.4330    -1.0120     0.0460 N.ar  1 <1>  -0.2560 
  8 C        3.6630     1.3510     0.1360 C.ar  1 <1>   0.1050 
  9 C       -2.9420    -2.3800    -0.1780 C.2   1 <1>   0.5690 
 10 C        4.2050     0.0790     0.1020 C.ar  1 <1>   0.2560 
 11 N        4.6710     2.2680     0.1910 N.pl3 1 <1>   0.0330 
 12 O       -2.2430    -3.3600    -0.0690 O.2   1 <1>  -0.5700 
 13 N       -4.2960    -2.4830    -0.3690 N.am  1 <1>  -0.6600 
 14 C        5.6190     0.2280     0.1390 C.ar  1 <1>   0.0000 
 15 C        5.8770     1.5950     0.1940 C.ar  1 <1>  -0.1520 
 16 C       -4.9630    -3.8150    -0.5050 C.3   1 <1>   0.1400 
 17 C       -5.2580    -1.3420    -0.4520 C.3   1 <1>   0.1400 
 18 C        6.6810    -0.6770     0.1300 C.ar  1 <1>  -0.1500 
 19 C        7.1840     2.0770     0.2400 C.ar  1 <1>  -0.1500 
 20 C       -6.1880    -3.9090     0.4180 C.3   1 <1>   0.1200 
 21 C       -6.4670    -1.5810     0.4690 C.3   1 <1>   0.1200 
 22 C        7.9750    -0.2010     0.1760 C.ar  1 <1>  -0.1500 
 23 C        8.2250     1.1730     0.2310 C.ar  1 <1>  -0.1500 
 24 O       -7.0490    -2.8260     0.2090 O.3   1 <1>  -0.5600 
 25 H       -0.4080    -1.6060     0.8260 H     1 <1>   0.0800 
 26 H       -0.3530    -1.5480    -0.9360 H     1 <1>   0.0800 
 27 H       -2.5730    -0.4410    -0.9580 H     1 <1>   0.0800 
 28 H       -2.6350    -0.5170     0.7890 H     1 <1>   0.0800 
 29 H        4.5340     3.2810     0.2250 H     1 <1>   0.2700 
 30 H       -4.2790    -4.6100    -0.2640 H     1 <1>   0.0800 
 31 H       -5.2780    -3.9500    -1.5250 H     1 <1>   0.0800 
 32 H       -5.6060    -1.2490    -1.4670 H     1 <1>   0.0800 
 33 H       -4.7900    -0.4160    -0.1750 H     1 <1>   0.0800 
 34 H        6.4740    -1.7320     0.0870 H     1 <1>   0.1500 
 35 H        7.3740     3.1350     0.2820 H     1 <1>   0.1500 
 36 H       -5.8830    -3.9160     1.4510 H     1 <1>   0.0800 
 37 H       -6.7370    -4.8110     0.2140 H     1 <1>   0.0800 
 38 H       -7.2170    -0.8280     0.3030 H     1 <1>   0.0800 
 39 H       -6.1690    -1.5500     1.5030 H     1 <1>   0.0800 
 40 H        8.8030    -0.8880     0.1690 H     1 <1>   0.1500 
 41 H        9.2430     1.5190     0.2660 H     1 <1>   0.1500 
@<TRIPOS>BOND
  1   1   2  1   
  2   1   3  1   
  3   2   4  ar  
  4   2   5  ar  
  5   3   6  1   
  6   3  25  1   
  7   3  26  1   
  8   4   7  ar  
  9   5   8  ar  
 10   6   9  1   
 11   6  27  1   
 12   6  28  1   
 13   7  10  ar  
 14   8  10  ar  
 15   8  11  1   
 16   9  12  2   
 17   9  13  am  
 18  10  14  1   
 19  11  15  1   
 20  11  29  1   
 21  13  16  1   
 22  13  17  1   
 23  14  15  ar  
 24  14  18  ar  
 25  15  19  ar  
 26  16  20  1   
 27  16  30  1   
 28  16  31  1   
 29  17  21  1   
 30  17  32  1   
 31  17  33  1   
 32  18  22  ar  
 33  18  34  1   
 34  19  23  ar  
 35  19  35  1   
 36  20  24  1   
 37  20  36  1   
 38  20  37  1   
 39  21  24  1   
 40  21  38  1   
 41  21  39  1   
 42  22  23  ar  
 43  22  40  1   
 44  23  41  1   
@<TRIPOS>SUBSTRUCTURE
  1 ****   4 GROUP 4 **** **** 0

# MOE 2024.06 (io_trps.svl 2023.06)
