@<TRIPOS>MOLECULE
NONAME
53 55 1 0 0 
SMALL
USER_CHARGES


@<TRIPOS>ATOM
  1 O       -1.6510     4.4170     2.0770 O.2   1 <1>  -0.5700 
  2 C       -1.3520     3.9980     0.9780 C.2   1 <1>   0.5690 
  3 N       -2.2590     3.2640     0.2470 N.am  1 <1>  -0.6600 
  4 C        0.0530     4.3310     0.4080 C.3   1 <1>   0.2610 
  5 C       -2.0280     2.7020    -1.1170 C.3   1 <1>   0.1400 
  6 C       -3.6120     2.9230     0.7710 C.3   1 <1>   0.1400 
  7 O        0.7840     3.1670     0.1230 O.3   1 <1>  -0.5600 
  8 C        0.9880     5.0940     1.3480 C.3   1 <1>  -0.1600 
  9 C       -3.1440     3.1450    -2.0790 C.3   1 <1>   0.1100 
 10 C       -4.7050     3.3640    -0.2150 C.3   1 <1>   0.1100 
 11 C        1.4480     2.7360     1.2680 C.3   1 <1>   0.1200 
 12 C        1.6990     3.9860     2.1100 C.3   1 <1>  -0.1600 
 13 N       -4.4940     2.8080    -1.5740 N.3   1 <1>  -0.8100 
 14 C       -5.5310     3.2190    -2.5710 C.3   1 <1>   0.1710 
 15 C       -6.9880     2.8520    -2.2550 C.2   1 <1>   0.5690 
 16 O       -7.5200     1.9630    -2.8770 O.2   1 <1>  -0.5700 
 17 N       -7.6290     3.5880    -1.2980 N.am  1 <1>  -0.5470 
 18 C       -8.8760     3.4660    -0.6680 C.ar  1 <1>   0.1170 
 19 C       -9.0310     4.0660     0.5860 C.ar  1 <1>   0.0820 
 20 C       -9.9500     2.7890    -1.2310 C.ar  1 <1>  -0.1500 
 21 O       -7.9420     4.7130     1.1020 O.3   1 <1>  -0.3630 
 22 C      -10.2510     3.9840     1.2510 C.ar  1 <1>  -0.1500 
 23 C      -11.1600     2.7070    -0.5640 C.ar  1 <1>  -0.1500 
 24 C       -7.9260     5.1720     2.4330 C.3   1 <1>   0.1200 
 25 C      -11.3110     3.3050     0.6750 C.ar  1 <1>  -0.1500 
 26 C       -6.5260     5.7000     2.7300 C.3   1 <1>  -0.2400 
 27 H       -0.0750     4.8760    -0.5090 H     1 <1>   0.0800 
 28 H       -2.0200     1.6280    -1.0570 H     1 <1>   0.0800 
 29 H       -1.0810     3.0150    -1.5140 H     1 <1>   0.0800 
 30 H       -3.7830     3.3950     1.7230 H     1 <1>   0.0800 
 31 H       -3.6750     1.8590     0.9160 H     1 <1>   0.0800 
 32 H        0.4680     5.7790     1.9940 H     1 <1>   0.0800 
 33 H        1.6970     5.6460     0.7560 H     1 <1>   0.0800 
 34 H       -2.9900     2.6580    -3.0270 H     1 <1>   0.0800 
 35 H       -3.0670     4.2080    -2.2320 H     1 <1>   0.0800 
 36 H       -4.7280     4.4390    -0.2520 H     1 <1>   0.0800 
 37 H       -5.6430     3.0140     0.1780 H     1 <1>   0.0800 
 38 H        2.3630     2.2500     0.9740 H     1 <1>   0.0800 
 39 H        0.8090     2.0400     1.7860 H     1 <1>   0.0800 
 40 H        1.2670     3.8540     3.0870 H     1 <1>   0.0800 
 41 H        2.7510     4.1850     2.2120 H     1 <1>   0.0800 
 42 H       -5.2940     2.7570    -3.5130 H     1 <1>   0.0800 
 43 H       -5.4800     4.2830    -2.7150 H     1 <1>   0.0800 
 44 H       -7.0360     4.2560    -0.8060 H     1 <1>   0.3700 
 45 H       -9.8460     2.3240    -2.1940 H     1 <1>   0.1500 
 46 H      -10.3980     4.4390     2.2110 H     1 <1>   0.1500 
 47 H      -11.9830     2.1780    -1.0130 H     1 <1>   0.1500 
 48 H       -8.1660     4.3470     3.0830 H     1 <1>   0.0800 
 49 H       -8.6600     5.9530     2.5340 H     1 <1>   0.0800 
 50 H      -12.2540     3.2400     1.1890 H     1 <1>   0.1500 
 51 H       -5.8000     4.9150     2.6200 H     1 <1>   0.0800 
 52 H       -6.4820     6.0650     3.7400 H     1 <1>   0.0800 
 53 H       -6.2850     6.5100     2.0640 H     1 <1>   0.0800 
@<TRIPOS>BOND
  1   1   2  2   
  2   2   3  am  
  3   2   4  1   
  4   3   5  1   
  5   3   6  1   
  6   4   7  1   
  7   4   8  1   
  8   4  27  1   
  9   5   9  1   
 10   5  28  1   
 11   5  29  1   
 12   6  10  1   
 13   6  30  1   
 14   6  31  1   
 15   7  11  1   
 16   8  12  1   
 17   8  32  1   
 18   8  33  1   
 19   9  13  1   
 20   9  34  1   
 21   9  35  1   
 22  10  13  1   
 23  10  36  1   
 24  10  37  1   
 25  11  12  1   
 26  11  38  1   
 27  11  39  1   
 28  12  40  1   
 29  12  41  1   
 30  13  14  1   
 31  14  15  1   
 32  14  42  1   
 33  14  43  1   
 34  15  16  2   
 35  15  17  am  
 36  17  18  1   
 37  17  44  1   
 38  18  19  ar  
 39  18  20  ar  
 40  19  21  1   
 41  19  22  ar  
 42  20  23  ar  
 43  20  45  1   
 44  21  24  1   
 45  22  25  ar  
 46  22  46  1   
 47  23  25  ar  
 48  23  47  1   
 49  24  26  1   
 50  24  48  1   
 51  24  49  1   
 52  25  50  1   
 53  26  51  1   
 54  26  52  1   
 55  26  53  1   
@<TRIPOS>SUBSTRUCTURE
  1 ****  10 GROUP 4 **** **** 0

# MOE 2024.06 (io_trps.svl 2023.06)
