@<TRIPOS>MOLECULE
NONAME
43 43 1 0 0 
SMALL
USER_CHARGES


@<TRIPOS>ATOM
  1 O        0.2560     1.5090    -1.4370 O.3   1 <1>  -0.8500 
  2 C       -0.2370     2.2610    -0.5920 C.2   1 <1>  -0.0500 
  3 N       -1.3880     1.8370     0.0580 N.pl3 1 <1>  -0.6000 
  4 C        0.4090     3.4740    -0.3040 C.2   1 <1>   0.1560 
  5 C       -2.1730     0.6770    -0.0300 C.ar  1 <1>   0.1000 
  6 N        0.1570     4.4390     0.5700 N.2   1 <1>  -0.1320 
  7 C        1.6520     3.6980    -1.1440 C.3   1 <1>   0.4810 
  8 C       -2.1590    -0.1810    -1.1240 C.ar  1 <1>  -0.1500 
  9 C       -3.0290     0.3750     1.0250 C.ar  1 <1>  -0.1500 
 10 O       -0.8100     4.2750     1.2770 O.2   1 <1>  -0.1620 
 11 N        2.9090     3.2550    -0.4340 N.4   1 <1>  -0.9590 
 12 C       -2.9660    -1.3050    -1.1640 C.ar  1 <1>  -0.1500 
 13 C       -3.8390    -0.7460     0.9930 C.ar  1 <1>  -0.1500 
 14 C        4.1240     3.6560    -1.1820 C.3   1 <1>   0.3430 
 15 C        2.8100     1.7700    -0.2460 C.3   1 <1>   0.3430 
 16 C       -3.8090    -1.5910    -0.1040 C.ar  1 <1>  -0.1500 
 17 C        4.3500     5.1660    -1.0700 C.3   1 <1>  -0.1600 
 18 C        3.9420     1.2410     0.6400 C.3   1 <1>  -0.1600 
 19 C        5.6710     5.5720    -1.7320 C.3   1 <1>  -0.2400 
 20 C        3.7040    -0.2330     0.9870 C.3   1 <1>  -0.2400 
 21 H       -1.7090     2.5010     0.7630 H     1 <1>   0.4000 
 22 H        1.7060     4.7440    -1.3840 H     1 <1>   0.0800 
 23 H        1.5460     3.1510    -2.0670 H     1 <1>   0.0800 
 24 H       -1.5100     0.0430    -1.9490 H     1 <1>   0.1500 
 25 H       -3.0530     1.0260     1.8770 H     1 <1>   0.1500 
 26 H        2.8840     3.6800     0.4980 H     1 <1>   0.4500 
 27 H       -2.9320    -1.9510    -2.0220 H     1 <1>   0.1500 
 28 H       -4.4910    -0.9620     1.8200 H     1 <1>   0.1500 
 29 H        4.0310     3.3680    -2.2170 H     1 <1>   0.0800 
 30 H        4.9840     3.1550    -0.7720 H     1 <1>   0.0800 
 31 H        2.8060     1.2710    -1.2020 H     1 <1>   0.0800 
 32 H        1.8740     1.5280     0.2320 H     1 <1>   0.0800 
 33 H       -4.4350    -2.4640    -0.1340 H     1 <1>   0.1500 
 34 H        4.3830     5.4510    -0.0330 H     1 <1>   0.0800 
 35 H        3.5520     5.7030    -1.5520 H     1 <1>   0.0800 
 36 H        3.9800     1.8060     1.5540 H     1 <1>   0.0800 
 37 H        4.8870     1.3200     0.1330 H     1 <1>   0.0800 
 38 H        6.5030     5.0790    -1.2600 H     1 <1>   0.0800 
 39 H        5.8160     6.6360    -1.6420 H     1 <1>   0.0800 
 40 H        5.6670     5.3210    -2.7790 H     1 <1>   0.0800 
 41 H        2.7680    -0.3500     1.5070 H     1 <1>   0.0800 
 42 H        4.4940    -0.6010     1.6190 H     1 <1>   0.0800 
 43 H        3.6720    -0.8330     0.0940 H     1 <1>   0.0800 
@<TRIPOS>BOND
  1   1   2  1   
  2   2   3  1   
  3   2   4  2   
  4   3   5  1   
  5   3  21  1   
  6   4   6  1   
  7   4   7  1   
  8   5   8  ar  
  9   5   9  ar  
 10   6  10  2   
 11   7  11  1   
 12   7  22  1   
 13   7  23  1   
 14   8  12  ar  
 15   8  24  1   
 16   9  13  ar  
 17   9  25  1   
 18  11  14  1   
 19  11  15  1   
 20  11  26  1   
 21  12  16  ar  
 22  12  27  1   
 23  13  16  ar  
 24  13  28  1   
 25  14  17  1   
 26  14  29  1   
 27  14  30  1   
 28  15  18  1   
 29  15  31  1   
 30  15  32  1   
 31  16  33  1   
 32  17  19  1   
 33  17  34  1   
 34  17  35  1   
 35  18  20  1   
 36  18  36  1   
 37  18  37  1   
 38  19  38  1   
 39  19  39  1   
 40  19  40  1   
 41  20  41  1   
 42  20  42  1   
 43  20  43  1   
@<TRIPOS>SUBSTRUCTURE
  1 ****   2 GROUP 4 **** **** 0

# MOE 2024.06 (io_trps.svl 2023.06)
