@<TRIPOS>MOLECULE
NONAME
45 46 1 0 0 
SMALL
USER_CHARGES


@<TRIPOS>ATOM
  1 O       -0.1760     0.5430    -0.2270 O.3   1 <1>  -0.3630 
  2 C       -1.5300     0.4500    -0.2010 C.ar  1 <1>   0.0830 
  3 C        0.4760     1.7770    -0.0720 C.3   1 <1>   0.1200 
  4 C       -2.0710    -0.8100    -0.3980 C.ar  1 <1>  -0.1500 
  5 C       -2.3800     1.5320     0.0080 C.ar  1 <1>  -0.1500 
  6 C        1.9770     1.5080    -0.1740 C.3   1 <1>  -0.1600 
  7 C       -3.4430    -0.9950    -0.3900 C.ar  1 <1>  -0.1500 
  8 C       -3.7510     1.3430     0.0160 C.ar  1 <1>  -0.1500 
  9 C        2.7730     2.8020    -0.0120 C.3   1 <1>   0.3430 
 10 C       -4.2920     0.0820    -0.1840 C.ar  1 <1>  -0.1440 
 11 N        4.2260     2.5490    -0.2250 N.4   1 <1>  -0.9590 
 12 C       -5.7980    -0.1130    -0.1770 C.3   1 <1>   0.2640 
 13 C        4.8390     1.7640     0.8910 C.3   1 <1>   0.3430 
 14 C        4.9550     3.8320    -0.4490 C.3   1 <1>   0.3430 
 15 O       -6.2360     0.0470     1.1220 O.3   1 <1>  -0.6800 
 16 C        6.2940     1.4350     0.5530 C.3   1 <1>  -0.1600 
 17 C        6.4110     3.5420    -0.8150 C.3   1 <1>  -0.1600 
 18 C        7.1100     2.7030     0.2630 C.3   1 <1>  -0.0800 
 19 C        8.5340     2.3410    -0.1720 C.3   1 <1>  -0.2400 
 20 H        0.2140     2.1770     0.8930 H     1 <1>   0.0800 
 21 H        0.1400     2.4350    -0.8560 H     1 <1>   0.0800 
 22 H       -1.4140    -1.6450    -0.5580 H     1 <1>   0.1500 
 23 H       -2.0020     2.5230     0.1670 H     1 <1>   0.1500 
 24 H        2.1780     1.0770    -1.1390 H     1 <1>   0.0800 
 25 H        2.2410     0.8070     0.5960 H     1 <1>   0.0800 
 26 H       -3.8430    -1.9820    -0.5450 H     1 <1>   0.1500 
 27 H       -4.4050     2.1820     0.1820 H     1 <1>   0.1500 
 28 H        2.6090     3.2170     0.9690 H     1 <1>   0.0800 
 29 H        2.4240     3.5150    -0.7420 H     1 <1>   0.0800 
 30 H        4.3320     1.9890    -1.0820 H     1 <1>   0.4500 
 31 H       -6.0660    -1.1020    -0.5050 H     1 <1>   0.0800 
 32 H       -6.2920     0.6170    -0.7940 H     1 <1>   0.0800 
 33 H        4.2970     0.8450     1.0450 H     1 <1>   0.0800 
 34 H        4.8030     2.3370     1.8040 H     1 <1>   0.0800 
 35 H        4.9230     4.4310     0.4470 H     1 <1>   0.0800 
 36 H        4.4910     4.3880    -1.2470 H     1 <1>   0.0800 
 37 H       -5.5550    -0.3090     1.7250 H     1 <1>   0.4000 
 38 H        6.3200     0.7720    -0.2940 H     1 <1>   0.0800 
 39 H        6.7330     0.9110     1.3850 H     1 <1>   0.0800 
 40 H        6.9310     4.4770    -0.9310 H     1 <1>   0.0800 
 41 H        6.4450     3.0360    -1.7640 H     1 <1>   0.0800 
 42 H        7.1740     3.2870     1.1680 H     1 <1>   0.0800 
 43 H        8.5260     1.7550    -1.0740 H     1 <1>   0.0800 
 44 H        9.0290     1.7740     0.5980 H     1 <1>   0.0800 
 45 H        9.1100     3.2330    -0.3500 H     1 <1>   0.0800 
@<TRIPOS>BOND
  1   1   2  1   
  2   1   3  1   
  3   2   4  ar  
  4   2   5  ar  
  5   3   6  1   
  6   3  20  1   
  7   3  21  1   
  8   4   7  ar  
  9   4  22  1   
 10   5   8  ar  
 11   5  23  1   
 12   6   9  1   
 13   6  24  1   
 14   6  25  1   
 15   7  10  ar  
 16   7  26  1   
 17   8  10  ar  
 18   8  27  1   
 19   9  11  1   
 20   9  28  1   
 21   9  29  1   
 22  10  12  1   
 23  11  13  1   
 24  11  14  1   
 25  11  30  1   
 26  12  15  1   
 27  12  31  1   
 28  12  32  1   
 29  13  16  1   
 30  13  33  1   
 31  13  34  1   
 32  14  17  1   
 33  14  35  1   
 34  14  36  1   
 35  15  37  1   
 36  16  18  1   
 37  16  38  1   
 38  16  39  1   
 39  17  18  1   
 40  17  40  1   
 41  17  41  1   
 42  18  19  1   
 43  18  42  1   
 44  19  43  1   
 45  19  44  1   
 46  19  45  1   
@<TRIPOS>SUBSTRUCTURE
  1 ****   3 GROUP 4 **** **** 0

# MOE 2024.06 (io_trps.svl 2023.06)
