@<TRIPOS>MOLECULE
NONAME
37 38 1 0 0 
SMALL
USER_CHARGES


@<TRIPOS>ATOM
  1 O      -16.0890     3.7540    -0.8880 O.3   1 <1>  -0.5600 
  2 C      -15.8530     5.0840    -0.5130 C.3   1 <1>   0.1200 
  3 C      -15.7930     2.8150     0.1100 C.3   1 <1>   0.1200 
  4 C      -14.3850     5.2920    -0.0700 C.3   1 <1>   0.3430 
  5 C      -14.3080     2.9020     0.5340 C.3   1 <1>   0.3430 
  6 N      -13.5930     4.0200    -0.1790 N.4   1 <1>  -0.9590 
  7 C      -12.1690     4.1940     0.2160 C.3   1 <1>   0.3430 
  8 C      -11.3450     2.9820    -0.2170 C.3   1 <1>  -0.1600 
  9 C       -9.8600     3.1970     0.0720 C.3   1 <1>   0.1200 
 10 O       -9.1880     2.0320    -0.3330 O.3   1 <1>  -0.3630 
 11 C       -7.8460     1.9000    -0.2080 C.ar  1 <1>   0.0820 
 12 C       -7.0140     2.8810     0.3220 C.ar  1 <1>  -0.1500 
 13 C       -7.2930     0.7050    -0.6400 C.ar  1 <1>  -0.1500 
 14 C       -5.6510     2.6570     0.4120 C.ar  1 <1>  -0.1500 
 15 C       -5.9310     0.4880    -0.5480 C.ar  1 <1>  -0.1500 
 16 C       -5.0870     1.4600    -0.0200 C.ar  1 <1>   0.0730 
 17 C       -3.6730     1.2350     0.0760 C.1   1 <1>   0.4840 
 18 N       -2.5490     1.0580     0.1530 N.1   1 <1>  -0.5570 
 19 H      -16.5320     5.3450     0.2800 H     1 <1>   0.0800 
 20 H      -16.0750     5.7070    -1.3630 H     1 <1>   0.0800 
 21 H      -16.0090     1.8370    -0.2840 H     1 <1>   0.0800 
 22 H      -16.4420     2.9890     0.9510 H     1 <1>   0.0800 
 23 H      -14.3760     5.6460     0.9470 H     1 <1>   0.0800 
 24 H      -13.9410     6.0580    -0.6840 H     1 <1>   0.0800 
 25 H      -13.8320     1.9600     0.3150 H     1 <1>   0.0800 
 26 H      -14.2570     3.0500     1.6000 H     1 <1>   0.0800 
 27 H      -13.6420     3.7660    -1.1790 H     1 <1>   0.4500 
 28 H      -12.0940     4.3270     1.2840 H     1 <1>   0.0800 
 29 H      -11.7700     5.0740    -0.2620 H     1 <1>   0.0800 
 30 H      -11.4650     2.8220    -1.2740 H     1 <1>   0.0800 
 31 H      -11.6640     2.1060     0.3190 H     1 <1>   0.0800 
 32 H       -9.6810     3.3390     1.1250 H     1 <1>   0.0800 
 33 H       -9.4670     4.0260    -0.4930 H     1 <1>   0.0800 
 34 H       -7.4030     3.8200     0.6680 H     1 <1>   0.1500 
 35 H       -7.9370    -0.0530    -1.0500 H     1 <1>   0.1500 
 36 H       -5.0140     3.4230     0.8230 H     1 <1>   0.1500 
 37 H       -5.5180    -0.4470    -0.8890 H     1 <1>   0.1500 
@<TRIPOS>BOND
  1   1   2  1   
  2   1   3  1   
  3   2   4  1   
  4   2  19  1   
  5   2  20  1   
  6   3   5  1   
  7   3  21  1   
  8   3  22  1   
  9   4   6  1   
 10   4  23  1   
 11   4  24  1   
 12   5   6  1   
 13   5  25  1   
 14   5  26  1   
 15   6   7  1   
 16   6  27  1   
 17   7   8  1   
 18   7  28  1   
 19   7  29  1   
 20   8   9  1   
 21   8  30  1   
 22   8  31  1   
 23   9  10  1   
 24   9  32  1   
 25   9  33  1   
 26  10  11  1   
 27  11  12  ar  
 28  11  13  ar  
 29  12  14  ar  
 30  12  34  1   
 31  13  15  ar  
 32  13  35  1   
 33  14  16  ar  
 34  14  36  1   
 35  15  16  ar  
 36  15  37  1   
 37  16  17  1   
 38  17  18  3   
@<TRIPOS>SUBSTRUCTURE
  1 ****   9 GROUP 4 **** **** 0

# MOE 2024.06 (io_trps.svl 2023.06)
