@<TRIPOS>MOLECULE
NONAME
30 33 1 0 0 
SMALL
USER_CHARGES


@<TRIPOS>ATOM
  1 CL      -0.0570    -0.1360    -0.1270 Cl    1 <1>  -0.1770 
  2 C       -1.7970    -0.1160     0.0260 C.ar  1 <1>   0.1770 
  3 C       -2.5840    -0.8020    -0.8820 C.ar  1 <1>   0.1600 
  4 C       -2.3820     0.5890     1.0540 C.ar  1 <1>  -0.1500 
  5 N       -3.9090    -0.8400    -0.8430 N.ar  1 <1>  -0.6200 
  6 C       -3.7590     0.5540     1.1060 C.ar  1 <1>  -0.1500 
  7 C       -4.4800    -0.1680     0.1540 C.ar  1 <1>   0.4270 
  8 N       -5.8670    -0.1970     0.2110 N.am  1 <1>  -0.2370 
  9 C       -6.6360    -1.3410     0.2210 C.2   1 <1>   0.5690 
 10 C       -6.6850     0.8890    -0.0130 C.2   1 <1>   0.5690 
 11 O       -6.3720    -2.4170     0.6920 O.2   1 <1>  -0.5700 
 12 C       -7.9400    -0.9790    -0.4230 C.3   1 <1>  -0.0190 
 13 O       -6.3580     2.0280    -0.2190 O.2   1 <1>  -0.5700 
 14 C       -8.1040     0.4160     0.1470 C.3   1 <1>  -0.0190 
 15 C       -9.4000    -1.3870    -0.5590 C.3   1 <1>   0.2000 
 16 C       -9.5260     0.7490    -0.3550 C.3   1 <1>   0.2000 
 17 O       -9.7910    -0.2610    -1.2700 O.3   1 <1>  -0.5600 
 18 C      -10.2750    -1.2320     0.7000 C.3   1 <1>  -0.1600 
 19 C      -10.5110     0.2940     0.7280 C.3   1 <1>  -0.1600 
 20 H       -2.0960    -1.3420    -1.6750 H     1 <1>   0.1500 
 21 H       -1.7880     1.1320     1.7680 H     1 <1>   0.1500 
 22 H       -4.2850     1.0860     1.8780 H     1 <1>   0.1500 
 23 H       -7.6340    -0.9140    -1.4580 H     1 <1>   0.0800 
 24 H       -8.1800     0.3690     1.2210 H     1 <1>   0.0800 
 25 H       -9.5680    -2.2830    -1.1320 H     1 <1>   0.0800 
 26 H       -9.6820     1.7310    -0.7700 H     1 <1>   0.0800 
 27 H       -9.7660    -1.5970     1.5740 H     1 <1>   0.0800 
 28 H      -11.2040    -1.7620     0.5790 H     1 <1>   0.0800 
 29 H      -11.5150     0.5320     0.4200 H     1 <1>   0.0800 
 30 H      -10.3250     0.7370     1.6910 H     1 <1>   0.0800 
@<TRIPOS>BOND
  1   1   2  1   
  2   2   3  ar  
  3   2   4  ar  
  4   3   5  ar  
  5   3  20  1   
  6   4   6  ar  
  7   4  21  1   
  8   5   7  ar  
  9   6   7  ar  
 10   6  22  1   
 11   7   8  1   
 12   8   9  am  
 13   8  10  am  
 14   9  11  2   
 15   9  12  1   
 16  10  13  2   
 17  10  14  1   
 18  12  14  1   
 19  12  15  1   
 20  12  23  1   
 21  14  16  1   
 22  14  24  1   
 23  15  17  1   
 24  15  18  1   
 25  15  25  1   
 26  16  17  1   
 27  16  19  1   
 28  16  26  1   
 29  18  19  1   
 30  18  27  1   
 31  18  28  1   
 32  19  29  1   
 33  19  30  1   
@<TRIPOS>SUBSTRUCTURE
  1 ****   8 GROUP 4 **** **** 0

# MOE 2024.06 (io_trps.svl 2023.06)
