@<TRIPOS>MOLECULE
NONAME
32 32 1 0 0 
SMALL
USER_CHARGES


@<TRIPOS>ATOM
  1 O        0.1030    -1.0770    -2.3570 O.2   1 <1>  -0.5700 
  2 C        0.0390    -1.6530    -1.3000 C.2   1 <1>   0.5690 
  3 N        1.0830    -1.7970    -0.4460 N.am  1 <1>  -0.4930 
  4 C       -1.2900    -2.2580    -0.8890 C.3   1 <1>  -0.0990 
  5 C        2.3930    -1.3570    -0.5390 C.2   1 <1>   0.5790 
  6 C       -1.9670    -1.4640     0.2410 C.3   1 <1>  -0.1600 
  7 N        2.9310    -0.7050    -1.5670 N.2   1 <1>  -0.2270 
  8 N        3.1950    -1.5790     0.4300 N.2   1 <1>  -0.7070 
  9 C       -3.3110    -2.0890     0.6330 C.3   1 <1>  -0.1600 
 10 N        4.1470    -0.4940    -1.2460 N.2   1 <1>  -0.4180 
 11 N        4.2960    -1.0230    -0.0450 N.pl3 1 <1>   0.5800 
 12 C       -3.9780    -1.2940     1.7590 C.3   1 <1>  -0.2400 
 13 C        5.5700    -0.9940     0.7010 C.3   1 <1>   0.0960 
 14 C        6.3760    -2.2850     0.4840 C.3   1 <1>  -0.1600 
 15 C        7.7000    -2.2530     1.2550 C.3   1 <1>  -0.2400 
 16 H        0.9180    -2.2800     0.4280 H     1 <1>   0.3700 
 17 H       -1.1300    -3.2760    -0.5820 H     1 <1>   0.0800 
 18 H       -1.9350    -2.2740    -1.7500 H     1 <1>   0.0800 
 19 H       -2.1260    -0.4510    -0.0900 H     1 <1>   0.0800 
 20 H       -1.3230    -1.4340     1.1030 H     1 <1>   0.0800 
 21 H       -3.1610    -3.1050     0.9590 H     1 <1>   0.0800 
 22 H       -3.9660    -2.1060    -0.2220 H     1 <1>   0.0800 
 23 H       -3.3520    -1.2810     2.6340 H     1 <1>   0.0800 
 24 H       -4.9190    -1.7450     2.0190 H     1 <1>   0.0800 
 25 H       -4.1600    -0.2810     1.4470 H     1 <1>   0.0800 
 26 H        5.3430    -0.8680     1.7430 H     1 <1>   0.0800 
 27 H        6.1350    -0.1440     0.3660 H     1 <1>   0.0800 
 28 H        6.5820    -2.4060    -0.5660 H     1 <1>   0.0800 
 29 H        5.7940    -3.1290     0.8170 H     1 <1>   0.0800 
 30 H        8.3100    -1.4290     0.9270 H     1 <1>   0.0800 
 31 H        8.2450    -3.1660     1.0880 H     1 <1>   0.0800 
 32 H        7.5220    -2.1540     2.3120 H     1 <1>   0.0800 
@<TRIPOS>BOND
  1   1   2  2   
  2   2   3  am  
  3   2   4  1   
  4   3   5  1   
  5   3  16  1   
  6   4   6  1   
  7   4  17  1   
  8   4  18  1   
  9   5   7  1   
 10   5   8  2   
 11   6   9  1   
 12   6  19  1   
 13   6  20  1   
 14   7  10  2   
 15   8  11  1   
 16   9  12  1   
 17   9  21  1   
 18   9  22  1   
 19  10  11  1   
 20  11  13  1   
 21  12  23  1   
 22  12  24  1   
 23  12  25  1   
 24  13  14  1   
 25  13  26  1   
 26  13  27  1   
 27  14  15  1   
 28  14  28  1   
 29  14  29  1   
 30  15  30  1   
 31  15  31  1   
 32  15  32  1   
@<TRIPOS>SUBSTRUCTURE
  1 ****   5 GROUP 4 **** **** 0

# MOE 2024.06 (io_trps.svl 2023.06)
