@<TRIPOS>MOLECULE
NONAME
53 55 1 0 0 
SMALL
USER_CHARGES


@<TRIPOS>ATOM
  1 O        4.7340    -4.1720     0.2550 O.3   1 <1>  -0.3630 
  2 C        4.3420    -5.4610     0.0400 C.ar  1 <1>   0.0820 
  3 C        5.8630    -3.6010    -0.3690 C.3   1 <1>   0.0400 
  4 C        4.8600    -6.3630    -0.9010 C.ar  1 <1>   0.0820 
  5 C        3.3110    -5.8790     0.8640 C.ar  1 <1>  -0.1500 
  6 O        5.8570    -6.0590    -1.7630 O.3   1 <1>  -0.5330 
  7 C        4.3440    -7.6550    -0.9910 C.ar  1 <1>   0.0820 
  8 C        2.7770    -7.1550     0.7680 C.ar  1 <1>  -0.1430 
  9 O        4.9020    -8.4860    -1.9200 O.3   1 <1>  -0.3630 
 10 C        3.3010    -8.0460    -0.1560 C.ar  1 <1>  -0.1500 
 11 C        1.6190    -7.5550     1.6620 C.3   1 <1>   0.4860 
 12 C        4.6530    -9.8760    -1.9170 C.3   1 <1>   0.0400 
 13 N        0.4300    -6.7530     1.2760 N.4   1 <1>  -0.9590 
 14 C       -0.7260    -6.9530     2.2230 C.3   1 <1>   0.3430 
 15 C        0.0080    -7.0120    -0.1510 C.3   1 <1>   0.3430 
 16 C       -1.9580    -6.1140     1.8290 C.3   1 <1>   0.2090 
 17 C       -1.2200    -6.1770    -0.5620 C.3   1 <1>   0.2090 
 18 N       -2.3420    -6.3580     0.4080 N.pl3 1 <1>  -0.8380 
 19 C       -3.5430    -5.7450     0.0220 C.ar  1 <1>   0.1000 
 20 C       -3.7200    -4.3510    -0.0680 C.ar  1 <1>   0.0820 
 21 C       -4.6110    -6.5750    -0.2860 C.ar  1 <1>  -0.1500 
 22 O       -2.6590    -3.5380     0.2370 O.3   1 <1>  -0.3620 
 23 C       -4.9540    -3.8400    -0.4600 C.ar  1 <1>  -0.1500 
 24 C       -5.8320    -6.0590    -0.6750 C.ar  1 <1>  -0.1500 
 25 C       -2.7570    -2.1340     0.1200 C.3   1 <1>   0.0400 
 26 C       -6.0040    -4.6910    -0.7620 C.ar  1 <1>  -0.1500 
 27 H        6.0050    -2.6140     0.0320 H     1 <1>   0.0800 
 28 H        5.6840    -3.5420    -1.4280 H     1 <1>   0.0800 
 29 H        6.7240    -4.2090    -0.1590 H     1 <1>   0.0800 
 30 H        2.9400    -5.1720     1.5850 H     1 <1>   0.1500 
 31 H        6.0520    -6.8440    -2.3160 H     1 <1>   0.4500 
 32 H        2.8960    -9.0380    -0.2270 H     1 <1>   0.1500 
 33 H        1.8810    -7.3620     2.6900 H     1 <1>   0.0800 
 34 H        1.4120    -8.6070     1.5530 H     1 <1>   0.0800 
 35 H        5.2860   -10.3300    -2.6590 H     1 <1>   0.0800 
 36 H        3.6220   -10.0500    -2.1670 H     1 <1>   0.0800 
 37 H        4.8910   -10.2740    -0.9460 H     1 <1>   0.0800 
 38 H        0.7040    -5.7630     1.3150 H     1 <1>   0.4500 
 39 H       -0.4320    -6.6910     3.2260 H     1 <1>   0.0800 
 40 H       -1.0180    -7.9900     2.2220 H     1 <1>   0.0800 
 41 H       -0.2420    -8.0530    -0.2720 H     1 <1>   0.0800 
 42 H        0.8200    -6.7860    -0.8230 H     1 <1>   0.0800 
 43 H       -1.7460    -5.0700     1.9790 H     1 <1>   0.0800 
 44 H       -2.7870    -6.3740     2.4650 H     1 <1>   0.0800 
 45 H       -1.5500    -6.4810    -1.5400 H     1 <1>   0.0800 
 46 H       -0.9450    -5.1380    -0.6180 H     1 <1>   0.0800 
 47 H       -4.4780    -7.6390    -0.2180 H     1 <1>   0.1500 
 48 H       -5.1300    -2.7850    -0.5390 H     1 <1>   0.1500 
 49 H       -6.6480    -6.7220    -0.9090 H     1 <1>   0.1500 
 50 H       -1.8070    -1.7070     0.3860 H     1 <1>   0.0800 
 51 H       -3.5170    -1.7790     0.7930 H     1 <1>   0.0800 
 52 H       -2.9950    -1.8840    -0.8990 H     1 <1>   0.0800 
 53 H       -6.9560    -4.2870    -1.0640 H     1 <1>   0.1500 
@<TRIPOS>BOND
  1   1   2  1   
  2   1   3  1   
  3   2   4  ar  
  4   2   5  ar  
  5   3  27  1   
  6   3  28  1   
  7   3  29  1   
  8   4   6  1   
  9   4   7  ar  
 10   5   8  ar  
 11   5  30  1   
 12   6  31  1   
 13   7   9  1   
 14   7  10  ar  
 15   8  10  ar  
 16   8  11  1   
 17   9  12  1   
 18  10  32  1   
 19  11  13  1   
 20  11  33  1   
 21  11  34  1   
 22  12  35  1   
 23  12  36  1   
 24  12  37  1   
 25  13  14  1   
 26  13  15  1   
 27  13  38  1   
 28  14  16  1   
 29  14  39  1   
 30  14  40  1   
 31  15  17  1   
 32  15  41  1   
 33  15  42  1   
 34  16  18  1   
 35  16  43  1   
 36  16  44  1   
 37  17  18  1   
 38  17  45  1   
 39  17  46  1   
 40  18  19  1   
 41  19  20  ar  
 42  19  21  ar  
 43  20  22  1   
 44  20  23  ar  
 45  21  24  ar  
 46  21  47  1   
 47  22  25  1   
 48  23  26  ar  
 49  23  48  1   
 50  24  26  ar  
 51  24  49  1   
 52  25  50  1   
 53  25  51  1   
 54  25  52  1   
 55  26  53  1   
@<TRIPOS>SUBSTRUCTURE
  1 ****  15 GROUP 4 **** **** 0

# MOE 2024.06 (io_trps.svl 2023.06)
