@<TRIPOS>MOLECULE
NONAME
42 44 1 0 0 
SMALL
USER_CHARGES


@<TRIPOS>ATOM
  1 O       -0.1170    -1.2800     0.6250 O.3   1 <1>  -0.3630 
  2 C       -1.3360    -1.1430     0.0240 C.ar  1 <1>   0.0830 
  3 C        0.1190    -0.6220     1.8500 C.3   1 <1>   0.0400 
  4 C       -2.0310     0.0770    -0.1080 C.ar  1 <1>   0.1000 
  5 C       -1.8760    -2.3090    -0.4890 C.ar  1 <1>  -0.1500 
  6 N       -1.5300     1.3080     0.3500 N.pl3 1 <1>  -0.8380 
  7 C       -3.2600     0.0630    -0.7610 C.ar  1 <1>  -0.1500 
  8 C       -3.1040    -2.3000    -1.1270 C.ar  1 <1>  -0.1500 
  9 C       -1.0510     2.2230    -0.7330 C.3   1 <1>   0.3530 
 10 C       -2.4070     2.0880     1.2820 C.3   1 <1>   0.3530 
 11 C       -3.8020    -1.1140    -1.2660 C.ar  1 <1>   0.0830 
 12 C       -1.8500     3.4890    -0.5410 C.ar  1 <1>  -0.1430 
 13 C       -2.6140     3.4120     0.5910 C.ar  1 <1>  -0.1430 
 14 O       -4.9990    -1.1830    -1.9090 O.3   1 <1>  -0.3630 
 15 C       -1.8830     4.6180    -1.3370 C.ar  1 <1>  -0.1500 
 16 C       -3.4320     4.4620     0.9610 C.ar  1 <1>  -0.1500 
 17 C       -5.7620    -0.0190    -2.1440 C.3   1 <1>   0.0400 
 18 C       -2.6990     5.6840    -0.9810 C.ar  1 <1>  -0.1430 
 19 C       -3.4780     5.6060     0.1740 C.ar  1 <1>  -0.1430 
 20 C       -2.7210     6.9200    -1.8690 C.3   1 <1>  -0.0970 
 21 C       -4.3840     6.7530     0.5980 C.3   1 <1>  -0.0970 
 22 H        0.8930    -1.1530     2.3720 H     1 <1>   0.0800 
 23 H       -0.7870    -0.6210     2.4290 H     1 <1>   0.0800 
 24 H        0.4400     0.3830     1.6460 H     1 <1>   0.0800 
 25 H       -1.3290    -3.2280    -0.3850 H     1 <1>   0.1500 
 26 H       -3.7780     0.9940    -0.8740 H     1 <1>   0.1500 
 27 H       -3.5220    -3.2080    -1.5200 H     1 <1>   0.1500 
 28 H       -1.2280     1.7990    -1.7060 H     1 <1>   0.0800 
 29 H        0.0000     2.4160    -0.6060 H     1 <1>   0.0800 
 30 H       -1.9010     2.2310     2.2200 H     1 <1>   0.0800 
 31 H       -3.3450     1.5870     1.4510 H     1 <1>   0.0800 
 32 H       -1.2770     4.6640    -2.2240 H     1 <1>   0.1500 
 33 H       -4.0270     4.3880     1.8540 H     1 <1>   0.1500 
 34 H       -6.6510    -0.3050    -2.6760 H     1 <1>   0.0800 
 35 H       -5.1820     0.6640    -2.7390 H     1 <1>   0.0800 
 36 H       -6.0270     0.4210    -1.1990 H     1 <1>   0.0800 
 37 H       -2.0630     6.8030    -2.7100 H     1 <1>   0.0800 
 38 H       -2.4020     7.7810    -1.3090 H     1 <1>   0.0800 
 39 H       -3.7150     7.0900    -2.2400 H     1 <1>   0.0800 
 40 H       -4.9060     6.5180     1.5070 H     1 <1>   0.0800 
 41 H       -5.1120     6.9500    -0.1680 H     1 <1>   0.0800 
 42 H       -3.8000     7.6400     0.7650 H     1 <1>   0.0800 
@<TRIPOS>BOND
  1   1   2  1   
  2   1   3  1   
  3   2   4  ar  
  4   2   5  ar  
  5   3  22  1   
  6   3  23  1   
  7   3  24  1   
  8   4   6  1   
  9   4   7  ar  
 10   5   8  ar  
 11   5  25  1   
 12   6   9  1   
 13   6  10  1   
 14   7  11  ar  
 15   7  26  1   
 16   8  11  ar  
 17   8  27  1   
 18   9  12  1   
 19   9  28  1   
 20   9  29  1   
 21  10  13  1   
 22  10  30  1   
 23  10  31  1   
 24  11  14  1   
 25  12  13  ar  
 26  12  15  ar  
 27  13  16  ar  
 28  14  17  1   
 29  15  18  ar  
 30  15  32  1   
 31  16  19  ar  
 32  16  33  1   
 33  17  34  1   
 34  17  35  1   
 35  17  36  1   
 36  18  19  ar  
 37  18  20  1   
 38  19  21  1   
 39  20  37  1   
 40  20  38  1   
 41  20  39  1   
 42  21  40  1   
 43  21  41  1   
 44  21  42  1   
@<TRIPOS>SUBSTRUCTURE
  1 ****   6 GROUP 4 **** **** 0

# MOE 2024.06 (io_trps.svl 2023.06)
