@<TRIPOS>MOLECULE
NONAME
39 40 1 0 0 
SMALL
USER_CHARGES


@<TRIPOS>ATOM
  1 O        0.7990    -0.5160    -0.3140 O.2   1 <1>  -0.5700 
  2 C        1.2090    -1.6610    -0.3210 C.2   1 <1>   0.5440 
  3 N        2.5290    -1.8340    -0.6840 N.am  1 <1>  -0.6600 
  4 C        0.3340    -2.7510     0.0800 C.ar  1 <1>   0.0860 
  5 C        3.2170    -0.8240    -1.5430 C.3   1 <1>   0.1400 
  6 C        3.4570    -2.6840     0.1180 C.3   1 <1>   0.1400 
  7 C        0.3640    -4.0280    -0.5180 C.ar  1 <1>   0.1170 
  8 C       -0.5990    -2.5290     1.0950 C.ar  1 <1>  -0.1500 
  9 C        4.1370     0.0590    -0.6830 C.3   1 <1>   0.3430 
 10 C        4.4130    -1.8010     0.9490 C.3   1 <1>   0.3430 
 11 N        1.2770    -4.3200    -1.5400 N.am  1 <1>  -0.5470 
 12 C       -0.5380    -5.0030    -0.1010 C.ar  1 <1>  -0.1500 
 13 C       -1.4720    -3.5130     1.5140 C.ar  1 <1>  -0.1500 
 14 N        5.1210    -0.7670     0.1080 N.4   1 <1>  -0.9590 
 15 C        2.2120    -5.3000    -1.6510 C.2   1 <1>   0.5690 
 16 C       -1.4430    -4.7560     0.9110 C.ar  1 <1>  -0.1500 
 17 C        5.9900     0.1070     0.9530 C.3   1 <1>   0.2630 
 18 O        3.1660    -5.1160    -2.3600 O.2   1 <1>  -0.5700 
 19 C        2.1310    -6.5830    -0.8590 C.3   1 <1>  -0.1790 
 20 H        2.4910    -0.2040    -2.0420 H     1 <1>   0.0800 
 21 H        3.7900    -1.3280    -2.3010 H     1 <1>   0.0800 
 22 H        4.0270    -3.3150    -0.5430 H     1 <1>   0.0800 
 23 H        2.8990    -3.3210     0.7820 H     1 <1>   0.0800 
 24 H       -0.6440    -1.5580     1.5600 H     1 <1>   0.1500 
 25 H        3.5180     0.6340    -0.0130 H     1 <1>   0.0800 
 26 H        4.6630     0.7480    -1.3230 H     1 <1>   0.0800 
 27 H        5.1350    -2.4310     1.4410 H     1 <1>   0.0800 
 28 H        3.8340    -1.3060     1.7110 H     1 <1>   0.0800 
 29 H        1.5130    -3.5300    -2.1440 H     1 <1>   0.3700 
 30 H       -0.5460    -5.9650    -0.5790 H     1 <1>   0.1500 
 31 H       -2.1800    -3.3120     2.3010 H     1 <1>   0.1500 
 32 H        5.7130    -1.2720    -0.5690 H     1 <1>   0.4500 
 33 H       -2.1310    -5.5230     1.2260 H     1 <1>   0.1500 
 34 H        5.3920     0.6490     1.6680 H     1 <1>   0.0800 
 35 H        6.5190     0.8170     0.3370 H     1 <1>   0.0800 
 36 H        6.7130    -0.4880     1.4880 H     1 <1>   0.0800 
 37 H        1.9400    -6.3750     0.1770 H     1 <1>   0.0800 
 38 H        3.0610    -7.1160    -0.9370 H     1 <1>   0.0800 
 39 H        1.3500    -7.2030    -1.2560 H     1 <1>   0.0800 
@<TRIPOS>BOND
  1   1   2  2   
  2   2   3  am  
  3   2   4  1   
  4   3   5  1   
  5   3   6  1   
  6   4   7  ar  
  7   4   8  ar  
  8   5   9  1   
  9   5  20  1   
 10   5  21  1   
 11   6  10  1   
 12   6  22  1   
 13   6  23  1   
 14   7  11  1   
 15   7  12  ar  
 16   8  13  ar  
 17   8  24  1   
 18   9  14  1   
 19   9  25  1   
 20   9  26  1   
 21  10  14  1   
 22  10  27  1   
 23  10  28  1   
 24  11  15  am  
 25  11  29  1   
 26  12  16  ar  
 27  12  30  1   
 28  13  16  ar  
 29  13  31  1   
 30  14  17  1   
 31  14  32  1   
 32  15  18  2   
 33  15  19  1   
 34  16  33  1   
 35  17  34  1   
 36  17  35  1   
 37  17  36  1   
 38  19  37  1   
 39  19  38  1   
 40  19  39  1   
@<TRIPOS>SUBSTRUCTURE
  1 ****   3 GROUP 4 **** **** 0

# MOE 2024.06 (io_trps.svl 2023.06)
