@<TRIPOS>MOLECULE
NONAME
49 50 1 0 0 
SMALL
USER_CHARGES


@<TRIPOS>ATOM
  1 S        0.0020    -0.1710     0.1430 S.o2  1 <1>   1.3330 
  2 O        0.3460    -0.5100     1.5060 O.2   1 <1>  -0.6500 
  3 O        0.3660    -1.0650    -0.9350 O.2   1 <1>  -0.6500 
  4 N       -1.6770     0.0470     0.0830 N.am  1 <1>  -0.8490 
  5 C        0.6300     1.4650    -0.2500 C.3   1 <1>  -0.0550 
  6 C       -2.3640    -1.1990    -0.2940 C.3   1 <1>   0.1960 
  7 C       -2.2310     0.5920     1.3240 C.3   1 <1>   0.1960 
  8 C        2.1660     1.5500    -0.2730 C.3   1 <1>  -0.1600 
  9 C       -3.8890    -1.1190    -0.1060 C.3   1 <1>  -0.1600 
 10 C       -3.6650     1.0890     1.0860 C.3   1 <1>  -0.1600 
 11 C        2.6410     2.9670    -0.6120 C.3   1 <1>  -0.2400 
 12 C       -4.3920     0.3330    -0.0470 C.3   1 <1>  -0.0190 
 13 C       -5.9100     0.4110     0.1010 C.2   1 <1>   0.5690 
 14 O       -6.4310    -0.1340     1.0440 O.2   1 <1>  -0.5700 
 15 N       -6.6130     1.0950    -0.8420 N.am  1 <1>  -0.7300 
 16 C       -8.0770     1.3030    -0.9190 C.3   1 <1>   0.2200 
 17 C       -8.5860     2.0950     0.2920 C.3   1 <1>  -0.1600 
 18 C       -8.8160    -0.0320    -1.0740 C.3   1 <1>  -0.1600 
 19 C      -10.1030     2.3160     0.2040 C.3   1 <1>  -0.1600 
 20 C      -10.3340     0.1880    -1.1630 C.3   1 <1>  -0.1600 
 21 C      -10.8480     0.9830     0.0460 C.3   1 <1>  -0.1600 
 22 H        0.2580     2.1650     0.4710 H     1 <1>   0.0800 
 23 H        0.2540     1.7550    -1.2120 H     1 <1>   0.0800 
 24 H       -1.9790    -2.0210     0.2890 H     1 <1>   0.0800 
 25 H       -2.1480    -1.4050    -1.3290 H     1 <1>   0.0800 
 26 H       -1.6270     1.4090     1.6820 H     1 <1>   0.0800 
 27 H       -2.2280    -0.1760     2.0820 H     1 <1>   0.0800 
 28 H        2.5500     0.8580    -1.0050 H     1 <1>   0.0800 
 29 H        2.5540     1.2610     0.6900 H     1 <1>   0.0800 
 30 H       -4.1520    -1.6190     0.8110 H     1 <1>   0.0800 
 31 H       -4.3750    -1.6500    -0.9050 H     1 <1>   0.0800 
 32 H       -3.6450     2.1380     0.8510 H     1 <1>   0.0800 
 33 H       -4.2070     0.9810     2.0090 H     1 <1>   0.0800 
 34 H        2.2820     3.2640    -1.5820 H     1 <1>   0.0800 
 35 H        3.7160     2.9990    -0.6230 H     1 <1>   0.0800 
 36 H        2.2880     3.6700     0.1220 H     1 <1>   0.0800 
 37 H       -4.1200     0.7980    -0.9780 H     1 <1>   0.0800 
 38 H       -6.0970     1.5260    -1.6080 H     1 <1>   0.3700 
 39 H       -8.2760     1.8900    -1.8000 H     1 <1>   0.0800 
 40 H       -8.0870     3.0470     0.3380 H     1 <1>   0.0800 
 41 H       -8.3700     1.5540     1.1960 H     1 <1>   0.0800 
 42 H       -8.6090    -0.6610    -0.2260 H     1 <1>   0.0800 
 43 H       -8.4740    -0.5340    -1.9620 H     1 <1>   0.0800 
 44 H      -10.3260     2.9510    -0.6370 H     1 <1>   0.0800 
 45 H      -10.4460     2.8160     1.0940 H     1 <1>   0.0800 
 46 H      -10.8330    -0.7650    -1.2050 H     1 <1>   0.0800 
 47 H      -10.5670     0.7240    -2.0670 H     1 <1>   0.0800 
 48 H      -11.9020     1.1690    -0.0660 H     1 <1>   0.0800 
 49 H      -10.7120     0.3950     0.9390 H     1 <1>   0.0800 
@<TRIPOS>BOND
  1   1   2  2   
  2   1   3  2   
  3   1   4  am  
  4   1   5  1   
  5   4   6  1   
  6   4   7  1   
  7   5   8  1   
  8   5  22  1   
  9   5  23  1   
 10   6   9  1   
 11   6  24  1   
 12   6  25  1   
 13   7  10  1   
 14   7  26  1   
 15   7  27  1   
 16   8  11  1   
 17   8  28  1   
 18   8  29  1   
 19   9  12  1   
 20   9  30  1   
 21   9  31  1   
 22  10  12  1   
 23  10  32  1   
 24  10  33  1   
 25  11  34  1   
 26  11  35  1   
 27  11  36  1   
 28  12  13  1   
 29  12  37  1   
 30  13  14  2   
 31  13  15  am  
 32  15  16  1   
 33  15  38  1   
 34  16  17  1   
 35  16  18  1   
 36  16  39  1   
 37  17  19  1   
 38  17  40  1   
 39  17  41  1   
 40  18  20  1   
 41  18  42  1   
 42  18  43  1   
 43  19  21  1   
 44  19  44  1   
 45  19  45  1   
 46  20  21  1   
 47  20  46  1   
 48  20  47  1   
 49  21  48  1   
 50  21  49  1   
@<TRIPOS>SUBSTRUCTURE
  1 ****  12 GROUP 4 **** **** 0

# MOE 2024.06 (io_trps.svl 2023.06)
