@<TRIPOS>MOLECULE
NONAME
43 45 1 0 0 
SMALL
USER_CHARGES


@<TRIPOS>ATOM
  1 BR      -0.7830     1.7370     2.7840 Br    1 <1>  -0.1110 
  2 C       -2.2800     1.1660     1.7270 C.ar  1 <1>   0.1110 
  3 C       -3.1740     2.1110     1.2660 C.ar  1 <1>  -0.1500 
  4 C       -2.4310    -0.1770     1.4480 C.ar  1 <1>  -0.1500 
  5 C       -4.2510     1.6930     0.5050 C.ar  1 <1>  -0.1500 
  6 C       -3.5140    -0.5770     0.6870 C.ar  1 <1>  -0.1500 
  7 C       -4.4550     0.3390     0.1980 C.ar  1 <1>   0.0860 
  8 C       -5.5770    -0.1300    -0.5920 C.2   1 <1>   0.4840 
  9 O       -5.6170    -1.2310    -1.0760 O.2   1 <1>  -0.5700 
 10 C       -6.7820     0.7790    -0.8480 C.3   1 <1>  -0.0950 
 11 C       -8.1400     0.2600    -0.4610 C.3   1 <1>   0.0000 
 12 C       -7.5020     1.3460     0.3500 C.3   1 <1>  -0.1950 
 13 C       -6.6450     1.5340    -2.1840 C.3   1 <1>  -0.1450 
 14 C       -9.4210     0.8710    -0.9350 C.2   1 <1>   0.7200 
 15 C       -8.4090    -1.0820     0.1750 C.2   1 <1>   0.7200 
 16 C       -8.5530     2.4610     0.4470 C.3   1 <1>   0.3750 
 17 O      -10.2270     0.3580    -1.6620 O.2   1 <1>  -0.5700 
 18 O       -9.5460     2.1060    -0.4790 O.3   1 <1>  -0.4300 
 19 O       -8.4700    -1.2000     1.3740 O.2   1 <1>  -0.5700 
 20 O       -8.5720    -2.1040    -0.6540 O.3   1 <1>  -0.4300 
 21 C       -8.0050     3.8400     0.0860 C.3   1 <1>  -0.2400 
 22 C       -9.2140     2.4760     1.8250 C.3   1 <1>  -0.2400 
 23 C       -8.8340    -3.4160    -0.2150 C.3   1 <1>   0.1200 
 24 C      -10.3400    -3.5730    -0.0100 C.3   1 <1>  -0.2400 
 25 H       -3.0230     3.1510     1.4990 H     1 <1>   0.1500 
 26 H       -1.7160    -0.8910     1.8190 H     1 <1>   0.1500 
 27 H       -4.9370     2.4380     0.1450 H     1 <1>   0.1500 
 28 H       -3.6400    -1.6240     0.4630 H     1 <1>   0.1500 
 29 H       -7.0680     1.1090     1.3070 H     1 <1>   0.1000 
 30 H       -6.4890     0.8250    -2.9800 H     1 <1>   0.0800 
 31 H       -5.8010     2.2000    -2.1560 H     1 <1>   0.0800 
 32 H       -7.5230     2.1040    -2.4220 H     1 <1>   0.0800 
 33 H       -7.5990     3.8490    -0.9070 H     1 <1>   0.0800 
 34 H       -7.2270     4.1160     0.7750 H     1 <1>   0.0800 
 35 H       -8.7880     4.5740     0.1470 H     1 <1>   0.0800 
 36 H       -9.6060     1.5040     2.0670 H     1 <1>   0.0800 
 37 H      -10.0160     3.1930     1.8450 H     1 <1>   0.0800 
 38 H       -8.4970     2.7470     2.5780 H     1 <1>   0.0800 
 39 H       -8.2870    -3.6030     0.6940 H     1 <1>   0.0800 
 40 H       -8.4850    -4.0880    -0.9800 H     1 <1>   0.0800 
 41 H      -10.6810    -2.9130     0.7670 H     1 <1>   0.0800 
 42 H      -10.5630    -4.5830     0.2790 H     1 <1>   0.0800 
 43 H      -10.8620    -3.3520    -0.9240 H     1 <1>   0.0800 
@<TRIPOS>BOND
  1   1   2  1   
  2   2   3  ar  
  3   2   4  ar  
  4   3   5  ar  
  5   3  25  1   
  6   4   6  ar  
  7   4  26  1   
  8   5   7  ar  
  9   5  27  1   
 10   6   7  ar  
 11   6  28  1   
 12   7   8  1   
 13   8   9  2   
 14   8  10  1   
 15  10  11  1   
 16  10  12  1   
 17  10  13  1   
 18  11  12  1   
 19  11  14  1   
 20  11  15  1   
 21  12  16  1   
 22  12  29  1   
 23  13  30  1   
 24  13  31  1   
 25  13  32  1   
 26  14  17  2   
 27  14  18  1   
 28  15  19  2   
 29  15  20  1   
 30  16  18  1   
 31  16  21  1   
 32  16  22  1   
 33  20  23  1   
 34  21  33  1   
 35  21  34  1   
 36  21  35  1   
 37  22  36  1   
 38  22  37  1   
 39  22  38  1   
 40  23  24  1   
 41  23  39  1   
 42  23  40  1   
 43  24  41  1   
 44  24  42  1   
 45  24  43  1   
@<TRIPOS>SUBSTRUCTURE
  1 ****  10 GROUP 4 **** **** 0

# MOE 2024.06 (io_trps.svl 2023.06)
