@<TRIPOS>MOLECULE
NONAME
44 46 1 0 0 
SMALL
USER_CHARGES


@<TRIPOS>ATOM
  1 BR       1.0180    -1.1450    -2.0220 Br    1 <1>  -0.0570 
  2 C       -0.4310    -2.3120    -1.5120 C.2   1 <1>   0.0570 
  3 C       -0.8370    -3.3690    -2.2300 C.2   1 <1>  -0.1100 
  4 C       -1.1340    -2.0590    -0.2950 C.2   1 <1>  -0.1500 
  5 S       -2.1780    -4.1390    -1.3930 S.3   1 <1>  -0.0800 
  6 C       -2.1190    -2.9540    -0.0820 C.2   1 <1>  -0.1400 
  7 C       -3.1180    -3.1150     1.0450 C.3   1 <1>   0.5230 
  8 N       -4.3350    -2.3180     0.7370 N.4   1 <1>  -0.9590 
  9 C       -5.2220    -2.1660     1.9470 C.3   1 <1>   0.3430 
 10 C       -5.1170    -2.8890    -0.4230 C.3   1 <1>   0.3430 
 11 C       -6.4840    -1.3340     1.6510 C.3   1 <1>   0.2090 
 12 C       -6.3850    -2.0720    -0.7400 C.3   1 <1>   0.2090 
 13 N       -7.2270    -1.8850     0.4800 N.pl3 1 <1>  -0.8380 
 14 C       -8.4590    -1.2620     0.2370 C.ar  1 <1>   0.1000 
 15 C       -8.5930     0.0760    -0.1810 C.ar  1 <1>   0.0830 
 16 C       -9.6050    -2.0210     0.4240 C.ar  1 <1>  -0.1500 
 17 O       -7.4530     0.8150    -0.3640 O.3   1 <1>  -0.3630 
 18 C       -9.8620     0.6050    -0.3950 C.ar  1 <1>  -0.1500 
 19 C      -10.8620    -1.4870     0.2080 C.ar  1 <1>  -0.1500 
 20 C       -7.5090     2.1420    -0.8360 C.3   1 <1>   0.1200 
 21 C      -10.9910    -0.1730    -0.2010 C.ar  1 <1>  -0.1500 
 22 C       -6.0790     2.6580    -0.9630 C.3   1 <1>  -0.2400 
 23 H       -0.5000    -3.7890    -3.1620 H     1 <1>   0.1500 
 24 H       -0.8490    -1.2310     0.3320 H     1 <1>   0.1500 
 25 H       -2.6700    -2.7510     1.9550 H     1 <1>   0.0800 
 26 H       -3.3650    -4.1560     1.1790 H     1 <1>   0.0800 
 27 H       -4.0250    -1.3820     0.4500 H     1 <1>   0.4500 
 28 H       -4.6760    -1.6960     2.7480 H     1 <1>   0.0800 
 29 H       -5.5390    -3.1380     2.2870 H     1 <1>   0.0800 
 30 H       -5.4170    -3.8990    -0.1980 H     1 <1>   0.0800 
 31 H       -4.5010    -2.9150    -1.3060 H     1 <1>   0.0800 
 32 H       -6.2070    -0.3110     1.4640 H     1 <1>   0.0800 
 33 H       -7.1310    -1.3460     2.5120 H     1 <1>   0.0800 
 34 H       -6.9630    -2.5870    -1.4880 H     1 <1>   0.0800 
 35 H       -6.1040    -1.1160    -1.1450 H     1 <1>   0.0800 
 36 H       -9.5060    -3.0420     0.7410 H     1 <1>   0.1500 
 37 H      -10.0060     1.6200    -0.7110 H     1 <1>   0.1500 
 38 H      -11.7390    -2.0930     0.3590 H     1 <1>   0.1500 
 39 H       -8.0650     2.7340    -0.1290 H     1 <1>   0.0800 
 40 H       -8.0000     2.1440    -1.7940 H     1 <1>   0.0800 
 41 H      -11.9690     0.2430    -0.3680 H     1 <1>   0.1500 
 42 H       -5.5930     2.6440    -0.0040 H     1 <1>   0.0800 
 43 H       -6.0920     3.6710    -1.3230 H     1 <1>   0.0800 
 44 H       -5.5280     2.0560    -1.6620 H     1 <1>   0.0800 
@<TRIPOS>BOND
  1   1   2  1   
  2   2   3  2   
  3   2   4  1   
  4   3   5  1   
  5   3  23  1   
  6   4   6  2   
  7   4  24  1   
  8   5   6  1   
  9   6   7  1   
 10   7   8  1   
 11   7  25  1   
 12   7  26  1   
 13   8   9  1   
 14   8  10  1   
 15   8  27  1   
 16   9  11  1   
 17   9  28  1   
 18   9  29  1   
 19  10  12  1   
 20  10  30  1   
 21  10  31  1   
 22  11  13  1   
 23  11  32  1   
 24  11  33  1   
 25  12  13  1   
 26  12  34  1   
 27  12  35  1   
 28  13  14  1   
 29  14  15  ar  
 30  14  16  ar  
 31  15  17  1   
 32  15  18  ar  
 33  16  19  ar  
 34  16  36  1   
 35  17  20  1   
 36  18  21  ar  
 37  18  37  1   
 38  19  21  ar  
 39  19  38  1   
 40  20  22  1   
 41  20  39  1   
 42  20  40  1   
 43  21  41  1   
 44  22  42  1   
 45  22  43  1   
 46  22  44  1   
@<TRIPOS>SUBSTRUCTURE
  1 ****  12 GROUP 4 **** **** 0

# MOE 2024.06 (io_trps.svl 2023.06)
