@<TRIPOS>MOLECULE
NONAME
53 55 1 0 0 
SMALL
USER_CHARGES


@<TRIPOS>ATOM
  1 O       -0.1250     1.6990    -2.1100 O.2   1 <1>  -0.5700 
  2 C        0.2640     2.3200    -1.1480 C.2   1 <1>   0.5690 
  3 N       -0.5370     2.9170    -0.2130 N.am  1 <1>  -0.2370 
  4 C        1.7500     2.6180    -0.8850 C.3   1 <1>   0.2510 
  5 C       -1.9400     2.7500    -0.1210 C.ar  1 <1>   0.1170 
  6 C        0.2220     3.7320     0.5800 C.2   1 <1>   0.5690 
  7 N        2.5850     1.4930    -0.3630 N.3   1 <1>  -0.8100 
  8 C        1.6760     3.7170     0.1840 C.3   1 <1>  -0.0990 
  9 C       -2.7860     3.8430     0.0360 C.ar  1 <1>  -0.1500 
 10 C       -2.5080     1.4810    -0.1880 C.ar  1 <1>  -0.1500 
 11 O       -0.1720     4.4260     1.4810 O.2   1 <1>  -0.5700 
 12 C        2.3670     0.2110    -1.0620 C.3   1 <1>   0.1100 
 13 C        4.0260     1.8530    -0.3660 C.3   1 <1>   0.1100 
 14 C       -4.1560     3.6730     0.1210 C.ar  1 <1>  -0.1500 
 15 C       -3.8780     1.3050    -0.1050 C.ar  1 <1>  -0.1500 
 16 C        3.0270    -0.9430    -0.2890 C.3   1 <1>  -0.1600 
 17 C        4.9580     0.6460    -0.1510 C.3   1 <1>  -0.1600 
 18 C       -4.7140     2.4070     0.0500 C.ar  1 <1>   0.0830 
 19 C        4.2400    -0.5090     0.5530 C.3   1 <1>  -0.0800 
 20 O       -6.0660     2.3290     0.1390 O.3   1 <1>  -0.3630 
 21 C        5.1870    -1.6860     0.8140 C.3   1 <1>  -0.2400 
 22 C       -6.7290     1.0880     0.0580 C.3   1 <1>   0.1200 
 23 C       -8.2320     1.3400     0.1790 C.3   1 <1>  -0.1600 
 24 C       -9.0240     0.0290     0.0980 C.3   1 <1>  -0.1600 
 25 C      -10.5280     0.2870     0.2180 C.3   1 <1>  -0.2400 
 26 H        2.1790     2.9980    -1.7950 H     1 <1>   0.0800 
 27 H        1.9370     4.6730    -0.2290 H     1 <1>   0.0800 
 28 H        2.2760     3.5090     1.0500 H     1 <1>   0.0800 
 29 H       -2.3750     4.8350     0.0960 H     1 <1>   0.1500 
 30 H       -1.8730     0.6220    -0.3120 H     1 <1>   0.1500 
 31 H        2.7780     0.2720    -2.0560 H     1 <1>   0.0800 
 32 H        1.3190    -0.0150    -1.1460 H     1 <1>   0.0800 
 33 H        4.2060     2.5600     0.4250 H     1 <1>   0.0800 
 34 H        4.2900     2.3250    -1.2980 H     1 <1>   0.0800 
 35 H       -4.8040     4.5220     0.2440 H     1 <1>   0.1500 
 36 H       -4.2730     0.3080    -0.1640 H     1 <1>   0.1500 
 37 H        3.3160    -1.6930    -1.0030 H     1 <1>   0.0800 
 38 H        2.2970    -1.3900     0.3620 H     1 <1>   0.0800 
 39 H        5.8120     0.9590     0.4220 H     1 <1>   0.0800 
 40 H        5.3180     0.3100    -1.1070 H     1 <1>   0.0800 
 41 H        3.8780    -0.1440     1.5000 H     1 <1>   0.0800 
 42 H        5.5870    -2.0650    -0.1100 H     1 <1>   0.0800 
 43 H        4.6610    -2.4800     1.3140 H     1 <1>   0.0800 
 44 H        6.0040    -1.3740     1.4400 H     1 <1>   0.0800 
 45 H       -6.3830     0.4650     0.8650 H     1 <1>   0.0800 
 46 H       -6.4940     0.6390    -0.8910 H     1 <1>   0.0800 
 47 H       -8.5410     1.9950    -0.6180 H     1 <1>   0.0800 
 48 H       -8.4320     1.8230     1.1200 H     1 <1>   0.0800 
 49 H       -8.7150    -0.6310     0.8920 H     1 <1>   0.0800 
 50 H       -8.8230    -0.4590    -0.8410 H     1 <1>   0.0800 
 51 H      -10.7560     0.7560     1.1590 H     1 <1>   0.0800 
 52 H      -11.0670    -0.6420     0.1590 H     1 <1>   0.0800 
 53 H      -10.8650     0.9270    -0.5790 H     1 <1>   0.0800 
@<TRIPOS>BOND
  1   1   2  2   
  2   2   3  am  
  3   2   4  1   
  4   3   5  1   
  5   3   6  am  
  6   4   7  1   
  7   4   8  1   
  8   4  26  1   
  9   5   9  ar  
 10   5  10  ar  
 11   6   8  1   
 12   6  11  2   
 13   7  12  1   
 14   7  13  1   
 15   8  27  1   
 16   8  28  1   
 17   9  14  ar  
 18   9  29  1   
 19  10  15  ar  
 20  10  30  1   
 21  12  16  1   
 22  12  31  1   
 23  12  32  1   
 24  13  17  1   
 25  13  33  1   
 26  13  34  1   
 27  14  18  ar  
 28  14  35  1   
 29  15  18  ar  
 30  15  36  1   
 31  16  19  1   
 32  16  37  1   
 33  16  38  1   
 34  17  19  1   
 35  17  39  1   
 36  17  40  1   
 37  18  20  1   
 38  19  21  1   
 39  19  41  1   
 40  20  22  1   
 41  21  42  1   
 42  21  43  1   
 43  21  44  1   
 44  22  23  1   
 45  22  45  1   
 46  22  46  1   
 47  23  24  1   
 48  23  47  1   
 49  23  48  1   
 50  24  25  1   
 51  24  49  1   
 52  24  50  1   
 53  25  51  1   
 54  25  52  1   
 55  25  53  1   
@<TRIPOS>SUBSTRUCTURE
  1 ****   5 GROUP 4 **** **** 0

# MOE 2024.06 (io_trps.svl 2023.06)
