@<TRIPOS>MOLECULE
NONAME
41 43 1 0 0 
SMALL
USER_CHARGES


@<TRIPOS>ATOM
  1 O        0.0890    -1.4550     0.5220 O.2   1 <1>  -0.5700 
  2 C       -0.4540    -2.3380    -0.0910 C.2   1 <1>   0.5690 
  3 N        0.1560    -3.1830    -0.9610 N.am  1 <1>  -0.4200 
  4 C       -1.9330    -2.6590     0.0240 C.3   1 <1>  -0.0190 
  5 C       -0.7240    -4.0660    -1.5000 C.2   1 <1>   0.5690 
  6 C        1.5990    -3.1550    -1.2750 C.3   1 <1>   0.1400 
  7 C       -2.1210    -3.8140    -0.9870 C.3   1 <1>  -0.0990 
  8 C       -2.8150    -1.4330    -0.2640 C.3   1 <1>  -0.0160 
  9 O       -0.4500    -4.9360    -2.2840 O.2   1 <1>  -0.5700 
 10 C        2.3570    -4.0550    -0.2950 C.3   1 <1>  -0.1600 
 11 C       -4.2920    -1.7840    -0.1790 C.ar  1 <1>  -0.1430 
 12 C        3.8580    -4.0600    -0.6040 C.3   1 <1>   0.0960 
 13 C       -5.0600    -1.8980    -1.3280 C.ar  1 <1>  -0.1500 
 14 C       -4.8860    -1.9930     1.0570 C.ar  1 <1>  -0.1500 
 15 N        4.5750    -4.9180     0.3570 N.pl3 1 <1>   0.0480 
 16 C       -6.4020    -2.2270    -1.2440 C.ar  1 <1>  -0.1500 
 17 C       -6.2270    -2.3220     1.1430 C.ar  1 <1>  -0.1500 
 18 C        4.9040    -6.2230     0.2220 C.2   1 <1>   0.0360 
 19 C        5.0460    -4.5720     1.5680 C.2   1 <1>  -0.3020 
 20 C       -6.9860    -2.4410    -0.0080 C.ar  1 <1>  -0.1500 
 21 N        5.5370    -6.7150     1.2370 N.2   1 <1>  -0.5650 
 22 C        5.6260    -5.6760     2.0880 C.2   1 <1>   0.0770 
 23 H       -2.1190    -3.0150     1.0210 H     1 <1>   0.0800 
 24 H        1.9570    -2.1410    -1.2020 H     1 <1>   0.0800 
 25 H        1.7470    -3.4980    -2.2850 H     1 <1>   0.0800 
 26 H       -2.7550    -3.5430    -1.8110 H     1 <1>   0.0800 
 27 H       -2.5070    -4.6960    -0.5090 H     1 <1>   0.0800 
 28 H       -2.5850    -1.0360    -1.2380 H     1 <1>   0.0800 
 29 H       -2.5960    -0.6610     0.4540 H     1 <1>   0.0800 
 30 H        1.9770    -5.0600    -0.3710 H     1 <1>   0.0800 
 31 H        2.2040    -3.6930     0.7070 H     1 <1>   0.0800 
 32 H        4.2570    -3.0640    -0.5360 H     1 <1>   0.0800 
 33 H        4.0340    -4.4340    -1.5980 H     1 <1>   0.0800 
 34 H       -4.6210    -1.7320    -2.2960 H     1 <1>   0.1500 
 35 H       -4.3070    -1.9000     1.9590 H     1 <1>   0.1500 
 36 H       -6.9920    -2.3160    -2.1390 H     1 <1>   0.1500 
 37 H       -6.6820    -2.4840     2.1040 H     1 <1>   0.1500 
 38 H        4.6530    -6.7860    -0.6600 H     1 <1>   0.1500 
 39 H        4.9460    -3.5880     1.9870 H     1 <1>   0.1500 
 40 H       -8.0290    -2.6960     0.0580 H     1 <1>   0.1500 
 41 H        6.1120    -5.7790     3.0440 H     1 <1>   0.1500 
@<TRIPOS>BOND
  1   1   2  2   
  2   2   3  am  
  3   2   4  1   
  4   3   5  am  
  5   3   6  1   
  6   4   7  1   
  7   4   8  1   
  8   4  23  1   
  9   5   7  1   
 10   5   9  2   
 11   6  10  1   
 12   6  24  1   
 13   6  25  1   
 14   7  26  1   
 15   7  27  1   
 16   8  11  1   
 17   8  28  1   
 18   8  29  1   
 19  10  12  1   
 20  10  30  1   
 21  10  31  1   
 22  11  13  ar  
 23  11  14  ar  
 24  12  15  1   
 25  12  32  1   
 26  12  33  1   
 27  13  16  ar  
 28  13  34  1   
 29  14  17  ar  
 30  14  35  1   
 31  15  18  1   
 32  15  19  1   
 33  16  20  ar  
 34  16  36  1   
 35  17  20  ar  
 36  17  37  1   
 37  18  21  2   
 38  18  38  1   
 39  19  22  2   
 40  19  39  1   
 41  20  40  1   
 42  21  22  1   
 43  22  41  1   
@<TRIPOS>SUBSTRUCTURE
  1 ****   3 GROUP 4 **** **** 0

# MOE 2024.06 (io_trps.svl 2023.06)
