@<TRIPOS>MOLECULE
NONAME
47 48 1 0 0 
SMALL
USER_CHARGES


@<TRIPOS>ATOM
  1 F       -1.1240     0.0770     1.3350 F     1 <1>  -0.1900 
  2 C       -1.8610     0.9920     0.7620 C.ar  1 <1>   0.1900 
  3 C       -1.5100     2.3280     0.8350 C.ar  1 <1>   0.1900 
  4 C       -3.0000     0.5930     0.0850 C.ar  1 <1>  -0.1500 
  5 F       -0.4330     2.6980     1.4780 F     1 <1>  -0.1900 
  6 C       -2.2920     3.2950     0.2300 C.ar  1 <1>  -0.1500 
  7 C       -3.8000     1.5580    -0.5200 C.ar  1 <1>  -0.1440 
  8 C       -3.4380     2.9020    -0.4480 C.ar  1 <1>  -0.1500 
  9 C       -5.0630     1.1440    -1.2570 C.3   1 <1>   0.4870 
 10 N       -6.0980     0.7610    -0.2590 N.4   1 <1>  -0.9590 
 11 C       -7.2630     0.1070    -0.9380 C.3   1 <1>   0.3430 
 12 C       -6.5250     1.9310     0.5660 C.3   1 <1>   0.3430 
 13 C       -8.3170    -0.3680     0.0710 C.3   1 <1>  -0.0190 
 14 C       -7.5360     1.4790     1.6220 C.3   1 <1>  -0.1600 
 15 C       -9.4990    -0.9310    -0.7110 C.2   1 <1>   0.5690 
 16 C       -8.7530     0.7930     0.9860 C.3   1 <1>  -0.1600 
 17 O       -9.6940    -0.4510    -1.8030 O.2   1 <1>  -0.5700 
 18 N      -10.2930    -1.9300    -0.2050 N.am  1 <1>  -0.6600 
 19 C      -10.1410    -2.5610     1.1350 C.3   1 <1>   0.1400 
 20 C      -11.4450    -2.4410    -0.9990 C.3   1 <1>   0.1400 
 21 C       -9.2860    -3.8200     1.0150 C.3   1 <1>  -0.2400 
 22 C      -12.7040    -1.6560    -0.6380 C.3   1 <1>  -0.2400 
 23 H       -3.2330    -0.4570     0.0420 H     1 <1>   0.1500 
 24 H       -2.0020     4.3300     0.2910 H     1 <1>   0.1500 
 25 H       -4.0390     3.6610    -0.9220 H     1 <1>   0.1500 
 26 H       -4.8390     0.3070    -1.8980 H     1 <1>   0.0800 
 27 H       -5.4180     1.9560    -1.8710 H     1 <1>   0.0800 
 28 H       -5.6650     0.0830     0.3790 H     1 <1>   0.4500 
 29 H       -6.9320    -0.7380    -1.5210 H     1 <1>   0.0800 
 30 H       -7.7270     0.8090    -1.6140 H     1 <1>   0.0800 
 31 H       -6.9780     2.6790    -0.0650 H     1 <1>   0.0800 
 32 H       -5.6710     2.3730     1.0560 H     1 <1>   0.0800 
 33 H       -7.8780    -1.1530     0.6570 H     1 <1>   0.0800 
 34 H       -7.8660     2.3400     2.1780 H     1 <1>   0.0800 
 35 H       -7.0550     0.8140     2.3180 H     1 <1>   0.0800 
 36 H       -9.4120     0.4310     1.7570 H     1 <1>   0.0800 
 37 H       -9.3060     1.5140     0.4040 H     1 <1>   0.0800 
 38 H      -11.1120    -2.8200     1.5250 H     1 <1>   0.0800 
 39 H       -9.6920    -1.8740     1.8300 H     1 <1>   0.0800 
 40 H      -11.5940    -3.4890    -0.8030 H     1 <1>   0.0800 
 41 H      -11.2440    -2.3320    -2.0530 H     1 <1>   0.0800 
 42 H       -9.7610    -4.5350     0.3680 H     1 <1>   0.0800 
 43 H       -9.1690    -4.2710     1.9840 H     1 <1>   0.0800 
 44 H       -8.3120    -3.5860     0.6270 H     1 <1>   0.0800 
 45 H      -12.9450    -1.7750     0.4020 H     1 <1>   0.0800 
 46 H      -13.5320    -2.0140    -1.2220 H     1 <1>   0.0800 
 47 H      -12.5630    -0.6130    -0.8570 H     1 <1>   0.0800 
@<TRIPOS>BOND
  1   1   2  1   
  2   2   3  ar  
  3   2   4  ar  
  4   3   5  1   
  5   3   6  ar  
  6   4   7  ar  
  7   4  23  1   
  8   6   8  ar  
  9   6  24  1   
 10   7   8  ar  
 11   7   9  1   
 12   8  25  1   
 13   9  10  1   
 14   9  26  1   
 15   9  27  1   
 16  10  11  1   
 17  10  12  1   
 18  10  28  1   
 19  11  13  1   
 20  11  29  1   
 21  11  30  1   
 22  12  14  1   
 23  12  31  1   
 24  12  32  1   
 25  13  15  1   
 26  13  16  1   
 27  13  33  1   
 28  14  16  1   
 29  14  34  1   
 30  14  35  1   
 31  15  17  2   
 32  15  18  am  
 33  16  36  1   
 34  16  37  1   
 35  18  19  1   
 36  18  20  1   
 37  19  21  1   
 38  19  38  1   
 39  19  39  1   
 40  20  22  1   
 41  20  40  1   
 42  20  41  1   
 43  21  42  1   
 44  21  43  1   
 45  21  44  1   
 46  22  45  1   
 47  22  46  1   
 48  22  47  1   
@<TRIPOS>SUBSTRUCTURE
  1 ****  10 GROUP 4 **** **** 0

# MOE 2024.06 (io_trps.svl 2023.06)
