@<TRIPOS>MOLECULE
NONAME
38 39 1 0 0 
SMALL
USER_CHARGES


@<TRIPOS>ATOM
  1 BR      -0.2070    -0.3520     0.9450 Br    1 <1>  -0.1110 
  2 C       -1.6630     0.7670     0.3710 C.ar  1 <1>   0.1110 
  3 C       -2.9550     0.2980     0.5010 C.ar  1 <1>  -0.1500 
  4 C       -1.3770     2.0120    -0.1570 C.ar  1 <1>  -0.1500 
  5 C       -4.0050     1.1030     0.0880 C.ar  1 <1>   0.0830 
  6 C       -2.4290     2.8130    -0.5690 C.ar  1 <1>  -0.1500 
  7 O       -5.2540     0.5960     0.2390 O.3   1 <1>  -0.3630 
  8 C       -3.7360     2.3630    -0.4490 C.ar  1 <1>  -0.1500 
  9 C       -6.3950     1.3360    -0.1200 C.3   1 <1>   0.1200 
 10 C       -7.6160     0.4630     0.1890 C.3   1 <1>   0.3430 
 11 N       -8.9150     1.1190    -0.1790 N.4   1 <1>  -0.9590 
 12 C       -9.2150     2.3070     0.6770 C.3   1 <1>   0.3430 
 13 C      -10.0240     0.1220    -0.1190 C.3   1 <1>   0.3430 
 14 C      -10.4900     2.9900     0.1820 C.3   1 <1>  -0.1600 
 15 C      -11.3170     0.7570    -0.6320 C.3   1 <1>  -0.1600 
 16 C      -11.6800     2.0200     0.1610 C.3   1 <1>  -0.0800 
 17 C      -12.9180     2.6970    -0.4370 C.3   1 <1>  -0.2400 
 18 H       -3.1400    -0.6750     0.9160 H     1 <1>   0.1500 
 19 H       -0.3570     2.3420    -0.2430 H     1 <1>   0.1500 
 20 H       -2.2260     3.7860    -0.9840 H     1 <1>   0.1500 
 21 H       -4.5220     3.0130    -0.7810 H     1 <1>   0.1500 
 22 H       -6.3340     1.5520    -1.1720 H     1 <1>   0.0800 
 23 H       -6.3990     2.2390     0.4630 H     1 <1>   0.0800 
 24 H       -7.6170     0.2250     1.2410 H     1 <1>   0.0800 
 25 H       -7.5140    -0.4570    -0.3640 H     1 <1>   0.0800 
 26 H       -8.8630     1.4420    -1.1550 H     1 <1>   0.4500 
 27 H       -8.4000     3.0120     0.6410 H     1 <1>   0.0800 
 28 H       -9.3490     1.9960     1.7010 H     1 <1>   0.0800 
 29 H      -10.1660    -0.2090     0.8980 H     1 <1>   0.0800 
 30 H       -9.7850    -0.7380    -0.7250 H     1 <1>   0.0800 
 31 H      -10.3200     3.3940    -0.8010 H     1 <1>   0.0800 
 32 H      -10.7170     3.8170     0.8330 H     1 <1>   0.0800 
 33 H      -12.1150     0.0400    -0.5440 H     1 <1>   0.0800 
 34 H      -11.2090     0.9890    -1.6780 H     1 <1>   0.0800 
 35 H      -11.9110     1.7360     1.1760 H     1 <1>   0.0800 
 36 H      -12.7410     3.0020    -1.4540 H     1 <1>   0.0800 
 37 H      -13.1850     3.5670     0.1380 H     1 <1>   0.0800 
 38 H      -13.7570     2.0220    -0.4260 H     1 <1>   0.0800 
@<TRIPOS>BOND
  1   1   2  1   
  2   2   3  ar  
  3   2   4  ar  
  4   3   5  ar  
  5   3  18  1   
  6   4   6  ar  
  7   4  19  1   
  8   5   7  1   
  9   5   8  ar  
 10   6   8  ar  
 11   6  20  1   
 12   7   9  1   
 13   8  21  1   
 14   9  10  1   
 15   9  22  1   
 16   9  23  1   
 17  10  11  1   
 18  10  24  1   
 19  10  25  1   
 20  11  12  1   
 21  11  13  1   
 22  11  26  1   
 23  12  14  1   
 24  12  27  1   
 25  12  28  1   
 26  13  15  1   
 27  13  29  1   
 28  13  30  1   
 29  14  16  1   
 30  14  31  1   
 31  14  32  1   
 32  15  16  1   
 33  15  33  1   
 34  15  34  1   
 35  16  17  1   
 36  16  35  1   
 37  17  36  1   
 38  17  37  1   
 39  17  38  1   
@<TRIPOS>SUBSTRUCTURE
  1 ****   9 GROUP 4 **** **** 0

# MOE 2024.06 (io_trps.svl 2023.06)
