@<TRIPOS>MOLECULE
NONAME
37 37 1 0 0 
SMALL
USER_CHARGES


@<TRIPOS>ATOM
  1 O       -0.1780    -0.2470    -1.0410 O.2   1 <1>  -0.5700 
  2 C        0.8600    -0.7880    -0.7050 C.2   1 <1>   0.6340 
  3 O        1.9730    -0.0440    -0.6820 O.3   1 <1>  -0.4300 
  4 C        0.9700    -2.1880    -0.3320 C.ar  1 <1>   0.0860 
  5 C        1.9700     1.3280    -1.0280 C.3   1 <1>   0.0400 
  6 C       -0.1560    -2.9860    -0.0310 C.ar  1 <1>   0.1170 
  7 C        2.2330    -2.7900    -0.2620 C.ar  1 <1>  -0.1500 
  8 N       -1.4460    -2.4310    -0.0790 N.am  1 <1>  -0.5470 
  9 C        0.0300    -4.3270     0.3010 C.ar  1 <1>  -0.1500 
 10 C        2.3960    -4.1170     0.0780 C.ar  1 <1>  -0.1500 
 11 C       -2.6560    -2.8100     0.4360 C.2   1 <1>   0.5690 
 12 C        1.2870    -4.8900     0.3600 C.ar  1 <1>  -0.1500 
 13 O       -2.8150    -3.8010     1.1070 O.2   1 <1>  -0.5700 
 14 C       -3.8520    -1.8940     0.1560 C.3   1 <1>  -0.0190 
 15 C       -4.2530    -1.1390     1.4460 C.3   1 <1>  -0.1600 
 16 C       -5.0090    -2.7160    -0.4620 C.3   1 <1>  -0.1600 
 17 C       -4.6760     0.3170     1.1970 C.3   1 <1>  -0.2400 
 18 C       -6.2130    -1.8840    -0.9220 C.3   1 <1>  -0.2400 
 19 H        2.9730     1.7050    -0.9340 H     1 <1>   0.0800 
 20 H        1.3120     1.8540    -0.3590 H     1 <1>   0.0800 
 21 H        1.6290     1.4300    -2.0430 H     1 <1>   0.0800 
 22 H        3.1130    -2.2100    -0.4820 H     1 <1>   0.1500 
 23 H       -1.4610    -1.5070    -0.5300 H     1 <1>   0.3700 
 24 H       -0.8170    -4.9510     0.5180 H     1 <1>   0.1500 
 25 H        3.3800    -4.5520     0.1240 H     1 <1>   0.1500 
 26 H        1.4020    -5.9280     0.6230 H     1 <1>   0.1500 
 27 H       -3.5360    -1.1730    -0.5770 H     1 <1>   0.0800 
 28 H       -3.4110    -1.1170     2.1170 H     1 <1>   0.0800 
 29 H       -5.0390    -1.6720     1.9530 H     1 <1>   0.0800 
 30 H       -5.3440    -3.4520     0.2500 H     1 <1>   0.0800 
 31 H       -4.6250    -3.2520    -1.3130 H     1 <1>   0.0800 
 32 H       -3.8680     0.8710     0.7510 H     1 <1>   0.0800 
 33 H       -4.9300     0.7860     2.1320 H     1 <1>   0.0800 
 34 H       -5.5300     0.3760     0.5500 H     1 <1>   0.0800 
 35 H       -6.7310    -1.4670    -0.0780 H     1 <1>   0.0800 
 36 H       -6.9030    -2.5110    -1.4580 H     1 <1>   0.0800 
 37 H       -5.8980    -1.0890    -1.5750 H     1 <1>   0.0800 
@<TRIPOS>BOND
  1   1   2  2   
  2   2   3  1   
  3   2   4  1   
  4   3   5  1   
  5   4   6  ar  
  6   4   7  ar  
  7   5  19  1   
  8   5  20  1   
  9   5  21  1   
 10   6   8  1   
 11   6   9  ar  
 12   7  10  ar  
 13   7  22  1   
 14   8  11  am  
 15   8  23  1   
 16   9  12  ar  
 17   9  24  1   
 18  10  12  ar  
 19  10  25  1   
 20  11  13  2   
 21  11  14  1   
 22  12  26  1   
 23  14  15  1   
 24  14  16  1   
 25  14  27  1   
 26  15  17  1   
 27  15  28  1   
 28  15  29  1   
 29  16  18  1   
 30  16  30  1   
 31  16  31  1   
 32  17  32  1   
 33  17  33  1   
 34  17  34  1   
 35  18  35  1   
 36  18  36  1   
 37  18  37  1   
@<TRIPOS>SUBSTRUCTURE
  1 ****   8 GROUP 4 **** **** 0

# MOE 2024.06 (io_trps.svl 2023.06)
