@<TRIPOS>MOLECULE
NONAME
53 55 1 0 0 
SMALL
USER_CHARGES


@<TRIPOS>ATOM
  1 O       -0.8200     1.4330    -3.8000 O.2   1 <1>  -0.5700 
  2 C       -0.4730     1.7210    -2.6800 C.2   1 <1>   0.5690 
  3 N       -1.0080     1.1990    -1.5370 N.am  1 <1>  -0.5470 
  4 C        0.6500     2.7440    -2.4910 C.3   1 <1>   0.1710 
  5 C       -2.0180     0.2600    -1.2800 C.ar  1 <1>   0.1170 
  6 N        1.3550     2.6260    -1.1780 N.3   1 <1>  -0.8100 
  7 C       -2.2560    -0.1110     0.0370 C.ar  1 <1>  -0.1500 
  8 C       -2.7970    -0.3180    -2.2740 C.ar  1 <1>  -0.1500 
  9 C        2.2550     1.4430    -1.1690 C.3   1 <1>   0.1100 
 10 C        2.1530     3.8410    -0.8990 C.3   1 <1>   0.1100 
 11 C       -3.2350    -1.0330     0.3690 C.ar  1 <1>  -0.1430 
 12 C       -3.7770    -1.2400    -1.9560 C.ar  1 <1>  -0.1500 
 13 C        2.9870     1.2740     0.1760 C.3   1 <1>   0.2090 
 14 C        2.9030     3.7590     0.4470 C.3   1 <1>   0.2090 
 15 C       -4.0050    -1.6060    -0.6390 C.ar  1 <1>  -0.1430 
 16 C       -3.4470    -1.3990     1.8310 C.3   1 <1>  -0.0970 
 17 N        3.7240     2.5150     0.5540 N.pl3 1 <1>  -0.8380 
 18 C       -5.0930    -2.6240    -0.3320 C.3   1 <1>  -0.0970 
 19 C        5.1110     2.5370     0.3930 C.ar  1 <1>   0.1000 
 20 C        5.9000     1.6840     1.1530 C.ar  1 <1>  -0.1500 
 21 C        5.7400     3.3820    -0.5170 C.ar  1 <1>  -0.1500 
 22 C        7.2760     1.6600     1.0170 C.ar  1 <1>   0.0820 
 23 C        7.1160     3.3720    -0.6600 C.ar  1 <1>  -0.1500 
 24 O        7.9550     0.7850     1.8040 O.3   1 <1>  -0.3630 
 25 C        7.8890     2.5130     0.1030 C.ar  1 <1>  -0.1500 
 26 C        9.3620     0.7080     1.7640 C.3   1 <1>   0.0400 
 27 H       -0.5110     1.5550    -0.7150 H     1 <1>   0.3700 
 28 H        0.1990     3.7170    -2.5650 H     1 <1>   0.0800 
 29 H        1.3530     2.6430    -3.2990 H     1 <1>   0.0800 
 30 H       -1.6610     0.3330     0.8130 H     1 <1>   0.1500 
 31 H       -2.6450    -0.0550    -3.3040 H     1 <1>   0.1500 
 32 H        2.9930     1.5380    -1.9460 H     1 <1>   0.0800 
 33 H        1.6870     0.5490    -1.3610 H     1 <1>   0.0800 
 34 H        1.5020     4.6970    -0.8740 H     1 <1>   0.0800 
 35 H        2.8710     3.9920    -1.6860 H     1 <1>   0.0800 
 36 H       -4.3630    -1.6710    -2.7480 H     1 <1>   0.1500 
 37 H        3.6760     0.4500     0.1020 H     1 <1>   0.0800 
 38 H        2.2730     1.0410     0.9450 H     1 <1>   0.0800 
 39 H        2.1840     3.7660     1.2480 H     1 <1>   0.0800 
 40 H        3.5330     4.6220     0.5680 H     1 <1>   0.0800 
 41 H       -2.7780    -0.8490     2.4690 H     1 <1>   0.0800 
 42 H       -3.2670    -2.4480     1.9780 H     1 <1>   0.0800 
 43 H       -4.4560    -1.1700     2.1260 H     1 <1>   0.0800 
 44 H       -4.6690    -3.4780     0.1650 H     1 <1>   0.0800 
 45 H       -5.5700    -2.9620    -1.2340 H     1 <1>   0.0800 
 46 H       -5.8410    -2.1830     0.3010 H     1 <1>   0.0800 
 47 H        5.4320     1.0340     1.8660 H     1 <1>   0.1500 
 48 H        5.1530     4.0450    -1.1200 H     1 <1>   0.1500 
 49 H        7.5880     4.0320    -1.3670 H     1 <1>   0.1500 
 50 H        8.9530     2.5230    -0.0280 H     1 <1>   0.1500 
 51 H        9.6760    -0.0360     2.4730 H     1 <1>   0.0800 
 52 H        9.7710     1.6660     2.0340 H     1 <1>   0.0800 
 53 H        9.6680     0.4220     0.7740 H     1 <1>   0.0800 
@<TRIPOS>BOND
  1   1   2  2   
  2   2   3  am  
  3   2   4  1   
  4   3   5  1   
  5   3  27  1   
  6   4   6  1   
  7   4  28  1   
  8   4  29  1   
  9   5   7  ar  
 10   5   8  ar  
 11   6   9  1   
 12   6  10  1   
 13   7  11  ar  
 14   7  30  1   
 15   8  12  ar  
 16   8  31  1   
 17   9  13  1   
 18   9  32  1   
 19   9  33  1   
 20  10  14  1   
 21  10  34  1   
 22  10  35  1   
 23  11  15  ar  
 24  11  16  1   
 25  12  15  ar  
 26  12  36  1   
 27  13  17  1   
 28  13  37  1   
 29  13  38  1   
 30  14  17  1   
 31  14  39  1   
 32  14  40  1   
 33  15  18  1   
 34  16  41  1   
 35  16  42  1   
 36  16  43  1   
 37  17  19  1   
 38  18  44  1   
 39  18  45  1   
 40  18  46  1   
 41  19  20  ar  
 42  19  21  ar  
 43  20  22  ar  
 44  20  47  1   
 45  21  23  ar  
 46  21  48  1   
 47  22  24  1   
 48  22  25  ar  
 49  23  25  ar  
 50  23  49  1   
 51  24  26  1   
 52  25  50  1   
 53  26  51  1   
 54  26  52  1   
 55  26  53  1   
@<TRIPOS>SUBSTRUCTURE
  1 ****   9 GROUP 4 **** **** 0

# MOE 2024.06 (io_trps.svl 2023.06)
