@<TRIPOS>MOLECULE
NONAME
48 51 1 0 0 
SMALL
USER_CHARGES


@<TRIPOS>ATOM
  1 O       -3.8170     0.0460     2.6690 O.2   1 <1>  -0.5700 
  2 C       -3.4940     1.0910     2.1210 C.2   1 <1>   0.6160 
  3 N       -3.7810     1.2730     0.7770 N.am  1 <1>  -0.4690 
  4 C       -2.8910     2.1600     2.8360 C.2   1 <1>  -0.1360 
  5 C       -3.6710     2.5400     0.2060 C.2   1 <1>  -0.0290 
  6 C       -3.9140     0.0410    -0.0730 C.3   1 <1>   0.1400 
  7 C       -2.6970     3.3700     2.2510 C.2   1 <1>  -0.1500 
  8 C       -3.1240     3.5650     0.9150 C.2   1 <1>  -0.1500 
  9 C       -4.2340     2.7580    -1.2020 C.3   1 <1>   0.0580 
 10 C       -4.6220     0.3140    -1.4120 C.3   1 <1>  -0.0800 
 11 C       -5.7540     2.9720    -1.0690 C.3   1 <1>   0.3430 
 12 C       -3.9730     1.5330    -2.0870 C.3   1 <1>  -0.1600 
 13 C       -6.1330     0.5320    -1.2050 C.3   1 <1>   0.3430 
 14 N       -6.3670     1.7750    -0.3970 N.4   1 <1>  -0.9590 
 15 C       -7.7330     2.0070     0.1450 C.3   1 <1>   0.4230 
 16 C       -8.0360     0.9780     1.2350 C.3   1 <1>  -0.1600 
 17 C       -8.8100     1.9740    -0.9430 C.3   1 <1>  -0.1600 
 18 C       -9.4200     1.2250     1.8340 C.3   1 <1>   0.3430 
 19 C      -10.1920     2.2100    -0.3280 C.3   1 <1>   0.3430 
 20 N      -10.4520     1.2140     0.7540 N.4   1 <1>  -0.9590 
 21 C      -11.8140     1.4370     1.3440 C.3   1 <1>   0.2630 
 22 H       -2.6050     1.9570     3.8510 H     1 <1>   0.1500 
 23 H       -4.4420    -0.7290     0.4660 H     1 <1>   0.0800 
 24 H       -2.9210    -0.3300    -0.2680 H     1 <1>   0.0800 
 25 H       -2.2360     4.1900     2.7780 H     1 <1>   0.1500 
 26 H       -3.0040     4.5520     0.4980 H     1 <1>   0.1500 
 27 H       -3.7880     3.6300    -1.6490 H     1 <1>   0.0800 
 28 H       -4.4900    -0.5500    -2.0410 H     1 <1>   0.0800 
 29 H       -6.1900     3.1200    -2.0440 H     1 <1>   0.0800 
 30 H       -5.9270     3.8560    -0.4770 H     1 <1>   0.0800 
 31 H       -2.9110     1.3790    -2.1920 H     1 <1>   0.0800 
 32 H       -4.3840     1.6850    -3.0710 H     1 <1>   0.0800 
 33 H       -6.5430    -0.3250    -0.6980 H     1 <1>   0.0800 
 34 H       -6.6150     0.6230    -2.1650 H     1 <1>   0.0800 
 35 H       -5.7400     1.6440     0.4220 H     1 <1>   0.4500 
 36 H       -7.7490     2.9840     0.6050 H     1 <1>   0.0800 
 37 H       -7.3080     1.0600     2.0240 H     1 <1>   0.0800 
 38 H       -8.0020    -0.0240     0.8490 H     1 <1>   0.0800 
 39 H       -8.8200     1.0280    -1.4540 H     1 <1>   0.0800 
 40 H       -8.6250     2.7480    -1.6650 H     1 <1>   0.0800 
 41 H       -9.4330     2.1780     2.3410 H     1 <1>   0.0800 
 42 H       -9.6400     0.4590     2.5630 H     1 <1>   0.0800 
 43 H      -10.9470     2.1250    -1.0950 H     1 <1>   0.0800 
 44 H      -10.2430     3.2090     0.0780 H     1 <1>   0.0800 
 45 H      -10.4670     0.2710     0.3330 H     1 <1>   0.4500 
 46 H      -11.8720     2.4090     1.8080 H     1 <1>   0.0800 
 47 H      -12.0290     0.6880     2.0900 H     1 <1>   0.0800 
 48 H      -12.5710     1.3780     0.5770 H     1 <1>   0.0800 
@<TRIPOS>BOND
  1   1   2  2   
  2   2   3  am  
  3   2   4  1   
  4   3   5  1   
  5   3   6  1   
  6   4   7  2   
  7   4  22  1   
  8   5   8  2   
  9   5   9  1   
 10   6  10  1   
 11   6  23  1   
 12   6  24  1   
 13   7   8  1   
 14   7  25  1   
 15   8  26  1   
 16   9  11  1   
 17   9  12  1   
 18   9  27  1   
 19  10  12  1   
 20  10  13  1   
 21  10  28  1   
 22  11  14  1   
 23  11  29  1   
 24  11  30  1   
 25  12  31  1   
 26  12  32  1   
 27  13  14  1   
 28  13  33  1   
 29  13  34  1   
 30  14  15  1   
 31  14  35  1   
 32  15  16  1   
 33  15  17  1   
 34  15  36  1   
 35  16  18  1   
 36  16  37  1   
 37  16  38  1   
 38  17  19  1   
 39  17  39  1   
 40  17  40  1   
 41  18  20  1   
 42  18  41  1   
 43  18  42  1   
 44  19  20  1   
 45  19  43  1   
 46  19  44  1   
 47  20  21  1   
 48  20  45  1   
 49  21  46  1   
 50  21  47  1   
 51  21  48  1   
@<TRIPOS>SUBSTRUCTURE
  1 ****  14 GROUP 4 **** **** 0

# MOE 2024.06 (io_trps.svl 2023.06)
