@<TRIPOS>MOLECULE
NONAME
27 27 1 0 0 
SMALL
USER_CHARGES


@<TRIPOS>ATOM
  1 CL      -0.8890     0.1930     1.5380 Cl    1 <1>  -0.1770 
  2 C       -2.1040    -0.8070     0.7670 C.ar  1 <1>   0.1770 
  3 C       -3.3810    -0.2900     0.6160 C.ar  1 <1>   0.1770 
  4 C       -1.7860    -2.0820     0.3210 C.ar  1 <1>  -0.0090 
  5 CL      -3.7380     1.3280     1.1930 Cl    1 <1>  -0.1770 
  6 C       -4.3850    -1.0370     0.0110 C.ar  1 <1>   0.0830 
  7 S       -0.1250    -2.7680     0.5090 S.o2  1 <1>   1.4470 
  8 C       -2.7990    -2.8230    -0.2830 C.ar  1 <1>  -0.1500 
  9 O       -5.6200    -0.4830    -0.1120 O.3   1 <1>  -0.3630 
 10 C       -4.0790    -2.3170    -0.4400 C.ar  1 <1>  -0.1500 
 11 O        0.3230    -2.6800     1.8790 O.2   1 <1>  -0.6500 
 12 O       -0.0510    -4.0370    -0.1760 O.2   1 <1>  -0.6500 
 13 N        0.8440    -1.7860    -0.4440 N.am  1 <1>  -0.9140 
 14 C       -6.6950    -1.1720    -0.7110 C.3   1 <1>   0.0400 
 15 C        2.0540    -1.3310     0.2100 C.3   1 <1>   0.1960 
 16 C        2.8720    -0.5440    -0.8040 C.3   1 <1>  -0.2400 
 17 H       -2.5830    -3.8180    -0.6400 H     1 <1>   0.1500 
 18 H       -4.8210    -2.9340    -0.9130 H     1 <1>   0.1500 
 19 H        1.1180    -2.4040    -1.2060 H     1 <1>   0.4200 
 20 H       -7.5560    -0.5280    -0.6890 H     1 <1>   0.0800 
 21 H       -6.8950    -2.0670    -0.1500 H     1 <1>   0.0800 
 22 H       -6.4390    -1.4020    -1.7310 H     1 <1>   0.0800 
 23 H        1.8030    -0.6990     1.0480 H     1 <1>   0.0800 
 24 H        2.6220    -2.1740     0.5730 H     1 <1>   0.0800 
 25 H        3.7670    -0.1780    -0.3360 H     1 <1>   0.0800 
 26 H        2.3060     0.2980    -1.1600 H     1 <1>   0.0800 
 27 H        3.1510    -1.1690    -1.6330 H     1 <1>   0.0800 
@<TRIPOS>BOND
  1   1   2  1   
  2   2   3  ar  
  3   2   4  ar  
  4   3   5  1   
  5   3   6  ar  
  6   4   7  1   
  7   4   8  ar  
  8   6   9  1   
  9   6  10  ar  
 10   7  11  2   
 11   7  12  2   
 12   7  13  am  
 13   8  10  ar  
 14   8  17  1   
 15   9  14  1   
 16  10  18  1   
 17  13  15  1   
 18  13  19  1   
 19  14  20  1   
 20  14  21  1   
 21  14  22  1   
 22  15  16  1   
 23  15  23  1   
 24  15  24  1   
 25  16  25  1   
 26  16  26  1   
 27  16  27  1   
@<TRIPOS>SUBSTRUCTURE
  1 ****   4 GROUP 4 **** **** 0

# MOE 2024.06 (io_trps.svl 2023.06)
