@<TRIPOS>MOLECULE
NONAME
37 38 1 0 0 
SMALL
USER_CHARGES


@<TRIPOS>ATOM
  1 CL       0.2640    -0.0550    -1.3410 Cl    1 <1>  -0.1770 
  2 C       -0.4780    -1.5190    -0.7380 C.ar  1 <1>   0.1770 
  3 C        0.2920    -2.5040    -0.1120 C.ar  1 <1>   0.0530 
  4 C       -1.8410    -1.6580    -0.9240 C.ar  1 <1>  -0.1500 
  5 C        1.7150    -2.3780     0.1060 C.2   1 <1>   0.0870 
  6 C       -0.3800    -3.6520     0.3090 C.ar  1 <1>  -0.1500 
  7 C       -2.4790    -2.8060    -0.4890 C.ar  1 <1>  -0.1500 
  8 O        2.5010    -3.4330    -0.0590 O.3   1 <1>  -0.2800 
  9 C        2.4860    -1.3240     0.4820 C.2   1 <1>  -0.1500 
 10 C       -1.7430    -3.8030     0.1260 C.ar  1 <1>  -0.1500 
 11 C        3.7470    -3.0870     0.1840 C.2   1 <1>  -0.0400 
 12 C        3.8040    -1.7800     0.5300 C.2   1 <1>  -0.1500 
 13 C        4.8040    -4.1620     0.0290 C.3   1 <1>   0.5230 
 14 N        6.1480    -3.5800     0.2770 N.4   1 <1>  -0.9060 
 15 C        7.2940    -4.4780     0.1570 C.3   1 <1>   0.5030 
 16 C        8.5290    -3.6370     0.4590 C.3   1 <1>  -0.2400 
 17 C        7.1730    -5.6100     1.1760 C.3   1 <1>  -0.2400 
 18 C        7.3740    -5.0260    -1.2680 C.3   1 <1>  -0.2400 
 19 H       -2.3960    -0.8750    -1.4080 H     1 <1>   0.1500 
 20 H        0.1770    -4.4370     0.7910 H     1 <1>   0.1500 
 21 H       -3.5410    -2.9230    -0.6290 H     1 <1>   0.1500 
 22 H        2.1630    -0.3210     0.7050 H     1 <1>   0.1500 
 23 H       -2.2350    -4.7000     0.4640 H     1 <1>   0.1500 
 24 H        4.6400    -1.1570     0.7950 H     1 <1>   0.1500 
 25 H        4.7480    -4.5620    -0.9700 H     1 <1>   0.0800 
 26 H        4.6020    -4.9560     0.7280 H     1 <1>   0.0800 
 27 H        6.1470    -3.1800     1.2190 H     1 <1>   0.4500 
 28 H        6.2750    -2.8040    -0.3770 H     1 <1>   0.4500 
 29 H        8.4940    -3.2370     1.4570 H     1 <1>   0.0800 
 30 H        8.6330    -2.8300    -0.2440 H     1 <1>   0.0800 
 31 H        9.4140    -4.2470     0.3850 H     1 <1>   0.0800 
 32 H        7.0680    -5.2250     2.1750 H     1 <1>   0.0800 
 33 H        8.0650    -6.2130     1.1530 H     1 <1>   0.0800 
 34 H        6.3470    -6.2620     0.9560 H     1 <1>   0.0800 
 35 H        7.4090    -4.2300    -1.9900 H     1 <1>   0.0800 
 36 H        6.5480    -5.6770    -1.4940 H     1 <1>   0.0800 
 37 H        8.2730    -5.6070    -1.3800 H     1 <1>   0.0800 
@<TRIPOS>BOND
  1   1   2  1   
  2   2   3  ar  
  3   2   4  ar  
  4   3   5  1   
  5   3   6  ar  
  6   4   7  ar  
  7   4  19  1   
  8   5   8  1   
  9   5   9  2   
 10   6  10  ar  
 11   6  20  1   
 12   7  10  ar  
 13   7  21  1   
 14   8  11  1   
 15   9  12  1   
 16   9  22  1   
 17  10  23  1   
 18  11  12  2   
 19  11  13  1   
 20  12  24  1   
 21  13  14  1   
 22  13  25  1   
 23  13  26  1   
 24  14  15  1   
 25  14  27  1   
 26  14  28  1   
 27  15  16  1   
 28  15  17  1   
 29  15  18  1   
 30  16  29  1   
 31  16  30  1   
 32  16  31  1   
 33  17  32  1   
 34  17  33  1   
 35  17  34  1   
 36  18  35  1   
 37  18  36  1   
 38  18  37  1   
@<TRIPOS>SUBSTRUCTURE
  1 ****   8 GROUP 4 **** **** 0

# MOE 2024.06 (io_trps.svl 2023.06)
