@<TRIPOS>MOLECULE
NONAME
49 51 1 0 0 
SMALL
USER_CHARGES


@<TRIPOS>ATOM
  1 CL       1.5710     1.7580    -2.9580 Cl    1 <1>  -0.1770 
  2 C        2.2940     1.6570    -1.3740 C.ar  1 <1>   0.1770 
  3 C        3.5180     1.0350    -1.2260 C.ar  1 <1>  -0.1500 
  4 C        1.6280     2.2020    -0.2940 C.ar  1 <1>  -0.1500 
  5 C        4.1170     0.9490     0.0280 C.ar  1 <1>   0.0860 
  6 C        2.2020     2.1170     0.9630 C.ar  1 <1>  -0.1500 
  7 C        5.4050     0.3030     0.1910 C.2   1 <1>   0.5440 
  8 C        3.4300     1.4950     1.1160 C.ar  1 <1>  -0.1500 
  9 O        5.5240    -0.8560    -0.1580 O.2   1 <1>  -0.5700 
 10 N        6.4950     0.9630     0.7260 N.am  1 <1>  -0.6600 
 11 C        7.7600     0.2430     1.0440 C.3   1 <1>   0.1400 
 12 C        6.5700     2.4430     0.8810 C.3   1 <1>   0.1400 
 13 C        8.8960     0.7800     0.1690 C.3   1 <1>  -0.1600 
 14 C        7.7030     2.9950     0.0110 C.3   1 <1>  -0.1600 
 15 C        9.0480     2.3050     0.3140 C.3   1 <1>  -0.0190 
 16 C       10.1880     2.8240    -0.5600 C.2   1 <1>   0.5690 
 17 O        9.9700     3.2020    -1.6860 O.2   1 <1>  -0.5700 
 18 N       11.4380     2.8360    -0.0400 N.am  1 <1>  -0.7300 
 19 C       12.6460     3.1780    -0.7930 C.3   1 <1>   0.3640 
 20 C       13.7940     2.3400    -0.2410 C.ar  1 <1>  -0.1430 
 21 C       12.9050     4.6770    -0.6660 C.3   1 <1>  -0.2400 
 22 C       14.3770     1.3680    -1.0420 C.ar  1 <1>  -0.1500 
 23 C       14.2680     2.5170     1.0530 C.ar  1 <1>  -0.1500 
 24 C       15.4160     0.5890    -0.5620 C.ar  1 <1>  -0.1500 
 25 C       15.3070     1.7390     1.5340 C.ar  1 <1>  -0.1500 
 26 C       15.8820     0.7750     0.7270 C.ar  1 <1>  -0.1500 
 27 H        4.0130     0.6120    -2.0820 H     1 <1>   0.1500 
 28 H        0.6750     2.6800    -0.4370 H     1 <1>   0.1500 
 29 H        1.6930     2.5310     1.8170 H     1 <1>   0.1500 
 30 H        3.8720     1.4220     2.0950 H     1 <1>   0.1500 
 31 H        7.6510    -0.8160     0.8800 H     1 <1>   0.0800 
 32 H        7.9940     0.3910     2.0840 H     1 <1>   0.0800 
 33 H        6.7530     2.6780     1.9150 H     1 <1>   0.0800 
 34 H        5.6480     2.9120     0.5880 H     1 <1>   0.0800 
 35 H        8.6890     0.5320    -0.8580 H     1 <1>   0.0800 
 36 H        9.8140     0.2920     0.4440 H     1 <1>   0.0800 
 37 H        7.7960     4.0540     0.1750 H     1 <1>   0.0800 
 38 H        7.4440     2.8490    -1.0240 H     1 <1>   0.0800 
 39 H        9.3010     2.5210     1.3370 H     1 <1>   0.0800 
 40 H       11.6310     2.4240     0.8710 H     1 <1>   0.3700 
 41 H       12.4930     2.9410    -1.8330 H     1 <1>   0.0800 
 42 H       12.9810     4.9750     0.3630 H     1 <1>   0.0800 
 43 H       12.1050     5.2220    -1.1340 H     1 <1>   0.0800 
 44 H       13.8230     4.9260    -1.1670 H     1 <1>   0.0800 
 45 H       14.0230     1.2100    -2.0460 H     1 <1>   0.1500 
 46 H       13.8350     3.2620     1.6960 H     1 <1>   0.1500 
 47 H       15.8620    -0.1600    -1.1920 H     1 <1>   0.1500 
 48 H       15.6710     1.8850     2.5370 H     1 <1>   0.1500 
 49 H       16.6910     0.1700     1.1000 H     1 <1>   0.1500 
@<TRIPOS>BOND
  1   1   2  1   
  2   2   3  ar  
  3   2   4  ar  
  4   3   5  ar  
  5   3  27  1   
  6   4   6  ar  
  7   4  28  1   
  8   5   7  1   
  9   5   8  ar  
 10   6   8  ar  
 11   6  29  1   
 12   7   9  2   
 13   7  10  am  
 14   8  30  1   
 15  10  11  1   
 16  10  12  1   
 17  11  13  1   
 18  11  31  1   
 19  11  32  1   
 20  12  14  1   
 21  12  33  1   
 22  12  34  1   
 23  13  15  1   
 24  13  35  1   
 25  13  36  1   
 26  14  15  1   
 27  14  37  1   
 28  14  38  1   
 29  15  16  1   
 30  15  39  1   
 31  16  17  2   
 32  16  18  am  
 33  18  19  1   
 34  18  40  1   
 35  19  20  1   
 36  19  21  1   
 37  19  41  1   
 38  20  22  ar  
 39  20  23  ar  
 40  21  42  1   
 41  21  43  1   
 42  21  44  1   
 43  22  24  ar  
 44  22  45  1   
 45  23  25  ar  
 46  23  46  1   
 47  24  26  ar  
 48  24  47  1   
 49  25  26  ar  
 50  25  48  1   
 51  26  49  1   
@<TRIPOS>SUBSTRUCTURE
  1 ****  15 GROUP 4 **** **** 0

# MOE 2024.06 (io_trps.svl 2023.06)
