@<TRIPOS>MOLECULE
NONAME
45 46 1 0 0 
SMALL
USER_CHARGES


@<TRIPOS>ATOM
  1 O       -4.0610     1.6760    -0.3180 O.3   1 <1>  -0.3630 
  2 C       -5.4020     1.8950    -0.3660 C.ar  1 <1>   0.0830 
  3 C       -3.4910     0.4500     0.0840 C.3   1 <1>   0.2000 
  4 C       -6.3680     0.9260    -0.1050 C.ar  1 <1>  -0.1500 
  5 C       -5.8030     3.1780    -0.7010 C.ar  1 <1>  -0.1500 
  6 C       -3.5140     0.3690     1.6120 C.3   1 <1>  -0.2400 
  7 C       -2.0590     0.4310    -0.4440 C.3   1 <1>  -0.2400 
  8 C       -7.7140     1.2440    -0.1790 C.ar  1 <1>  -0.1500 
  9 C       -7.1460     3.4980    -0.7760 C.ar  1 <1>  -0.1500 
 10 C       -8.1100     2.5370    -0.5160 C.ar  1 <1>   0.0830 
 11 O       -9.4060     2.9340    -0.6100 O.3   1 <1>  -0.3630 
 12 C      -10.4620     2.0490    -0.3360 C.3   1 <1>   0.1200 
 13 C      -11.7660     2.8280    -0.5330 C.3   1 <1>   0.3430 
 14 N      -12.9920     1.9920    -0.3080 N.4   1 <1>  -0.9590 
 15 C      -14.2020     2.7220    -0.7900 C.3   1 <1>   0.3430 
 16 C      -13.1450     1.5820     1.1230 C.3   1 <1>   0.3430 
 17 C      -15.4270     1.8110    -0.6920 C.3   1 <1>  -0.1600 
 18 C      -14.3470     0.6450     1.2640 C.3   1 <1>  -0.1600 
 19 C      -15.6340     1.2890     0.7350 C.3   1 <1>  -0.1600 
 20 H       -4.0410    -0.3570    -0.3660 H     1 <1>   0.0800 
 21 H       -6.0910    -0.0760     0.1570 H     1 <1>   0.1500 
 22 H       -5.0540     3.9220    -0.9030 H     1 <1>   0.1500 
 23 H       -2.9680     1.1940     2.0360 H     1 <1>   0.0800 
 24 H       -3.0560    -0.5470     1.9370 H     1 <1>   0.0800 
 25 H       -4.5230     0.3910     1.9800 H     1 <1>   0.0800 
 26 H       -1.4970     1.2510    -0.0340 H     1 <1>   0.0800 
 27 H       -2.0640     0.5050    -1.5160 H     1 <1>   0.0800 
 28 H       -1.5770    -0.4890    -0.1690 H     1 <1>   0.0800 
 29 H       -8.4280     0.4710     0.0270 H     1 <1>   0.1500 
 30 H       -7.4480     4.4960    -1.0370 H     1 <1>   0.1500 
 31 H      -10.3540     1.7120     0.6800 H     1 <1>   0.0800 
 32 H      -10.3960     1.2270    -1.0270 H     1 <1>   0.0800 
 33 H      -11.7750     3.2060    -1.5420 H     1 <1>   0.0800 
 34 H      -11.7740     3.6690     0.1410 H     1 <1>   0.0800 
 35 H      -12.9210     1.1350    -0.8730 H     1 <1>   0.4500 
 36 H      -14.0670     3.0290    -1.8150 H     1 <1>   0.0800 
 37 H      -14.3610     3.6030    -0.1900 H     1 <1>   0.0800 
 38 H      -13.2960     2.4540     1.7380 H     1 <1>   0.0800 
 39 H      -12.2580     1.0740     1.4650 H     1 <1>   0.0800 
 40 H      -15.3160     0.9850    -1.3740 H     1 <1>   0.0800 
 41 H      -16.3000     2.3630    -0.9980 H     1 <1>   0.0800 
 42 H      -14.4770     0.3950     2.3040 H     1 <1>   0.0800 
 43 H      -14.1510    -0.2720     0.7370 H     1 <1>   0.0800 
 44 H      -16.4370     0.5700     0.7500 H     1 <1>   0.0800 
 45 H      -15.9180     2.1060     1.3790 H     1 <1>   0.0800 
@<TRIPOS>BOND
  1   1   2  1   
  2   1   3  1   
  3   2   4  ar  
  4   2   5  ar  
  5   3   6  1   
  6   3   7  1   
  7   3  20  1   
  8   4   8  ar  
  9   4  21  1   
 10   5   9  ar  
 11   5  22  1   
 12   6  23  1   
 13   6  24  1   
 14   6  25  1   
 15   7  26  1   
 16   7  27  1   
 17   7  28  1   
 18   8  10  ar  
 19   8  29  1   
 20   9  10  ar  
 21   9  30  1   
 22  10  11  1   
 23  11  12  1   
 24  12  13  1   
 25  12  31  1   
 26  12  32  1   
 27  13  14  1   
 28  13  33  1   
 29  13  34  1   
 30  14  15  1   
 31  14  16  1   
 32  14  35  1   
 33  15  17  1   
 34  15  36  1   
 35  15  37  1   
 36  16  18  1   
 37  16  38  1   
 38  16  39  1   
 39  17  19  1   
 40  17  40  1   
 41  17  41  1   
 42  18  19  1   
 43  18  42  1   
 44  18  43  1   
 45  19  44  1   
 46  19  45  1   
@<TRIPOS>SUBSTRUCTURE
  1 ****  10 GROUP 4 **** **** 0

# MOE 2024.06 (io_trps.svl 2023.06)
