@<TRIPOS>MOLECULE
NONAME
50 52 1 0 0 
SMALL
USER_CHARGES


@<TRIPOS>ATOM
  1 O        0.5890     0.8360    -0.5500 O.2   1 <1>  -0.5750 
  2 C        1.0880     1.9420    -0.5650 C.2   1 <1>   0.6860 
  3 N        0.3390     3.0300    -0.9870 N.am  1 <1>  -0.4260 
  4 N        2.4040     2.1160    -0.1550 N.am  1 <1>  -0.4420 
  5 C        0.8760     4.3070    -1.0190 C.2   1 <1>   0.6990 
  6 C       -1.1580     2.9090    -0.9680 C.3   1 <1>   0.1940 
  7 C        2.9060     3.4020    -0.1120 C.2   1 <1>   0.4200 
  8 C        3.2140     0.9490     0.3030 C.3   1 <1>   0.0520 
  9 O        0.2200     5.2350    -1.4620 O.2   1 <1>  -0.5750 
 10 C        2.2030     4.4860    -0.5250 C.2   1 <1>   0.2700 
 11 C       -1.7220     3.2480     0.4090 C.2   1 <1>   0.6550 
 12 N        4.1350     3.8010     0.3320 N.pl3 1 <1>  -0.7040 
 13 N        3.0420     5.5950    -0.3300 N.pl3 1 <1>  -0.6330 
 14 O       -1.0130     3.6400     1.3070 O.2   1 <1>  -0.5750 
 15 O       -3.0310     3.0930     0.5540 O.3   1 <1>  -0.4350 
 16 C        4.1700     5.1300     0.1870 C.cat 1 <1>   1.0690 
 17 C        3.1870     6.9620    -0.4400 C.2   1 <1>   0.2340 
 18 C       -3.6850     3.3700     1.7750 C.3   1 <1>   0.0320 
 19 N        5.0510     6.1080     0.4240 N.pl3 1 <1>  -0.5720 
 20 C        4.4220     7.2780     0.0210 C.2   1 <1>   0.1580 
 21 C        2.0650     7.8150    -0.9980 C.3   1 <1>  -0.1090 
 22 C        6.4180     5.9570     0.9740 C.3   1 <1>   0.1600 
 23 C        5.1090     8.6290     0.1260 C.3   1 <1>  -0.1090 
 24 C        7.3880     5.6100    -0.1570 C.3   1 <1>  -0.1670 
 25 C        8.8110     5.4230     0.3790 C.3   1 <1>  -0.1670 
 26 C        9.7780     5.0660    -0.7520 C.3   1 <1>  -0.2470 
 27 H       -1.4570     1.9100    -1.2290 H     1 <1>   0.0720 
 28 H       -1.5900     3.5760    -1.6930 H     1 <1>   0.0720 
 29 H        2.8700     0.0440    -0.1700 H     1 <1>   0.0720 
 30 H        3.1170     0.8360     1.3690 H     1 <1>   0.0720 
 31 H        4.2500     1.0840     0.0480 H     1 <1>   0.0720 
 32 H        4.8850     3.2310     0.7130 H     1 <1>   0.4450 
 33 H       -4.7350     3.1770     1.6520 H     1 <1>   0.0720 
 34 H       -3.5260     4.4040     2.0290 H     1 <1>   0.0720 
 35 H       -3.2780     2.7330     2.5410 H     1 <1>   0.0720 
 36 H        1.1810     7.6980    -0.3960 H     1 <1>   0.0720 
 37 H        1.8370     7.5100    -2.0040 H     1 <1>   0.0720 
 38 H        2.3360     8.8540    -1.0090 H     1 <1>   0.0720 
 39 H        6.4260     5.1770     1.7170 H     1 <1>   0.0720 
 40 H        6.7240     6.8720     1.4530 H     1 <1>   0.0720 
 41 H        6.0240     8.6250    -0.4380 H     1 <1>   0.0720 
 42 H        5.3340     8.8510     1.1540 H     1 <1>   0.0720 
 43 H        4.4790     9.4110    -0.2580 H     1 <1>   0.0720 
 44 H        7.3910     6.4050    -0.8830 H     1 <1>   0.0720 
 45 H        7.0770     4.7020    -0.6420 H     1 <1>   0.0720 
 46 H        8.8300     4.6370     1.1160 H     1 <1>   0.0720 
 47 H        9.1480     6.3310     0.8520 H     1 <1>   0.0720 
 48 H        9.4870     4.1450    -1.2270 H     1 <1>   0.0720 
 49 H       10.7720     4.9450    -0.3600 H     1 <1>   0.0720 
 50 H        9.7990     5.8470    -1.4930 H     1 <1>   0.0720 
@<TRIPOS>BOND
  1   1   2  2   
  2   2   3  am  
  3   2   4  am  
  4   3   5  am  
  5   3   6  1   
  6   4   7  1   
  7   4   8  1   
  8   5   9  2   
  9   5  10  1   
 10   6  11  1   
 11   6  27  1   
 12   6  28  1   
 13   7  10  2   
 14   7  12  1   
 15   8  29  1   
 16   8  30  1   
 17   8  31  1   
 18  10  13  1   
 19  11  14  2   
 20  11  15  1   
 21  12  16  ar  
 22  12  32  1   
 23  13  16  ar  
 24  13  17  1   
 25  15  18  1   
 26  16  19  ar  
 27  17  20  2   
 28  17  21  1   
 29  18  33  1   
 30  18  34  1   
 31  18  35  1   
 32  19  20  1   
 33  19  22  1   
 34  20  23  1   
 35  21  36  1   
 36  21  37  1   
 37  21  38  1   
 38  22  24  1   
 39  22  39  1   
 40  22  40  1   
 41  23  41  1   
 42  23  42  1   
 43  23  43  1   
 44  24  25  1   
 45  24  44  1   
 46  24  45  1   
 47  25  26  1   
 48  25  46  1   
 49  25  47  1   
 50  26  48  1   
 51  26  49  1   
 52  26  50  1   
@<TRIPOS>SUBSTRUCTURE
  1 ****  10 GROUP 4 **** **** 0

# MOE 2024.06 (io_trps.svl 2023.06)
