@<TRIPOS>MOLECULE
NONAME
34 35 1 0 0 
SMALL
USER_CHARGES


@<TRIPOS>ATOM
  1 CL      -1.9830     0.9560     1.8360 Cl    1 <1>  -0.1770 
  2 C       -1.0570     2.1530     0.9630 C.ar  1 <1>   0.1770 
  3 C       -1.4530     2.5330    -0.3130 C.ar  1 <1>  -0.1440 
  4 C        0.0520     2.7050     1.5740 C.ar  1 <1>  -0.1500 
  5 C       -0.7090     3.4920    -0.9900 C.ar  1 <1>  -0.1500 
  6 C       -2.6760     1.9040    -0.9580 C.3   1 <1>   0.4870 
  7 C        0.7740     3.6580     0.8840 C.ar  1 <1>   0.1770 
  8 C        0.4060     4.0560    -0.3890 C.ar  1 <1>  -0.1500 
  9 N       -3.9040     2.3280    -0.2320 N.4   1 <1>  -0.9590 
 10 CL       2.1760     4.3750     1.6320 Cl    1 <1>  -0.1770 
 11 C       -5.0730     1.5100    -0.6580 C.3   1 <1>   0.3430 
 12 C       -4.1150     3.8010    -0.3250 C.3   1 <1>   0.3430 
 13 C       -6.0470     1.3600     0.5090 C.3   1 <1>  -0.1600 
 14 C       -5.2050     4.2900     0.6310 C.3   1 <1>  -0.1600 
 15 C       -7.0660     2.5020     0.6660 C.3   1 <1>  -0.1600 
 16 C       -6.6210     3.8920     0.1910 C.3   1 <1>  -0.1600 
 17 H        0.3510     2.4030     2.5620 H     1 <1>   0.1500 
 18 H       -0.9780     3.8080    -1.9850 H     1 <1>   0.1500 
 19 H       -2.5770     0.8300    -0.9140 H     1 <1>   0.0800 
 20 H       -2.7380     2.1950    -1.9940 H     1 <1>   0.0800 
 21 H        0.9940     4.8000    -0.8990 H     1 <1>   0.1500 
 22 H       -3.7340     2.1090     0.7600 H     1 <1>   0.4500 
 23 H       -4.7350     0.5250    -0.9360 H     1 <1>   0.0800 
 24 H       -5.5650     1.9510    -1.5110 H     1 <1>   0.0800 
 25 H       -4.3750     4.0730    -1.3350 H     1 <1>   0.0800 
 26 H       -3.1980     4.3090    -0.0720 H     1 <1>   0.0800 
 27 H       -5.4980     1.2320     1.4260 H     1 <1>   0.0800 
 28 H       -6.6060     0.4510     0.3610 H     1 <1>   0.0800 
 29 H       -5.1580     5.3650     0.6300 H     1 <1>   0.0800 
 30 H       -5.0060     3.9710     1.6400 H     1 <1>   0.0800 
 31 H       -7.3470     2.5610     1.7050 H     1 <1>   0.0800 
 32 H       -7.9620     2.2450     0.1240 H     1 <1>   0.0800 
 33 H       -6.7030     3.9590    -0.8810 H     1 <1>   0.0800 
 34 H       -7.3180     4.6090     0.5950 H     1 <1>   0.0800 
@<TRIPOS>BOND
  1   1   2  1   
  2   2   3  ar  
  3   2   4  ar  
  4   3   5  ar  
  5   3   6  1   
  6   4   7  ar  
  7   4  17  1   
  8   5   8  ar  
  9   5  18  1   
 10   6   9  1   
 11   6  19  1   
 12   6  20  1   
 13   7   8  ar  
 14   7  10  1   
 15   8  21  1   
 16   9  11  1   
 17   9  12  1   
 18   9  22  1   
 19  11  13  1   
 20  11  23  1   
 21  11  24  1   
 22  12  14  1   
 23  12  25  1   
 24  12  26  1   
 25  13  15  1   
 26  13  27  1   
 27  13  28  1   
 28  14  16  1   
 29  14  29  1   
 30  14  30  1   
 31  15  16  1   
 32  15  31  1   
 33  15  32  1   
 34  16  33  1   
 35  16  34  1   
@<TRIPOS>SUBSTRUCTURE
  1 ****   3 GROUP 4 **** **** 0

# MOE 2024.06 (io_trps.svl 2023.06)
