@<TRIPOS>MOLECULE
NONAME
40 41 1 0 0 
SMALL
USER_CHARGES


@<TRIPOS>ATOM
  1 CL       1.5020    -0.5580    -0.6420 Cl    1 <1>  -0.1770 
  2 C        2.6530     0.7390    -0.4430 C.ar  1 <1>   0.1770 
  3 C        4.0030     0.4460    -0.3910 C.ar  1 <1>  -0.1500 
  4 C        2.1970     2.0410    -0.3410 C.ar  1 <1>  -0.1500 
  5 C        4.9120     1.4790    -0.2340 C.ar  1 <1>  -0.1500 
  6 C        3.1080     3.0720    -0.1830 C.ar  1 <1>  -0.1500 
  7 C        4.4740     2.7920    -0.1290 C.ar  1 <1>   0.0830 
  8 O        5.4340     3.7380     0.0240 O.3   1 <1>  -0.3630 
  9 C        5.1020     5.1040     0.1260 C.3   1 <1>   0.3200 
 10 C        6.3770     5.8620     0.2820 C.1   1 <1>  -0.2000 
 11 C        7.4290     6.4010     0.4070 C.1   1 <1>  -0.2000 
 12 C        8.7950     6.9660     0.5590 C.3   1 <1>   0.5430 
 13 N        9.7540     5.9280     0.1080 N.4   1 <1>  -0.9590 
 14 C        9.7630     4.7470     1.0250 C.3   1 <1>   0.3430 
 15 C       11.1170     6.4880    -0.1040 C.3   1 <1>   0.3430 
 16 C       10.6500     3.6490     0.4400 C.3   1 <1>  -0.1600 
 17 C       12.0240     5.4170    -0.7090 C.3   1 <1>  -0.1600 
 18 C       12.0740     4.1540     0.1640 C.3   1 <1>  -0.0800 
 19 C       12.9120     3.0640    -0.5110 C.3   1 <1>  -0.2400 
 20 H        4.3330    -0.5740    -0.4740 H     1 <1>   0.1500 
 21 H        1.1410     2.2370    -0.3840 H     1 <1>   0.1500 
 22 H        5.9650     1.2680    -0.1920 H     1 <1>   0.1500 
 23 H        2.7310     4.0740    -0.1050 H     1 <1>   0.1500 
 24 H        4.4710     5.2420     0.9870 H     1 <1>   0.0800 
 25 H        4.5890     5.4020    -0.7720 H     1 <1>   0.0800 
 26 H        8.9780     7.2320     1.5870 H     1 <1>   0.0800 
 27 H        8.8840     7.8490    -0.0530 H     1 <1>   0.0800 
 28 H        9.3980     5.5910    -0.7950 H     1 <1>   0.4500 
 29 H        8.7610     4.3640     1.1500 H     1 <1>   0.0800 
 30 H       10.1390     5.0360     1.9930 H     1 <1>   0.0800 
 31 H       11.5290     6.8150     0.8370 H     1 <1>   0.0800 
 32 H       11.0720     7.3350    -0.7700 H     1 <1>   0.0800 
 33 H       10.2020     3.2790    -0.4670 H     1 <1>   0.0800 
 34 H       10.6900     2.8280     1.1350 H     1 <1>   0.0800 
 35 H       13.0180     5.8190    -0.8100 H     1 <1>   0.0800 
 36 H       11.6750     5.1720    -1.6980 H     1 <1>   0.0800 
 37 H       12.5400     4.4020     1.1040 H     1 <1>   0.0800 
 38 H       12.4870     2.7780    -1.4570 H     1 <1>   0.0800 
 39 H       12.9660     2.1900     0.1160 H     1 <1>   0.0800 
 40 H       13.9160     3.4130    -0.6810 H     1 <1>   0.0800 
@<TRIPOS>BOND
  1   1   2  1   
  2   2   3  ar  
  3   2   4  ar  
  4   3   5  ar  
  5   3  20  1   
  6   4   6  ar  
  7   4  21  1   
  8   5   7  ar  
  9   5  22  1   
 10   6   7  ar  
 11   6  23  1   
 12   7   8  1   
 13   8   9  1   
 14   9  10  1   
 15   9  24  1   
 16   9  25  1   
 17  10  11  3   
 18  11  12  1   
 19  12  13  1   
 20  12  26  1   
 21  12  27  1   
 22  13  14  1   
 23  13  15  1   
 24  13  28  1   
 25  14  16  1   
 26  14  29  1   
 27  14  30  1   
 28  15  17  1   
 29  15  31  1   
 30  15  32  1   
 31  16  18  1   
 32  16  33  1   
 33  16  34  1   
 34  17  18  1   
 35  17  35  1   
 36  17  36  1   
 37  18  19  1   
 38  18  37  1   
 39  19  38  1   
 40  19  39  1   
 41  19  40  1   
@<TRIPOS>SUBSTRUCTURE
  1 ****   8 GROUP 4 **** **** 0

# MOE 2024.06 (io_trps.svl 2023.06)
