@<TRIPOS>MOLECULE
NONAME
42 43 1 0 0 
SMALL
USER_CHARGES


@<TRIPOS>ATOM
  1 S        0.1670    -0.1990     0.7680 S.o2  1 <1>   1.4470 
  2 O       -0.0640    -0.4220     2.1780 O.2   1 <1>  -0.6500 
  3 O        0.3610    -1.3370    -0.1030 O.2   1 <1>  -0.6500 
  4 N       -1.2660     0.5400     0.2300 N.am  1 <1>  -0.8490 
  5 C        1.4310     1.0860     0.5080 C.ar  1 <1>  -0.0090 
  6 C       -2.3560    -0.4570     0.1410 C.3   1 <1>   0.1960 
  7 C       -1.6760     1.6680     1.0930 C.3   1 <1>   0.1960 
  8 C        1.8530     1.5070    -0.7570 C.ar  1 <1>  -0.1440 
  9 C        1.9900     1.7120     1.6180 C.ar  1 <1>  -0.1500 
 10 C       -3.7230     0.1680    -0.2340 C.3   1 <1>   0.3430 
 11 C       -2.9500     2.3780     0.5680 C.3   1 <1>   0.3430 
 12 C        2.7880     2.5250    -0.8780 C.ar  1 <1>  -0.1500 
 13 C        1.3240     0.8680    -2.0350 C.3   1 <1>  -0.0970 
 14 C        2.9210     2.7260     1.4920 C.ar  1 <1>  -0.1500 
 15 N       -3.5990     1.6290    -0.5700 N.4   1 <1>  -0.9590 
 16 C        3.3220     3.1420     0.2380 C.ar  1 <1>  -0.1430 
 17 C       -4.8800     2.2180    -1.0360 C.3   1 <1>   0.3430 
 18 C        4.3460     4.2520     0.0850 C.3   1 <1>  -0.0970 
 19 C       -4.6150     3.5630    -1.7010 C.3   1 <1>  -0.2400 
 20 H       -2.4560    -0.9810     1.0780 H     1 <1>   0.0800 
 21 H       -2.1010    -1.1930    -0.6050 H     1 <1>   0.0800 
 22 H       -0.8810     2.3930     1.1530 H     1 <1>   0.0800 
 23 H       -1.8640     1.3170     2.0960 H     1 <1>   0.0800 
 24 H        1.6980     1.4020     2.6080 H     1 <1>   0.1500 
 25 H       -4.4010     0.0420     0.5940 H     1 <1>   0.0800 
 26 H       -4.1320    -0.3710    -1.0730 H     1 <1>   0.0800 
 27 H       -2.6780     3.3670     0.2390 H     1 <1>   0.0800 
 28 H       -3.6470     2.4890     1.3820 H     1 <1>   0.0800 
 29 H        3.1130     2.8430    -1.8540 H     1 <1>   0.1500 
 30 H        1.6520    -0.1550    -2.0970 H     1 <1>   0.0800 
 31 H        1.6880     1.3840    -2.9060 H     1 <1>   0.0800 
 32 H        0.2510     0.8930    -2.0600 H     1 <1>   0.0800 
 33 H        3.3340     3.1860     2.3730 H     1 <1>   0.1500 
 34 H       -2.9110     1.6640    -1.3380 H     1 <1>   0.4500 
 35 H       -5.5590     2.3410    -0.2060 H     1 <1>   0.0800 
 36 H       -5.3410     1.5590    -1.7550 H     1 <1>   0.0800 
 37 H        5.3300     3.8290    -0.0100 H     1 <1>   0.0800 
 38 H        4.3300     4.9030     0.9400 H     1 <1>   0.0800 
 39 H        4.1350     4.8390    -0.7910 H     1 <1>   0.0800 
 40 H       -4.2480     4.2870    -0.9960 H     1 <1>   0.0800 
 41 H       -5.5380     3.9420    -2.1040 H     1 <1>   0.0800 
 42 H       -3.9180     3.4590    -2.5130 H     1 <1>   0.0800 
@<TRIPOS>BOND
  1   1   2  2   
  2   1   3  2   
  3   1   4  am  
  4   1   5  1   
  5   4   6  1   
  6   4   7  1   
  7   5   8  ar  
  8   5   9  ar  
  9   6  10  1   
 10   6  20  1   
 11   6  21  1   
 12   7  11  1   
 13   7  22  1   
 14   7  23  1   
 15   8  12  ar  
 16   8  13  1   
 17   9  14  ar  
 18   9  24  1   
 19  10  15  1   
 20  10  25  1   
 21  10  26  1   
 22  11  15  1   
 23  11  27  1   
 24  11  28  1   
 25  12  16  ar  
 26  12  29  1   
 27  13  30  1   
 28  13  31  1   
 29  13  32  1   
 30  14  16  ar  
 31  14  33  1   
 32  15  17  1   
 33  15  34  1   
 34  16  18  1   
 35  17  19  1   
 36  17  35  1   
 37  17  36  1   
 38  18  37  1   
 39  18  38  1   
 40  18  39  1   
 41  19  40  1   
 42  19  41  1   
 43  19  42  1   
@<TRIPOS>SUBSTRUCTURE
  1 ****   4 GROUP 4 **** **** 0

# MOE 2024.06 (io_trps.svl 2023.06)
