@<TRIPOS>MOLECULE
NONAME
50 52 1 0 0 
SMALL
USER_CHARGES


@<TRIPOS>ATOM
  1 O        4.1290    -4.6510    -0.0630 O.3   1 <1>  -0.3630 
  2 C        5.4800    -4.5320    -0.1170 C.ar  1 <1>   0.0830 
  3 C        3.5170    -5.8960     0.1760 C.3   1 <1>   0.1200 
  4 C        6.3590    -5.6020     0.0520 C.ar  1 <1>  -0.1500 
  5 C        5.9840    -3.2590    -0.3540 C.ar  1 <1>  -0.1500 
  6 C        2.0040    -5.6840     0.1810 C.3   1 <1>  -0.1600 
  7 C        7.7200    -5.3700    -0.0210 C.ar  1 <1>  -0.1440 
  8 C        7.3500    -3.0390    -0.4250 C.ar  1 <1>  -0.1500 
  9 C        1.2700    -6.9920     0.4850 C.3   1 <1>   0.1100 
 10 C        8.2090    -4.1090    -0.2560 C.ar  1 <1>  -0.1430 
 11 C        8.8380    -6.3700     0.1300 C.3   1 <1>  -0.0170 
 12 N       -0.1810    -6.8310     0.3020 N.3   1 <1>  -0.8100 
 13 C        9.7160    -4.1020    -0.2920 C.3   1 <1>  -0.0170 
 14 C       10.0780    -5.5960    -0.3520 C.3   1 <1>  -0.1600 
 15 C       -0.8590    -8.1450     0.2040 C.3   1 <1>   0.1100 
 16 C       -0.8100    -6.0070     1.3680 C.3   1 <1>   0.1100 
 17 C       -2.3800    -8.0060    -0.0560 C.3   1 <1>   0.3430 
 18 C       -2.3470    -5.8980     1.2100 C.3   1 <1>   0.3430 
 19 N       -2.8060    -6.5670    -0.0520 N.4   1 <1>  -0.9590 
 20 C       -4.2420    -6.3870    -0.3740 C.3   1 <1>   0.3430 
 21 C       -4.5100    -4.9320    -0.7390 C.3   1 <1>  -0.2400 
 22 H        3.8570    -6.2590     1.1310 H     1 <1>   0.0800 
 23 H        3.8080    -6.5720    -0.6090 H     1 <1>   0.0800 
 24 H        6.0110    -6.5990     0.2360 H     1 <1>   0.1500 
 25 H        5.2980    -2.4430    -0.4830 H     1 <1>   0.1500 
 26 H        1.7040    -5.3250    -0.7880 H     1 <1>   0.0800 
 27 H        1.7720    -4.9450     0.9250 H     1 <1>   0.0800 
 28 H        7.7360    -2.0520    -0.6080 H     1 <1>   0.1500 
 29 H        1.4890    -7.3210     1.4880 H     1 <1>   0.0800 
 30 H        1.6280    -7.7440    -0.2000 H     1 <1>   0.0800 
 31 H        8.6660    -7.2500    -0.4640 H     1 <1>   0.0800 
 32 H        8.9390    -6.6400     1.1670 H     1 <1>   0.0800 
 33 H       10.0930    -3.6550     0.6110 H     1 <1>   0.0800 
 34 H       10.0880    -3.5700    -1.1490 H     1 <1>   0.0800 
 35 H       10.2740    -5.8630    -1.3760 H     1 <1>   0.0800 
 36 H       10.9460    -5.8220     0.2410 H     1 <1>   0.0800 
 37 H       -0.7050    -8.7040     1.1120 H     1 <1>   0.0800 
 38 H       -0.4250    -8.7130    -0.6010 H     1 <1>   0.0800 
 39 H       -0.4020    -5.0110     1.3410 H     1 <1>   0.0800 
 40 H       -0.5840    -6.4210     2.3370 H     1 <1>   0.0800 
 41 H       -2.9200    -8.5540     0.6990 H     1 <1>   0.0800 
 42 H       -2.6100    -8.4500    -1.0100 H     1 <1>   0.0800 
 43 H       -2.6200    -4.8560     1.2000 H     1 <1>   0.0800 
 44 H       -2.8250    -6.3530     2.0620 H     1 <1>   0.0800 
 45 H       -2.2200    -6.1370    -0.7860 H     1 <1>   0.4500 
 46 H       -4.8520    -6.6790     0.4660 H     1 <1>   0.0800 
 47 H       -4.5040    -7.0100    -1.2150 H     1 <1>   0.0800 
 48 H       -4.3600    -4.2810     0.1020 H     1 <1>   0.0800 
 49 H       -5.5340    -4.8310    -1.0510 H     1 <1>   0.0800 
 50 H       -3.8830    -4.6220    -1.5560 H     1 <1>   0.0800 
@<TRIPOS>BOND
  1   1   2  1   
  2   1   3  1   
  3   2   4  ar  
  4   2   5  ar  
  5   3   6  1   
  6   3  22  1   
  7   3  23  1   
  8   4   7  ar  
  9   4  24  1   
 10   5   8  ar  
 11   5  25  1   
 12   6   9  1   
 13   6  26  1   
 14   6  27  1   
 15   7  10  ar  
 16   7  11  1   
 17   8  10  ar  
 18   8  28  1   
 19   9  12  1   
 20   9  29  1   
 21   9  30  1   
 22  10  13  1   
 23  11  14  1   
 24  11  31  1   
 25  11  32  1   
 26  12  15  1   
 27  12  16  1   
 28  13  14  1   
 29  13  33  1   
 30  13  34  1   
 31  14  35  1   
 32  14  36  1   
 33  15  17  1   
 34  15  37  1   
 35  15  38  1   
 36  16  18  1   
 37  16  39  1   
 38  16  40  1   
 39  17  19  1   
 40  17  41  1   
 41  17  42  1   
 42  18  19  1   
 43  18  43  1   
 44  18  44  1   
 45  19  20  1   
 46  19  45  1   
 47  20  21  1   
 48  20  46  1   
 49  20  47  1   
 50  21  48  1   
 51  21  49  1   
 52  21  50  1   
@<TRIPOS>SUBSTRUCTURE
  1 ****   3 GROUP 4 **** **** 0

# MOE 2024.06 (io_trps.svl 2023.06)
