@<TRIPOS>MOLECULE
NONAME
55 56 1 0 0 
SMALL
USER_CHARGES


@<TRIPOS>ATOM
  1 O        0.9770     0.2330     1.3930 O.2   1 <1>  -0.5700 
  2 C        1.7680     0.4650     0.5070 C.2   1 <1>   0.5690 
  3 N        2.4860    -0.5420    -0.0890 N.am  1 <1>  -0.6600 
  4 C        1.9460     1.9150     0.0570 C.3   1 <1>  -0.0990 
  5 C        3.4260    -0.3580    -1.2320 C.3   1 <1>   0.2840 
  6 C        2.3710    -1.9410     0.4110 C.3   1 <1>   0.1400 
  7 C        1.2170     2.9580     0.9230 C.3   1 <1>  -0.2400 
  8 C        4.8660    -0.6380    -0.8160 C.ar  1 <1>  -0.1430 
  9 C        1.2730    -2.6790    -0.3610 C.3   1 <1>  -0.1600 
 10 C        5.6650    -1.4640    -1.5950 C.ar  1 <1>  -0.1500 
 11 C        5.3980    -0.0760     0.3360 C.ar  1 <1>  -0.1500 
 12 C        1.0860    -4.1250     0.1290 C.3   1 <1>  -0.0800 
 13 C        6.9750    -1.7230    -1.2330 C.ar  1 <1>  -0.1500 
 14 C        6.7080    -0.3340     0.7000 C.ar  1 <1>  -0.1500 
 15 C        0.0560    -4.8720    -0.7310 C.3   1 <1>  -0.1600 
 16 C        0.6540    -4.1940     1.6080 C.3   1 <1>  -0.1600 
 17 C        7.5060    -1.1560    -0.0780 C.ar  1 <1>   0.0830 
 18 C       -0.1080    -6.3420    -0.2710 C.3   1 <1>   0.2800 
 19 C       -0.2220    -5.4170     1.9210 C.3   1 <1>   0.1200 
 20 O        8.7780    -1.3570     0.3480 O.3   1 <1>  -0.3630 
 21 O        0.1420    -6.4820     1.0980 O.3   1 <1>  -0.5600 
 22 C       -1.5190    -6.8650    -0.5460 C.3   1 <1>  -0.2400 
 23 C        0.9180    -7.2440    -0.9580 C.3   1 <1>  -0.2400 
 24 C        9.6770    -2.1630    -0.3780 C.3   1 <1>   0.0400 
 25 H        1.5880     1.9990    -0.9520 H     1 <1>   0.0800 
 26 H        2.9950     2.1480     0.0650 H     1 <1>   0.0800 
 27 H        3.3680     0.6380    -1.6280 H     1 <1>   0.0800 
 28 H        3.1400    -1.0300    -2.0220 H     1 <1>   0.0800 
 29 H        2.1350    -1.9230     1.4620 H     1 <1>   0.0800 
 30 H        3.3120    -2.4530     0.3010 H     1 <1>   0.0800 
 31 H        0.1570     2.7740     0.9120 H     1 <1>   0.0800 
 32 H        1.4000     3.9500     0.5490 H     1 <1>   0.0800 
 33 H        1.5630     2.9010     1.9400 H     1 <1>   0.0800 
 34 H        1.5300    -2.6960    -1.4040 H     1 <1>   0.0800 
 35 H        0.3460    -2.1420    -0.2480 H     1 <1>   0.0800 
 36 H        5.2710    -1.9110    -2.4910 H     1 <1>   0.1500 
 37 H        4.7950     0.5600     0.9590 H     1 <1>   0.1500 
 38 H        2.0270    -4.6420     0.0320 H     1 <1>   0.0800 
 39 H        7.5650    -2.3660    -1.8580 H     1 <1>   0.1500 
 40 H        7.1200     0.1000     1.5930 H     1 <1>   0.1500 
 41 H        0.3410    -4.8470    -1.7670 H     1 <1>   0.0800 
 42 H       -0.8900    -4.3660    -0.6570 H     1 <1>   0.0800 
 43 H        0.0980    -3.3140     1.8810 H     1 <1>   0.0800 
 44 H        1.5290    -4.2240     2.2330 H     1 <1>   0.0800 
 45 H       -1.2630    -5.1980     1.7550 H     1 <1>   0.0800 
 46 H       -0.0920    -5.7260     2.9440 H     1 <1>   0.0800 
 47 H       -1.6100    -7.8790    -0.2000 H     1 <1>   0.0800 
 48 H       -2.2550    -6.2600    -0.0510 H     1 <1>   0.0800 
 49 H       -1.7200    -6.8450    -1.6020 H     1 <1>   0.0800 
 50 H        0.7770    -7.2300    -2.0230 H     1 <1>   0.0800 
 51 H        1.9150    -6.9100    -0.7400 H     1 <1>   0.0800 
 52 H        0.8090    -8.2570    -0.6130 H     1 <1>   0.0800 
 53 H       10.6160    -2.1690     0.1440 H     1 <1>   0.0800 
 54 H        9.8080    -1.7440    -1.3600 H     1 <1>   0.0800 
 55 H        9.2830    -3.1630    -0.4340 H     1 <1>   0.0800 
@<TRIPOS>BOND
  1   1   2  2   
  2   2   3  am  
  3   2   4  1   
  4   3   5  1   
  5   3   6  1   
  6   4   7  1   
  7   4  25  1   
  8   4  26  1   
  9   5   8  1   
 10   5  27  1   
 11   5  28  1   
 12   6   9  1   
 13   6  29  1   
 14   6  30  1   
 15   7  31  1   
 16   7  32  1   
 17   7  33  1   
 18   8  10  ar  
 19   8  11  ar  
 20   9  12  1   
 21   9  34  1   
 22   9  35  1   
 23  10  13  ar  
 24  10  36  1   
 25  11  14  ar  
 26  11  37  1   
 27  12  15  1   
 28  12  16  1   
 29  12  38  1   
 30  13  17  ar  
 31  13  39  1   
 32  14  17  ar  
 33  14  40  1   
 34  15  18  1   
 35  15  41  1   
 36  15  42  1   
 37  16  19  1   
 38  16  43  1   
 39  16  44  1   
 40  17  20  1   
 41  18  21  1   
 42  18  22  1   
 43  18  23  1   
 44  19  21  1   
 45  19  45  1   
 46  19  46  1   
 47  20  24  1   
 48  22  47  1   
 49  22  48  1   
 50  22  49  1   
 51  23  50  1   
 52  23  51  1   
 53  23  52  1   
 54  24  53  1   
 55  24  54  1   
 56  24  55  1   
@<TRIPOS>SUBSTRUCTURE
  1 ****   6 GROUP 4 **** **** 0

# MOE 2024.06 (io_trps.svl 2023.06)
