@<TRIPOS>MOLECULE
NONAME
43 44 1 0 0 
SMALL
USER_CHARGES


@<TRIPOS>ATOM
  1 O      -16.1840     3.0540    -0.8850 O.3   1 <1>  -0.5600 
  2 C      -15.9260     4.2460    -0.1920 C.3   1 <1>   0.2000 
  3 C      -15.8530     1.8440    -0.2530 C.3   1 <1>   0.2000 
  4 C      -14.4140     4.3700     0.1370 C.3   1 <1>   0.3430 
  5 C      -16.8320     4.3300     1.0430 C.3   1 <1>  -0.2400 
  6 C      -14.5040     1.9440     0.5080 C.3   1 <1>   0.3430 
  7 C      -15.8020     0.7920    -1.3590 C.3   1 <1>  -0.2400 
  8 N      -13.6690     3.0670    -0.0280 N.4   1 <1>  -0.9590 
  9 C      -12.2890     3.0790     0.5270 C.3   1 <1>   0.3430 
 10 C      -11.4070     4.0400    -0.2670 C.3   1 <1>  -0.1600 
 11 C       -9.9590     3.9850     0.2180 C.3   1 <1>   0.1200 
 12 O       -9.2320     4.9120    -0.5470 O.3   1 <1>  -0.3630 
 13 C       -7.9060     5.1110    -0.3580 C.ar  1 <1>   0.0820 
 14 C       -7.1440     4.4310     0.5880 C.ar  1 <1>  -0.1500 
 15 C       -7.2940     6.0520    -1.1690 C.ar  1 <1>  -0.1500 
 16 C       -5.7920     4.7010     0.7100 C.ar  1 <1>  -0.1500 
 17 C       -5.9420     6.3170    -1.0420 C.ar  1 <1>  -0.1500 
 18 C       -5.1700     5.6460    -0.1010 C.ar  1 <1>   0.0730 
 19 C       -3.7670     5.9200     0.0310 C.1   1 <1>   0.4840 
 20 N       -2.6520     6.1370     0.1370 N.1   1 <1>  -0.5570 
 21 H      -16.1970     5.0510    -0.8560 H     1 <1>   0.0800 
 22 H      -16.6440     1.5930     0.4340 H     1 <1>   0.0800 
 23 H      -14.3110     4.7290     1.1470 H     1 <1>   0.0800 
 24 H      -13.9830     5.1150    -0.5110 H     1 <1>   0.0800 
 25 H      -16.5700     3.6030     1.7890 H     1 <1>   0.0800 
 26 H      -17.8580     4.1880     0.7510 H     1 <1>   0.0800 
 27 H      -16.7500     5.3060     1.4880 H     1 <1>   0.0800 
 28 H      -13.9810     1.0060     0.4200 H     1 <1>   0.0800 
 29 H      -14.7060     2.1080     1.5530 H     1 <1>   0.0800 
 30 H      -15.0440     1.0320    -2.0830 H     1 <1>   0.0800 
 31 H      -16.7550     0.7430    -1.8560 H     1 <1>   0.0800 
 32 H      -15.5930    -0.1780    -0.9460 H     1 <1>   0.0800 
 33 H      -13.6280     2.9050    -1.0460 H     1 <1>   0.4500 
 34 H      -11.8690     2.0870     0.4630 H     1 <1>   0.0800 
 35 H      -12.3100     3.3700     1.5650 H     1 <1>   0.0800 
 36 H      -11.7590     5.0490    -0.1500 H     1 <1>   0.0800 
 37 H      -11.4260     3.7720    -1.3090 H     1 <1>   0.0800 
 38 H       -9.5300     3.0090     0.0620 H     1 <1>   0.0800 
 39 H       -9.8820     4.2700     1.2540 H     1 <1>   0.0800 
 40 H       -7.5800     3.6940     1.2350 H     1 <1>   0.1500 
 41 H       -7.8830     6.5770    -1.9010 H     1 <1>   0.1500 
 42 H       -5.2100     4.1710     1.4450 H     1 <1>   0.1500 
 43 H       -5.4840     7.0530    -1.6820 H     1 <1>   0.1500 
@<TRIPOS>BOND
  1   1   2  1   
  2   1   3  1   
  3   2   4  1   
  4   2   5  1   
  5   2  21  1   
  6   3   6  1   
  7   3   7  1   
  8   3  22  1   
  9   4   8  1   
 10   4  23  1   
 11   4  24  1   
 12   5  25  1   
 13   5  26  1   
 14   5  27  1   
 15   6   8  1   
 16   6  28  1   
 17   6  29  1   
 18   7  30  1   
 19   7  31  1   
 20   7  32  1   
 21   8   9  1   
 22   8  33  1   
 23   9  10  1   
 24   9  34  1   
 25   9  35  1   
 26  10  11  1   
 27  10  36  1   
 28  10  37  1   
 29  11  12  1   
 30  11  38  1   
 31  11  39  1   
 32  12  13  1   
 33  13  14  ar  
 34  13  15  ar  
 35  14  16  ar  
 36  14  40  1   
 37  15  17  ar  
 38  15  41  1   
 39  16  18  ar  
 40  16  42  1   
 41  17  18  ar  
 42  17  43  1   
 43  18  19  1   
 44  19  20  3   
@<TRIPOS>SUBSTRUCTURE
  1 ****  11 GROUP 4 **** **** 0

# MOE 2024.06 (io_trps.svl 2023.06)
