@<TRIPOS>MOLECULE
NONAME
53 56 1 0 0 
SMALL
USER_CHARGES


@<TRIPOS>ATOM
  1 S       -0.0260    -0.0630    -1.2200 S.o2  1 <1>   1.4470 
  2 O       -0.4320     1.0010    -0.3280 O.2   1 <1>  -0.6500 
  3 O       -0.3410     0.0360    -2.6290 O.2   1 <1>  -0.6500 
  4 N       -0.7780    -1.4730    -0.6560 N.am  1 <1>  -0.8490 
  5 C        1.7390    -0.4140    -0.9870 C.ar  1 <1>  -0.0090 
  6 C       -2.2230    -1.2620    -0.4620 C.3   1 <1>   0.1960 
  7 C       -0.5690    -2.6260    -1.5470 C.3   1 <1>   0.1960 
  8 C        2.6120    -0.4870    -2.0660 C.ar  1 <1>  -0.1500 
  9 C        2.2610    -0.6320     0.2810 C.ar  1 <1>  -0.1500 
 10 C       -2.9270    -2.5440     0.0310 C.3   1 <1>   0.2000 
 11 C       -1.3020    -3.8720    -1.0200 C.3   1 <1>   0.1200 
 12 C        3.9550    -0.7660    -1.8870 C.ar  1 <1>  -0.1500 
 13 C        3.6030    -0.9110     0.4680 C.ar  1 <1>  -0.1500 
 14 O       -2.6640    -3.6000    -0.8560 O.3   1 <1>  -0.5600 
 15 C       -4.4420    -2.3370     0.1390 C.3   1 <1>   0.1200 
 16 C        4.4640    -0.9810    -0.6160 C.ar  1 <1>  -0.1430 
 17 O       -5.0430    -3.4570     0.7580 O.3   1 <1>  -0.3630 
 18 C        5.9510    -1.2810    -0.4240 C.3   1 <1>   0.0630 
 19 C       -6.3820    -3.5160     0.9600 C.ar  1 <1>   0.0820 
 20 C        6.1640    -2.6250     0.3050 C.3   1 <1>   0.1400 
 21 C        6.6260    -0.2040     0.4510 C.3   1 <1>  -0.0990 
 22 C       -6.8700    -4.6600     1.5730 C.ar  1 <1>  -0.1500 
 23 C       -7.2690    -2.5080     0.5910 C.ar  1 <1>  -0.1500 
 24 N        6.6550    -2.2280     1.6310 N.am  1 <1>  -0.7300 
 25 C        6.9110    -0.9190     1.7410 C.2   1 <1>   0.5690 
 26 C       -8.2240    -4.8020     1.8210 C.ar  1 <1>  -0.1500 
 27 C       -8.6240    -2.6520     0.8390 C.ar  1 <1>  -0.1500 
 28 O        7.3180    -0.3820     2.7370 O.2   1 <1>  -0.5700 
 29 C       -9.1020    -3.7970     1.4540 C.ar  1 <1>  -0.1500 
 30 H       -2.6730    -0.9440    -1.3880 H     1 <1>   0.0800 
 31 H       -2.3750    -0.4830     0.2660 H     1 <1>   0.0800 
 32 H        0.4830    -2.8430    -1.6190 H     1 <1>   0.0800 
 33 H       -0.9350    -2.4070    -2.5380 H     1 <1>   0.0800 
 34 H        2.2360    -0.3190    -3.0620 H     1 <1>   0.1500 
 35 H        1.6050    -0.5780     1.1340 H     1 <1>   0.1500 
 36 H       -2.5420    -2.8090     1.0010 H     1 <1>   0.0800 
 37 H       -0.8960    -4.1820    -0.0720 H     1 <1>   0.0800 
 38 H       -1.2120    -4.6830    -1.7190 H     1 <1>   0.0800 
 39 H        4.6000    -0.8100    -2.7480 H     1 <1>   0.1500 
 40 H        3.9710    -1.0690     1.4690 H     1 <1>   0.1500 
 41 H       -4.8700    -2.2140    -0.8400 H     1 <1>   0.0800 
 42 H       -4.6550    -1.4750     0.7460 H     1 <1>   0.0800 
 43 H        6.4340    -1.3230    -1.3850 H     1 <1>   0.0800 
 44 H        6.9100    -3.2180    -0.1950 H     1 <1>   0.0800 
 45 H        5.2470    -3.1840     0.3890 H     1 <1>   0.0800 
 46 H        5.9930     0.6460     0.6240 H     1 <1>   0.0800 
 47 H        7.5550     0.1170     0.0200 H     1 <1>   0.0800 
 48 H       -6.1810    -5.4360     1.8540 H     1 <1>   0.1500 
 49 H       -6.9290    -1.6100     0.1130 H     1 <1>   0.1500 
 50 H        6.8120    -2.8830     2.4000 H     1 <1>   0.3700 
 51 H       -8.5930    -5.6940     2.2970 H     1 <1>   0.1500 
 52 H       -9.3090    -1.8720     0.5540 H     1 <1>   0.1500 
 53 H      -10.1550    -3.9070     1.6450 H     1 <1>   0.1500 
@<TRIPOS>BOND
  1   1   2  2   
  2   1   3  2   
  3   1   4  am  
  4   1   5  1   
  5   4   6  1   
  6   4   7  1   
  7   5   8  ar  
  8   5   9  ar  
  9   6  10  1   
 10   6  30  1   
 11   6  31  1   
 12   7  11  1   
 13   7  32  1   
 14   7  33  1   
 15   8  12  ar  
 16   8  34  1   
 17   9  13  ar  
 18   9  35  1   
 19  10  14  1   
 20  10  15  1   
 21  10  36  1   
 22  11  14  1   
 23  11  37  1   
 24  11  38  1   
 25  12  16  ar  
 26  12  39  1   
 27  13  16  ar  
 28  13  40  1   
 29  15  17  1   
 30  15  41  1   
 31  15  42  1   
 32  16  18  1   
 33  17  19  1   
 34  18  20  1   
 35  18  21  1   
 36  18  43  1   
 37  19  22  ar  
 38  19  23  ar  
 39  20  24  1   
 40  20  44  1   
 41  20  45  1   
 42  21  25  1   
 43  21  46  1   
 44  21  47  1   
 45  22  26  ar  
 46  22  48  1   
 47  23  27  ar  
 48  23  49  1   
 49  24  25  am  
 50  24  50  1   
 51  25  28  2   
 52  26  29  ar  
 53  26  51  1   
 54  27  29  ar  
 55  27  52  1   
 56  29  53  1   
@<TRIPOS>SUBSTRUCTURE
  1 ****   4 GROUP 4 **** **** 0

# MOE 2024.06 (io_trps.svl 2023.06)
