@<TRIPOS>MOLECULE
NONAME
39 40 1 0 0 
SMALL
USER_CHARGES


@<TRIPOS>ATOM
  1 CL       0.5680     0.2190    -1.7600 Cl    1 <1>  -0.1770 
  2 C        0.2290     1.8070    -1.1200 C.ar  1 <1>   0.1770 
  3 C       -1.0730     2.2650    -1.1030 C.ar  1 <1>  -0.1500 
  4 C        1.2720     2.5770    -0.6440 C.ar  1 <1>  -0.1500 
  5 C       -1.3560     3.5280    -0.5940 C.ar  1 <1>   0.1170 
  6 C        1.0060     3.8370    -0.1380 C.ar  1 <1>  -0.1500 
  7 N       -2.6510     4.0780    -0.5340 N.am  1 <1>  -0.5470 
  8 C       -0.3020     4.3160    -0.1110 C.ar  1 <1>   0.0830 
  9 C       -3.8870     3.5770    -0.8470 C.2   1 <1>   0.5690 
 10 O       -0.6300     5.5530     0.3750 O.3   1 <1>  -0.3630 
 11 O       -4.0720     2.4640    -1.2790 O.2   1 <1>  -0.5700 
 12 C       -5.1330     4.4510    -0.6260 C.3   1 <1>   0.4040 
 13 C        0.3640     6.4290     0.8680 C.3   1 <1>   0.0400 
 14 N       -6.4060     3.6500    -0.4640 N.4   1 <1>  -0.9590 
 15 C       -7.6350     4.4760    -0.6300 C.3   1 <1>   0.3430 
 16 C       -6.4040     2.8600     0.8040 C.3   1 <1>   0.3430 
 17 C       -8.8680     3.5710    -0.6220 C.3   1 <1>  -0.1600 
 18 C       -7.6210     1.9330     0.8330 C.3   1 <1>  -0.1600 
 19 C       -8.9330     2.7060     0.6430 C.3   1 <1>  -0.1600 
 20 H       -1.8420     1.6240    -1.4890 H     1 <1>   0.1500 
 21 H        2.2760     2.1910    -0.6720 H     1 <1>   0.1500 
 22 H        1.8300     4.4220     0.2280 H     1 <1>   0.1500 
 23 H       -2.5960     5.0330    -0.1680 H     1 <1>   0.3700 
 24 H       -5.2280     5.0980    -1.4810 H     1 <1>   0.0800 
 25 H       -4.9800     5.0660     0.2440 H     1 <1>   0.0800 
 26 H       -0.1150     7.3370     1.1880 H     1 <1>   0.0800 
 27 H        1.0640     6.6460     0.0800 H     1 <1>   0.0800 
 28 H        0.8580     5.9650     1.7040 H     1 <1>   0.0800 
 29 H       -6.3790     2.9440    -1.2200 H     1 <1>   0.4500 
 30 H       -7.5960     5.0180    -1.5620 H     1 <1>   0.0800 
 31 H       -7.7090     5.1880     0.1760 H     1 <1>   0.0800 
 32 H       -6.4390     3.5250     1.6510 H     1 <1>   0.0800 
 33 H       -5.5050     2.2660     0.8690 H     1 <1>   0.0800 
 34 H       -8.8540     2.9410    -1.4960 H     1 <1>   0.0800 
 35 H       -9.7530     4.1810    -0.6820 H     1 <1>   0.0800 
 36 H       -7.6440     1.4150     1.7760 H     1 <1>   0.0800 
 37 H       -7.5170     1.1890     0.0620 H     1 <1>   0.0800 
 38 H       -9.7560     2.0140     0.5720 H     1 <1>   0.0800 
 39 H       -9.1080     3.3340     1.5010 H     1 <1>   0.0800 
@<TRIPOS>BOND
  1   1   2  1   
  2   2   3  ar  
  3   2   4  ar  
  4   3   5  ar  
  5   3  20  1   
  6   4   6  ar  
  7   4  21  1   
  8   5   7  1   
  9   5   8  ar  
 10   6   8  ar  
 11   6  22  1   
 12   7   9  am  
 13   7  23  1   
 14   8  10  1   
 15   9  11  2   
 16   9  12  1   
 17  10  13  1   
 18  12  14  1   
 19  12  24  1   
 20  12  25  1   
 21  13  26  1   
 22  13  27  1   
 23  13  28  1   
 24  14  15  1   
 25  14  16  1   
 26  14  29  1   
 27  15  17  1   
 28  15  30  1   
 29  15  31  1   
 30  16  18  1   
 31  16  32  1   
 32  16  33  1   
 33  17  19  1   
 34  17  34  1   
 35  17  35  1   
 36  18  19  1   
 37  18  36  1   
 38  18  37  1   
 39  19  38  1   
 40  19  39  1   
@<TRIPOS>SUBSTRUCTURE
  1 ****   9 GROUP 4 **** **** 0

# MOE 2024.06 (io_trps.svl 2023.06)
