@<TRIPOS>MOLECULE
NONAME
41 43 1 0 0 
SMALL
USER_CHARGES


@<TRIPOS>ATOM
  1 F       -0.4450     0.9140    -1.9900 F     1 <1>  -0.3400 
  2 C       -0.0850     2.1850    -1.8100 C.3   1 <1>   1.0200 
  3 F       -0.2170     2.7590    -3.0030 F     1 <1>  -0.3400 
  4 F        1.2190     2.1550    -1.5520 F     1 <1>  -0.3400 
  5 C       -0.9680     2.8970    -0.6850 C.3   1 <1>   0.5800 
  6 O       -0.7000     2.4070     0.5790 O.3   1 <1>  -0.6800 
  7 N       -2.4070     2.5630    -0.7740 N.am  1 <1>  -0.7300 
  8 C       -0.7940     4.4270    -0.6740 C.3   1 <1>  -0.0190 
  9 C       -3.4070     3.4260    -0.5410 C.2   1 <1>   0.6900 
 10 C        0.6260     4.8260    -0.3690 C.2   1 <1>   0.6590 
 11 C       -1.7720     5.0980     0.2930 C.3   1 <1>   0.3640 
 12 O       -4.5390     3.1310    -0.8370 O.2   1 <1>  -0.5700 
 13 N       -3.1300     4.6120     0.0150 N.am  1 <1>  -0.7300 
 14 O        1.3810     5.0970    -1.2630 O.2   1 <1>  -0.5700 
 15 O        0.9920     4.8560     0.9070 O.3   1 <1>  -0.4300 
 16 C       -1.7520     6.6160     0.1580 C.ar  1 <1>  -0.1430 
 17 C        2.3140     5.1360     1.3140 C.3   1 <1>   0.1200 
 18 C       -2.2960     7.2410    -0.9640 C.ar  1 <1>  -0.1500 
 19 C       -1.1770     7.3890     1.1690 C.ar  1 <1>  -0.1500 
 20 C        3.1230     3.8410     1.2700 C.3   1 <1>  -0.2400 
 21 C       -2.2450     8.6180    -1.0360 C.ar  1 <1>   0.0830 
 22 C       -1.1350     8.7750     1.0770 C.ar  1 <1>  -0.1500 
 23 O       -2.7010     9.4130    -2.0090 O.3   1 <1>  -0.3630 
 24 C       -1.6810     9.3650    -0.0440 C.ar  1 <1>   0.0830 
 25 C       -2.4060    10.7510    -1.6140 C.3   1 <1>   0.4000 
 26 O       -1.7560    10.6650    -0.3470 O.3   1 <1>  -0.3620 
 27 H       -1.5310     2.0070     0.9030 H     1 <1>   0.4000 
 28 H       -2.6600     1.7190    -1.2930 H     1 <1>   0.3700 
 29 H       -1.0090     4.7950    -1.6600 H     1 <1>   0.0800 
 30 H       -1.5260     4.8260     1.3070 H     1 <1>   0.0800 
 31 H       -3.9040     5.2580     0.1770 H     1 <1>   0.3700 
 32 H        2.2730     5.5200     2.3180 H     1 <1>   0.0800 
 33 H        2.7360     5.8880     0.6660 H     1 <1>   0.0800 
 34 H       -2.7500     6.6880    -1.7670 H     1 <1>   0.1500 
 35 H       -0.7520     6.9160     2.0380 H     1 <1>   0.1500 
 36 H        2.6680     3.0960     1.8980 H     1 <1>   0.0800 
 37 H        4.1210     4.0250     1.6230 H     1 <1>   0.0800 
 38 H        3.1840     3.4730     0.2610 H     1 <1>   0.0800 
 39 H       -0.6950     9.3820     1.8480 H     1 <1>   0.1500 
 40 H       -3.3200    11.3080    -1.5140 H     1 <1>   0.0800 
 41 H       -1.7410    11.2000    -2.3310 H     1 <1>   0.0800 
@<TRIPOS>BOND
  1   1   2  1   
  2   2   3  1   
  3   2   4  1   
  4   2   5  1   
  5   5   6  1   
  6   5   7  1   
  7   5   8  1   
  8   6  27  1   
  9   7   9  am  
 10   7  28  1   
 11   8  10  1   
 12   8  11  1   
 13   8  29  1   
 14   9  12  2   
 15   9  13  am  
 16  10  14  2   
 17  10  15  1   
 18  11  13  1   
 19  11  16  1   
 20  11  30  1   
 21  13  31  1   
 22  15  17  1   
 23  16  18  ar  
 24  16  19  ar  
 25  17  20  1   
 26  17  32  1   
 27  17  33  1   
 28  18  21  ar  
 29  18  34  1   
 30  19  22  ar  
 31  19  35  1   
 32  20  36  1   
 33  20  37  1   
 34  20  38  1   
 35  21  23  1   
 36  21  24  ar  
 37  22  24  ar  
 38  22  39  1   
 39  23  25  1   
 40  24  26  1   
 41  25  26  1   
 42  25  40  1   
 43  25  41  1   
@<TRIPOS>SUBSTRUCTURE
  1 ****   8 GROUP 4 **** **** 0

# MOE 2024.06 (io_trps.svl 2023.06)
