@<TRIPOS>MOLECULE
NONAME
41 43 1 0 0 
SMALL
USER_CHARGES


@<TRIPOS>ATOM
  1 O       -0.6680    -0.8630     1.4030 O.3   1 <1>  -0.2800 
  2 C       -1.5840    -0.9560     0.4550 C.2   1 <1>  -0.0400 
  3 C        0.3080    -1.6950     1.1010 C.2   1 <1>  -0.0100 
  4 C       -1.2030    -1.8630    -0.4730 C.2   1 <1>  -0.1500 
  5 C       -2.8350    -0.0930     0.5670 C.3   1 <1>   0.3700 
  6 C        0.0410    -2.3460    -0.0500 C.2   1 <1>  -0.1500 
  7 N       -3.7310    -0.3510    -0.5700 N.3   1 <1>  -0.9000 
  8 C       -2.5400     1.4140     0.7230 C.3   1 <1>  -0.0190 
  9 C       -4.8030     0.6360    -0.7930 C.3   1 <1>   0.3700 
 10 C       -3.8730     2.1200     1.0050 C.2   1 <1>   0.3280 
 11 C       -1.8110     2.0960    -0.4700 C.3   1 <1>  -0.1600 
 12 C       -6.0480    -0.0620    -1.3190 C.2   1 <1>  -0.0400 
 13 C       -5.1160     1.4210     0.4800 C.3   1 <1>  -0.0990 
 14 N       -3.9950     3.2120     1.6340 N.2   1 <1>  -0.5130 
 15 C       -0.2940     1.8540    -0.5070 C.3   1 <1>  -0.1600 
 16 O       -7.0460     0.6760    -1.7700 O.3   1 <1>  -0.2800 
 17 C       -6.3520    -1.3750    -1.4250 C.2   1 <1>  -0.1500 
 18 O       -2.9420     3.8630     2.1030 O.3   1 <1>  -0.3370 
 19 C        0.3720     2.7250    -1.5750 C.3   1 <1>  -0.2400 
 20 C       -8.0010    -0.1420    -2.1680 C.2   1 <1>  -0.0100 
 21 C       -7.6360    -1.4270    -1.9830 C.2   1 <1>  -0.1500 
 22 H        1.1560    -1.7630     1.7610 H     1 <1>   0.1500 
 23 H       -1.7230    -2.1800    -1.3600 H     1 <1>   0.1500 
 24 H       -3.3410    -0.4170     1.4610 H     1 <1>   0.0800 
 25 H        0.6320    -3.0850    -0.5600 H     1 <1>   0.1500 
 26 H       -3.1610    -0.3890    -1.4200 H     1 <1>   0.3600 
 27 H       -1.9280     1.5210     1.6000 H     1 <1>   0.0800 
 28 H       -4.4780     1.3330    -1.5470 H     1 <1>   0.0800 
 29 H       -2.2380     1.7820    -1.4040 H     1 <1>   0.0800 
 30 H       -1.9680     3.1590    -0.4000 H     1 <1>   0.0800 
 31 H       -5.5040     0.7540     1.2270 H     1 <1>   0.0800 
 32 H       -5.8750     2.1540     0.2710 H     1 <1>   0.0800 
 33 H        0.1410     2.0780     0.4510 H     1 <1>   0.0800 
 34 H       -0.0830     0.8240    -0.7340 H     1 <1>   0.0800 
 35 H       -5.7500    -2.2210    -1.1450 H     1 <1>   0.1500 
 36 H       -2.0630     3.5230     1.8440 H     1 <1>   0.4000 
 37 H        0.2190     3.7690    -1.3640 H     1 <1>   0.0800 
 38 H       -0.0310     2.5040    -2.5480 H     1 <1>   0.0800 
 39 H        1.4310     2.5350    -1.5950 H     1 <1>   0.0800 
 40 H       -8.9070     0.2760    -2.5710 H     1 <1>   0.1500 
 41 H       -8.1850    -2.3250    -2.2030 H     1 <1>   0.1500 
@<TRIPOS>BOND
  1   1   2  1   
  2   1   3  1   
  3   2   4  2   
  4   2   5  1   
  5   3   6  2   
  6   3  22  1   
  7   4   6  1   
  8   4  23  1   
  9   5   7  1   
 10   5   8  1   
 11   5  24  1   
 12   6  25  1   
 13   7   9  1   
 14   7  26  1   
 15   8  10  1   
 16   8  11  1   
 17   8  27  1   
 18   9  12  1   
 19   9  13  1   
 20   9  28  1   
 21  10  13  1   
 22  10  14  2   
 23  11  15  1   
 24  11  29  1   
 25  11  30  1   
 26  12  16  1   
 27  12  17  2   
 28  13  31  1   
 29  13  32  1   
 30  14  18  1   
 31  15  19  1   
 32  15  33  1   
 33  15  34  1   
 34  16  20  1   
 35  17  21  1   
 36  17  35  1   
 37  18  36  1   
 38  19  37  1   
 39  19  38  1   
 40  19  39  1   
 41  20  21  2   
 42  20  40  1   
 43  21  41  1   
@<TRIPOS>SUBSTRUCTURE
  1 ****   7 GROUP 4 **** **** 0

# MOE 2024.06 (io_trps.svl 2023.06)
