@<TRIPOS>MOLECULE
NONAME
48 50 1 0 0 
SMALL
USER_CHARGES


@<TRIPOS>ATOM
  1 O        0.6430     0.0770     0.3840 O.3   1 <1>  -0.3630 
  2 C        1.7440     0.8740     0.2620 C.ar  1 <1>   0.0830 
  3 C       -0.6400     0.5580     0.7170 C.3   1 <1>   0.0400 
  4 C        1.8250     2.2580     0.5030 C.ar  1 <1>   0.0830 
  5 C        2.8770     0.1920    -0.1460 C.ar  1 <1>  -0.1500 
  6 O        0.7250     2.9540     0.9100 O.3   1 <1>  -0.3630 
  7 C        3.0500     2.8970     0.3210 C.ar  1 <1>  -0.1500 
  8 C        4.0900     0.8340    -0.3250 C.ar  1 <1>  -0.1430 
  9 C        0.7410     4.3440     1.1570 C.3   1 <1>   0.0400 
 10 C        4.1750     2.1990    -0.0890 C.ar  1 <1>  -0.1430 
 11 C        5.2860     0.0170    -0.7850 C.3   1 <1>   0.4860 
 12 C        5.4940     2.9440    -0.2540 C.3   1 <1>  -0.0160 
 13 N        6.5470     0.7090    -0.4130 N.4   1 <1>  -0.9590 
 14 C        6.5630     2.1010    -0.9540 C.3   1 <1>   0.3430 
 15 C        7.7510    -0.0740    -0.7930 C.3   1 <1>   0.4860 
 16 C        8.9690     0.6060    -0.2010 C.ar  1 <1>  -0.1430 
 17 C        9.1300     0.6590     1.1760 C.ar  1 <1>  -0.1500 
 18 C        9.9260     1.1890    -1.0220 C.ar  1 <1>  -0.1500 
 19 C       10.2240     1.3050     1.7160 C.ar  1 <1>   0.0830 
 20 C       11.0280     1.8310    -0.4760 C.ar  1 <1>  -0.1500 
 21 O       10.3550     1.3620     3.0500 O.3   1 <1>  -0.5330 
 22 C       11.1860     1.8970     0.9040 C.ar  1 <1>   0.0830 
 23 O       12.2350     2.5110     1.5220 O.3   1 <1>  -0.3620 
 24 C       13.2980     3.0660     0.7770 C.3   1 <1>   0.0400 
 25 H       -1.3230    -0.2720     0.7030 H     1 <1>   0.0800 
 26 H       -0.9390     1.2900    -0.0120 H     1 <1>   0.0800 
 27 H       -0.6070     0.9860     1.7030 H     1 <1>   0.0800 
 28 H        2.7810    -0.8660    -0.3220 H     1 <1>   0.1500 
 29 H        3.1460     3.9510     0.4990 H     1 <1>   0.1500 
 30 H       -0.2470     4.6400     1.4570 H     1 <1>   0.0800 
 31 H        1.0150     4.8570     0.2520 H     1 <1>   0.0800 
 32 H        1.4390     4.5510     1.9490 H     1 <1>   0.0800 
 33 H        5.2330    -0.1110    -1.8540 H     1 <1>   0.0800 
 34 H        5.2480    -0.9560    -0.3220 H     1 <1>   0.0800 
 35 H        5.8560     3.2340     0.7170 H     1 <1>   0.0800 
 36 H        5.3350     3.8450    -0.8210 H     1 <1>   0.0800 
 37 H        6.5460     0.7950     0.6110 H     1 <1>   0.4500 
 38 H        7.5280     2.5580    -0.7980 H     1 <1>   0.0800 
 39 H        6.3640     2.0800    -2.0130 H     1 <1>   0.0800 
 40 H        7.8410    -0.1270    -1.8660 H     1 <1>   0.0800 
 41 H        7.6820    -1.0770    -0.4030 H     1 <1>   0.0800 
 42 H        8.4260     0.2070     1.8530 H     1 <1>   0.1500 
 43 H        9.8310     1.1520    -2.0940 H     1 <1>   0.1500 
 44 H       11.7510     2.2700    -1.1380 H     1 <1>   0.1500 
 45 H       11.1850     1.8300     3.2790 H     1 <1>   0.4500 
 46 H       14.0190     3.4650     1.4680 H     1 <1>   0.0800 
 47 H       12.9160     3.8560     0.1550 H     1 <1>   0.0800 
 48 H       13.7520     2.2920     0.1830 H     1 <1>   0.0800 
@<TRIPOS>BOND
  1   1   2  1   
  2   1   3  1   
  3   2   4  ar  
  4   2   5  ar  
  5   3  25  1   
  6   3  26  1   
  7   3  27  1   
  8   4   6  1   
  9   4   7  ar  
 10   5   8  ar  
 11   5  28  1   
 12   6   9  1   
 13   7  10  ar  
 14   7  29  1   
 15   8  10  ar  
 16   8  11  1   
 17   9  30  1   
 18   9  31  1   
 19   9  32  1   
 20  10  12  1   
 21  11  13  1   
 22  11  33  1   
 23  11  34  1   
 24  12  14  1   
 25  12  35  1   
 26  12  36  1   
 27  13  14  1   
 28  13  15  1   
 29  13  37  1   
 30  14  38  1   
 31  14  39  1   
 32  15  16  1   
 33  15  40  1   
 34  15  41  1   
 35  16  17  ar  
 36  16  18  ar  
 37  17  19  ar  
 38  17  42  1   
 39  18  20  ar  
 40  18  43  1   
 41  19  21  1   
 42  19  22  ar  
 43  20  22  ar  
 44  20  44  1   
 45  21  45  1   
 46  22  23  1   
 47  23  24  1   
 48  24  46  1   
 49  24  47  1   
 50  24  48  1   
@<TRIPOS>SUBSTRUCTURE
  1 ****  13 GROUP 4 **** **** 0

# MOE 2024.06 (io_trps.svl 2023.06)
