@<TRIPOS>MOLECULE
NONAME
35 36 1 0 0 
SMALL
USER_CHARGES


@<TRIPOS>ATOM
  1 CL       0.0350     0.4860    -0.4040 Cl    1 <1>  -0.1770 
  2 C       -1.6000     1.0810    -0.4890 C.ar  1 <1>   0.1770 
  3 C       -2.3070     0.9640    -1.6700 C.ar  1 <1>  -0.1500 
  4 C       -2.1700     1.6660     0.6250 C.ar  1 <1>  -0.1500 
  5 C       -3.6070     1.4350    -1.7290 C.ar  1 <1>  -0.1500 
  6 C       -3.4700     2.1340     0.5540 C.ar  1 <1>  -0.1500 
  7 C       -4.2230     2.0200    -0.6190 C.ar  1 <1>   0.0860 
  8 C       -5.5940     2.4960    -0.6950 C.2   1 <1>   0.5440 
  9 O       -5.9950     3.0410    -1.7060 O.2   1 <1>  -0.5700 
 10 N       -6.4990     2.3260     0.3330 N.am  1 <1>  -0.6600 
 11 C       -7.6880     3.2260     0.4220 C.3   1 <1>   0.1400 
 12 C       -6.4840     1.1390     1.2250 C.3   1 <1>   0.1400 
 13 C       -8.7570     2.8410    -0.6180 C.3   1 <1>   0.3430 
 14 C       -7.7950     0.3460     1.1270 C.3   1 <1>  -0.1600 
 15 N       -9.4050     1.4960    -0.3910 N.4   1 <1>  -0.9590 
 16 C       -8.4300     0.3670    -0.2680 C.3   1 <1>   0.3430 
 17 C      -10.3550     1.2210    -1.5110 C.3   1 <1>   0.2630 
 18 H       -1.8410     0.5130    -2.5280 H     1 <1>   0.1500 
 19 H       -1.5950     1.7550     1.5310 H     1 <1>   0.1500 
 20 H       -4.1590     1.3550    -2.6510 H     1 <1>   0.1500 
 21 H       -3.9090     2.6030     1.4180 H     1 <1>   0.1500 
 22 H       -7.3650     4.2330     0.2160 H     1 <1>   0.0800 
 23 H       -8.0990     3.2140     1.4160 H     1 <1>   0.0800 
 24 H       -6.3140     1.4520     2.2420 H     1 <1>   0.0800 
 25 H       -5.6710     0.4900     0.9430 H     1 <1>   0.0800 
 26 H       -8.2950     2.8580    -1.5920 H     1 <1>   0.0800 
 27 H       -9.5190     3.6020    -0.6140 H     1 <1>   0.0800 
 28 H       -8.4930     0.6910     1.8680 H     1 <1>   0.0800 
 29 H       -7.5650    -0.6740     1.3770 H     1 <1>   0.0800 
 30 H       -9.9400     1.5420     0.4860 H     1 <1>   0.4500 
 31 H       -8.9540    -0.5640    -0.4120 H     1 <1>   0.0800 
 32 H       -7.6670     0.4430    -1.0270 H     1 <1>   0.0800 
 33 H       -9.8220     1.1670    -2.4470 H     1 <1>   0.0800 
 34 H      -11.0920     2.0050    -1.5790 H     1 <1>   0.0800 
 35 H      -10.8650     0.2850    -1.3500 H     1 <1>   0.0800 
@<TRIPOS>BOND
  1   1   2  1   
  2   2   3  ar  
  3   2   4  ar  
  4   3   5  ar  
  5   3  18  1   
  6   4   6  ar  
  7   4  19  1   
  8   5   7  ar  
  9   5  20  1   
 10   6   7  ar  
 11   6  21  1   
 12   7   8  1   
 13   8   9  2   
 14   8  10  am  
 15  10  11  1   
 16  10  12  1   
 17  11  13  1   
 18  11  22  1   
 19  11  23  1   
 20  12  14  1   
 21  12  24  1   
 22  12  25  1   
 23  13  15  1   
 24  13  26  1   
 25  13  27  1   
 26  14  16  1   
 27  14  28  1   
 28  14  29  1   
 29  15  16  1   
 30  15  17  1   
 31  15  30  1   
 32  16  31  1   
 33  16  32  1   
 34  17  33  1   
 35  17  34  1   
 36  17  35  1   
@<TRIPOS>SUBSTRUCTURE
  1 ****   8 GROUP 4 **** **** 0

# MOE 2024.06 (io_trps.svl 2023.06)
