@<TRIPOS>MOLECULE
NONAME
29 29 1 0 0 
SMALL
USER_CHARGES


@<TRIPOS>ATOM
  1 F        0.5570     0.0410     0.1380 F     1 <1>  -0.3400 
  2 C        1.7720     0.5770     0.2570 C.3   1 <1>   1.0810 
  3 F        2.5900    -0.2690    -0.3700 F     1 <1>  -0.3400 
  4 F        2.0710     0.4830     1.5520 F     1 <1>  -0.3400 
  5 C        1.8680     2.0230    -0.2830 C.2   1 <1>   0.5940 
  6 O        0.9010     2.5850    -0.7630 O.2   1 <1>  -0.5700 
  7 C        3.1400     2.6870    -0.2040 C.2   1 <1>   0.0550 
  8 O        4.2080     2.0940     0.3190 O.3   1 <1>  -0.2800 
  9 C        3.5030     3.9400    -0.6010 C.2   1 <1>  -0.1500 
 10 C        5.2280     2.9200     0.2710 C.2   1 <1>  -0.0400 
 11 C        4.8540     4.0880    -0.2920 C.2   1 <1>  -0.1500 
 12 C        6.5720     2.4780     0.8170 C.3   1 <1>   0.0200 
 13 C        7.1250     1.2860     0.0230 C.3   1 <1>  -0.0990 
 14 C        8.4940     0.8410     0.4980 C.2   1 <1>   0.6590 
 15 O        9.0750     1.3920     1.3980 O.2   1 <1>  -0.5700 
 16 O        9.0080    -0.1940    -0.1530 O.3   1 <1>  -0.4300 
 17 C       10.2830    -0.7250     0.1390 C.3   1 <1>   0.1200 
 18 C       11.3340     0.0560    -0.6480 C.3   1 <1>  -0.2400 
 19 H        2.8790     4.6860    -1.0650 H     1 <1>   0.1500 
 20 H        5.4480     4.9670    -0.4750 H     1 <1>   0.1500 
 21 H        6.4610     2.2070     1.8530 H     1 <1>   0.0800 
 22 H        7.2630     3.3020     0.7620 H     1 <1>   0.0800 
 23 H        7.1990     1.5520    -1.0150 H     1 <1>   0.0800 
 24 H        6.4510     0.4550     0.1090 H     1 <1>   0.0800 
 25 H       10.2810    -1.7590    -0.1590 H     1 <1>   0.0800 
 26 H       10.4590    -0.6650     1.2000 H     1 <1>   0.0800 
 27 H       11.1290    -0.0030    -1.7020 H     1 <1>   0.0800 
 28 H       12.3070    -0.3620    -0.4630 H     1 <1>   0.0800 
 29 H       11.3430     1.0850    -0.3370 H     1 <1>   0.0800 
@<TRIPOS>BOND
  1   1   2  1   
  2   2   3  1   
  3   2   4  1   
  4   2   5  1   
  5   5   6  2   
  6   5   7  1   
  7   7   8  1   
  8   7   9  2   
  9   8  10  1   
 10   9  11  1   
 11   9  19  1   
 12  10  11  2   
 13  10  12  1   
 14  11  20  1   
 15  12  13  1   
 16  12  21  1   
 17  12  22  1   
 18  13  14  1   
 19  13  23  1   
 20  13  24  1   
 21  14  15  2   
 22  14  16  1   
 23  16  17  1   
 24  17  18  1   
 25  17  25  1   
 26  17  26  1   
 27  18  27  1   
 28  18  28  1   
 29  18  29  1   
@<TRIPOS>SUBSTRUCTURE
  1 ****   8 GROUP 4 **** **** 0

# MOE 2024.06 (io_trps.svl 2023.06)
