@<TRIPOS>MOLECULE
NONAME
37 39 1 0 0 
SMALL
USER_CHARGES


@<TRIPOS>ATOM
  1 S        0.2950    -0.5950     0.2870 S.o2  1 <1>   1.4470 
  2 O        0.6510    -0.6250    -1.1130 O.2   1 <1>  -0.6500 
  3 O        0.7250     0.5130     1.1110 O.2   1 <1>  -0.6500 
  4 N        0.9660    -1.9820     0.9530 N.am  1 <1>  -0.9140 
  5 C       -1.4870    -0.8630     0.4880 C.ar  1 <1>  -0.0090 
  6 C        2.3900    -1.8700     1.2590 C.3   1 <1>   0.1960 
  7 C       -2.2940    -1.2300    -0.5610 C.ar  1 <1>  -0.1500 
  8 C       -2.0820    -0.7150     1.7530 C.ar  1 <1>  -0.1500 
  9 C        3.2350    -2.0320    -0.0180 C.3   1 <1>   0.2000 
 10 C       -3.6770    -1.4520    -0.4110 C.ar  1 <1>   0.0000 
 11 C       -3.4210    -0.9230     1.9370 C.ar  1 <1>  -0.1500 
 12 O        2.7790    -3.1320    -0.7400 O.3   1 <1>  -0.5600 
 13 C        4.7090    -2.3290     0.2200 C.3   1 <1>  -0.1600 
 14 C       -4.2550    -1.2950     0.8650 C.ar  1 <1>   0.0000 
 15 C       -4.5060    -1.8250    -1.4890 C.ar  1 <1>  -0.1500 
 16 C        3.7600    -3.5350    -1.6380 C.3   1 <1>   0.1200 
 17 C        5.0960    -3.1430    -1.0070 C.3   1 <1>  -0.1600 
 18 C       -5.6390    -1.5160     1.0160 C.ar  1 <1>  -0.1500 
 19 C       -5.8460    -2.0330    -1.3150 C.ar  1 <1>  -0.1500 
 20 C       -6.4190    -1.8770    -0.0470 C.ar  1 <1>  -0.1500 
 21 H        0.9570    -2.6560     0.1790 H     1 <1>   0.4200 
 22 H        2.6490    -2.6610     1.9400 H     1 <1>   0.0800 
 23 H        2.6130    -0.9360     1.7470 H     1 <1>   0.0800 
 24 H       -1.8680    -1.3550    -1.5410 H     1 <1>   0.1500 
 25 H       -1.4540    -0.4320     2.5820 H     1 <1>   0.1500 
 26 H        3.1360    -1.1630    -0.6480 H     1 <1>   0.0800 
 27 H       -3.8620    -0.8050     2.9110 H     1 <1>   0.1500 
 28 H        4.8290    -2.9240     1.1090 H     1 <1>   0.0800 
 29 H        5.2850    -1.4260     0.3160 H     1 <1>   0.0800 
 30 H       -4.0610    -1.9430    -2.4610 H     1 <1>   0.1500 
 31 H        3.5980    -3.0120    -2.5660 H     1 <1>   0.0800 
 32 H        3.6740    -4.5970    -1.7920 H     1 <1>   0.0800 
 33 H        5.6630    -4.0160    -0.7360 H     1 <1>   0.0800 
 34 H        5.6680    -2.5550    -1.7030 H     1 <1>   0.0800 
 35 H       -6.0740    -1.3940     1.9910 H     1 <1>   0.1500 
 36 H       -6.4740    -2.3180    -2.1410 H     1 <1>   0.1500 
 37 H       -7.4750    -2.0450     0.0730 H     1 <1>   0.1500 
@<TRIPOS>BOND
  1   1   2  2   
  2   1   3  2   
  3   1   4  am  
  4   1   5  1   
  5   4   6  1   
  6   4  21  1   
  7   5   7  ar  
  8   5   8  ar  
  9   6   9  1   
 10   6  22  1   
 11   6  23  1   
 12   7  10  ar  
 13   7  24  1   
 14   8  11  ar  
 15   8  25  1   
 16   9  12  1   
 17   9  13  1   
 18   9  26  1   
 19  10  14  ar  
 20  10  15  ar  
 21  11  14  ar  
 22  11  27  1   
 23  12  16  1   
 24  13  17  1   
 25  13  28  1   
 26  13  29  1   
 27  14  18  ar  
 28  15  19  ar  
 29  15  30  1   
 30  16  17  1   
 31  16  31  1   
 32  16  32  1   
 33  17  33  1   
 34  17  34  1   
 35  18  20  ar  
 36  18  35  1   
 37  19  20  ar  
 38  19  36  1   
 39  20  37  1   
@<TRIPOS>SUBSTRUCTURE
  1 ****   5 GROUP 4 **** **** 0

# MOE 2024.06 (io_trps.svl 2023.06)
