@<TRIPOS>MOLECULE
NONAME
29 29 1 0 0 
SMALL
USER_CHARGES


@<TRIPOS>ATOM
  1 O       -0.9960     0.1090     0.3810 O.2   1 <1>  -0.5700 
  2 C       -1.5620    -0.9500     0.4380 C.2   1 <1>   0.7200 
  3 O       -2.8800    -1.0550     0.3140 O.3   1 <1>  -0.4300 
  4 C       -0.8050    -2.2380     0.6720 C.3   1 <1>   0.1050 
  5 C       -3.6990     0.0780     0.1060 C.3   1 <1>   0.0400 
  6 C       -0.7460    -2.4720     2.1390 C.1   1 <1>   0.4520 
  7 C        0.4050    -2.5320    -0.1910 C.3   1 <1>   0.1050 
  8 C       -0.8220    -3.4140    -0.2770 C.3   1 <1>  -0.1900 
  9 N       -0.6830    -2.6810     3.2540 N.1   1 <1>  -0.5570 
 10 C        0.7580    -1.6820    -1.3590 C.1   1 <1>   0.4520 
 11 C        1.6920    -2.9170     0.5080 C.2   1 <1>   0.7200 
 12 C       -1.7290    -3.3690    -1.5250 C.3   1 <1>  -0.1450 
 13 C       -0.7700    -4.8570     0.2680 C.3   1 <1>  -0.1450 
 14 N        1.0010    -1.0570    -2.2780 N.1   1 <1>  -0.5570 
 15 O        2.2080    -3.9930     0.3540 O.2   1 <1>  -0.5700 
 16 O        2.2080    -1.9940     1.3100 O.3   1 <1>  -0.4300 
 17 C        3.3840    -2.2260     2.0590 C.3   1 <1>   0.0400 
 18 H       -4.7210    -0.2480     0.0330 H     1 <1>   0.0800 
 19 H       -3.3990     0.5650    -0.8060 H     1 <1>   0.0800 
 20 H       -3.5830     0.7500     0.9400 H     1 <1>   0.0800 
 21 H       -1.8160    -2.3800    -1.9390 H     1 <1>   0.0800 
 22 H       -2.7200    -3.7070    -1.2750 H     1 <1>   0.0800 
 23 H       -1.3370    -4.0140    -2.2930 H     1 <1>   0.0800 
 24 H       -0.3660    -5.5190    -0.4790 H     1 <1>   0.0800 
 25 H       -1.7590    -5.1970     0.5220 H     1 <1>   0.0800 
 26 H       -0.1550    -4.9480     1.1460 H     1 <1>   0.0800 
 27 H        3.6080    -1.3380     2.6240 H     1 <1>   0.0800 
 28 H        4.1910    -2.4490     1.3830 H     1 <1>   0.0800 
 29 H        3.2150    -3.0550     2.7250 H     1 <1>   0.0800 
@<TRIPOS>BOND
  1   1   2  2   
  2   2   3  1   
  3   2   4  1   
  4   3   5  1   
  5   4   6  1   
  6   4   7  1   
  7   4   8  1   
  8   5  18  1   
  9   5  19  1   
 10   5  20  1   
 11   6   9  3   
 12   7   8  1   
 13   7  10  1   
 14   7  11  1   
 15   8  12  1   
 16   8  13  1   
 17  10  14  3   
 18  11  15  2   
 19  11  16  1   
 20  12  21  1   
 21  12  22  1   
 22  12  23  1   
 23  13  24  1   
 24  13  25  1   
 25  13  26  1   
 26  16  17  1   
 27  17  27  1   
 28  17  28  1   
 29  17  29  1   
@<TRIPOS>SUBSTRUCTURE
  1 ****   4 GROUP 4 **** **** 0

# MOE 2024.06 (io_trps.svl 2023.06)
