@<TRIPOS>MOLECULE
NONAME
38 40 1 0 0 
SMALL
USER_CHARGES


@<TRIPOS>ATOM
  1 F       -1.0570     2.3810    -1.7490 F     1 <1>  -0.3400 
  2 C       -2.3530     2.1110    -1.8650 C.3   1 <1>   1.1640 
  3 F       -2.4320     0.8390    -2.2370 F     1 <1>  -0.3400 
  4 F       -2.7900     2.8290    -2.8920 F     1 <1>  -0.3400 
  5 C       -3.1480     2.4000    -0.5820 C.ar  1 <1>  -0.1440 
  6 C       -4.4260     1.8750    -0.4210 C.ar  1 <1>  -0.1500 
  7 C       -2.6230     3.1890     0.4360 C.ar  1 <1>  -0.1500 
  8 C       -5.1950     2.1070     0.7210 C.ar  1 <1>   0.0540 
  9 C       -3.3600     3.4360     1.5790 C.ar  1 <1>  -0.1500 
 10 C       -6.5280     1.5420     0.8570 C.2   1 <1>   0.4620 
 11 C       -4.6270     2.9020     1.7170 C.ar  1 <1>  -0.1500 
 12 N       -7.3390     1.8270     1.8830 N.2   1 <1>  -0.2270 
 13 N       -7.0650     0.7160     0.0180 N.2   1 <1>  -0.7070 
 14 N       -8.4120     1.1720     1.6980 N.2   1 <1>  -0.4180 
 15 N       -8.2430     0.5150     0.5630 N.pl3 1 <1>   0.5800 
 16 C       -9.2520    -0.3880     0.0090 C.3   1 <1>   0.1570 
 17 C      -10.0440     0.3460    -1.0440 C.2   1 <1>   0.5690 
 18 O       -9.8110     0.0580    -2.1940 O.2   1 <1>  -0.5700 
 19 N      -11.0010     1.2800    -0.7250 N.am  1 <1>  -0.6600 
 20 C      -11.4520     1.6730     0.6470 C.3   1 <1>   0.1400 
 21 C      -11.6040     2.1570    -1.7760 C.3   1 <1>   0.1400 
 22 C      -11.2080     3.1740     0.8720 C.3   1 <1>   0.1200 
 23 C      -11.3760     3.6380    -1.4270 C.3   1 <1>   0.1200 
 24 O      -11.8360     3.9200    -0.1340 O.3   1 <1>  -0.5600 
 25 H       -4.8480     1.2650    -1.2040 H     1 <1>   0.1500 
 26 H       -1.6380     3.6180     0.3500 H     1 <1>   0.1500 
 27 H       -2.9460     4.0470     2.3640 H     1 <1>   0.1500 
 28 H       -5.1830     3.1070     2.6160 H     1 <1>   0.1500 
 29 H       -9.8930    -0.7380     0.7930 H     1 <1>   0.0800 
 30 H       -8.7510    -1.2250    -0.4360 H     1 <1>   0.0800 
 31 H      -10.9520     1.1080     1.4100 H     1 <1>   0.0800 
 32 H      -12.5060     1.4780     0.7390 H     1 <1>   0.0800 
 33 H      -12.6610     1.9640    -1.8380 H     1 <1>   0.0800 
 34 H      -11.1730     1.9520    -2.7410 H     1 <1>   0.0800 
 35 H      -10.1550     3.3960     0.8670 H     1 <1>   0.0800 
 36 H      -11.6210     3.4820     1.8160 H     1 <1>   0.0800 
 37 H      -11.9130     4.2680    -2.1120 H     1 <1>   0.0800 
 38 H      -10.3280     3.8810    -1.4820 H     1 <1>   0.0800 
@<TRIPOS>BOND
  1   1   2  1   
  2   2   3  1   
  3   2   4  1   
  4   2   5  1   
  5   5   6  ar  
  6   5   7  ar  
  7   6   8  ar  
  8   6  25  1   
  9   7   9  ar  
 10   7  26  1   
 11   8  10  1   
 12   8  11  ar  
 13   9  11  ar  
 14   9  27  1   
 15  10  12  1   
 16  10  13  2   
 17  11  28  1   
 18  12  14  2   
 19  13  15  1   
 20  14  15  1   
 21  15  16  1   
 22  16  17  1   
 23  16  29  1   
 24  16  30  1   
 25  17  18  2   
 26  17  19  am  
 27  19  20  1   
 28  19  21  1   
 29  20  22  1   
 30  20  31  1   
 31  20  32  1   
 32  21  23  1   
 33  21  33  1   
 34  21  34  1   
 35  22  24  1   
 36  22  35  1   
 37  22  36  1   
 38  23  24  1   
 39  23  37  1   
 40  23  38  1   
@<TRIPOS>SUBSTRUCTURE
  1 ****  13 GROUP 4 **** **** 0

# MOE 2024.06 (io_trps.svl 2023.06)
