@<TRIPOS>MOLECULE
NONAME
41 43 1 0 0 
SMALL
USER_CHARGES


@<TRIPOS>ATOM
  1 N       -0.8470     1.1720    -1.8290 N.1   1 <1>  -0.5570 
  2 C       -1.7330     1.3470    -1.1300 C.1   1 <1>   0.4920 
  3 C       -2.8940     1.5500    -0.3210 C.2   1 <1>   0.1100 
  4 C       -3.8470     0.5820    -0.1740 C.2   1 <1>  -0.0380 
  5 C       -2.9640     2.8520     0.2740 C.2   1 <1>   0.1420 
  6 N       -3.7920    -0.6270    -0.8510 N.pl3 1 <1>  -0.8690 
  7 C       -5.0770     0.8310     0.7170 C.3   1 <1>  -0.0220 
  8 N       -2.3640     3.2100     1.3710 N.2   1 <1>  -0.3380 
  9 N       -3.6760     3.8790    -0.2260 N.pl3 1 <1>   0.0480 
 10 C       -3.8210    -1.9130    -0.1240 C.3   1 <1>   0.2090 
 11 C       -5.7070    -0.3650     1.4560 C.3   1 <1>  -0.1600 
 12 N       -2.6830     4.4810     1.6030 N.2   1 <1>  -0.3380 
 13 C       -3.4580     4.8610     0.6490 C.2   1 <1>   0.0060 
 14 C       -4.4940     3.9160    -1.4590 C.3   1 <1>   0.0960 
 15 C       -5.2500    -2.4430     0.0000 C.3   1 <1>  -0.1600 
 16 C       -6.2850    -1.4190     0.4970 C.3   1 <1>  -0.1600 
 17 C       -4.0470     6.2540     0.5360 C.3   1 <1>   0.0200 
 18 C       -5.9540     4.2860    -1.1630 C.3   1 <1>  -0.1600 
 19 C       -5.5810     6.2360     0.5000 C.3   1 <1>  -0.1600 
 20 C       -6.1730     5.7740    -0.8420 C.3   1 <1>  -0.1600 
 21 H       -3.1560    -0.6900    -1.6590 H     1 <1>   0.4000 
 22 H       -4.8350     1.5630     1.4670 H     1 <1>   0.0800 
 23 H       -5.8380     1.2660     0.0940 H     1 <1>   0.0800 
 24 H       -3.2140    -2.6330    -0.6460 H     1 <1>   0.0800 
 25 H       -3.3940    -1.7740     0.8550 H     1 <1>   0.0800 
 26 H       -4.9990    -0.8050     2.1360 H     1 <1>   0.0800 
 27 H       -6.5160     0.0170     2.0530 H     1 <1>   0.0800 
 28 H       -4.0600     4.6240    -2.1410 H     1 <1>   0.0800 
 29 H       -4.4660     2.9470    -1.9240 H     1 <1>   0.0800 
 30 H       -5.5660    -2.8270    -0.9540 H     1 <1>   0.0800 
 31 H       -5.2290    -3.2720     0.6840 H     1 <1>   0.0800 
 32 H       -6.7190    -0.9200    -0.3530 H     1 <1>   0.0800 
 33 H       -7.0790    -1.9520     0.9900 H     1 <1>   0.0800 
 34 H       -3.7290     6.8210     1.3940 H     1 <1>   0.0800 
 35 H       -3.6550     6.7450    -0.3370 H     1 <1>   0.0800 
 36 H       -6.5320     4.0550    -2.0410 H     1 <1>   0.0800 
 37 H       -6.3350     3.6730    -0.3640 H     1 <1>   0.0800 
 38 H       -5.9510     5.6180     1.3000 H     1 <1>   0.0800 
 39 H       -5.9270     7.2380     0.6870 H     1 <1>   0.0800 
 40 H       -5.7810     6.3810    -1.6400 H     1 <1>   0.0800 
 41 H       -7.2360     5.9490    -0.8080 H     1 <1>   0.0800 
@<TRIPOS>BOND
  1   1   2  3   
  2   2   3  1   
  3   3   4  2   
  4   3   5  1   
  5   4   6  1   
  6   4   7  1   
  7   5   8  2   
  8   5   9  1   
  9   6  10  1   
 10   6  21  1   
 11   7  11  1   
 12   7  22  1   
 13   7  23  1   
 14   8  12  1   
 15   9  13  1   
 16   9  14  1   
 17  10  15  1   
 18  10  24  1   
 19  10  25  1   
 20  11  16  1   
 21  11  26  1   
 22  11  27  1   
 23  12  13  2   
 24  13  17  1   
 25  14  18  1   
 26  14  28  1   
 27  14  29  1   
 28  15  16  1   
 29  15  30  1   
 30  15  31  1   
 31  16  32  1   
 32  16  33  1   
 33  17  19  1   
 34  17  34  1   
 35  17  35  1   
 36  18  20  1   
 37  18  36  1   
 38  18  37  1   
 39  19  20  1   
 40  19  38  1   
 41  19  39  1   
 42  20  40  1   
 43  20  41  1   
@<TRIPOS>SUBSTRUCTURE
  1 ****   5 GROUP 4 **** **** 0

# MOE 2024.06 (io_trps.svl 2023.06)
