@<TRIPOS>MOLECULE
NONAME
47 49 1 0 0 
SMALL
USER_CHARGES


@<TRIPOS>ATOM
  1 O       -0.6450    -1.0450     1.9200 O.2   1 <1>  -0.5700 
  2 C       -1.0070    -1.2090     0.7700 C.2   1 <1>   0.6900 
  3 N       -2.2560    -0.8030     0.3770 N.am  1 <1>  -0.6600 
  4 N       -0.1970    -1.8270    -0.1410 N.am  1 <1>  -0.5470 
  5 C       -3.2940    -0.4000     1.3790 C.3   1 <1>   0.1400 
  6 C       -2.7110    -0.6140    -1.0380 C.3   1 <1>   0.1400 
  7 C        1.1460    -2.2220    -0.0710 C.ar  1 <1>   0.1170 
  8 C       -4.6370    -1.0980     1.1010 C.3   1 <1>   0.2090 
  9 C       -4.0570    -1.3150    -1.2920 C.3   1 <1>   0.2090 
 10 C        1.5890    -3.2440    -0.9040 C.ar  1 <1>  -0.1500 
 11 C        2.0670    -1.6210     0.7820 C.ar  1 <1>  -0.1500 
 12 N       -5.0850    -0.8710    -0.3060 N.pl3 1 <1>  -0.8380 
 13 C        2.9100    -3.6580    -0.8840 C.ar  1 <1>  -0.1500 
 14 C        3.3880    -2.0320     0.8070 C.ar  1 <1>  -0.1500 
 15 C       -6.3960    -1.2820    -0.5880 C.ar  1 <1>   0.1000 
 16 C        3.8120    -3.0510    -0.0270 C.ar  1 <1>  -0.1500 
 17 C       -6.8240    -2.6230    -0.5960 C.ar  1 <1>   0.0820 
 18 C       -7.3220    -0.2900    -0.8740 C.ar  1 <1>  -0.1500 
 19 O       -5.9200    -3.6090    -0.3060 O.3   1 <1>  -0.3630 
 20 C       -8.1460    -2.9240    -0.9040 C.ar  1 <1>  -0.1500 
 21 C       -8.6380    -0.5950    -1.1700 C.ar  1 <1>  -0.1500 
 22 C       -6.2960    -4.7770     0.3950 C.3   1 <1>   0.1200 
 23 C       -9.0510    -1.9150    -1.1870 C.ar  1 <1>  -0.1500 
 24 C       -6.7110    -4.4180     1.8240 C.3   1 <1>  -0.2400 
 25 H       -0.7040    -2.1530    -0.9520 H     1 <1>   0.3700 
 26 H       -3.4350     0.6650     1.3320 H     1 <1>   0.0800 
 27 H       -2.9730    -0.6490     2.3760 H     1 <1>   0.0800 
 28 H       -1.9810    -0.9810    -1.7350 H     1 <1>   0.0800 
 29 H       -2.8360     0.4390    -1.2220 H     1 <1>   0.0800 
 30 H       -5.3840    -0.7210     1.7770 H     1 <1>   0.0800 
 31 H       -4.5260    -2.1530     1.2810 H     1 <1>   0.0800 
 32 H       -3.9210    -2.3800    -1.2210 H     1 <1>   0.0800 
 33 H       -4.4010    -1.0870    -2.2850 H     1 <1>   0.0800 
 34 H        0.8980    -3.7250    -1.5700 H     1 <1>   0.1500 
 35 H        1.7510    -0.8250     1.4320 H     1 <1>   0.1500 
 36 H        3.2380    -4.4520    -1.5320 H     1 <1>   0.1500 
 37 H        4.0840    -1.5570     1.4750 H     1 <1>   0.1500 
 38 H        4.8390    -3.3710    -0.0080 H     1 <1>   0.1500 
 39 H       -6.9950     0.7340    -0.8630 H     1 <1>   0.1500 
 40 H       -8.4890    -3.9390    -0.9370 H     1 <1>   0.1500 
 41 H       -9.3380     0.1930    -1.3890 H     1 <1>   0.1500 
 42 H       -5.4360    -5.4210     0.4160 H     1 <1>   0.0800 
 43 H       -7.0810    -5.2800    -0.1390 H     1 <1>   0.0800 
 44 H      -10.0720    -2.1560    -1.4230 H     1 <1>   0.1500 
 45 H       -5.9020    -3.9200     2.3290 H     1 <1>   0.0800 
 46 H       -6.9510    -5.3140     2.3660 H     1 <1>   0.0800 
 47 H       -7.5770    -3.7810     1.8210 H     1 <1>   0.0800 
@<TRIPOS>BOND
  1   1   2  2   
  2   2   3  am  
  3   2   4  am  
  4   3   5  1   
  5   3   6  1   
  6   4   7  1   
  7   4  25  1   
  8   5   8  1   
  9   5  26  1   
 10   5  27  1   
 11   6   9  1   
 12   6  28  1   
 13   6  29  1   
 14   7  10  ar  
 15   7  11  ar  
 16   8  12  1   
 17   8  30  1   
 18   8  31  1   
 19   9  12  1   
 20   9  32  1   
 21   9  33  1   
 22  10  13  ar  
 23  10  34  1   
 24  11  14  ar  
 25  11  35  1   
 26  12  15  1   
 27  13  16  ar  
 28  13  36  1   
 29  14  16  ar  
 30  14  37  1   
 31  15  17  ar  
 32  15  18  ar  
 33  16  38  1   
 34  17  19  1   
 35  17  20  ar  
 36  18  21  ar  
 37  18  39  1   
 38  19  22  1   
 39  20  23  ar  
 40  20  40  1   
 41  21  23  ar  
 42  21  41  1   
 43  22  24  1   
 44  22  42  1   
 45  22  43  1   
 46  23  44  1   
 47  24  45  1   
 48  24  46  1   
 49  24  47  1   
@<TRIPOS>SUBSTRUCTURE
  1 ****   3 GROUP 4 **** **** 0

# MOE 2024.06 (io_trps.svl 2023.06)
