@<TRIPOS>MOLECULE
NONAME
41 42 1 0 0 
SMALL
USER_CHARGES


@<TRIPOS>ATOM
  1 CL      -0.2790    -0.1180    -1.0680 Cl    1 <1>  -0.1770 
  2 C       -0.2050    -1.7820    -0.5510 C.ar  1 <1>   0.1770 
  3 C        0.0050    -2.0680     0.7850 C.ar  1 <1>  -0.1500 
  4 C       -0.3570    -2.7910    -1.4830 C.ar  1 <1>  -0.1500 
  5 C        0.0700    -3.3890     1.1940 C.ar  1 <1>  -0.1500 
  6 C       -0.2900    -4.1100    -1.0680 C.ar  1 <1>  -0.1500 
  7 C       -0.0730    -4.4180     0.2700 C.ar  1 <1>  -0.1430 
  8 C        0.0140    -5.8790     0.7180 C.3   1 <1>   0.4870 
  9 O        1.1140    -6.4910     0.0900 O.3   1 <1>  -0.5600 
 10 C       -1.2750    -6.6380     0.3910 C.ar  1 <1>  -0.1430 
 11 C        2.3670    -5.9920     0.4360 C.3   1 <1>   0.1200 
 12 C       -1.3430    -7.6150    -0.5960 C.ar  1 <1>  -0.1500 
 13 C       -2.4250    -6.3350     1.1080 C.ar  1 <1>  -0.1500 
 14 C        3.4110    -6.7810    -0.3650 C.3   1 <1>   0.3430 
 15 C       -2.5320    -8.2760    -0.8540 C.ar  1 <1>  -0.1500 
 16 C       -3.6150    -6.9940     0.8510 C.ar  1 <1>  -0.1500 
 17 N        4.8150    -6.2880    -0.1450 N.4   1 <1>  -0.9590 
 18 C       -3.6690    -7.9660    -0.1310 C.ar  1 <1>  -0.1500 
 19 C        5.0250    -4.9180    -0.7150 C.3   1 <1>   0.2630 
 20 C        5.7930    -7.2500    -0.7430 C.3   1 <1>   0.2630 
 21 H        0.1120    -1.2620     1.4900 H     1 <1>   0.1500 
 22 H       -0.5280    -2.5430    -2.5160 H     1 <1>   0.1500 
 23 H        0.2270    -3.6060     2.2370 H     1 <1>   0.1500 
 24 H       -0.4150    -4.9020    -1.7880 H     1 <1>   0.1500 
 25 H        0.1740    -5.9340     1.7810 H     1 <1>   0.0800 
 26 H        2.5100    -6.1290     1.4940 H     1 <1>   0.0800 
 27 H        2.4040    -4.9490     0.1780 H     1 <1>   0.0800 
 28 H       -0.4740    -7.8730    -1.1740 H     1 <1>   0.1500 
 29 H       -2.4050    -5.5770     1.8720 H     1 <1>   0.1500 
 30 H        3.1660    -6.7110    -1.4120 H     1 <1>   0.0800 
 31 H        3.3440    -7.8160    -0.0720 H     1 <1>   0.0800 
 32 H       -2.5740    -9.0310    -1.6200 H     1 <1>   0.1500 
 33 H       -4.4990    -6.7490     1.4130 H     1 <1>   0.1500 
 34 H        4.9890    -6.2540     0.8720 H     1 <1>   0.4500 
 35 H       -4.5940    -8.4790    -0.3310 H     1 <1>   0.1500 
 36 H        4.8320    -4.9200    -1.7760 H     1 <1>   0.0800 
 37 H        6.0410    -4.5970    -0.5520 H     1 <1>   0.0800 
 38 H        4.3650    -4.2060    -0.2470 H     1 <1>   0.0800 
 39 H        5.6440    -7.3220    -1.8090 H     1 <1>   0.0800 
 40 H        5.6680    -8.2300    -0.3110 H     1 <1>   0.0800 
 41 H        6.8030    -6.9210    -0.5590 H     1 <1>   0.0800 
@<TRIPOS>BOND
  1   1   2  1   
  2   2   3  ar  
  3   2   4  ar  
  4   3   5  ar  
  5   3  21  1   
  6   4   6  ar  
  7   4  22  1   
  8   5   7  ar  
  9   5  23  1   
 10   6   7  ar  
 11   6  24  1   
 12   7   8  1   
 13   8   9  1   
 14   8  10  1   
 15   8  25  1   
 16   9  11  1   
 17  10  12  ar  
 18  10  13  ar  
 19  11  14  1   
 20  11  26  1   
 21  11  27  1   
 22  12  15  ar  
 23  12  28  1   
 24  13  16  ar  
 25  13  29  1   
 26  14  17  1   
 27  14  30  1   
 28  14  31  1   
 29  15  18  ar  
 30  15  32  1   
 31  16  18  ar  
 32  16  33  1   
 33  17  19  1   
 34  17  20  1   
 35  17  34  1   
 36  18  35  1   
 37  19  36  1   
 38  19  37  1   
 39  19  38  1   
 40  20  39  1   
 41  20  40  1   
 42  20  41  1   
@<TRIPOS>SUBSTRUCTURE
  1 ****   7 GROUP 4 **** **** 0

# MOE 2024.06 (io_trps.svl 2023.06)
