@<TRIPOS>MOLECULE
NONAME
31 31 1 0 0 
SMALL
USER_CHARGES


@<TRIPOS>ATOM
  1 CL       0.3080    -0.0270    -1.5060 Cl    1 <1>  -0.1770 
  2 C        1.0890     1.4240    -0.9310 C.ar  1 <1>   0.1770 
  3 C        0.3470     2.5780    -0.7860 C.ar  1 <1>  -0.1500 
  4 C        2.4360     1.3960    -0.6320 C.ar  1 <1>  -0.1500 
  5 C        0.9380     3.7480    -0.3180 C.ar  1 <1>  -0.0090 
  6 C        3.0460     2.5530    -0.1840 C.ar  1 <1>  -0.1500 
  7 S       -0.0260     5.2760    -0.1300 S.o2  1 <1>   1.4470 
  8 C        2.3040     3.7260    -0.0350 C.ar  1 <1>   0.0830 
  9 O        0.0120     6.0070    -1.3780 O.2   1 <1>  -0.6500 
 10 O        0.2500     5.9700     1.1100 O.2   1 <1>  -0.6500 
 11 N       -1.6280     4.7280     0.0330 N.am  1 <1>  -0.8490 
 12 O        2.8710     4.8850     0.3780 O.3   1 <1>  -0.3620 
 13 C       -2.5770     5.8580    -0.1720 C.3   1 <1>   0.2570 
 14 C       -1.8810     4.1110     1.3470 C.3   1 <1>   0.1160 
 15 C        4.2420     4.9960     0.6920 C.3   1 <1>   0.0400 
 16 C       -4.0510     5.4430    -0.2710 C.2   1 <1>   0.5690 
 17 O       -4.8930     6.0480     0.3420 O.2   1 <1>  -0.5700 
 18 N       -4.4030     4.3900    -1.0390 N.am  1 <1>  -0.8000 
 19 H       -0.6960     2.5560    -1.0440 H     1 <1>   0.1500 
 20 H        2.9930     0.4830    -0.7520 H     1 <1>   0.1500 
 21 H        4.0960     2.5210     0.0390 H     1 <1>   0.1500 
 22 H       -2.3450     6.3670    -1.0900 H     1 <1>   0.0800 
 23 H       -2.4700     6.5720     0.6270 H     1 <1>   0.0800 
 24 H       -1.1750     3.3190     1.5310 H     1 <1>   0.0800 
 25 H       -2.8710     3.6910     1.3830 H     1 <1>   0.0800 
 26 H       -1.7870     4.8410     2.1360 H     1 <1>   0.0800 
 27 H        4.4340     6.0110     0.9910 H     1 <1>   0.0800 
 28 H        4.8230     4.7580    -0.1820 H     1 <1>   0.0800 
 29 H        4.4710     4.3290     1.5040 H     1 <1>   0.0800 
 30 H       -5.3800     4.1070    -1.1070 H     1 <1>   0.3700 
 31 H       -3.7120     3.8220    -1.5300 H     1 <1>   0.3700 
@<TRIPOS>BOND
  1   1   2  1   
  2   2   3  ar  
  3   2   4  ar  
  4   3   5  ar  
  5   3  19  1   
  6   4   6  ar  
  7   4  20  1   
  8   5   7  1   
  9   5   8  ar  
 10   6   8  ar  
 11   6  21  1   
 12   7   9  2   
 13   7  10  2   
 14   7  11  am  
 15   8  12  1   
 16  11  13  1   
 17  11  14  1   
 18  12  15  1   
 19  13  16  1   
 20  13  22  1   
 21  13  23  1   
 22  14  24  1   
 23  14  25  1   
 24  14  26  1   
 25  15  27  1   
 26  15  28  1   
 27  15  29  1   
 28  16  17  2   
 29  16  18  am  
 30  18  30  1   
 31  18  31  1   
@<TRIPOS>SUBSTRUCTURE
  1 ****   5 GROUP 4 **** **** 0

# MOE 2024.06 (io_trps.svl 2023.06)
