@<TRIPOS>MOLECULE
NONAME
38 39 1 0 0 
SMALL
USER_CHARGES


@<TRIPOS>ATOM
  1 S        0.3040     0.3140     1.0080 S.3   1 <1>  -0.0800 
  2 C       -0.2800     1.8670     0.4270 C.2   1 <1>  -0.1400 
  3 C        1.3560     0.1330    -0.3850 C.2   1 <1>  -0.1400 
  4 C        0.3100     2.1770    -0.7450 C.2   1 <1>  -0.1500 
  5 C       -1.3090     2.5790     1.2920 C.3   1 <1>   0.5380 
  6 C        1.2400     1.1920    -1.2050 C.2   1 <1>  -0.1500 
  7 C        2.1970    -1.1240    -0.4570 C.3   1 <1>  -0.0600 
  8 N       -2.5700     1.8460     1.1630 N.am  1 <1>  -0.7300 
  9 C       -1.4590     4.0420     0.8920 C.2   1 <1>  -0.1240 
 10 C       -3.6070     2.2700     0.4260 C.2   1 <1>   0.6900 
 11 C       -2.5960     4.4690     0.2710 C.2   1 <1>  -0.0290 
 12 C       -0.2920     4.7850     1.2440 C.2   1 <1>   0.7060 
 13 O       -4.4990     1.4790     0.1940 O.2   1 <1>  -0.5700 
 14 N       -3.6230     3.5740    -0.0460 N.am  1 <1>  -0.4690 
 15 C       -2.8350     5.9360    -0.0940 C.3   1 <1>  -0.1020 
 16 O        0.3680     4.5520     2.2390 O.2   1 <1>  -0.5700 
 17 O        0.1190     5.7580     0.4240 O.3   1 <1>  -0.4300 
 18 C       -4.7690     3.9770    -0.9190 C.3   1 <1>   0.0600 
 19 C        1.2940     6.4940     0.6830 C.3   1 <1>   0.1200 
 20 C        1.4660     7.5160    -0.4360 C.3   1 <1>  -0.2400 
 21 H        0.1300     3.0680    -1.3230 H     1 <1>   0.1500 
 22 H       -1.0010     2.5210     2.3220 H     1 <1>   0.0800 
 23 H        1.7740     1.3300    -2.1280 H     1 <1>   0.1500 
 24 H        1.5600    -1.9900    -0.4690 H     1 <1>   0.0800 
 25 H        2.8470    -1.1790     0.3980 H     1 <1>   0.0800 
 26 H        2.7950    -1.1190    -1.3500 H     1 <1>   0.0800 
 27 H       -2.5080     0.8410     1.3030 H     1 <1>   0.3700 
 28 H       -3.8300     6.2330     0.1800 H     1 <1>   0.0800 
 29 H       -2.7000     6.0810    -1.1510 H     1 <1>   0.0800 
 30 H       -2.1690     6.5970     0.4260 H     1 <1>   0.0800 
 31 H       -5.2410     3.1140    -1.3580 H     1 <1>   0.0800 
 32 H       -4.4260     4.6020    -1.7220 H     1 <1>   0.0800 
 33 H       -5.4990     4.5060    -0.3330 H     1 <1>   0.0800 
 34 H        2.1260     5.8100     0.7140 H     1 <1>   0.0800 
 35 H        1.1890     6.9800     1.6390 H     1 <1>   0.0800 
 36 H        1.5580     7.0160    -1.3840 H     1 <1>   0.0800 
 37 H        2.3570     8.0930    -0.2660 H     1 <1>   0.0800 
 38 H        0.6240     8.1850    -0.4610 H     1 <1>   0.0800 
@<TRIPOS>BOND
  1   1   2  1   
  2   1   3  1   
  3   2   4  2   
  4   2   5  1   
  5   3   6  2   
  6   3   7  1   
  7   4   6  1   
  8   4  21  1   
  9   5   8  1   
 10   5   9  1   
 11   5  22  1   
 12   6  23  1   
 13   7  24  1   
 14   7  25  1   
 15   7  26  1   
 16   8  10  am  
 17   8  27  1   
 18   9  11  2   
 19   9  12  1   
 20  10  13  2   
 21  10  14  am  
 22  11  14  1   
 23  11  15  1   
 24  12  16  2   
 25  12  17  1   
 26  14  18  1   
 27  15  28  1   
 28  15  29  1   
 29  15  30  1   
 30  17  19  1   
 31  18  31  1   
 32  18  32  1   
 33  18  33  1   
 34  19  20  1   
 35  19  34  1   
 36  19  35  1   
 37  20  36  1   
 38  20  37  1   
 39  20  38  1   
@<TRIPOS>SUBSTRUCTURE
  1 ****   9 GROUP 4 **** **** 0

# MOE 2024.06 (io_trps.svl 2023.06)
