@<TRIPOS>MOLECULE
NONAME
29 28 1 0 0 
SMALL
USER_CHARGES


@<TRIPOS>ATOM
  1 F       -0.0320     0.3370    -1.0870 F     1 <1>  -0.3400 
  2 C        1.0420     0.5200    -0.3320 C.3   1 <1>   1.0200 
  3 F        1.9740    -0.2730    -0.8460 F     1 <1>  -0.3400 
  4 F        0.7580     0.0000     0.8560 F     1 <1>  -0.3400 
  5 C        1.5180     1.9790    -0.2560 C.3   1 <1>   0.2200 
  6 N        2.8760     2.1550     0.4420 N.am  1 <1>  -0.7300 
  7 C        0.3960     2.8330     0.3520 C.3   1 <1>   1.0200 
  8 C        3.9950     2.5210    -0.2130 C.2   1 <1>   0.6900 
  9 F        0.1480     2.5370     1.6220 F     1 <1>  -0.3400 
 10 F        0.7100     4.1210     0.3490 F     1 <1>  -0.3400 
 11 F       -0.7650     2.7510    -0.2840 F     1 <1>  -0.3400 
 12 O        3.9500     2.7610    -1.4010 O.2   1 <1>  -0.5700 
 13 N        5.1430     2.6030     0.4890 N.am  1 <1>  -0.7300 
 14 C        6.4700     2.9040    -0.0920 C.3   1 <1>   0.1400 
 15 C        7.4600     1.7860     0.2480 C.3   1 <1>  -0.1600 
 16 C        7.0550     0.4290    -0.3500 C.3   1 <1>  -0.1600 
 17 C        8.1060    -0.6430    -0.0500 C.3   1 <1>  -0.2400 
 18 H        1.6170     2.3070    -1.2730 H     1 <1>   0.0800 
 19 H        2.9330     1.9420     1.4390 H     1 <1>   0.3700 
 20 H        5.1450     2.3550     1.4750 H     1 <1>   0.3700 
 21 H        6.8240     3.8390     0.3070 H     1 <1>   0.0800 
 22 H        6.3920     3.0070    -1.1620 H     1 <1>   0.0800 
 23 H        7.5580     1.7060     1.3160 H     1 <1>   0.0800 
 24 H        8.4230     2.0640    -0.1450 H     1 <1>   0.0800 
 25 H        6.9400     0.5260    -1.4170 H     1 <1>   0.0800 
 26 H        6.1080     0.1150     0.0550 H     1 <1>   0.0800 
 27 H        9.0560    -0.3670    -0.4720 H     1 <1>   0.0800 
 28 H        7.8030    -1.5830    -0.4760 H     1 <1>   0.0800 
 29 H        8.2210    -0.7710     1.0120 H     1 <1>   0.0800 
@<TRIPOS>BOND
  1   1   2  1   
  2   2   3  1   
  3   2   4  1   
  4   2   5  1   
  5   5   6  1   
  6   5   7  1   
  7   5  18  1   
  8   6   8  am  
  9   6  19  1   
 10   7   9  1   
 11   7  10  1   
 12   7  11  1   
 13   8  12  2   
 14   8  13  am  
 15  13  14  1   
 16  13  20  1   
 17  14  15  1   
 18  14  21  1   
 19  14  22  1   
 20  15  16  1   
 21  15  23  1   
 22  15  24  1   
 23  16  17  1   
 24  16  25  1   
 25  16  26  1   
 26  17  27  1   
 27  17  28  1   
 28  17  29  1   
@<TRIPOS>SUBSTRUCTURE
  1 ****   6 GROUP 4 **** **** 0

# MOE 2024.06 (io_trps.svl 2023.06)
