@<TRIPOS>MOLECULE
NONAME
57 59 1 0 0 
SMALL
USER_CHARGES


@<TRIPOS>ATOM
  1 O       -0.1790     0.3600    -0.3880 O.2   1 <1>  -0.5700 
  2 C       -0.7720    -0.6880    -0.5500 C.2   1 <1>   0.6340 
  3 O       -0.0690    -1.7800    -0.8760 O.3   1 <1>  -0.4300 
  4 C       -2.2070    -0.8160    -0.4060 C.ar  1 <1>   0.0860 
  5 C        1.3350    -1.7410    -1.0380 C.3   1 <1>   0.0400 
  6 C       -2.9990     0.2960    -0.1170 C.ar  1 <1>  -0.1500 
  7 C       -2.8700    -2.0350    -0.5430 C.ar  1 <1>  -0.1500 
  8 C       -4.3730     0.2300     0.0330 C.ar  1 <1>   0.1170 
  9 C       -4.2390    -2.1280    -0.3910 C.ar  1 <1>  -0.1500 
 10 N       -5.0310     1.4430     0.3210 N.am  1 <1>  -0.5470 
 11 C       -5.0200    -1.0180    -0.0980 C.ar  1 <1>   0.1000 
 12 C       -5.7340     2.2420    -0.5420 C.2   1 <1>   0.5440 
 13 N       -6.3940    -1.2320     0.0500 N.pl3 1 <1>  -0.8380 
 14 O       -6.2560     1.7230    -1.5140 O.2   1 <1>  -0.5700 
 15 C       -5.9340     3.6580    -0.2660 C.ar  1 <1>   0.0860 
 16 C       -7.1820    -1.6210    -1.1650 C.3   1 <1>   0.2090 
 17 C       -7.1420    -0.7090     1.2370 C.3   1 <1>   0.2090 
 18 C       -5.1980     4.3870     0.6870 C.ar  1 <1>   0.0830 
 19 C       -6.9270     4.3550    -0.9620 C.ar  1 <1>  -0.1500 
 20 C       -8.5750    -0.9550    -1.2190 C.3   1 <1>   0.3430 
 21 C       -8.2240     0.3390     0.8700 C.3   1 <1>   0.3430 
 22 O       -4.1640     3.8080     1.3360 O.3   1 <1>  -0.3630 
 23 C       -5.5120     5.7130     0.9890 C.ar  1 <1>  -0.1430 
 24 C       -7.2180     5.6770    -0.6940 C.ar  1 <1>  -0.1500 
 25 N       -8.5340     0.4070    -0.6010 N.4   1 <1>  -0.9590 
 26 C       -2.8700     4.0570     0.8220 C.3   1 <1>   0.0400 
 27 C       -6.5190     6.3510     0.2890 C.ar  1 <1>  -0.1500 
 28 C       -4.7810     6.4950     2.0740 C.3   1 <1>  -0.0970 
 29 C       -9.7130     1.2550    -0.9240 C.3   1 <1>   0.2630 
 30 H        1.6760    -2.7270    -1.2980 H     1 <1>   0.0800 
 31 H        1.7830    -1.4250    -0.1120 H     1 <1>   0.0800 
 32 H        1.5750    -1.0450    -1.8230 H     1 <1>   0.0800 
 33 H       -2.5100     1.2470    -0.0140 H     1 <1>   0.1500 
 34 H       -2.3060    -2.9250    -0.7670 H     1 <1>   0.1500 
 35 H       -4.7170    -3.0860    -0.4910 H     1 <1>   0.1500 
 36 H       -4.5900     1.9860     1.0720 H     1 <1>   0.3700 
 37 H       -7.2950    -2.6910    -1.1930 H     1 <1>   0.0800 
 38 H       -6.6290    -1.3300    -2.0420 H     1 <1>   0.0800 
 39 H       -6.4530    -0.2790     1.9430 H     1 <1>   0.0800 
 40 H       -7.6170    -1.5390     1.7300 H     1 <1>   0.0800 
 41 H       -7.4850     3.8550    -1.7340 H     1 <1>   0.1500 
 42 H       -9.2820    -1.5710    -0.6920 H     1 <1>   0.0800 
 43 H       -8.8890    -0.8900    -2.2480 H     1 <1>   0.0800 
 44 H       -7.8810     1.3050     1.2000 H     1 <1>   0.0800 
 45 H       -9.1200     0.1100     1.4230 H     1 <1>   0.0800 
 46 H       -7.9890     6.1880    -1.2460 H     1 <1>   0.1500 
 47 H       -7.6750     0.8350    -1.0210 H     1 <1>   0.4500 
 48 H       -2.8280     3.7260    -0.2020 H     1 <1>   0.0800 
 49 H       -2.1560     3.5120     1.4140 H     1 <1>   0.0800 
 50 H       -2.6610     5.1100     0.8770 H     1 <1>   0.0800 
 51 H       -6.7640     7.3780     0.5000 H     1 <1>   0.1500 
 52 H       -4.4800     5.8460     2.8770 H     1 <1>   0.0800 
 53 H       -5.4210     7.2540     2.4880 H     1 <1>   0.0800 
 54 H       -3.9100     6.9700     1.6620 H     1 <1>   0.0800 
 55 H      -10.6100     0.8250    -0.5090 H     1 <1>   0.0800 
 56 H       -9.8290     1.3370    -1.9930 H     1 <1>   0.0800 
 57 H       -9.5800     2.2440    -0.5180 H     1 <1>   0.0800 
@<TRIPOS>BOND
  1   1   2  2   
  2   2   3  1   
  3   2   4  1   
  4   3   5  1   
  5   4   6  ar  
  6   4   7  ar  
  7   5  30  1   
  8   5  31  1   
  9   5  32  1   
 10   6   8  ar  
 11   6  33  1   
 12   7   9  ar  
 13   7  34  1   
 14   8  10  1   
 15   8  11  ar  
 16   9  11  ar  
 17   9  35  1   
 18  10  12  am  
 19  10  36  1   
 20  11  13  1   
 21  12  14  2   
 22  12  15  1   
 23  13  16  1   
 24  13  17  1   
 25  15  18  ar  
 26  15  19  ar  
 27  16  20  1   
 28  16  37  1   
 29  16  38  1   
 30  17  21  1   
 31  17  39  1   
 32  17  40  1   
 33  18  22  1   
 34  18  23  ar  
 35  19  24  ar  
 36  19  41  1   
 37  20  25  1   
 38  20  42  1   
 39  20  43  1   
 40  21  25  1   
 41  21  44  1   
 42  21  45  1   
 43  22  26  1   
 44  23  27  ar  
 45  23  28  1   
 46  24  27  ar  
 47  24  46  1   
 48  25  29  1   
 49  25  47  1   
 50  26  48  1   
 51  26  49  1   
 52  26  50  1   
 53  27  51  1   
 54  28  52  1   
 55  28  53  1   
 56  28  54  1   
 57  29  55  1   
 58  29  56  1   
 59  29  57  1   
@<TRIPOS>SUBSTRUCTURE
  1 ****  10 GROUP 4 **** **** 0

# MOE 2024.06 (io_trps.svl 2023.06)
