@<TRIPOS>MOLECULE
NONAME
37 37 1 0 0 
SMALL
USER_CHARGES


@<TRIPOS>ATOM
  1 S        0.2020    -0.0960    -0.7420 S.o2  1 <1>   1.3330 
  2 O       -0.2480     1.2500    -0.9980 O.2   1 <1>  -0.6500 
  3 O        1.2930    -0.6770    -1.4810 O.2   1 <1>  -0.6500 
  4 N       -1.1080    -1.1610    -1.0540 N.am  1 <1>  -0.7570 
  5 C        0.4820    -0.3420     1.0170 C.3   1 <1>  -0.0550 
  6 C       -2.4580    -1.0320    -0.7770 C.ar  1 <1>   0.1990 
  7 C        1.6560     0.4710     1.5930 C.3   1 <1>  -0.2400 
  8 C       -3.3190    -2.0540    -1.1580 C.ar  1 <1>  -0.1500 
  9 C       -3.0080     0.0700    -0.1290 C.ar  1 <1>  -0.1500 
 10 C       -4.6730    -1.9810    -0.8950 C.ar  1 <1>  -0.1500 
 11 C       -4.3620     0.1420     0.1310 C.ar  1 <1>  -0.1500 
 12 C       -5.2360    -0.8850    -0.2380 C.ar  1 <1>   0.0860 
 13 C       -6.6600    -0.8280     0.0340 C.2   1 <1>   0.5440 
 14 O       -7.4440    -1.4960    -0.6120 O.2   1 <1>  -0.5700 
 15 N       -7.1580    -0.0270     1.0250 N.am  1 <1>  -0.7300 
 16 C       -8.5960     0.0810     1.3900 C.3   1 <1>   0.1400 
 17 C       -9.3570     0.8830     0.3350 C.3   1 <1>   0.1200 
 18 O      -10.6270     1.1730     0.8310 O.3   1 <1>  -0.5600 
 19 C      -11.4490     1.8220    -0.0840 C.3   1 <1>   0.0400 
 20 H       -0.8040    -1.8890    -1.6940 H     1 <1>   0.4200 
 21 H        0.6690    -1.3830     1.1950 H     1 <1>   0.0800 
 22 H       -0.4090    -0.0780     1.5520 H     1 <1>   0.0800 
 23 H        2.5710     0.2040     1.0920 H     1 <1>   0.0800 
 24 H        1.7660     0.2740     2.6440 H     1 <1>   0.0800 
 25 H        1.4820     1.5240     1.4520 H     1 <1>   0.0800 
 26 H       -2.9260    -2.9150    -1.6660 H     1 <1>   0.1500 
 27 H       -2.3820     0.8900     0.1690 H     1 <1>   0.1500 
 28 H       -5.3200    -2.7860    -1.2040 H     1 <1>   0.1500 
 29 H       -4.7480     1.0190     0.6180 H     1 <1>   0.1500 
 30 H       -6.5130     0.4620     1.6450 H     1 <1>   0.3700 
 31 H       -8.6820     0.5700     2.3440 H     1 <1>   0.0800 
 32 H       -9.0210    -0.9060     1.4600 H     1 <1>   0.0800 
 33 H       -9.4550     0.3040    -0.5670 H     1 <1>   0.0800 
 34 H       -8.8520     1.8120     0.1320 H     1 <1>   0.0800 
 35 H      -12.3970     2.0060     0.3900 H     1 <1>   0.0800 
 36 H      -11.5900     1.1910    -0.9440 H     1 <1>   0.0800 
 37 H      -10.9970     2.7570    -0.3680 H     1 <1>   0.0800 
@<TRIPOS>BOND
  1   1   2  2   
  2   1   3  2   
  3   1   4  am  
  4   1   5  1   
  5   4   6  1   
  6   4  20  1   
  7   5   7  1   
  8   5  21  1   
  9   5  22  1   
 10   6   8  ar  
 11   6   9  ar  
 12   7  23  1   
 13   7  24  1   
 14   7  25  1   
 15   8  10  ar  
 16   8  26  1   
 17   9  11  ar  
 18   9  27  1   
 19  10  12  ar  
 20  10  28  1   
 21  11  12  ar  
 22  11  29  1   
 23  12  13  1   
 24  13  14  2   
 25  13  15  am  
 26  15  16  1   
 27  15  30  1   
 28  16  17  1   
 29  16  31  1   
 30  16  32  1   
 31  17  18  1   
 32  17  33  1   
 33  17  34  1   
 34  18  19  1   
 35  19  35  1   
 36  19  36  1   
 37  19  37  1   
@<TRIPOS>SUBSTRUCTURE
  1 ****  11 GROUP 4 **** **** 0

# MOE 2024.06 (io_trps.svl 2023.06)
