@<TRIPOS>MOLECULE
NONAME
41 41 1 0 0 
SMALL
USER_CHARGES


@<TRIPOS>ATOM
  1 O       -0.7610    -2.3110    -3.2610 O.co2 1 <1>  -0.9000 
  2 C       -1.0840    -3.2910    -2.5610 C.2   1 <1>   1.0320 
  3 O       -0.7860    -4.4340    -2.9500 O.co2 1 <1>  -0.9000 
  4 C       -1.8170    -3.0450    -1.3300 C.2   1 <1>  -0.0920 
  5 O       -2.3170    -4.0000    -0.5500 O.3   1 <1>  -0.2800 
  6 C       -2.1340    -1.8480    -0.7780 C.2   1 <1>  -0.1500 
  7 C       -2.9580    -3.4610     0.4690 C.2   1 <1>  -0.0400 
  8 C       -2.8910    -2.1090     0.3660 C.2   1 <1>  -0.1810 
  9 C       -3.6030    -4.4430     1.4600 C.3   1 <1>   0.1800 
 10 C       -3.4850    -0.9900     1.1790 C.3   1 <1>   0.5240 
 11 C       -4.2570    -3.7410     2.6590 C.3   1 <1>  -0.2400 
 12 C       -4.6750    -5.2610     0.7280 C.3   1 <1>  -0.2400 
 13 C       -2.5230    -5.3930     1.9970 C.3   1 <1>  -0.2400 
 14 N       -4.4610    -0.2920     0.2990 N.4   1 <1>  -0.9590 
 15 C       -4.8530     1.0240     0.8620 C.3   1 <1>   0.3430 
 16 C       -5.6070    -1.1800    -0.0420 C.3   1 <1>   0.3430 
 17 C       -5.5320     1.8720    -0.2060 C.3   1 <1>  -0.2400 
 18 C       -5.6610    -1.3510    -1.5540 C.3   1 <1>  -0.2400 
 19 H       -1.8410    -0.8950    -1.1860 H     1 <1>   0.1500 
 20 H       -2.6960    -0.3170     1.4720 H     1 <1>   0.0800 
 21 H       -3.9710    -1.3620     2.0630 H     1 <1>   0.0800 
 22 H       -4.6520    -4.4730     3.3420 H     1 <1>   0.0800 
 23 H       -3.5310    -3.1530     3.1900 H     1 <1>   0.0800 
 24 H       -5.0720    -3.1180     2.3420 H     1 <1>   0.0800 
 25 H       -4.2300    -5.8030    -0.0890 H     1 <1>   0.0800 
 26 H       -5.4330    -4.6150     0.3240 H     1 <1>   0.0800 
 27 H       -5.1370    -5.9700     1.3910 H     1 <1>   0.0800 
 28 H       -1.7460    -4.8360     2.4880 H     1 <1>   0.0800 
 29 H       -2.0750    -5.9430     1.1870 H     1 <1>   0.0800 
 30 H       -2.9400    -6.0990     2.6930 H     1 <1>   0.0800 
 31 H       -3.9490    -0.1500    -0.5830 H     1 <1>   0.4500 
 32 H       -3.9730     1.5440     1.2070 H     1 <1>   0.0800 
 33 H       -5.5160     0.8870     1.7010 H     1 <1>   0.0800 
 34 H       -6.5310    -0.7560     0.3150 H     1 <1>   0.0800 
 35 H       -5.4790    -2.1500     0.4120 H     1 <1>   0.0800 
 36 H       -4.8930     1.9920    -1.0630 H     1 <1>   0.0800 
 37 H       -5.7350     2.8490     0.1960 H     1 <1>   0.0800 
 38 H       -6.4700     1.4440    -0.5090 H     1 <1>   0.0800 
 39 H       -5.7850    -0.4080    -2.0540 H     1 <1>   0.0800 
 40 H       -6.4970    -1.9770    -1.8100 H     1 <1>   0.0800 
 41 H       -4.7700    -1.8370    -1.9150 H     1 <1>   0.0800 
@<TRIPOS>BOND
  1   1   2  ar  
  2   2   3  ar  
  3   2   4  1   
  4   4   5  1   
  5   4   6  2   
  6   5   7  1   
  7   6   8  1   
  8   6  19  1   
  9   7   8  2   
 10   7   9  1   
 11   8  10  1   
 12   9  11  1   
 13   9  12  1   
 14   9  13  1   
 15  10  14  1   
 16  10  20  1   
 17  10  21  1   
 18  11  22  1   
 19  11  23  1   
 20  11  24  1   
 21  12  25  1   
 22  12  26  1   
 23  12  27  1   
 24  13  28  1   
 25  13  29  1   
 26  13  30  1   
 27  14  15  1   
 28  14  16  1   
 29  14  31  1   
 30  15  17  1   
 31  15  32  1   
 32  15  33  1   
 33  16  18  1   
 34  16  34  1   
 35  16  35  1   
 36  17  36  1   
 37  17  37  1   
 38  17  38  1   
 39  18  39  1   
 40  18  40  1   
 41  18  41  1   
@<TRIPOS>SUBSTRUCTURE
  1 ****   8 GROUP 4 **** **** 0

# MOE 2024.06 (io_trps.svl 2023.06)
