@<TRIPOS>MOLECULE
NONAME
37 37 1 0 0 
SMALL
USER_CHARGES


@<TRIPOS>ATOM
  1 F       -3.1900     0.1540     2.9730 F     1 <1>  -0.1900 
  2 C       -3.0820     1.2930     2.3430 C.ar  1 <1>   0.1900 
  3 C       -4.2230     1.8930     1.8560 C.ar  1 <1>  -0.1500 
  4 C       -1.8290     1.8520     2.1900 C.ar  1 <1>  -0.1500 
  5 C       -4.1170     3.0990     1.1730 C.ar  1 <1>   0.1000 
  6 C       -1.7280     3.0650     1.5320 C.ar  1 <1>  -0.1500 
  7 N       -5.2610     3.6970     0.6550 N.pl3 1 <1>  -0.8690 
  8 C       -2.8590     3.6960     1.0340 C.ar  1 <1>  -0.1430 
  9 C       -5.9290     3.1650    -0.6120 C.3   1 <1>   0.6690 
 10 C       -2.6940     5.0520     0.3560 C.3   1 <1>  -0.0960 
 11 N       -6.9070     2.1540    -0.0540 N.am  1 <1>  -0.7300 
 12 C       -6.6390     4.3120    -1.4460 C.3   1 <1>   1.0200 
 13 C       -4.9670     2.4720    -1.6660 C.3   1 <1>   1.0200 
 14 C       -7.8640     2.3690     0.8620 C.2   1 <1>   0.7800 
 15 F       -7.3140     5.1700    -0.6850 F     1 <1>  -0.3400 
 16 F       -5.8160     5.0740    -2.1610 F     1 <1>  -0.3400 
 17 F       -7.5410     3.8500    -2.3110 F     1 <1>  -0.3400 
 18 F       -3.9260     3.1980    -2.0610 F     1 <1>  -0.3400 
 19 F       -4.4490     1.3360    -1.2030 F     1 <1>  -0.3400 
 20 F       -5.5890     2.1030    -2.7820 F     1 <1>  -0.3400 
 21 O       -7.9490     3.3970     1.4960 O.2   1 <1>  -0.5700 
 22 O       -8.7110     1.3680     1.0520 O.3   1 <1>  -0.4300 
 23 C       -9.7500     1.4760     1.9990 C.3   1 <1>   0.1200 
 24 C      -10.5470     0.1760     1.9770 C.3   1 <1>  -0.2400 
 25 H       -5.1760     1.4240     2.0090 H     1 <1>   0.1500 
 26 H       -0.9620     1.3510     2.5800 H     1 <1>   0.1500 
 27 H       -0.7590     3.5190     1.4140 H     1 <1>   0.1500 
 28 H       -6.0120     3.8160     1.3580 H     1 <1>   0.4000 
 29 H       -1.8100     5.5470     0.7140 H     1 <1>   0.0800 
 30 H       -2.6080     4.9310    -0.7070 H     1 <1>   0.0800 
 31 H       -3.5340     5.6880     0.5680 H     1 <1>   0.0800 
 32 H       -6.8970     1.2320    -0.4890 H     1 <1>   0.3700 
 33 H      -10.3710     2.3150     1.7330 H     1 <1>   0.0800 
 34 H       -9.3130     1.6440     2.9700 H     1 <1>   0.0800 
 35 H      -10.9710     0.0160     1.0010 H     1 <1>   0.0800 
 36 H      -11.3480     0.2290     2.6920 H     1 <1>   0.0800 
 37 H       -9.9130    -0.6530     2.2350 H     1 <1>   0.0800 
@<TRIPOS>BOND
  1   1   2  1   
  2   2   3  ar  
  3   2   4  ar  
  4   3   5  ar  
  5   3  25  1   
  6   4   6  ar  
  7   4  26  1   
  8   5   7  1   
  9   5   8  ar  
 10   6   8  ar  
 11   6  27  1   
 12   7   9  1   
 13   7  28  1   
 14   8  10  1   
 15   9  11  1   
 16   9  12  1   
 17   9  13  1   
 18  10  29  1   
 19  10  30  1   
 20  10  31  1   
 21  11  14  am  
 22  11  32  1   
 23  12  15  1   
 24  12  16  1   
 25  12  17  1   
 26  13  18  1   
 27  13  19  1   
 28  13  20  1   
 29  14  21  2   
 30  14  22  1   
 31  22  23  1   
 32  23  24  1   
 33  23  33  1   
 34  23  34  1   
 35  24  35  1   
 36  24  36  1   
 37  24  37  1   
@<TRIPOS>SUBSTRUCTURE
  1 ****   9 GROUP 4 **** **** 0

# MOE 2024.06 (io_trps.svl 2023.06)
