@<TRIPOS>MOLECULE
NONAME
45 47 1 0 0 
SMALL
USER_CHARGES


@<TRIPOS>ATOM
  1 O        1.5700     0.4960     0.6910 O.2   1 <1>  -0.5700 
  2 C        1.8750    -0.5460     0.1390 C.2   1 <1>   0.7150 
  3 N        2.6810    -0.4450    -0.9770 N.am  1 <1>  -0.6600 
  4 C        1.4800    -1.8380     0.6570 C.2   1 <1>   0.0550 
  5 C        2.6920     0.8350    -1.7440 C.3   1 <1>   0.1400 
  6 C        4.0030    -1.1310    -0.9670 C.3   1 <1>   0.1400 
  7 O        1.2170    -2.0070     1.9490 O.3   1 <1>  -0.2800 
  8 C        1.3210    -3.0370     0.0280 C.2   1 <1>  -0.1500 
  9 C        3.7410     1.7910    -1.1460 C.3   1 <1>   0.3430 
 10 C        5.0790    -0.1860    -0.3880 C.3   1 <1>   0.3430 
 11 C        0.8950    -3.2630     2.1590 C.2   1 <1>  -0.0100 
 12 C        0.9420    -3.9590     1.0040 C.2   1 <1>  -0.1500 
 13 N        5.1120     1.1580    -1.0860 N.4   1 <1>  -0.9590 
 14 C        6.1120     2.1070    -0.5130 C.3   1 <1>   0.4230 
 15 C        7.5100     1.6730    -0.9730 C.3   1 <1>  -0.1600 
 16 C        5.9640     2.2460     1.0150 C.3   1 <1>  -0.1600 
 17 C        8.6450     2.6170    -0.5430 C.3   1 <1>  -0.1600 
 18 C        6.6220     3.5350     1.5300 C.3   1 <1>  -0.1600 
 19 C        8.9660     2.5120     0.9550 C.3   1 <1>  -0.1600 
 20 C        8.1150     3.4080     1.8680 C.3   1 <1>  -0.1600 
 21 H        1.7190     1.2980    -1.6950 H     1 <1>   0.0800 
 22 H        2.9090     0.6390    -2.7790 H     1 <1>   0.0800 
 23 H        4.2660    -1.4250    -1.9680 H     1 <1>   0.0800 
 24 H        3.9580    -2.0230    -0.3650 H     1 <1>   0.0800 
 25 H        1.4470    -3.2580    -1.0170 H     1 <1>   0.1500 
 26 H        3.4150     2.0590    -0.1530 H     1 <1>   0.0800 
 27 H        3.7750     2.6930    -1.7350 H     1 <1>   0.0800 
 28 H        6.0430    -0.6620    -0.4610 H     1 <1>   0.0800 
 29 H        4.8640    -0.0410     0.6580 H     1 <1>   0.0800 
 30 H        0.6430    -3.5790     3.1570 H     1 <1>   0.1500 
 31 H        0.7310    -5.0020     0.8420 H     1 <1>   0.1500 
 32 H        5.4010     0.9880    -2.0560 H     1 <1>   0.4500 
 33 H        5.9280     3.0800    -0.9410 H     1 <1>   0.0800 
 34 H        7.5170     1.6410    -2.0480 H     1 <1>   0.0800 
 35 H        7.7350     0.6860    -0.6120 H     1 <1>   0.0800 
 36 H        6.3770     1.3970     1.5300 H     1 <1>   0.0800 
 37 H        4.9210     2.3100     1.2680 H     1 <1>   0.0800 
 38 H        8.4310     3.6380    -0.8130 H     1 <1>   0.0800 
 39 H        9.5310     2.3300    -1.0850 H     1 <1>   0.0800 
 40 H        6.1140     3.8500     2.4270 H     1 <1>   0.0800 
 41 H        6.4860     4.3260     0.8110 H     1 <1>   0.0800 
 42 H        9.9970     2.7900     1.1020 H     1 <1>   0.0800 
 43 H        8.8820     1.4870     1.2750 H     1 <1>   0.0800 
 44 H        8.2100     3.0340     2.8740 H     1 <1>   0.0800 
 45 H        8.5390     4.3980     1.8700 H     1 <1>   0.0800 
@<TRIPOS>BOND
  1   1   2  2   
  2   2   3  am  
  3   2   4  1   
  4   3   5  1   
  5   3   6  1   
  6   4   7  1   
  7   4   8  2   
  8   5   9  1   
  9   5  21  1   
 10   5  22  1   
 11   6  10  1   
 12   6  23  1   
 13   6  24  1   
 14   7  11  1   
 15   8  12  1   
 16   8  25  1   
 17   9  13  1   
 18   9  26  1   
 19   9  27  1   
 20  10  13  1   
 21  10  28  1   
 22  10  29  1   
 23  11  12  2   
 24  11  30  1   
 25  12  31  1   
 26  13  14  1   
 27  13  32  1   
 28  14  15  1   
 29  14  16  1   
 30  14  33  1   
 31  15  17  1   
 32  15  34  1   
 33  15  35  1   
 34  16  18  1   
 35  16  36  1   
 36  16  37  1   
 37  17  19  1   
 38  17  38  1   
 39  17  39  1   
 40  18  20  1   
 41  18  40  1   
 42  18  41  1   
 43  19  20  1   
 44  19  42  1   
 45  19  43  1   
 46  20  44  1   
 47  20  45  1   
@<TRIPOS>SUBSTRUCTURE
  1 ****  10 GROUP 4 **** **** 0

# MOE 2024.06 (io_trps.svl 2023.06)
