@<TRIPOS>MOLECULE
NONAME
37 38 1 0 0 
SMALL
USER_CHARGES


@<TRIPOS>ATOM
  1 S        0.6370    -0.3300    -0.3560 S.o2  1 <1>   1.3330 
  2 O        0.8770    -0.4810     1.0560 O.2   1 <1>  -0.6500 
  3 O        1.6620    -0.7220    -1.2970 O.2   1 <1>  -0.6500 
  4 N        0.2950     1.3350    -0.6690 N.am  1 <1>  -0.6930 
  5 C       -0.8890    -1.1260    -0.8060 C.3   1 <1>  -0.1350 
  6 C       -0.5820     2.0140     0.1710 C.ar  1 <1>   0.1990 
  7 C        1.3880     2.1010    -1.3560 C.3   1 <1>   0.3370 
  8 C       -0.1900     2.4420     1.4340 C.ar  1 <1>  -0.1500 
  9 C       -1.8810     2.2770    -0.2500 C.ar  1 <1>  -0.1500 
 10 C        2.6500     2.2920    -0.4780 C.2   1 <1>   0.5690 
 11 C        0.8380     3.4200    -1.9260 C.3   1 <1>  -0.2400 
 12 C       -1.0740     3.1140     2.2580 C.ar  1 <1>  -0.1500 
 13 C       -2.7690     2.9480     0.5720 C.ar  1 <1>  -0.1500 
 14 O        2.8650     3.3590     0.0550 O.2   1 <1>  -0.5700 
 15 N        3.5010     1.2380    -0.3290 N.am  1 <1>  -0.5790 
 16 C       -2.3660     3.3670     1.8280 C.ar  1 <1>  -0.1500 
 17 C        4.6780     1.1970     0.5430 C.3   1 <1>   0.0490 
 18 C        5.7110     0.1530     0.2760 C.3   1 <1>  -0.2000 
 19 C        4.8070     0.0320     1.4660 C.3   1 <1>  -0.2000 
 20 H       -0.7990    -2.1880    -0.6840 H     1 <1>   0.0800 
 21 H       -1.1300    -0.9150    -1.8290 H     1 <1>   0.0800 
 22 H       -1.6860    -0.7760    -0.1810 H     1 <1>   0.0800 
 23 H        1.7000     1.5260    -2.2100 H     1 <1>   0.0800 
 24 H        0.8120     2.2440     1.7720 H     1 <1>   0.1500 
 25 H       -2.1900     1.9570    -1.2270 H     1 <1>   0.1500 
 26 H        0.5530     4.0890    -1.1330 H     1 <1>   0.0800 
 27 H       -0.0080     3.2310    -2.5620 H     1 <1>   0.0800 
 28 H        1.6010     3.9050    -2.5070 H     1 <1>   0.0800 
 29 H       -0.7560     3.4390     3.2340 H     1 <1>   0.1500 
 30 H       -3.7720     3.1480     0.2370 H     1 <1>   0.1500 
 31 H        3.2260     0.3260    -0.7210 H     1 <1>   0.3700 
 32 H       -3.0530     3.8900     2.4700 H     1 <1>   0.1500 
 33 H        4.9890     2.1690     0.8940 H     1 <1>   0.1000 
 34 H        6.7450     0.3950     0.4460 H     1 <1>   0.1000 
 35 H        5.5720    -0.5180    -0.5530 H     1 <1>   0.1000 
 36 H        4.0220    -0.7050     1.4680 H     1 <1>   0.1000 
 37 H        5.2220     0.1960     2.4440 H     1 <1>   0.1000 
@<TRIPOS>BOND
  1   1   2  2   
  2   1   3  2   
  3   1   4  am  
  4   1   5  1   
  5   4   6  1   
  6   4   7  1   
  7   5  20  1   
  8   5  21  1   
  9   5  22  1   
 10   6   8  ar  
 11   6   9  ar  
 12   7  10  1   
 13   7  11  1   
 14   7  23  1   
 15   8  12  ar  
 16   8  24  1   
 17   9  13  ar  
 18   9  25  1   
 19  10  14  2   
 20  10  15  am  
 21  11  26  1   
 22  11  27  1   
 23  11  28  1   
 24  12  16  ar  
 25  12  29  1   
 26  13  16  ar  
 27  13  30  1   
 28  15  17  1   
 29  15  31  1   
 30  16  32  1   
 31  17  18  1   
 32  17  19  1   
 33  17  33  1   
 34  18  19  1   
 35  18  34  1   
 36  18  35  1   
 37  19  36  1   
 38  19  37  1   
@<TRIPOS>SUBSTRUCTURE
  1 ****   4 GROUP 4 **** **** 0

# MOE 2024.06 (io_trps.svl 2023.06)
