@<TRIPOS>MOLECULE
NONAME
30 30 1 0 0 
SMALL
USER_CHARGES


@<TRIPOS>ATOM
  1 CL       2.4040    -1.3990    -4.0230 Cl    1 <1>  -0.1770 
  2 C        2.7550    -1.3430    -2.3150 C.ar  1 <1>   0.1770 
  3 C        3.7990    -0.5610    -1.8660 C.ar  1 <1>  -0.1500 
  4 C        1.9810    -2.0850    -1.4410 C.ar  1 <1>  -0.1500 
  5 C        4.0920    -0.5060    -0.5100 C.ar  1 <1>   0.1990 
  6 C        2.2670    -2.0390    -0.0870 C.ar  1 <1>  -0.1500 
  7 N        5.1570     0.2750    -0.0690 N.am  1 <1>  -0.6930 
  8 C        3.3140    -1.2560     0.3700 C.ar  1 <1>  -0.1500 
  9 S        6.5550    -0.4650     0.6270 S.o2  1 <1>   1.3330 
 10 C        4.8890     1.6760     0.4040 C.3   1 <1>   0.3370 
 11 O        6.1280    -1.0600     1.8710 O.2   1 <1>  -0.6500 
 12 O        7.5960     0.5310     0.6240 O.2   1 <1>  -0.6500 
 13 C        6.9750    -1.7270    -0.5570 C.3   1 <1>  -0.1350 
 14 C        4.0630     1.7570     1.7170 C.2   1 <1>   0.5690 
 15 C        4.2760     2.4820    -0.7530 C.3   1 <1>  -0.2400 
 16 O        3.1510     2.5400     1.8220 O.2   1 <1>  -0.5700 
 17 N        4.3590     0.9720     2.7770 N.am  1 <1>  -0.8000 
 18 H        4.3830     0.0050    -2.5670 H     1 <1>   0.1500 
 19 H        1.1710    -2.6850    -1.8170 H     1 <1>   0.1500 
 20 H        1.6750    -2.6090     0.6090 H     1 <1>   0.1500 
 21 H        3.5280    -1.2300     1.4230 H     1 <1>   0.1500 
 22 H        5.8300     2.1460     0.6250 H     1 <1>   0.0800 
 23 H        6.1770    -2.4380    -0.6450 H     1 <1>   0.0800 
 24 H        7.8610    -2.2430    -0.2440 H     1 <1>   0.0800 
 25 H        7.1560    -1.2870    -1.5180 H     1 <1>   0.0800 
 26 H        3.2820     2.1350    -0.9720 H     1 <1>   0.0800 
 27 H        4.8930     2.4100    -1.6290 H     1 <1>   0.0800 
 28 H        4.2080     3.5170    -0.4700 H     1 <1>   0.0800 
 29 H        3.8140     1.0490     3.6350 H     1 <1>   0.3700 
 30 H        5.0640     0.2210     2.7490 H     1 <1>   0.3700 
@<TRIPOS>BOND
  1   1   2  1   
  2   2   3  ar  
  3   2   4  ar  
  4   3   5  ar  
  5   3  18  1   
  6   4   6  ar  
  7   4  19  1   
  8   5   7  1   
  9   5   8  ar  
 10   6   8  ar  
 11   6  20  1   
 12   7   9  am  
 13   7  10  1   
 14   8  21  1   
 15   9  11  2   
 16   9  12  2   
 17   9  13  1   
 18  10  14  1   
 19  10  15  1   
 20  10  22  1   
 21  13  23  1   
 22  13  24  1   
 23  13  25  1   
 24  14  16  2   
 25  14  17  am  
 26  15  26  1   
 27  15  27  1   
 28  15  28  1   
 29  17  29  1   
 30  17  30  1   
@<TRIPOS>SUBSTRUCTURE
  1 ****   5 GROUP 4 **** **** 0

# MOE 2024.06 (io_trps.svl 2023.06)
