@<TRIPOS>MOLECULE
NONAME
49 50 1 0 0 
SMALL
USER_CHARGES


@<TRIPOS>ATOM
  1 O       -8.6620    -3.2120    -0.4310 O.2   1 <1>  -0.5700 
  2 C       -8.0970    -2.9190     0.5860 C.2   1 <1>   0.6590 
  3 O       -7.5810    -1.7150     0.7880 O.3   1 <1>  -0.4300 
  4 C       -7.9430    -3.8980     1.7190 C.3   1 <1>  -0.1790 
  5 C       -7.3580    -0.7520    -0.2370 C.3   1 <1>   0.4240 
  6 C       -6.1970    -1.2340    -1.1200 C.ar  1 <1>  -0.1440 
  7 C       -8.6710    -0.4630    -1.0160 C.3   1 <1>   0.3430 
  8 C       -6.9650     0.5490     0.4830 C.3   1 <1>  -0.1600 
  9 C       -5.0510    -1.7390    -0.5150 C.ar  1 <1>  -0.1500 
 10 C       -6.2380    -1.1800    -2.5120 C.ar  1 <1>  -0.1500 
 11 N       -9.8070    -0.0220    -0.1170 N.4   1 <1>  -0.9590 
 12 C       -8.1100     1.0980     1.3620 C.3   1 <1>  -0.0800 
 13 C       -3.9790    -2.1790    -1.2710 C.ar  1 <1>  -0.1500 
 14 C       -5.1660    -1.6200    -3.2680 C.ar  1 <1>  -0.1500 
 15 C      -11.1380    -0.0030    -0.7840 C.3   1 <1>   0.5030 
 16 C       -9.4280     1.2520     0.5790 C.3   1 <1>   0.3430 
 17 C       -7.6970     2.4430     1.9730 C.3   1 <1>  -0.2400 
 18 C       -4.0360    -2.1200    -2.6490 C.ar  1 <1>  -0.1500 
 19 C      -11.1560     0.9960    -1.9440 C.3   1 <1>  -0.2400 
 20 C      -11.4560    -1.4090    -1.3000 C.3   1 <1>  -0.2400 
 21 C      -12.2070     0.3750     0.2460 C.3   1 <1>  -0.2400 
 22 H       -6.9000    -4.0750     1.9010 H     1 <1>   0.0800 
 23 H       -8.4160    -4.8290     1.4640 H     1 <1>   0.0800 
 24 H       -8.3970    -3.5040     2.6090 H     1 <1>   0.0800 
 25 H       -8.9380    -1.3460    -1.5680 H     1 <1>   0.0800 
 26 H       -8.4700     0.3120    -1.7350 H     1 <1>   0.0800 
 27 H       -6.6960     1.2820    -0.2580 H     1 <1>   0.0800 
 28 H       -6.0910     0.3750     1.0870 H     1 <1>   0.0800 
 29 H       -4.9780    -1.7970     0.5580 H     1 <1>   0.1500 
 30 H       -7.0880    -0.8020    -3.0480 H     1 <1>   0.1500 
 31 H       -9.8820    -0.7510     0.6020 H     1 <1>   0.4500 
 32 H       -8.2840     0.4150     2.1770 H     1 <1>   0.0800 
 33 H       -3.1000    -2.5680    -0.7870 H     1 <1>   0.1500 
 34 H       -5.2080    -1.5770    -4.3430 H     1 <1>   0.1500 
 35 H      -10.2020     1.5440     1.2690 H     1 <1>   0.0800 
 36 H       -9.3150     2.0400    -0.1480 H     1 <1>   0.0800 
 37 H       -7.5110     3.1780     1.2080 H     1 <1>   0.0800 
 38 H       -6.7990     2.3290     2.5560 H     1 <1>   0.0800 
 39 H       -8.4680     2.8170     2.6260 H     1 <1>   0.0800 
 40 H       -3.2030    -2.4630    -3.2390 H     1 <1>   0.1500 
 41 H      -10.4500     0.7300    -2.7080 H     1 <1>   0.0800 
 42 H      -10.9570     1.9970    -1.6070 H     1 <1>   0.0800 
 43 H      -12.1320     0.9990    -2.3980 H     1 <1>   0.0800 
 44 H      -11.3660    -2.1390    -0.5150 H     1 <1>   0.0800 
 45 H      -10.8220    -1.6950    -2.1190 H     1 <1>   0.0800 
 46 H      -12.4670    -1.4460    -1.6660 H     1 <1>   0.0800 
 47 H      -12.1220     1.4000     0.5560 H     1 <1>   0.0800 
 48 H      -12.1570    -0.2670     1.1070 H     1 <1>   0.0800 
 49 H      -13.1860     0.2650    -0.1870 H     1 <1>   0.0800 
@<TRIPOS>BOND
  1   1   2  2   
  2   2   3  1   
  3   2   4  1   
  4   3   5  1   
  5   4  22  1   
  6   4  23  1   
  7   4  24  1   
  8   5   6  1   
  9   5   7  1   
 10   5   8  1   
 11   6   9  ar  
 12   6  10  ar  
 13   7  11  1   
 14   7  25  1   
 15   7  26  1   
 16   8  12  1   
 17   8  27  1   
 18   8  28  1   
 19   9  13  ar  
 20   9  29  1   
 21  10  14  ar  
 22  10  30  1   
 23  11  15  1   
 24  11  16  1   
 25  11  31  1   
 26  12  16  1   
 27  12  17  1   
 28  12  32  1   
 29  13  18  ar  
 30  13  33  1   
 31  14  18  ar  
 32  14  34  1   
 33  15  19  1   
 34  15  20  1   
 35  15  21  1   
 36  16  35  1   
 37  16  36  1   
 38  17  37  1   
 39  17  38  1   
 40  17  39  1   
 41  18  40  1   
 42  19  41  1   
 43  19  42  1   
 44  19  43  1   
 45  20  44  1   
 46  20  45  1   
 47  20  46  1   
 48  21  47  1   
 49  21  48  1   
 50  21  49  1   
@<TRIPOS>SUBSTRUCTURE
  1 ****   5 GROUP 4 **** **** 0

# MOE 2024.06 (io_trps.svl 2023.06)
