@<TRIPOS>MOLECULE
NONAME
30 31 1 0 0 
SMALL
USER_CHARGES


@<TRIPOS>ATOM
  1 BR      -0.0640    -0.2920    -0.0150 Br    1 <1>  -0.1110 
  2 C        1.8470    -0.0650    -0.0110 C.ar  1 <1>   0.1110 
  3 C        2.3690     1.2080    -0.0080 C.ar  1 <1>  -0.1500 
  4 C        2.6470    -1.1950    -0.0110 C.ar  1 <1>  -0.1500 
  5 C        3.7560     1.3820    -0.0050 C.ar  1 <1>   0.0860 
  6 C        4.0170    -1.0260    -0.0080 C.ar  1 <1>  -0.1500 
  7 C        4.3930     2.6690    -0.0030 C.2   1 <1>   0.5440 
  8 C        4.5830     0.2480    -0.0050 C.ar  1 <1>   0.1790 
  9 O        3.7360     3.6980    -0.0030 O.2   1 <1>  -0.5700 
 10 N        5.7700     2.7230     0.0000 N.am  1 <1>  -0.4200 
 11 N        5.9540     0.3610    -0.0020 N.2   1 <1>  -0.6290 
 12 C        6.4670     1.5340     0.0000 C.2   1 <1>   0.6510 
 13 C        6.4840     4.0370     0.0030 C.3   1 <1>   0.0600 
 14 S        8.2520     1.6500     0.0040 S.3   1 <1>  -0.3710 
 15 C        8.8290    -0.1050     0.0030 C.3   1 <1>   0.0700 
 16 C       10.3580    -0.1000     0.0060 C.3   1 <1>  -0.1600 
 17 C       10.9180    -1.5260     0.0050 C.3   1 <1>  -0.2400 
 18 H        1.7180     2.0650    -0.0090 H     1 <1>   0.1500 
 19 H        2.2020    -2.1740    -0.0130 H     1 <1>   0.1500 
 20 H        4.6710    -1.8800    -0.0080 H     1 <1>   0.1500 
 21 H        5.7920     4.8600     0.0030 H     1 <1>   0.0800 
 22 H        7.1040     4.1150    -0.8730 H     1 <1>   0.0800 
 23 H        7.1000     4.1130     0.8820 H     1 <1>   0.0800 
 24 H        8.4320    -0.5730    -0.8810 H     1 <1>   0.0800 
 25 H        8.4280    -0.5760     0.8840 H     1 <1>   0.0800 
 26 H       10.7100     0.4210     0.8790 H     1 <1>   0.0800 
 27 H       10.7130     0.4240    -0.8650 H     1 <1>   0.0800 
 28 H       10.5890    -2.0600     0.8780 H     1 <1>   0.0800 
 29 H       11.9940    -1.4980     0.0070 H     1 <1>   0.0800 
 30 H       10.5920    -2.0580    -0.8720 H     1 <1>   0.0800 
@<TRIPOS>BOND
  1   1   2  1   
  2   2   3  ar  
  3   2   4  ar  
  4   3   5  ar  
  5   3  18  1   
  6   4   6  ar  
  7   4  19  1   
  8   5   7  1   
  9   5   8  ar  
 10   6   8  ar  
 11   6  20  1   
 12   7   9  2   
 13   7  10  am  
 14   8  11  1   
 15  10  12  1   
 16  10  13  1   
 17  11  12  2   
 18  12  14  1   
 19  13  21  1   
 20  13  22  1   
 21  13  23  1   
 22  14  15  1   
 23  15  16  1   
 24  15  24  1   
 25  15  25  1   
 26  16  17  1   
 27  16  26  1   
 28  16  27  1   
 29  17  28  1   
 30  17  29  1   
 31  17  30  1   
@<TRIPOS>SUBSTRUCTURE
  1 ****  11 GROUP 4 **** **** 0

# MOE 2024.06 (io_trps.svl 2023.06)
