@<TRIPOS>MOLECULE
NONAME
42 44 1 0 0 
SMALL
USER_CHARGES


@<TRIPOS>ATOM
  1 N       -1.4390     0.5580    -0.3810 N.ar  1 <1>  -0.6200 
  2 C       -2.0050    -0.3850     0.3710 C.ar  1 <1>   0.7200 
  3 C       -0.4040     0.1760    -1.0930 C.ar  1 <1>   0.1600 
  4 N       -1.6640    -1.6660     0.4250 N.ar  1 <1>  -0.6200 
  5 N       -3.0840    -0.0040     1.1350 N.pl3 1 <1>  -0.8380 
  6 C        0.0500    -1.1200    -1.0840 C.ar  1 <1>  -0.1500 
  7 C       -0.6280    -2.0180    -0.2970 C.ar  1 <1>   0.1600 
  8 C       -3.3380     1.4380     1.4160 C.3   1 <1>   0.2090 
  9 C       -4.3290    -0.8200     1.0660 C.3   1 <1>   0.2090 
 10 C       -4.2530     2.0230     0.3200 C.3   1 <1>   0.3430 
 11 C       -5.2610    -0.2460    -0.0220 C.3   1 <1>   0.3430 
 12 N       -5.5330     1.2350     0.1540 N.4   1 <1>  -0.9590 
 13 C       -6.3540     1.7830    -0.9460 C.3   1 <1>   0.4810 
 14 C       -7.7420     1.2150    -0.7840 C.2   1 <1>  -0.2880 
 15 C       -8.7870     1.8790    -0.2600 C.2   1 <1>  -0.1780 
 16 C      -10.1350     1.3910    -0.0680 C.ar  1 <1>   0.0280 
 17 C      -11.0030     2.0660     0.7870 C.ar  1 <1>  -0.1500 
 18 C      -10.6180     0.2530    -0.7110 C.ar  1 <1>  -0.1500 
 19 C      -12.2950     1.6210     1.0000 C.ar  1 <1>  -0.1500 
 20 C      -11.9080    -0.1980    -0.5010 C.ar  1 <1>  -0.1500 
 21 C      -12.7500     0.4850     0.3570 C.ar  1 <1>  -0.1500 
 22 H        0.0960     0.9120    -1.7000 H     1 <1>   0.1500 
 23 H        0.9000    -1.4200    -1.6690 H     1 <1>   0.1500 
 24 H       -0.3110    -3.0480    -0.2600 H     1 <1>   0.1500 
 25 H       -3.8020     1.5400     2.3810 H     1 <1>   0.0800 
 26 H       -2.4080     1.9830     1.4470 H     1 <1>   0.0800 
 27 H       -4.1020    -1.8470     0.8340 H     1 <1>   0.0800 
 28 H       -4.8200    -0.8080     2.0230 H     1 <1>   0.0800 
 29 H       -3.6990     2.0120    -0.6050 H     1 <1>   0.0800 
 30 H       -4.4770     3.0480     0.5600 H     1 <1>   0.0800 
 31 H       -6.1880    -0.7940    -0.0080 H     1 <1>   0.0800 
 32 H       -4.7920    -0.4130    -0.9770 H     1 <1>   0.0800 
 33 H       -6.0910     1.3410     1.0110 H     1 <1>   0.4500 
 34 H       -6.4010     2.8570    -0.8640 H     1 <1>   0.0800 
 35 H       -5.9400     1.5260    -1.9080 H     1 <1>   0.0800 
 36 H       -7.8210     0.2020    -1.1360 H     1 <1>   0.1500 
 37 H       -8.6600     2.8940     0.0790 H     1 <1>   0.1500 
 38 H      -10.6700     2.9520     1.2970 H     1 <1>   0.1500 
 39 H       -9.9900    -0.2910    -1.3910 H     1 <1>   0.1500 
 40 H      -12.9490     2.1570     1.6670 H     1 <1>   0.1500 
 41 H      -12.2630    -1.0800    -1.0070 H     1 <1>   0.1500 
 42 H      -13.7540     0.1360     0.5220 H     1 <1>   0.1500 
@<TRIPOS>BOND
  1   1   2  ar  
  2   1   3  ar  
  3   2   4  ar  
  4   2   5  1   
  5   3   6  ar  
  6   3  22  1   
  7   4   7  ar  
  8   5   8  1   
  9   5   9  1   
 10   6   7  ar  
 11   6  23  1   
 12   7  24  1   
 13   8  10  1   
 14   8  25  1   
 15   8  26  1   
 16   9  11  1   
 17   9  27  1   
 18   9  28  1   
 19  10  12  1   
 20  10  29  1   
 21  10  30  1   
 22  11  12  1   
 23  11  31  1   
 24  11  32  1   
 25  12  13  1   
 26  12  33  1   
 27  13  14  1   
 28  13  34  1   
 29  13  35  1   
 30  14  15  2   
 31  14  36  1   
 32  15  16  1   
 33  15  37  1   
 34  16  17  ar  
 35  16  18  ar  
 36  17  19  ar  
 37  17  38  1   
 38  18  20  ar  
 39  18  39  1   
 40  19  21  ar  
 41  19  40  1   
 42  20  21  ar  
 43  20  41  1   
 44  21  42  1   
@<TRIPOS>SUBSTRUCTURE
  1 ****  12 GROUP 4 **** **** 0

# MOE 2024.06 (io_trps.svl 2023.06)
