@<TRIPOS>MOLECULE
NONAME
31 33 1 0 0 
SMALL
USER_CHARGES


@<TRIPOS>ATOM
  1 O        0.2260    -0.2630     0.3530 O.2   1 <1>  -0.5700 
  2 C        1.2240    -0.9290     0.2400 C.2   1 <1>   0.4230 
  3 C        1.2070    -2.3740     0.1360 C.ar  1 <1>   0.0860 
  4 C        2.5350    -0.1670     0.2110 C.3   1 <1>  -0.1790 
  5 C        0.0010    -3.0620     0.1660 C.ar  1 <1>  -0.1500 
  6 C        2.3900    -3.1420     0.0010 C.ar  1 <1>  -0.1500 
  7 C       -0.0440    -4.4510     0.0670 C.ar  1 <1>   0.0000 
  8 C        2.3660    -4.5130    -0.0970 C.ar  1 <1>  -0.1500 
  9 C        1.1380    -5.1730    -0.0630 C.ar  1 <1>  -0.1520 
 10 C       -1.0850    -5.4050     0.0650 C.2   1 <1>  -0.1810 
 11 N        0.8290    -6.5070    -0.1380 N.pl3 1 <1>   0.0330 
 12 C       -0.5290    -6.6290    -0.0530 C.2   1 <1>  -0.3320 
 13 C       -2.5760    -5.1550     0.1780 C.3   1 <1>   0.0210 
 14 C       -1.3010    -7.9340    -0.0930 C.3   1 <1>   0.0200 
 15 C       -3.3570    -6.4170    -0.2350 C.3   1 <1>  -0.1600 
 16 C       -2.7500    -7.6980     0.3730 C.3   1 <1>  -0.1600 
 17 H        3.1570    -0.4740     1.0310 H     1 <1>   0.0800 
 18 H        2.3460     0.8870     0.3020 H     1 <1>   0.0800 
 19 H        3.0430    -0.3430    -0.7190 H     1 <1>   0.0800 
 20 H       -0.9250    -2.5250     0.2670 H     1 <1>   0.1500 
 21 H        3.3420    -2.6480    -0.0260 H     1 <1>   0.1500 
 22 H        3.2740    -5.0810    -0.1980 H     1 <1>   0.1500 
 23 H        1.5020    -7.2710    -0.2380 H     1 <1>   0.2700 
 24 H       -2.8570    -4.3290    -0.4510 H     1 <1>   0.0800 
 25 H       -2.8040    -4.8990     1.1980 H     1 <1>   0.0800 
 26 H       -0.8330    -8.6650     0.5430 H     1 <1>   0.0800 
 27 H       -1.3000    -8.3070    -1.1020 H     1 <1>   0.0800 
 28 H       -3.3360    -6.5000    -1.3080 H     1 <1>   0.0800 
 29 H       -4.3840    -6.3160     0.0700 H     1 <1>   0.0800 
 30 H       -2.7570    -7.6060     1.4460 H     1 <1>   0.0800 
 31 H       -3.3520    -8.5500     0.1110 H     1 <1>   0.0800 
@<TRIPOS>BOND
  1   1   2  2   
  2   2   3  1   
  3   2   4  1   
  4   3   5  ar  
  5   3   6  ar  
  6   4  17  1   
  7   4  18  1   
  8   4  19  1   
  9   5   7  ar  
 10   5  20  1   
 11   6   8  ar  
 12   6  21  1   
 13   7   9  ar  
 14   7  10  1   
 15   8   9  ar  
 16   8  22  1   
 17   9  11  1   
 18  10  12  2   
 19  10  13  1   
 20  11  12  1   
 21  11  23  1   
 22  12  14  1   
 23  13  15  1   
 24  13  24  1   
 25  13  25  1   
 26  14  16  1   
 27  14  26  1   
 28  14  27  1   
 29  15  16  1   
 30  15  28  1   
 31  15  29  1   
 32  16  30  1   
 33  16  31  1   
@<TRIPOS>SUBSTRUCTURE
  1 ****   7 GROUP 4 **** **** 0

# MOE 2024.06 (io_trps.svl 2023.06)
