@<TRIPOS>MOLECULE
NONAME
45 45 1 0 0 
SMALL
USER_CHARGES


@<TRIPOS>ATOM
  1 N        0.5220    -0.5010     0.3370 N.4   1 <1>  -0.9590 
  2 C        1.5850     0.4120    -0.1980 C.3   1 <1>   0.3430 
  3 C       -0.2060    -1.2280    -0.7570 C.3   1 <1>   0.2630 
  4 C       -0.4680     0.2480     1.1770 C.3   1 <1>   0.2630 
  5 C        3.0250    -0.1680    -0.0790 C.3   1 <1>   0.0000 
  6 C        3.9880     0.8820    -0.7020 C.3   1 <1>   0.3430 
  7 C        3.3680    -0.4130     1.4090 C.3   1 <1>  -0.2400 
  8 C        3.1440    -1.5080    -0.8410 C.3   1 <1>  -0.2400 
  9 N        5.4270     0.4750    -0.6640 N.4   1 <1>  -0.9060 
 10 C        6.2200     1.0580     0.4400 C.3   1 <1>   0.4230 
 11 C        6.5390     2.5160     0.1270 C.3   1 <1>  -0.1600 
 12 C        7.5940     0.4010     0.4280 C.3   1 <1>  -0.1600 
 13 C        7.6870     2.4740    -0.8900 C.3   1 <1>  -0.0800 
 14 C        8.4150     1.1450    -0.6350 C.3   1 <1>  -0.1600 
 15 C        8.6140     3.6870    -0.7650 C.3   1 <1>  -0.2400 
 16 H        0.9720    -1.2060     0.9430 H     1 <1>   0.4500 
 17 H        1.5520     1.3420     0.3480 H     1 <1>   0.0800 
 18 H        1.3710     0.6400    -1.2300 H     1 <1>   0.0800 
 19 H       -0.7160    -0.5280    -1.3990 H     1 <1>   0.0800 
 20 H       -0.9370    -1.9000    -0.3360 H     1 <1>   0.0800 
 21 H        0.4820    -1.8040    -1.3530 H     1 <1>   0.0800 
 22 H       -0.9760     0.9940     0.5870 H     1 <1>   0.0800 
 23 H        0.0290     0.7370     2.0000 H     1 <1>   0.0800 
 24 H       -1.2050    -0.4280     1.5810 H     1 <1>   0.0800 
 25 H        3.8700     1.8270    -0.1960 H     1 <1>   0.0800 
 26 H        3.7030     1.0310    -1.7320 H     1 <1>   0.0800 
 27 H        3.3290     0.5050     1.9700 H     1 <1>   0.0800 
 28 H        4.3510    -0.8360     1.5200 H     1 <1>   0.0800 
 29 H        2.6840    -1.1080     1.8630 H     1 <1>   0.0800 
 30 H        2.8940    -1.3830    -1.8820 H     1 <1>   0.0800 
 31 H        2.4880    -2.2530    -0.4260 H     1 <1>   0.0800 
 32 H        4.1390    -1.9120    -0.7840 H     1 <1>   0.0800 
 33 H        5.9050     0.7670    -1.5260 H     1 <1>   0.4500 
 34 H        5.5120    -0.5460    -0.6250 H     1 <1>   0.4500 
 35 H        5.7250     0.9370     1.3910 H     1 <1>   0.0800 
 36 H        6.8890     2.9780     1.0350 H     1 <1>   0.0800 
 37 H        5.6970     3.0820    -0.2280 H     1 <1>   0.0800 
 38 H        7.5620    -0.6610     0.2620 H     1 <1>   0.0800 
 39 H        8.0540     0.5720     1.3880 H     1 <1>   0.0800 
 40 H        7.2800     2.4610    -1.8880 H     1 <1>   0.0800 
 41 H        8.4670     0.5730    -1.5470 H     1 <1>   0.0800 
 42 H        9.4220     1.3000    -0.2820 H     1 <1>   0.0800 
 43 H        9.0620     3.7330     0.2130 H     1 <1>   0.0800 
 44 H        8.0660     4.5980    -0.9340 H     1 <1>   0.0800 
 45 H        9.4030     3.6290    -1.4950 H     1 <1>   0.0800 
@<TRIPOS>BOND
  1   1   2  1   
  2   1   3  1   
  3   1   4  1   
  4   1  16  1   
  5   2   5  1   
  6   2  17  1   
  7   2  18  1   
  8   3  19  1   
  9   3  20  1   
 10   3  21  1   
 11   4  22  1   
 12   4  23  1   
 13   4  24  1   
 14   5   6  1   
 15   5   7  1   
 16   5   8  1   
 17   6   9  1   
 18   6  25  1   
 19   6  26  1   
 20   7  27  1   
 21   7  28  1   
 22   7  29  1   
 23   8  30  1   
 24   8  31  1   
 25   8  32  1   
 26   9  10  1   
 27   9  33  1   
 28   9  34  1   
 29  10  11  1   
 30  10  12  1   
 31  10  35  1   
 32  11  13  1   
 33  11  36  1   
 34  11  37  1   
 35  12  14  1   
 36  12  38  1   
 37  12  39  1   
 38  13  14  1   
 39  13  15  1   
 40  13  40  1   
 41  14  41  1   
 42  14  42  1   
 43  15  43  1   
 44  15  44  1   
 45  15  45  1   
@<TRIPOS>SUBSTRUCTURE
  1 ****   6 GROUP 4 **** **** 0

# MOE 2024.06 (io_trps.svl 2023.06)
