@<TRIPOS>MOLECULE
NONAME
41 42 1 0 0 
SMALL
USER_CHARGES


@<TRIPOS>ATOM
  1 O       -0.3810    -4.2790     0.8990 O.2   1 <1>  -0.5700 
  2 C       -0.5290    -3.3700     0.1220 C.2   1 <1>   0.5690 
  3 N       -1.7250    -3.0210    -0.4380 N.am  1 <1>  -0.5470 
  4 C        0.6920    -2.5530    -0.2470 C.3   1 <1>  -0.0990 
  5 C       -3.0020    -3.5920    -0.3040 C.ar  1 <1>   0.1170 
  6 C        1.9510    -3.2630     0.2600 C.3   1 <1>   0.3430 
  7 C       -3.2140    -4.9000     0.1240 C.ar  1 <1>  -0.1500 
  8 C       -4.1110    -2.8200    -0.6330 C.ar  1 <1>  -0.1500 
  9 N        3.1990    -2.5270    -0.1060 N.4   1 <1>  -0.9590 
 10 C       -4.4930    -5.4160     0.2270 C.ar  1 <1>  -0.1500 
 11 C       -5.3920    -3.3330    -0.5330 C.ar  1 <1>  -0.1500 
 12 C        4.3890    -3.4230     0.0700 C.3   1 <1>   0.3430 
 13 C        3.3800    -1.2610     0.6610 C.3   1 <1>   0.3430 
 14 C       -5.5850    -4.6330    -0.1020 C.ar  1 <1>  -0.1500 
 15 C        5.7280    -2.6610    -0.0470 C.3   1 <1>  -0.0800 
 16 C        4.5090    -0.4380     0.0270 C.3   1 <1>  -0.1600 
 17 C        5.5650    -1.2830    -0.7100 C.3   1 <1>  -0.1600 
 18 C        6.7610    -3.5000    -0.8100 C.3   1 <1>  -0.2400 
 19 H       -1.7210    -2.1870    -1.0220 H     1 <1>   0.3700 
 20 H        0.5920    -1.5860     0.2070 H     1 <1>   0.0800 
 21 H        0.7320    -2.4550    -1.3150 H     1 <1>   0.0800 
 22 H        1.9750    -4.2520    -0.1680 H     1 <1>   0.0800 
 23 H        1.8900    -3.3780     1.3320 H     1 <1>   0.0800 
 24 H       -2.3830    -5.5310     0.3790 H     1 <1>   0.1500 
 25 H       -3.9810    -1.8080    -0.9670 H     1 <1>   0.1500 
 26 H        3.1680    -2.2760    -1.1020 H     1 <1>   0.4500 
 27 H       -4.6370    -6.4280     0.5620 H     1 <1>   0.1500 
 28 H       -6.2410    -2.7230    -0.7890 H     1 <1>   0.1500 
 29 H        4.3590    -4.1950    -0.6810 H     1 <1>   0.0800 
 30 H        4.3500    -3.9040     1.0340 H     1 <1>   0.0800 
 31 H        3.6360    -1.4970     1.6810 H     1 <1>   0.0800 
 32 H        2.4730    -0.6790     0.6670 H     1 <1>   0.0800 
 33 H       -6.5810    -5.0350    -0.0220 H     1 <1>   0.1500 
 34 H        6.1060    -2.5110     0.9510 H     1 <1>   0.0800 
 35 H        4.9860     0.1240     0.8120 H     1 <1>   0.0800 
 36 H        4.0900     0.2810    -0.6560 H     1 <1>   0.0800 
 37 H        5.2650    -1.4150    -1.7360 H     1 <1>   0.0800 
 38 H        6.5070    -0.7570    -0.7170 H     1 <1>   0.0800 
 39 H        6.4420    -3.6810    -1.8220 H     1 <1>   0.0800 
 40 H        6.9150    -4.4480    -0.3240 H     1 <1>   0.0800 
 41 H        7.7070    -2.9870    -0.8420 H     1 <1>   0.0800 
@<TRIPOS>BOND
  1   1   2  2   
  2   2   3  am  
  3   2   4  1   
  4   3   5  1   
  5   3  19  1   
  6   4   6  1   
  7   4  20  1   
  8   4  21  1   
  9   5   7  ar  
 10   5   8  ar  
 11   6   9  1   
 12   6  22  1   
 13   6  23  1   
 14   7  10  ar  
 15   7  24  1   
 16   8  11  ar  
 17   8  25  1   
 18   9  12  1   
 19   9  13  1   
 20   9  26  1   
 21  10  14  ar  
 22  10  27  1   
 23  11  14  ar  
 24  11  28  1   
 25  12  15  1   
 26  12  29  1   
 27  12  30  1   
 28  13  16  1   
 29  13  31  1   
 30  13  32  1   
 31  14  33  1   
 32  15  17  1   
 33  15  18  1   
 34  15  34  1   
 35  16  17  1   
 36  16  35  1   
 37  16  36  1   
 38  17  37  1   
 39  17  38  1   
 40  18  39  1   
 41  18  40  1   
 42  18  41  1   
@<TRIPOS>SUBSTRUCTURE
  1 ****   4 GROUP 4 **** **** 0

# MOE 2024.06 (io_trps.svl 2023.06)
