@<TRIPOS>MOLECULE
NONAME
42 43 1 0 0 
SMALL
USER_CHARGES


@<TRIPOS>ATOM
  1 P        0.1290     0.3910     0.7830 P.3   1 <1>   1.5070 
  2 O       -0.1410    -0.0170     2.1570 O.2   1 <1>  -0.7000 
  3 O       -0.9820     1.4010     0.2330 O.3   1 <1>  -0.5510 
  4 N        0.1640    -0.8630    -0.3340 N.3   1 <1>  -0.8080 
  5 N        1.5360     1.2810     0.5650 N.3   1 <1>  -0.8080 
  6 C       -1.2060     2.5940     0.9320 C.3   1 <1>   0.1200 
  7 C        1.0190    -1.9820     0.0850 C.3   1 <1>   0.1100 
  8 C       -1.1760    -1.3630    -0.6770 C.3   1 <1>   0.1100 
  9 C        2.6650     0.9090     1.4220 C.3   1 <1>   0.1100 
 10 C        1.9460     1.4450    -0.8350 C.3   1 <1>   0.1100 
 11 C       -2.2670     3.4940     0.2760 C.3   1 <1>   1.0200 
 12 C        1.1800    -2.9980    -1.0500 C.3   1 <1>  -0.1600 
 13 C       -1.1050    -2.3590    -1.8390 C.3   1 <1>  -0.1600 
 14 C        3.7370     2.0020     1.3830 C.3   1 <1>  -0.1600 
 15 C        3.0020     2.5480    -0.9530 C.3   1 <1>  -0.1600 
 16 F       -1.9330     3.8720    -0.9520 F     1 <1>  -0.3400 
 17 F       -2.4590     4.6090     0.9700 F     1 <1>  -0.3400 
 18 F       -3.4540     2.9060     0.1790 F     1 <1>  -0.3400 
 19 C       -0.1790    -3.5330    -1.5110 C.3   1 <1>  -0.1600 
 20 C        4.2100     2.2650    -0.0510 C.3   1 <1>  -0.1600 
 21 H       -0.2800     3.1370     0.9840 H     1 <1>   0.0800 
 22 H       -1.5260     2.3430     1.9280 H     1 <1>   0.0800 
 23 H        0.5940    -2.4600     0.9530 H     1 <1>   0.0800 
 24 H        1.9940    -1.6180     0.3490 H     1 <1>   0.0800 
 25 H       -1.8090    -0.5440    -0.9790 H     1 <1>   0.0800 
 26 H       -1.6230    -1.8310     0.1850 H     1 <1>   0.0800 
 27 H        3.0920    -0.0220     1.0950 H     1 <1>   0.0800 
 28 H        2.3250     0.7880     2.4380 H     1 <1>   0.0800 
 29 H        1.0920     1.7120    -1.4360 H     1 <1>   0.0800 
 30 H        2.3400     0.5150    -1.2110 H     1 <1>   0.0800 
 31 H        1.7950    -3.8150    -0.7150 H     1 <1>   0.0800 
 32 H        1.6830    -2.5220    -1.8740 H     1 <1>   0.0800 
 33 H       -0.7450    -1.8440    -2.7140 H     1 <1>   0.0800 
 34 H       -2.0920    -2.7260    -2.0560 H     1 <1>   0.0800 
 35 H        4.5730     1.7050     1.9910 H     1 <1>   0.0800 
 36 H        3.3290     2.9040     1.8040 H     1 <1>   0.0800 
 37 H        2.5550     3.4870    -0.6770 H     1 <1>   0.0800 
 38 H        3.3240     2.6250    -1.9760 H     1 <1>   0.0800 
 39 H       -0.6160    -4.1240    -0.7240 H     1 <1>   0.0800 
 40 H       -0.0560    -4.1610    -2.3760 H     1 <1>   0.0800 
 41 H        4.7340     1.4000    -0.4190 H     1 <1>   0.0800 
 42 H        4.8870     3.1020    -0.0690 H     1 <1>   0.0800 
@<TRIPOS>BOND
  1   1   2  2   
  2   1   3  1   
  3   1   4  1   
  4   1   5  1   
  5   3   6  1   
  6   4   7  1   
  7   4   8  1   
  8   5   9  1   
  9   5  10  1   
 10   6  11  1   
 11   6  21  1   
 12   6  22  1   
 13   7  12  1   
 14   7  23  1   
 15   7  24  1   
 16   8  13  1   
 17   8  25  1   
 18   8  26  1   
 19   9  14  1   
 20   9  27  1   
 21   9  28  1   
 22  10  15  1   
 23  10  29  1   
 24  10  30  1   
 25  11  16  1   
 26  11  17  1   
 27  11  18  1   
 28  12  19  1   
 29  12  31  1   
 30  12  32  1   
 31  13  19  1   
 32  13  33  1   
 33  13  34  1   
 34  14  20  1   
 35  14  35  1   
 36  14  36  1   
 37  15  20  1   
 38  15  37  1   
 39  15  38  1   
 40  19  39  1   
 41  19  40  1   
 42  20  41  1   
 43  20  42  1   
@<TRIPOS>SUBSTRUCTURE
  1 ****   1 GROUP 4 **** **** 0

# MOE 2024.06 (io_trps.svl 2023.06)
