@<TRIPOS>MOLECULE
NONAME
45 47 1 0 0 
SMALL
USER_CHARGES


@<TRIPOS>ATOM
  1 O       -2.9080    -0.7770    -0.4850 O.co2 1 <1>  -0.9000 
  2 C       -2.9510    -0.1380     0.5660 C.2   1 <1>   0.9060 
  3 O       -3.6000    -0.5450     1.5390 O.co2 1 <1>  -0.9000 
  4 C       -2.2610     1.2110     0.7190 C.3   1 <1>  -0.1860 
  5 C       -3.1860     2.4870     0.7500 C.3   1 <1>  -0.0190 
  6 C       -1.0620     1.4270    -0.2420 C.3   1 <1>  -0.0800 
  7 C       -4.6720     2.3710     0.3240 C.2   1 <1>   0.5690 
  8 C       -2.4460     3.6430     0.0080 C.3   1 <1>  -0.0800 
  9 C       -1.5790     1.9040    -1.6150 C.3   1 <1>  -0.1600 
 10 C       -0.1810     2.5480     0.3480 C.3   1 <1>  -0.1600 
 11 O       -5.1760     3.2710    -0.3120 O.2   1 <1>  -0.5700 
 12 N       -5.4190     1.3130     0.7530 N.am  1 <1>  -0.5470 
 13 C       -2.2770     3.2720    -1.4830 C.3   1 <1>  -0.1600 
 14 C       -1.0320     3.8120     0.6060 C.3   1 <1>  -0.1600 
 15 C       -6.7040     0.8880     0.4050 C.ar  1 <1>   0.1170 
 16 C       -6.9450    -0.4780     0.3580 C.ar  1 <1>  -0.1500 
 17 C       -7.7470     1.7600     0.1150 C.ar  1 <1>  -0.1500 
 18 C       -8.1930    -0.9660     0.0210 C.ar  1 <1>  -0.1500 
 19 C       -8.9970     1.2730    -0.2230 C.ar  1 <1>  -0.1500 
 20 C       -9.2310    -0.0950    -0.2810 C.ar  1 <1>   0.1170 
 21 N      -10.4860    -0.6050    -0.6300 N.am  1 <1>  -0.5470 
 22 C      -11.2100    -0.4210    -1.7620 C.2   1 <1>   0.5690 
 23 O      -12.2800    -0.9570    -1.8850 O.2   1 <1>  -0.5700 
 24 C      -10.6840     0.4370    -2.8880 C.3   1 <1>  -0.1790 
 25 H       -1.8300     1.1370     1.7000 H     1 <1>   0.0800 
 26 H       -3.2460     2.7790     1.7820 H     1 <1>   0.0800 
 27 H       -0.4970     0.5150    -0.3490 H     1 <1>   0.0800 
 28 H       -2.9940     4.5640     0.1050 H     1 <1>   0.0800 
 29 H       -2.2760     1.1800    -2.0040 H     1 <1>   0.0800 
 30 H       -0.7640     1.9740    -2.3120 H     1 <1>   0.0800 
 31 H        0.6120     2.7760    -0.3420 H     1 <1>   0.0800 
 32 H        0.2690     2.2150     1.2670 H     1 <1>   0.0800 
 33 H       -4.8570     0.5640     1.2020 H     1 <1>   0.3700 
 34 H       -1.6910     4.0280    -1.9740 H     1 <1>   0.0800 
 35 H       -3.2330     3.2360    -1.9760 H     1 <1>   0.0800 
 36 H       -1.1100     3.9880     1.6650 H     1 <1>   0.0800 
 37 H       -0.5500     4.6670     0.1660 H     1 <1>   0.0800 
 38 H       -6.1330    -1.1550     0.5790 H     1 <1>   0.1500 
 39 H       -7.5720     2.8190     0.1560 H     1 <1>   0.1500 
 40 H       -8.3540    -2.0280    -0.0160 H     1 <1>   0.1500 
 41 H       -9.7940     1.9610    -0.4380 H     1 <1>   0.1500 
 42 H      -10.8990    -1.2850     0.0070 H     1 <1>   0.3700 
 43 H       -9.6380     0.2450    -3.0440 H     1 <1>   0.0800 
 44 H      -10.8270     1.4730    -2.6500 H     1 <1>   0.0800 
 45 H      -11.2160     0.2100    -3.7930 H     1 <1>   0.0800 
@<TRIPOS>BOND
  1   1   2  ar  
  2   2   3  ar  
  3   2   4  1   
  4   4   5  1   
  5   4   6  1   
  6   4  25  1   
  7   5   7  1   
  8   5   8  1   
  9   5  26  1   
 10   6   9  1   
 11   6  10  1   
 12   6  27  1   
 13   7  11  2   
 14   7  12  am  
 15   8  13  1   
 16   8  14  1   
 17   8  28  1   
 18   9  13  1   
 19   9  29  1   
 20   9  30  1   
 21  10  14  1   
 22  10  31  1   
 23  10  32  1   
 24  12  15  1   
 25  12  33  1   
 26  13  34  1   
 27  13  35  1   
 28  14  36  1   
 29  14  37  1   
 30  15  16  ar  
 31  15  17  ar  
 32  16  18  ar  
 33  16  38  1   
 34  17  19  ar  
 35  17  39  1   
 36  18  20  ar  
 37  18  40  1   
 38  19  20  ar  
 39  19  41  1   
 40  20  21  1   
 41  21  22  am  
 42  21  42  1   
 43  22  23  2   
 44  22  24  1   
 45  24  43  1   
 46  24  44  1   
 47  24  45  1   
@<TRIPOS>SUBSTRUCTURE
  1 ****  12 GROUP 4 **** **** 0

# MOE 2024.06 (io_trps.svl 2023.06)
