@<TRIPOS>MOLECULE
NONAME
41 42 1 0 0 
SMALL
USER_CHARGES


@<TRIPOS>ATOM
  1 S       -0.1390    -0.0670    -0.0040 S.o2  1 <1>   1.4470 
  2 O       -0.3530    -0.6070     1.3240 O.2   1 <1>  -0.6500 
  3 O        0.3040    -0.9600    -1.0530 O.2   1 <1>  -0.6500 
  4 N       -1.6820     0.4670    -0.4770 N.am  1 <1>  -0.8490 
  5 C        0.8710     1.4410    -0.0150 C.ar  1 <1>  -0.0090 
  6 C       -2.4680    -0.6720    -1.0210 C.3   1 <1>   0.2570 
  7 C       -2.3840     1.1990     0.5880 C.3   1 <1>   0.1160 
  8 C        2.0370     1.5220     0.7410 C.ar  1 <1>   0.0830 
  9 C        0.5250     2.5350    -0.8040 C.ar  1 <1>  -0.1500 
 10 C       -3.9670    -0.4330    -1.2550 C.2   1 <1>   0.5690 
 11 O        2.3860     0.4350     1.4720 O.3   1 <1>  -0.3630 
 12 C        2.8060     2.6840     0.7270 C.ar  1 <1>  -0.1500 
 13 C        1.2870     3.6900    -0.8260 C.ar  1 <1>  -0.1440 
 14 O       -4.3400     0.0300    -2.3080 O.2   1 <1>  -0.5700 
 15 N       -4.8410    -0.7590    -0.2580 N.am  1 <1>  -0.5790 
 16 C        3.5580     0.3910     2.2570 C.3   1 <1>   0.0400 
 17 C        2.4290     3.7620    -0.0500 C.ar  1 <1>  -0.1500 
 18 C        0.8730     4.8670    -1.6930 C.3   1 <1>  -0.0970 
 19 C       -6.2980    -0.5800    -0.3090 C.3   1 <1>   0.0490 
 20 C       -6.9970    -0.1870     0.9490 C.3   1 <1>  -0.2000 
 21 C       -7.1510    -1.5750     0.4030 C.3   1 <1>  -0.2000 
 22 H       -2.3700    -1.5160    -0.3600 H     1 <1>   0.0800 
 23 H       -2.0410    -0.9600    -1.9660 H     1 <1>   0.0800 
 24 H       -1.7560     1.9840     0.9740 H     1 <1>   0.0800 
 25 H       -2.6420     0.5380     1.3990 H     1 <1>   0.0800 
 26 H       -3.2800     1.6540     0.2010 H     1 <1>   0.0800 
 27 H       -0.3590     2.4800    -1.4180 H     1 <1>   0.1500 
 28 H        3.7020     2.7690     1.3120 H     1 <1>   0.1500 
 29 H       -4.4900    -1.1570     0.6130 H     1 <1>   0.3700 
 30 H        3.6080    -0.5750     2.7250 H     1 <1>   0.0800 
 31 H        3.5040     1.1580     3.0090 H     1 <1>   0.0800 
 32 H        4.4120     0.5320     1.6190 H     1 <1>   0.0800 
 33 H        3.0300     4.6550    -0.0530 H     1 <1>   0.1500 
 34 H        0.3130     4.5290    -2.5460 H     1 <1>   0.0800 
 35 H        1.7400     5.3960    -2.0460 H     1 <1>   0.0800 
 36 H        0.2620     5.5430    -1.1220 H     1 <1>   0.0800 
 37 H       -6.6480    -0.1740    -1.2460 H     1 <1>   0.1000 
 38 H       -7.8390     0.4800     0.8830 H     1 <1>   0.1000 
 39 H       -6.4220    -0.0390     1.8460 H     1 <1>   0.1000 
 40 H       -6.6820    -2.3960     0.9160 H     1 <1>   0.1000 
 41 H       -8.0970    -1.8470    -0.0330 H     1 <1>   0.1000 
@<TRIPOS>BOND
  1   1   2  2   
  2   1   3  2   
  3   1   4  am  
  4   1   5  1   
  5   4   6  1   
  6   4   7  1   
  7   5   8  ar  
  8   5   9  ar  
  9   6  10  1   
 10   6  22  1   
 11   6  23  1   
 12   7  24  1   
 13   7  25  1   
 14   7  26  1   
 15   8  11  1   
 16   8  12  ar  
 17   9  13  ar  
 18   9  27  1   
 19  10  14  2   
 20  10  15  am  
 21  11  16  1   
 22  12  17  ar  
 23  12  28  1   
 24  13  17  ar  
 25  13  18  1   
 26  15  19  1   
 27  15  29  1   
 28  16  30  1   
 29  16  31  1   
 30  16  32  1   
 31  17  33  1   
 32  18  34  1   
 33  18  35  1   
 34  18  36  1   
 35  19  20  1   
 36  19  21  1   
 37  19  37  1   
 38  20  21  1   
 39  20  38  1   
 40  20  39  1   
 41  21  40  1   
 42  21  41  1   
@<TRIPOS>SUBSTRUCTURE
  1 ****   4 GROUP 4 **** **** 0

# MOE 2024.06 (io_trps.svl 2023.06)
