@<TRIPOS>MOLECULE
NONAME
57 59 1 0 0 
SMALL
USER_CHARGES


@<TRIPOS>ATOM
  1 O        0.3640     0.2350    -0.7320 O.2   1 <1>  -0.5700 
  2 C        0.2050     1.4020    -1.0360 C.2   1 <1>   0.5440 
  3 N        1.2850     2.1330    -1.4930 N.am  1 <1>  -0.6600 
  4 C       -1.1090     1.9920    -0.8850 C.ar  1 <1>   0.0860 
  5 C        1.2880     3.6190    -1.5960 C.3   1 <1>   0.1400 
  6 C        2.6190     1.5040    -1.6970 C.3   1 <1>   0.1400 
  7 C       -1.7020     2.0850     0.3710 C.ar  1 <1>  -0.1500 
  8 C       -1.8160     2.4860    -1.9760 C.ar  1 <1>  -0.1500 
  9 C        2.2620     4.1950    -0.5660 C.3   1 <1>  -0.1600 
 10 C        3.6050     2.0570    -0.6640 C.3   1 <1>  -0.1600 
 11 C       -2.9530     2.6660     0.5590 C.ar  1 <1>   0.0820 
 12 C       -3.0590     3.0650    -1.8120 C.ar  1 <1>  -0.1500 
 13 C        3.6770     3.5950    -0.7110 C.3   1 <1>  -0.0190 
 14 O       -3.5000     2.7540     1.8070 O.3   1 <1>  -0.3630 
 15 C       -3.6450     3.1690    -0.5610 C.ar  1 <1>   0.0820 
 16 C        4.6560     4.1280     0.3370 C.2   1 <1>   0.5690 
 17 C       -2.8890     2.1820     2.9440 C.3   1 <1>   0.0400 
 18 O       -4.8680     3.7670    -0.5710 O.3   1 <1>  -0.3620 
 19 O        4.2400     4.4830     1.4130 O.2   1 <1>  -0.5700 
 20 N        5.9800     4.1550    -0.0070 N.am  1 <1>  -0.5470 
 21 C       -5.6950     3.8920     0.5630 C.3   1 <1>   0.0400 
 22 C        7.1130     4.5870     0.7060 C.ar  1 <1>   0.1170 
 23 C        8.3650     4.0180     0.4420 C.ar  1 <1>  -0.1440 
 24 C        7.0140     5.5980     1.6570 C.ar  1 <1>  -0.1500 
 25 C        9.4770     4.4830     1.1360 C.ar  1 <1>  -0.1500 
 26 C        8.4800     2.8950    -0.5990 C.3   1 <1>  -0.0170 
 27 C        8.1260     6.0470     2.3420 C.ar  1 <1>  -0.1500 
 28 C        9.3610     5.4890     2.0790 C.ar  1 <1>  -0.1500 
 29 C        9.8520     2.2190    -0.7120 C.3   1 <1>  -0.2400 
 30 H        0.3080     4.0260    -1.4190 H     1 <1>   0.0800 
 31 H        1.5920     3.9010    -2.5900 H     1 <1>   0.0800 
 32 H        2.9610     1.7260    -2.6930 H     1 <1>   0.0800 
 33 H        2.5570     0.4330    -1.6020 H     1 <1>   0.0800 
 34 H       -1.1410     1.6830     1.1920 H     1 <1>   0.1500 
 35 H       -1.3830     2.4110    -2.9580 H     1 <1>   0.1500 
 36 H        1.8780     3.9880     0.4190 H     1 <1>   0.0800 
 37 H        2.3090     5.2640    -0.6760 H     1 <1>   0.0800 
 38 H        4.5770     1.6350    -0.8440 H     1 <1>   0.0800 
 39 H        3.2890     1.7400     0.3160 H     1 <1>   0.0800 
 40 H       -3.5940     3.4440    -2.6650 H     1 <1>   0.1500 
 41 H        4.0480     3.8840    -1.6780 H     1 <1>   0.0800 
 42 H       -3.5310     2.3510     3.7890 H     1 <1>   0.0800 
 43 H       -1.9390     2.6590     3.1080 H     1 <1>   0.0800 
 44 H       -2.7690     1.1250     2.7830 H     1 <1>   0.0800 
 45 H        6.2000     3.7410    -0.9080 H     1 <1>   0.3700 
 46 H       -6.6180     4.3490     0.2560 H     1 <1>   0.0800 
 47 H       -5.2020     4.5160     1.2870 H     1 <1>   0.0800 
 48 H       -5.8860     2.9130     0.9640 H     1 <1>   0.0800 
 49 H        6.0610     6.0460     1.8670 H     1 <1>   0.1500 
 50 H       10.4560     4.0770     0.9630 H     1 <1>   0.1500 
 51 H        8.2230     3.2950    -1.5640 H     1 <1>   0.0800 
 52 H        7.7610     2.1320    -0.3540 H     1 <1>   0.0800 
 53 H        8.0290     6.8280     3.0750 H     1 <1>   0.1500 
 54 H       10.2310     5.8350     2.6090 H     1 <1>   0.1500 
 55 H       10.5960     2.9250    -1.0350 H     1 <1>   0.0800 
 56 H        9.8080     1.4220    -1.4330 H     1 <1>   0.0800 
 57 H       10.1430     1.8020     0.2360 H     1 <1>   0.0800 
@<TRIPOS>BOND
  1   1   2  2   
  2   2   3  am  
  3   2   4  1   
  4   3   5  1   
  5   3   6  1   
  6   4   7  ar  
  7   4   8  ar  
  8   5   9  1   
  9   5  30  1   
 10   5  31  1   
 11   6  10  1   
 12   6  32  1   
 13   6  33  1   
 14   7  11  ar  
 15   7  34  1   
 16   8  12  ar  
 17   8  35  1   
 18   9  13  1   
 19   9  36  1   
 20   9  37  1   
 21  10  13  1   
 22  10  38  1   
 23  10  39  1   
 24  11  14  1   
 25  11  15  ar  
 26  12  15  ar  
 27  12  40  1   
 28  13  16  1   
 29  13  41  1   
 30  14  17  1   
 31  15  18  1   
 32  16  19  2   
 33  16  20  am  
 34  17  42  1   
 35  17  43  1   
 36  17  44  1   
 37  18  21  1   
 38  20  22  1   
 39  20  45  1   
 40  21  46  1   
 41  21  47  1   
 42  21  48  1   
 43  22  23  ar  
 44  22  24  ar  
 45  23  25  ar  
 46  23  26  1   
 47  24  27  ar  
 48  24  49  1   
 49  25  28  ar  
 50  25  50  1   
 51  26  29  1   
 52  26  51  1   
 53  26  52  1   
 54  27  28  ar  
 55  27  53  1   
 56  28  54  1   
 57  29  55  1   
 58  29  56  1   
 59  29  57  1   
@<TRIPOS>SUBSTRUCTURE
  1 ****   9 GROUP 4 **** **** 0

# MOE 2024.06 (io_trps.svl 2023.06)
