@<TRIPOS>MOLECULE
NONAME
48 50 1 0 0 
SMALL
USER_CHARGES


@<TRIPOS>ATOM
  1 O       -0.7080     1.2960     3.6030 O.2   1 <1>  -0.5700 
  2 C       -0.0480     1.3820     2.5950 C.2   1 <1>   0.5690 
  3 N       -0.5310     1.2170     1.3280 N.am  1 <1>  -0.5470 
  4 C        1.4450     1.6970     2.7090 C.3   1 <1>   0.1710 
  5 C       -1.7980     0.9160     0.8060 C.ar  1 <1>   0.1170 
  6 N        2.2410     1.2770     1.5160 N.3   1 <1>  -0.8100 
  7 C       -1.9070     0.6560    -0.5540 C.ar  1 <1>  -0.1500 
  8 C       -2.9510     0.8690     1.5780 C.ar  1 <1>  -0.1500 
  9 C        3.5650     1.9410     1.5030 C.3   1 <1>   0.1100 
 10 C        2.4320    -0.1970     1.4960 C.3   1 <1>   0.1100 
 11 C       -3.1260     0.3530    -1.1410 C.ar  1 <1>  -0.1430 
 12 C       -4.1720     0.5670     1.0040 C.ar  1 <1>  -0.1500 
 13 C        4.4180     1.5180     0.2910 C.3   1 <1>   0.2090 
 14 C        3.2640    -0.6620     0.2860 C.3   1 <1>   0.2090 
 15 C       -4.2710     0.3060    -0.3540 C.ar  1 <1>  -0.1430 
 16 C       -3.1800     0.0770    -2.6370 C.3   1 <1>  -0.0970 
 17 N        4.5820     0.0390     0.2410 N.pl3 1 <1>  -0.8380 
 18 C       -5.6340    -0.0240    -0.9460 C.3   1 <1>  -0.0970 
 19 C        5.5380    -0.4400    -0.6330 C.ar  1 <1>   0.4100 
 20 N        5.1150    -0.9650    -1.7780 N.ar  1 <1>  -0.6200 
 21 C        6.8830    -0.3440    -0.2880 C.ar  1 <1>  -0.1500 
 22 C        6.0590    -1.4000    -2.5960 C.ar  1 <1>   0.1600 
 23 C        7.8540    -0.7990    -1.1490 C.ar  1 <1>  -0.1500 
 24 C        7.4170    -1.3430    -2.3390 C.ar  1 <1>  -0.1500 
 25 H        0.2300     1.2790     0.6450 H     1 <1>   0.3700 
 26 H        1.8340     1.2290     3.5960 H     1 <1>   0.0800 
 27 H        1.5290     2.7620     2.8350 H     1 <1>   0.0800 
 28 H       -1.0210     0.6920    -1.1590 H     1 <1>   0.1500 
 29 H       -2.9060     1.0680     2.6320 H     1 <1>   0.1500 
 30 H        4.1040     1.7000     2.4030 H     1 <1>   0.0800 
 31 H        3.4280     3.0080     1.4700 H     1 <1>   0.0800 
 32 H        1.4750    -0.6900     1.4620 H     1 <1>   0.0800 
 33 H        2.9340    -0.5140     2.3940 H     1 <1>   0.0800 
 34 H       -5.0470     0.5360     1.6280 H     1 <1>   0.1500 
 35 H        5.3840     1.9870     0.3520 H     1 <1>   0.0800 
 36 H        3.9410     1.8520    -0.6150 H     1 <1>   0.0800 
 37 H        2.7200    -0.4620    -0.6210 H     1 <1>   0.0800 
 38 H        3.4300    -1.7240     0.3480 H     1 <1>   0.0800 
 39 H       -2.2090     0.1870    -3.0860 H     1 <1>   0.0800 
 40 H       -3.8520     0.7660    -3.1150 H     1 <1>   0.0800 
 41 H       -3.5210    -0.9280    -2.8130 H     1 <1>   0.0800 
 42 H       -5.6100    -0.9940    -1.4090 H     1 <1>   0.0800 
 43 H       -5.9030     0.7120    -1.6820 H     1 <1>   0.0800 
 44 H       -6.3930    -0.0330    -0.1850 H     1 <1>   0.0800 
 45 H        7.1420     0.0860     0.6600 H     1 <1>   0.1500 
 46 H        5.7300    -1.8270    -3.5270 H     1 <1>   0.1500 
 47 H        8.9010    -0.7370    -0.9070 H     1 <1>   0.1500 
 48 H        8.1210    -1.7190    -3.0590 H     1 <1>   0.1500 
@<TRIPOS>BOND
  1   1   2  2   
  2   2   3  am  
  3   2   4  1   
  4   3   5  1   
  5   3  25  1   
  6   4   6  1   
  7   4  26  1   
  8   4  27  1   
  9   5   7  ar  
 10   5   8  ar  
 11   6   9  1   
 12   6  10  1   
 13   7  11  ar  
 14   7  28  1   
 15   8  12  ar  
 16   8  29  1   
 17   9  13  1   
 18   9  30  1   
 19   9  31  1   
 20  10  14  1   
 21  10  32  1   
 22  10  33  1   
 23  11  15  ar  
 24  11  16  1   
 25  12  15  ar  
 26  12  34  1   
 27  13  17  1   
 28  13  35  1   
 29  13  36  1   
 30  14  17  1   
 31  14  37  1   
 32  14  38  1   
 33  15  18  1   
 34  16  39  1   
 35  16  40  1   
 36  16  41  1   
 37  17  19  1   
 38  18  42  1   
 39  18  43  1   
 40  18  44  1   
 41  19  20  ar  
 42  19  21  ar  
 43  20  22  ar  
 44  21  23  ar  
 45  21  45  1   
 46  22  24  ar  
 47  22  46  1   
 48  23  24  ar  
 49  23  47  1   
 50  24  48  1   
@<TRIPOS>SUBSTRUCTURE
  1 ****  10 GROUP 4 **** **** 0

# MOE 2024.06 (io_trps.svl 2023.06)
