@<TRIPOS>MOLECULE
NONAME
51 55 1 0 0 
SMALL
USER_CHARGES


@<TRIPOS>ATOM
  1 S       -0.1760    -0.0150     0.3050 S.3   1 <1>  -0.0800 
  2 C        0.9350    -1.3370     0.4250 C.2   1 <1>   0.4420 
  3 C       -1.4460    -1.1830     0.1180 C.2   1 <1>   0.1980 
  4 N        0.3470    -2.4720     0.3340 N.2   1 <1>  -0.3380 
  5 N        2.2600    -1.0180     0.6050 N.am  1 <1>  -0.4940 
  6 N       -1.0040    -2.3770     0.1560 N.2   1 <1>  -0.3380 
  7 C       -2.8870    -0.6850    -0.0640 C.3   1 <1>   0.1800 
  8 C        3.3700    -1.7910     0.6900 C.2   1 <1>   0.6900 
  9 C       -3.3350     0.1470     1.1610 C.3   1 <1>  -0.1600 
 10 C       -3.8590    -1.8810    -0.2150 C.3   1 <1>  -0.1600 
 11 C       -3.0040     0.1940    -1.3320 C.3   1 <1>  -0.1600 
 12 O        4.4090    -1.2610     1.0100 O.2   1 <1>  -0.5700 
 13 N        3.3950    -3.1140     0.4310 N.am  1 <1>  -0.5470 
 14 C       -4.7820     0.6460     0.9840 C.3   1 <1>  -0.0800 
 15 C       -5.3090    -1.3970    -0.3990 C.3   1 <1>  -0.0800 
 16 C       -4.4500     0.6930    -1.5200 C.3   1 <1>  -0.0800 
 17 C        3.3070    -4.4740     0.1290 C.ar  1 <1>   0.1170 
 18 C       -5.7200    -0.5650     0.8290 C.3   1 <1>  -0.1600 
 19 C       -4.8640     1.5160    -0.2850 C.3   1 <1>  -0.1600 
 20 C       -5.3900    -0.5180    -1.6600 C.3   1 <1>  -0.1600 
 21 C        4.2360    -5.3670     0.6490 C.ar  1 <1>  -0.1500 
 22 C        2.3040    -4.9570    -0.6990 C.ar  1 <1>  -0.1500 
 23 C        4.1680    -6.7150     0.3470 C.ar  1 <1>  -0.1500 
 24 C        2.2300    -6.3040    -1.0030 C.ar  1 <1>  -0.1500 
 25 C        3.1590    -7.1920    -0.4860 C.ar  1 <1>   0.0830 
 26 O        3.0160    -8.4990    -0.8340 O.3   1 <1>  -0.3630 
 27 C        3.8810    -9.4850    -0.3180 C.3   1 <1>   0.0400 
 28 H        2.4710    -0.0370     0.7510 H     1 <1>   0.3700 
 29 H       -2.6860     0.9950     1.2920 H     1 <1>   0.0800 
 30 H       -3.2660    -0.4560     2.0500 H     1 <1>   0.0800 
 31 H       -3.7970    -2.5100     0.6560 H     1 <1>   0.0800 
 32 H       -3.5690    -2.4780    -1.0630 H     1 <1>   0.0800 
 33 H       -2.7030    -0.3760    -2.1940 H     1 <1>   0.0800 
 34 H       -2.3490     1.0430    -1.2580 H     1 <1>   0.0800 
 35 H        4.3790    -3.1550     0.6950 H     1 <1>   0.3700 
 36 H       -5.0760     1.2260     1.8430 H     1 <1>   0.0800 
 37 H       -5.9660    -2.2440    -0.5020 H     1 <1>   0.0800 
 38 H       -4.5130     1.3060    -2.4030 H     1 <1>   0.0800 
 39 H       -6.7350    -0.2260     0.7160 H     1 <1>   0.0800 
 40 H       -5.6780    -1.1750     1.7150 H     1 <1>   0.0800 
 41 H       -4.2220     2.3730    -0.1830 H     1 <1>   0.0800 
 42 H       -5.8700     1.8770    -0.4110 H     1 <1>   0.0800 
 43 H       -6.4010    -0.1790    -1.8020 H     1 <1>   0.0800 
 44 H       -5.1160    -1.0950    -2.5260 H     1 <1>   0.0800 
 45 H        5.0170    -5.0120     1.2980 H     1 <1>   0.1500 
 46 H        1.5780    -4.2770    -1.1070 H     1 <1>   0.1500 
 47 H        4.9020    -7.3760     0.7660 H     1 <1>   0.1500 
 48 H        1.4500    -6.6740    -1.6430 H     1 <1>   0.1500 
 49 H        3.5720   -10.4380    -0.7100 H     1 <1>   0.0800 
 50 H        3.8040    -9.4890     0.7550 H     1 <1>   0.0800 
 51 H        4.8860    -9.2690    -0.6330 H     1 <1>   0.0800 
@<TRIPOS>BOND
  1   1   2  1   
  2   1   3  1   
  3   2   4  2   
  4   2   5  1   
  5   3   6  2   
  6   3   7  1   
  7   4   6  1   
  8   5   8  am  
  9   5  28  1   
 10   7   9  1   
 11   7  10  1   
 12   7  11  1   
 13   8  12  2   
 14   8  13  am  
 15   9  14  1   
 16   9  29  1   
 17   9  30  1   
 18  10  15  1   
 19  10  31  1   
 20  10  32  1   
 21  11  16  1   
 22  11  33  1   
 23  11  34  1   
 24  13  17  1   
 25  13  35  1   
 26  14  18  1   
 27  14  19  1   
 28  14  36  1   
 29  15  18  1   
 30  15  20  1   
 31  15  37  1   
 32  16  19  1   
 33  16  20  1   
 34  16  38  1   
 35  17  21  ar  
 36  17  22  ar  
 37  18  39  1   
 38  18  40  1   
 39  19  41  1   
 40  19  42  1   
 41  20  43  1   
 42  20  44  1   
 43  21  23  ar  
 44  21  45  1   
 45  22  24  ar  
 46  22  46  1   
 47  23  25  ar  
 48  23  47  1   
 49  24  25  ar  
 50  24  48  1   
 51  25  26  1   
 52  26  27  1   
 53  27  49  1   
 54  27  50  1   
 55  27  51  1   
@<TRIPOS>SUBSTRUCTURE
  1 ****   4 GROUP 4 **** **** 0

# MOE 2024.06 (io_trps.svl 2023.06)
