@<TRIPOS>MOLECULE
NONAME
50 52 1 0 0 
SMALL
USER_CHARGES


@<TRIPOS>ATOM
  1 S        1.0560     0.7110    -1.9840 S.o2  1 <1>   1.4470 
  2 O        0.9420     2.0310    -2.5510 O.2   1 <1>  -0.6500 
  3 O        2.0410    -0.2330    -2.4540 O.2   1 <1>  -0.6500 
  4 N        1.4030     1.0110    -0.3300 N.am  1 <1>  -0.7570 
  5 C       -0.5790    -0.0670    -1.8820 C.ar  1 <1>  -0.0090 
  6 C        1.3380     0.0470     0.6700 C.ar  1 <1>   0.1990 
  7 C       -1.5940     0.5020    -1.1300 C.ar  1 <1>  -0.1500 
  8 C       -0.8590    -1.2560    -2.5400 C.ar  1 <1>  -0.1500 
  9 C        1.9600    -1.2010     0.5700 C.ar  1 <1>   0.1600 
 10 C        0.6100     0.3100     1.8180 C.ar  1 <1>  -0.1500 
 11 C       -2.8580    -0.0710    -0.9760 C.ar  1 <1>   0.0860 
 12 C       -2.1010    -1.8510    -2.4350 C.ar  1 <1>  -0.1500 
 13 N        1.8990    -2.1660     1.4760 N.ar  1 <1>  -0.6200 
 14 C        0.5390    -0.6800     2.7730 C.ar  1 <1>  -0.1500 
 15 C       -3.1040    -1.2750    -1.6580 C.ar  1 <1>   0.0830 
 16 C       -3.8200     0.6050    -0.1160 C.2   1 <1>   0.5440 
 17 C        1.1890    -1.8830     2.5570 C.ar  1 <1>   0.1600 
 18 O       -4.3210    -1.8650    -1.5410 O.3   1 <1>  -0.3620 
 19 O       -3.4320     1.3870     0.7330 O.2   1 <1>  -0.5700 
 20 N       -5.1620     0.4010    -0.2380 N.am  1 <1>  -0.7300 
 21 C       -4.6240    -3.1330    -2.0840 C.3   1 <1>   0.0400 
 22 C       -6.2230     1.0000     0.5850 C.3   1 <1>   0.2200 
 23 C       -6.8560    -0.0950     1.4480 C.3   1 <1>  -0.1600 
 24 C       -7.2580     1.6490    -0.3390 C.3   1 <1>  -0.1600 
 25 C       -8.0470     0.4490     2.2510 C.3   1 <1>  -0.1600 
 26 C       -8.4500     2.1970     0.4600 C.3   1 <1>  -0.1600 
 27 C       -9.0850     1.1030     1.3290 C.3   1 <1>  -0.1600 
 28 H        1.1400     1.9640    -0.1000 H     1 <1>   0.4200 
 29 H       -1.3970     1.4340    -0.6290 H     1 <1>   0.1500 
 30 H       -0.0920    -1.7230    -3.1380 H     1 <1>   0.1500 
 31 H        2.5450    -1.4060    -0.3100 H     1 <1>   0.1500 
 32 H        0.1070     1.2500     1.9580 H     1 <1>   0.1500 
 33 H       -2.2630    -2.7690    -2.9680 H     1 <1>   0.1500 
 34 H       -0.0200    -0.5260     3.6790 H     1 <1>   0.1500 
 35 H        1.1240    -2.6510     3.3110 H     1 <1>   0.1500 
 36 H       -5.4580    -0.3580    -0.8570 H     1 <1>   0.3700 
 37 H       -5.6290    -3.3880    -1.8000 H     1 <1>   0.0800 
 38 H       -3.9380    -3.8590    -1.6830 H     1 <1>   0.0800 
 39 H       -4.5510    -3.0830    -3.1560 H     1 <1>   0.0800 
 40 H       -5.8020     1.7570     1.2280 H     1 <1>   0.0800 
 41 H       -6.1170    -0.4820     2.1270 H     1 <1>   0.0800 
 42 H       -7.1960    -0.8980     0.8180 H     1 <1>   0.0800 
 43 H       -7.6150     0.9210    -1.0460 H     1 <1>   0.0800 
 44 H       -6.7930     2.4530    -0.8810 H     1 <1>   0.0800 
 45 H       -7.6930     1.1770     2.9610 H     1 <1>   0.0800 
 46 H       -8.5070    -0.3530     2.8030 H     1 <1>   0.0800 
 47 H       -9.1860     2.5950    -0.2170 H     1 <1>   0.0800 
 48 H       -8.1130     3.0020     1.0910 H     1 <1>   0.0800 
 49 H       -9.8770     1.5290     1.9220 H     1 <1>   0.0800 
 50 H       -9.5200     0.3510     0.6920 H     1 <1>   0.0800 
@<TRIPOS>BOND
  1   1   2  2   
  2   1   3  2   
  3   1   4  am  
  4   1   5  1   
  5   4   6  1   
  6   4  28  1   
  7   5   7  ar  
  8   5   8  ar  
  9   6   9  ar  
 10   6  10  ar  
 11   7  11  ar  
 12   7  29  1   
 13   8  12  ar  
 14   8  30  1   
 15   9  13  ar  
 16   9  31  1   
 17  10  14  ar  
 18  10  32  1   
 19  11  15  ar  
 20  11  16  1   
 21  12  15  ar  
 22  12  33  1   
 23  13  17  ar  
 24  14  17  ar  
 25  14  34  1   
 26  15  18  1   
 27  16  19  2   
 28  16  20  am  
 29  17  35  1   
 30  18  21  1   
 31  20  22  1   
 32  20  36  1   
 33  21  37  1   
 34  21  38  1   
 35  21  39  1   
 36  22  23  1   
 37  22  24  1   
 38  22  40  1   
 39  23  25  1   
 40  23  41  1   
 41  23  42  1   
 42  24  26  1   
 43  24  43  1   
 44  24  44  1   
 45  25  27  1   
 46  25  45  1   
 47  25  46  1   
 48  26  27  1   
 49  26  47  1   
 50  26  48  1   
 51  27  49  1   
 52  27  50  1   
@<TRIPOS>SUBSTRUCTURE
  1 ****  11 GROUP 4 **** **** 0

# MOE 2024.06 (io_trps.svl 2023.06)
