@<TRIPOS>MOLECULE
NONAME
46 47 1 0 0 
SMALL
USER_CHARGES


@<TRIPOS>ATOM
  1 O        1.4850    -0.3630    -1.9210 O.2   1 <1>  -0.5700 
  2 C        1.4760    -1.1230    -0.9860 C.2   1 <1>   0.6590 
  3 O        0.5190    -2.0310    -0.8300 O.3   1 <1>  -0.4300 
  4 C        2.5510    -1.1100     0.1000 C.3   1 <1>  -0.0190 
  5 C       -0.5380    -2.1600    -1.7580 C.3   1 <1>   0.0400 
  6 C        3.4350     0.1550     0.0530 C.3   1 <1>  -0.1600 
  7 C        3.4320    -2.3730     0.0240 C.3   1 <1>  -0.1600 
  8 C        4.5250     0.1240     1.1270 C.3   1 <1>   0.1400 
  9 C        4.5260    -2.3700     1.0950 C.3   1 <1>   0.1400 
 10 N        5.3290    -1.1210     0.9750 N.am  1 <1>  -0.6600 
 11 C        6.6750    -1.1680     0.7080 C.2   1 <1>   0.5690 
 12 O        7.2690    -2.2190     0.6250 O.2   1 <1>  -0.5700 
 13 C        7.4610     0.1170     0.5050 C.3   1 <1>  -0.0990 
 14 C        8.9220    -0.1410     0.1380 C.3   1 <1>   0.1200 
 15 O        9.5600     1.1040    -0.0380 O.3   1 <1>  -0.3630 
 16 C       10.8740     1.1710    -0.3760 C.ar  1 <1>   0.0820 
 17 C       11.4140     2.4370    -0.5330 C.ar  1 <1>  -0.1500 
 18 C       11.6840     0.0540    -0.5680 C.ar  1 <1>  -0.1500 
 19 C       12.7450     2.5930    -0.8760 C.ar  1 <1>  -0.1500 
 20 C       13.0160     0.2100    -0.9120 C.ar  1 <1>  -0.1500 
 21 C       13.5540     1.4850    -1.0680 C.ar  1 <1>   0.0820 
 22 O       14.8490     1.7250    -1.4040 O.3   1 <1>  -0.3620 
 23 C       15.7520     0.6650    -1.6200 C.3   1 <1>   0.0400 
 24 H        2.0370    -1.1180     1.0440 H     1 <1>   0.0800 
 25 H       -1.1860    -2.9530    -1.4300 H     1 <1>   0.0800 
 26 H       -0.1250    -2.3920    -2.7250 H     1 <1>   0.0800 
 27 H       -1.0790    -1.2300    -1.8010 H     1 <1>   0.0800 
 28 H        2.8220     1.0280     0.1930 H     1 <1>   0.0800 
 29 H        3.9030     0.2370    -0.9130 H     1 <1>   0.0800 
 30 H        3.8970    -2.4360    -0.9450 H     1 <1>   0.0800 
 31 H        2.8220    -3.2510     0.1510 H     1 <1>   0.0800 
 32 H        4.0740     0.1300     2.1050 H     1 <1>   0.0800 
 33 H        5.1360     1.0040     1.0430 H     1 <1>   0.0800 
 34 H        5.1490    -3.2400     0.9740 H     1 <1>   0.0800 
 35 H        4.0860    -2.4120     2.0760 H     1 <1>   0.0800 
 36 H        7.4280     0.6850     1.4150 H     1 <1>   0.0800 
 37 H        7.0020     0.6770    -0.2880 H     1 <1>   0.0800 
 38 H        8.9870    -0.6940    -0.7840 H     1 <1>   0.0800 
 39 H        9.4220    -0.6750     0.9270 H     1 <1>   0.0800 
 40 H       10.7870     3.2970    -0.3840 H     1 <1>   0.1500 
 41 H       11.2970    -0.9420    -0.4540 H     1 <1>   0.1500 
 42 H       13.1650     3.5750    -0.9980 H     1 <1>   0.1500 
 43 H       13.6150    -0.6690    -1.0530 H     1 <1>   0.1500 
 44 H       16.7080     1.0870    -1.8710 H     1 <1>   0.0800 
 45 H       15.3940     0.0610    -2.4350 H     1 <1>   0.0800 
 46 H       15.8340     0.0860    -0.7170 H     1 <1>   0.0800 
@<TRIPOS>BOND
  1   1   2  2   
  2   2   3  1   
  3   2   4  1   
  4   3   5  1   
  5   4   6  1   
  6   4   7  1   
  7   4  24  1   
  8   5  25  1   
  9   5  26  1   
 10   5  27  1   
 11   6   8  1   
 12   6  28  1   
 13   6  29  1   
 14   7   9  1   
 15   7  30  1   
 16   7  31  1   
 17   8  10  1   
 18   8  32  1   
 19   8  33  1   
 20   9  10  1   
 21   9  34  1   
 22   9  35  1   
 23  10  11  am  
 24  11  12  2   
 25  11  13  1   
 26  13  14  1   
 27  13  36  1   
 28  13  37  1   
 29  14  15  1   
 30  14  38  1   
 31  14  39  1   
 32  15  16  1   
 33  16  17  ar  
 34  16  18  ar  
 35  17  19  ar  
 36  17  40  1   
 37  18  20  ar  
 38  18  41  1   
 39  19  21  ar  
 40  19  42  1   
 41  20  21  ar  
 42  20  43  1   
 43  21  22  1   
 44  22  23  1   
 45  23  44  1   
 46  23  45  1   
 47  23  46  1   
@<TRIPOS>SUBSTRUCTURE
  1 ****  13 GROUP 4 **** **** 0

# MOE 2024.06 (io_trps.svl 2023.06)
