@<TRIPOS>MOLECULE
NONAME
36 37 1 0 0 
SMALL
USER_CHARGES


@<TRIPOS>ATOM
  1 O       -0.2770    -0.2840     0.1540 O.2   1 <1>  -0.5700 
  2 C       -0.3480    -1.5050     0.1350 C.2   1 <1>   0.5650 
  3 N       -1.5800    -2.1930     0.0560 N.pl3 1 <1>   0.5610 
  4 C        0.8340    -2.3030     0.1950 C.2   1 <1>  -0.1360 
  5 N       -2.8710    -1.7790    -0.0150 N.2   1 <1>  -0.7070 
  6 C       -1.6010    -3.5460     0.0390 C.2   1 <1>   0.2700 
  7 C        0.8040    -3.6670     0.1780 C.2   1 <1>  -0.0380 
  8 C       -3.5160    -2.8890    -0.0650 C.2   1 <1>   0.5790 
  9 N       -2.7900    -4.0170    -0.0360 N.2   1 <1>  -0.5650 
 10 N       -0.4310    -4.2830     0.0990 N.pl3 1 <1>  -0.5840 
 11 C        2.0380    -4.5900     0.2390 C.3   1 <1>   0.1380 
 12 N       -4.8910    -2.8760    -0.1450 N.am  1 <1>  -0.4930 
 13 C        2.0880    -5.4650    -1.0230 C.3   1 <1>  -0.2400 
 14 C        3.3550    -3.8030     0.3250 C.3   1 <1>  -0.2400 
 15 C        1.9420    -5.4940     1.4780 C.3   1 <1>  -0.2400 
 16 C       -5.8410    -3.8380    -0.2120 C.2   1 <1>   0.5690 
 17 O       -6.9970    -3.5000    -0.2750 O.2   1 <1>  -0.5700 
 18 C       -5.4900    -5.3250    -0.2090 C.3   1 <1>  -0.0990 
 19 C       -6.6980    -6.2760    -0.2900 C.3   1 <1>  -0.2400 
 20 H        1.7460    -1.7420     0.2550 H     1 <1>   0.1500 
 21 H       -0.5210    -5.3050     0.0820 H     1 <1>   0.4000 
 22 H       -5.2640    -1.9320    -0.1560 H     1 <1>   0.3700 
 23 H        2.1300    -4.8460    -1.9010 H     1 <1>   0.0800 
 24 H        1.2200    -6.0940    -1.0950 H     1 <1>   0.0800 
 25 H        2.9580    -6.0980    -1.0110 H     1 <1>   0.0800 
 26 H        3.3760    -3.1930     1.2100 H     1 <1>   0.0800 
 27 H        3.4780    -3.1730    -0.5370 H     1 <1>   0.0800 
 28 H        4.1940    -4.4760     0.3660 H     1 <1>   0.0800 
 29 H        1.8810    -4.8950     2.3690 H     1 <1>   0.0800 
 30 H        2.8080    -6.1280     1.5520 H     1 <1>   0.0800 
 31 H        1.0720    -6.1230     1.4340 H     1 <1>   0.0800 
 32 H       -4.9450    -5.5400     0.6920 H     1 <1>   0.0800 
 33 H       -4.8440    -5.5200    -1.0450 H     1 <1>   0.0800 
 34 H       -7.3540    -6.1160     0.5490 H     1 <1>   0.0800 
 35 H       -6.3690    -7.2990    -0.2830 H     1 <1>   0.0800 
 36 H       -7.2520    -6.0960    -1.1950 H     1 <1>   0.0800 
@<TRIPOS>BOND
  1   1   2  2   
  2   2   3  1   
  3   2   4  1   
  4   3   5  1   
  5   3   6  1   
  6   4   7  2   
  7   4  20  1   
  8   5   8  2   
  9   6   9  2   
 10   6  10  1   
 11   7  10  1   
 12   7  11  1   
 13   8   9  1   
 14   8  12  1   
 15  10  21  1   
 16  11  13  1   
 17  11  14  1   
 18  11  15  1   
 19  12  16  am  
 20  12  22  1   
 21  13  23  1   
 22  13  24  1   
 23  13  25  1   
 24  14  26  1   
 25  14  27  1   
 26  14  28  1   
 27  15  29  1   
 28  15  30  1   
 29  15  31  1   
 30  16  17  2   
 31  16  18  1   
 32  18  19  1   
 33  18  32  1   
 34  18  33  1   
 35  19  34  1   
 36  19  35  1   
 37  19  36  1   
@<TRIPOS>SUBSTRUCTURE
  1 ****   6 GROUP 4 **** **** 0

# MOE 2024.06 (io_trps.svl 2023.06)
