@<TRIPOS>MOLECULE
NONAME
45 48 1 0 0 
SMALL
USER_CHARGES


@<TRIPOS>ATOM
  1 O       -0.5070    -0.3010    -1.3170 O.2   1 <1>  -0.5700 
  2 C       -1.4360    -0.8190    -0.7170 C.2   1 <1>   0.5440 
  3 N       -2.5550    -0.0910    -0.3420 N.am  1 <1>  -0.4200 
  4 C       -1.3980    -2.2170    -0.4120 C.ar  1 <1>   0.0860 
  5 C       -3.7340    -0.7920    -0.0630 C.2   1 <1>   0.4240 
  6 C       -2.5550     1.4220    -0.3180 C.3   1 <1>   0.3000 
  7 C       -2.5850    -2.8000     0.0320 C.ar  1 <1>   0.1790 
  8 C       -0.2560    -3.0150    -0.5340 C.ar  1 <1>  -0.1500 
  9 N       -3.7400    -2.0700     0.1390 N.2   1 <1>  -0.6290 
 10 C       -4.9950    -0.0710    -0.0190 C.ar  1 <1>   0.0860 
 11 C       -3.6900     1.9440     0.5920 C.3   1 <1>  -0.0170 
 12 C       -2.7610     1.9340    -1.7510 C.3   1 <1>  -0.2400 
 13 C       -1.2510     2.0060     0.2640 C.3   1 <1>  -0.2400 
 14 C       -2.6040    -4.1540     0.3540 C.ar  1 <1>  -0.1500 
 15 C       -0.2880    -4.3560    -0.2120 C.ar  1 <1>  -0.1500 
 16 C       -5.0180     1.2870     0.2830 C.ar  1 <1>  -0.1440 
 17 C       -6.2170    -0.6910    -0.2840 C.ar  1 <1>  -0.1500 
 18 C       -1.4700    -4.9290     0.2360 C.ar  1 <1>  -0.1500 
 19 C       -6.2010     2.0030     0.3150 C.ar  1 <1>  -0.1500 
 20 C       -7.4170     0.0090    -0.2560 C.ar  1 <1>   0.0820 
 21 C       -7.4120     1.3740     0.0440 C.ar  1 <1>   0.0820 
 22 O       -8.6180    -0.5850    -0.5140 O.3   1 <1>  -0.3630 
 23 O       -8.6010     2.0350     0.0600 O.3   1 <1>  -0.3630 
 24 C       -8.7260    -1.9710    -0.7450 C.3   1 <1>   0.0400 
 25 C       -8.6990     3.4070     0.3680 C.3   1 <1>   0.0400 
 26 H        0.6580    -2.5660    -0.8840 H     1 <1>   0.1500 
 27 H       -3.7760     3.0110     0.4880 H     1 <1>   0.0800 
 28 H       -3.4460     1.7410     1.6200 H     1 <1>   0.0800 
 29 H       -3.6810     1.5600    -2.1630 H     1 <1>   0.0800 
 30 H       -1.9490     1.6210    -2.3830 H     1 <1>   0.0800 
 31 H       -2.7950     3.0080    -1.7650 H     1 <1>   0.0800 
 32 H       -1.3670     3.0560     0.4660 H     1 <1>   0.0800 
 33 H       -0.9930     1.5110     1.1830 H     1 <1>   0.0800 
 34 H       -0.4300     1.9200    -0.4230 H     1 <1>   0.0800 
 35 H       -3.5280    -4.5850     0.6970 H     1 <1>   0.1500 
 36 H        0.5980    -4.9600    -0.3080 H     1 <1>   0.1500 
 37 H       -6.2010    -1.7380    -0.5170 H     1 <1>   0.1500 
 38 H       -1.4980    -5.9750     0.4880 H     1 <1>   0.1500 
 39 H       -6.1700     3.0480     0.5540 H     1 <1>   0.1500 
 40 H       -9.7670    -2.2050    -0.8820 H     1 <1>   0.0800 
 41 H       -8.3430    -2.4990     0.1110 H     1 <1>   0.0800 
 42 H       -8.1750    -2.2220    -1.6340 H     1 <1>   0.0800 
 43 H       -9.7360     3.6850     0.3170 H     1 <1>   0.0800 
 44 H       -8.1340     3.9680    -0.3550 H     1 <1>   0.0800 
 45 H       -8.3260     3.5690     1.3640 H     1 <1>   0.0800 
@<TRIPOS>BOND
  1   1   2  2   
  2   2   3  am  
  3   2   4  1   
  4   3   5  1   
  5   3   6  1   
  6   4   7  ar  
  7   4   8  ar  
  8   5   9  2   
  9   5  10  1   
 10   6  11  1   
 11   6  12  1   
 12   6  13  1   
 13   7   9  1   
 14   7  14  ar  
 15   8  15  ar  
 16   8  26  1   
 17  10  16  ar  
 18  10  17  ar  
 19  11  16  1   
 20  11  27  1   
 21  11  28  1   
 22  12  29  1   
 23  12  30  1   
 24  12  31  1   
 25  13  32  1   
 26  13  33  1   
 27  13  34  1   
 28  14  18  ar  
 29  14  35  1   
 30  15  18  ar  
 31  15  36  1   
 32  16  19  ar  
 33  17  20  ar  
 34  17  37  1   
 35  18  38  1   
 36  19  21  ar  
 37  19  39  1   
 38  20  21  ar  
 39  20  22  1   
 40  21  23  1   
 41  22  24  1   
 42  23  25  1   
 43  24  40  1   
 44  24  41  1   
 45  24  42  1   
 46  25  43  1   
 47  25  44  1   
 48  25  45  1   
@<TRIPOS>SUBSTRUCTURE
  1 ****   5 GROUP 4 **** **** 0

# MOE 2024.06 (io_trps.svl 2023.06)
