@<TRIPOS>MOLECULE
NONAME
47 49 1 0 0 
SMALL
USER_CHARGES


@<TRIPOS>ATOM
  1 O        0.1320    -1.1510     3.1590 O.2   1 <1>  -0.5700 
  2 C       -0.3710    -1.3490     2.0790 C.2   1 <1>   0.5690 
  3 N        0.3340    -1.3720     0.9020 N.am  1 <1>  -0.5470 
  4 C       -1.8780    -1.6350     2.0030 C.3   1 <1>   0.1710 
  5 C        1.6880    -1.1540     0.5990 C.ar  1 <1>   0.1170 
  6 N       -2.7610    -0.5010     1.6020 N.3   1 <1>  -0.8100 
  7 C        2.0520    -0.8460    -0.7150 C.ar  1 <1>  -0.1430 
  8 C        2.6890    -1.2500     1.5600 C.ar  1 <1>  -0.1500 
  9 C       -4.1760    -0.9450     1.5520 C.3   1 <1>   0.1100 
 10 C       -2.3640     0.1520     0.3280 C.3   1 <1>   0.1100 
 11 C        3.3860    -0.6420    -1.0330 C.ar  1 <1>  -0.1500 
 12 C        1.0100    -0.7220    -1.8210 C.3   1 <1>  -0.0970 
 13 C        4.0160    -1.0430     1.2340 C.ar  1 <1>  -0.1500 
 14 C       -5.1470     0.1780     1.1390 C.3   1 <1>   0.2090 
 15 C       -3.3210     1.2890    -0.0740 C.3   1 <1>   0.2090 
 16 C        4.3730    -0.7390    -0.0680 C.ar  1 <1>  -0.1430 
 17 N       -4.7170     0.7740    -0.1590 N.pl3 1 <1>  -0.8380 
 18 C        5.8290    -0.5100    -0.4310 C.3   1 <1>  -0.0970 
 19 C       -5.2960     0.4000    -1.3520 C.ar  1 <1>   0.7200 
 20 N       -4.5230     0.4130    -2.4400 N.ar  1 <1>  -0.6200 
 21 N       -6.5800     0.0470    -1.3140 N.ar  1 <1>  -0.6200 
 22 C       -5.0970     0.0680    -3.5660 C.ar  1 <1>   0.1600 
 23 C       -7.1270    -0.2930    -2.4540 C.ar  1 <1>   0.1600 
 24 C       -6.4190    -0.2990    -3.6300 C.ar  1 <1>  -0.1500 
 25 H       -0.2440    -1.5000     0.0770 H     1 <1>   0.3700 
 26 H       -2.1830    -1.9690     2.9790 H     1 <1>   0.0800 
 27 H       -2.0260    -2.4550     1.3240 H     1 <1>   0.0800 
 28 H        2.4400    -1.4900     2.5770 H     1 <1>   0.1500 
 29 H       -4.4680    -1.3100     2.5210 H     1 <1>   0.0800 
 30 H       -4.2790    -1.7520     0.8460 H     1 <1>   0.0800 
 31 H       -2.3470    -0.5720    -0.4680 H     1 <1>   0.0800 
 32 H       -1.3820     0.5770     0.4330 H     1 <1>   0.0800 
 33 H        3.6660    -0.4020    -2.0430 H     1 <1>   0.1500 
 34 H        0.5030    -1.6600    -1.9600 H     1 <1>   0.0800 
 35 H        1.4690    -0.4480    -2.7530 H     1 <1>   0.0800 
 36 H        0.2930     0.0390    -1.5680 H     1 <1>   0.0800 
 37 H        4.7670    -1.1210     2.0000 H     1 <1>   0.1500 
 38 H       -5.1480     0.9430     1.8960 H     1 <1>   0.0800 
 39 H       -6.1450    -0.2170     1.0770 H     1 <1>   0.0800 
 40 H       -3.0090     1.7200    -1.0090 H     1 <1>   0.0800 
 41 H       -3.2760     2.0660     0.6690 H     1 <1>   0.0800 
 42 H        6.4740    -1.0510     0.2380 H     1 <1>   0.0800 
 43 H        6.0590     0.5380    -0.3640 H     1 <1>   0.0800 
 44 H        6.0230    -0.8460    -1.4340 H     1 <1>   0.0800 
 45 H       -4.5000     0.0780    -4.4620 H     1 <1>   0.1500 
 46 H       -8.1670    -0.5730    -2.4510 H     1 <1>   0.1500 
 47 H       -6.8780    -0.5780    -4.5590 H     1 <1>   0.1500 
@<TRIPOS>BOND
  1   1   2  2   
  2   2   3  am  
  3   2   4  1   
  4   3   5  1   
  5   3  25  1   
  6   4   6  1   
  7   4  26  1   
  8   4  27  1   
  9   5   7  ar  
 10   5   8  ar  
 11   6   9  1   
 12   6  10  1   
 13   7  11  ar  
 14   7  12  1   
 15   8  13  ar  
 16   8  28  1   
 17   9  14  1   
 18   9  29  1   
 19   9  30  1   
 20  10  15  1   
 21  10  31  1   
 22  10  32  1   
 23  11  16  ar  
 24  11  33  1   
 25  12  34  1   
 26  12  35  1   
 27  12  36  1   
 28  13  16  ar  
 29  13  37  1   
 30  14  17  1   
 31  14  38  1   
 32  14  39  1   
 33  15  17  1   
 34  15  40  1   
 35  15  41  1   
 36  16  18  1   
 37  17  19  1   
 38  18  42  1   
 39  18  43  1   
 40  18  44  1   
 41  19  20  ar  
 42  19  21  ar  
 43  20  22  ar  
 44  21  23  ar  
 45  22  24  ar  
 46  22  45  1   
 47  23  24  ar  
 48  23  46  1   
 49  24  47  1   
@<TRIPOS>SUBSTRUCTURE
  1 ****  10 GROUP 4 **** **** 0

# MOE 2024.06 (io_trps.svl 2023.06)
