@<TRIPOS>MOLECULE
NONAME
50 52 1 0 0 
SMALL
USER_CHARGES


@<TRIPOS>ATOM
  1 O       -0.8850    -1.2350     1.7130 O.2   1 <1>  -0.5700 
  2 C        0.1690    -1.2990     1.1030 C.2   1 <1>   0.5440 
  3 N        0.7470    -0.1270     0.6590 N.am  1 <1>  -0.6600 
  4 C        0.7660    -2.5940     0.8450 C.ar  1 <1>   0.0860 
  5 C        1.6940    -0.0590    -0.4890 C.3   1 <1>   0.1400 
  6 C        0.3090     1.2030     1.1660 C.3   1 <1>   0.1400 
  7 C        0.0260    -3.6300     0.2500 C.ar  1 <1>   0.1170 
  8 C        2.0990    -2.8340     1.1830 C.ar  1 <1>  -0.1500 
  9 C        2.9360     0.7420    -0.0860 C.3   1 <1>  -0.1600 
 10 C        1.5360     2.0250     1.5780 C.3   1 <1>  -0.1600 
 11 N       -1.3260    -3.4180    -0.0570 N.am  1 <1>  -0.5470 
 12 C        0.6500    -4.8490    -0.0050 C.ar  1 <1>  -0.1500 
 13 C        2.7020    -4.0480     0.9260 C.ar  1 <1>  -0.1500 
 14 C        2.5590     2.1350     0.4380 C.3   1 <1>  -0.1600 
 15 C       -2.1970    -4.0160    -0.9270 C.2   1 <1>   0.5690 
 16 C        1.9740    -5.0590     0.3250 C.ar  1 <1>  -0.1500 
 17 O       -1.8930    -4.9300    -1.6550 O.2   1 <1>  -0.5700 
 18 C       -3.6260    -3.4910    -0.9890 C.3   1 <1>   0.1810 
 19 O       -3.7660    -2.3110    -0.2120 O.3   1 <1>  -0.3620 
 20 C       -4.9560    -1.6770    -0.0880 C.ar  1 <1>   0.0820 
 21 C       -6.1160    -2.0640    -0.7540 C.ar  1 <1>  -0.1500 
 22 C       -4.9900    -0.5830     0.7590 C.ar  1 <1>  -0.1500 
 23 C       -7.2900    -1.3550    -0.5640 C.ar  1 <1>  -0.1500 
 24 C       -6.1650     0.1230     0.9460 C.ar  1 <1>  -0.1500 
 25 C       -7.3220    -0.2610     0.2860 C.ar  1 <1>  -0.1440 
 26 C       -8.6100     0.5160     0.4910 C.3   1 <1>  -0.0970 
 27 H        1.2020     0.4300    -1.3130 H     1 <1>   0.0800 
 28 H        1.9810    -1.0430    -0.8170 H     1 <1>   0.0800 
 29 H       -0.3450     1.0880     2.0140 H     1 <1>   0.0800 
 30 H       -0.2350     1.7130     0.3900 H     1 <1>   0.0800 
 31 H        2.6630    -2.0490     1.6560 H     1 <1>   0.1500 
 32 H        3.5870     0.8410    -0.9360 H     1 <1>   0.0800 
 33 H        3.4710     0.2000     0.6750 H     1 <1>   0.0800 
 34 H        1.9930     1.5550     2.4320 H     1 <1>   0.0800 
 35 H        1.2190     3.0080     1.8770 H     1 <1>   0.0800 
 36 H       -1.7420    -2.6200     0.4500 H     1 <1>   0.3700 
 37 H        0.0950    -5.6490    -0.4600 H     1 <1>   0.1500 
 38 H        3.7330    -4.2120     1.1910 H     1 <1>   0.1500 
 39 H        2.1360     2.7160    -0.3640 H     1 <1>   0.0800 
 40 H        3.4410     2.6440     0.7880 H     1 <1>   0.0800 
 41 H        2.4370    -6.0090     0.1190 H     1 <1>   0.1500 
 42 H       -4.2960    -4.2350    -0.6020 H     1 <1>   0.0800 
 43 H       -3.8760    -3.2590    -2.0080 H     1 <1>   0.0800 
 44 H       -6.1270    -2.9050    -1.4200 H     1 <1>   0.1500 
 45 H       -4.0900    -0.2890     1.2720 H     1 <1>   0.1500 
 46 H       -8.1820    -1.6580    -1.0840 H     1 <1>   0.1500 
 47 H       -6.1740     0.9710     1.6070 H     1 <1>   0.1500 
 48 H       -8.6600     1.3290    -0.2110 H     1 <1>   0.0800 
 49 H       -8.6530     0.9140     1.4880 H     1 <1>   0.0800 
 50 H       -9.4630    -0.1230     0.3440 H     1 <1>   0.0800 
@<TRIPOS>BOND
  1   1   2  2   
  2   2   3  am  
  3   2   4  1   
  4   3   5  1   
  5   3   6  1   
  6   4   7  ar  
  7   4   8  ar  
  8   5   9  1   
  9   5  27  1   
 10   5  28  1   
 11   6  10  1   
 12   6  29  1   
 13   6  30  1   
 14   7  11  1   
 15   7  12  ar  
 16   8  13  ar  
 17   8  31  1   
 18   9  14  1   
 19   9  32  1   
 20   9  33  1   
 21  10  14  1   
 22  10  34  1   
 23  10  35  1   
 24  11  15  am  
 25  11  36  1   
 26  12  16  ar  
 27  12  37  1   
 28  13  16  ar  
 29  13  38  1   
 30  14  39  1   
 31  14  40  1   
 32  15  17  2   
 33  15  18  1   
 34  16  41  1   
 35  18  19  1   
 36  18  42  1   
 37  18  43  1   
 38  19  20  1   
 39  20  21  ar  
 40  20  22  ar  
 41  21  23  ar  
 42  21  44  1   
 43  22  24  ar  
 44  22  45  1   
 45  23  25  ar  
 46  23  46  1   
 47  24  25  ar  
 48  24  47  1   
 49  25  26  1   
 50  26  48  1   
 51  26  49  1   
 52  26  50  1   
@<TRIPOS>SUBSTRUCTURE
  1 ****   1 GROUP 4 **** **** 0

# MOE 2024.06 (io_trps.svl 2023.06)
