@<TRIPOS>MOLECULE
NONAME
44 46 1 0 0 
SMALL
USER_CHARGES


@<TRIPOS>ATOM
  1 BR      -0.4200     0.2630    -0.6060 Br    1 <1>  -0.1110 
  2 C        1.2270     1.1760    -0.2060 C.ar  1 <1>   0.1110 
  3 C        1.2610     2.2490     0.6740 C.ar  1 <1>  -0.0090 
  4 C        2.3560     0.7030    -0.8490 C.ar  1 <1>  -0.1500 
  5 S       -0.2210     2.8720     1.5060 S.o2  1 <1>   1.4470 
  6 C        2.5010     2.8410     0.8840 C.ar  1 <1>  -0.1500 
  7 C        3.5700     1.3170    -0.6140 C.ar  1 <1>  -0.1500 
  8 O        0.1180     4.0480     2.2790 O.2   1 <1>  -0.6500 
  9 O       -0.8920     1.7800     2.1770 O.2   1 <1>  -0.6500 
 10 N       -1.1980     3.4020     0.2260 N.am  1 <1>  -0.8490 
 11 C        3.6720     2.4000     0.2620 C.ar  1 <1>   0.0860 
 12 C       -0.7340     4.6740    -0.3390 C.3   1 <1>   0.1960 
 13 C       -2.6080     3.4780     0.6150 C.3   1 <1>   0.1960 
 14 C        4.9400     3.0570     0.5200 C.2   1 <1>   0.5440 
 15 C       -1.5310     5.0110    -1.6030 C.3   1 <1>  -0.1600 
 16 C       -3.4800     3.7890    -0.6070 C.3   1 <1>  -0.1600 
 17 O        4.9810     4.2460     0.7650 O.2   1 <1>  -0.5700 
 18 N        6.1070     2.3550     0.5130 N.am  1 <1>  -0.7300 
 19 C       -3.0340     5.0770    -1.3080 C.3   1 <1>  -0.1600 
 20 C        7.4380     2.9440     0.7850 C.3   1 <1>   0.3200 
 21 C        8.5150     2.1990     0.0140 C.2   1 <1>  -0.0400 
 22 O        9.7730     2.3920     0.3620 O.3   1 <1>  -0.2800 
 23 C        8.4450     1.3280    -1.0190 C.2   1 <1>  -0.1500 
 24 C       10.5270     1.6560    -0.4290 C.2   1 <1>  -0.0100 
 25 C        9.7670     0.9710    -1.3090 C.2   1 <1>  -0.1500 
 26 H        2.2770    -0.1310    -1.5250 H     1 <1>   0.1500 
 27 H        2.5730     3.6820     1.5570 H     1 <1>   0.1500 
 28 H        4.4480     0.9600    -1.1240 H     1 <1>   0.1500 
 29 H        0.3100     4.6020    -0.5940 H     1 <1>   0.0800 
 30 H       -0.8500     5.4640     0.3860 H     1 <1>   0.0800 
 31 H       -2.7390     4.2360     1.3700 H     1 <1>   0.0800 
 32 H       -2.9250     2.5340     1.0270 H     1 <1>   0.0800 
 33 H       -1.3380     4.2570    -2.3460 H     1 <1>   0.0800 
 34 H       -1.1970     5.9550    -1.9950 H     1 <1>   0.0800 
 35 H       -4.5060     3.8790    -0.2990 H     1 <1>   0.0800 
 36 H       -3.4150     2.9610    -1.2920 H     1 <1>   0.0800 
 37 H        6.0980     1.3360     0.4740 H     1 <1>   0.3700 
 38 H       -3.5850     5.2090    -2.2230 H     1 <1>   0.0800 
 39 H       -3.2370     5.9200    -0.6690 H     1 <1>   0.0800 
 40 H        7.6420     2.8720     1.8390 H     1 <1>   0.0800 
 41 H        7.4520     3.9840     0.5060 H     1 <1>   0.0800 
 42 H        7.5790     0.9660    -1.5420 H     1 <1>   0.1500 
 43 H       11.5950     1.6800    -0.2980 H     1 <1>   0.1500 
 44 H       10.0780     0.2900    -2.0810 H     1 <1>   0.1500 
@<TRIPOS>BOND
  1   1   2  1   
  2   2   3  ar  
  3   2   4  ar  
  4   3   5  1   
  5   3   6  ar  
  6   4   7  ar  
  7   4  26  1   
  8   5   8  2   
  9   5   9  2   
 10   5  10  am  
 11   6  11  ar  
 12   6  27  1   
 13   7  11  ar  
 14   7  28  1   
 15  10  12  1   
 16  10  13  1   
 17  11  14  1   
 18  12  15  1   
 19  12  29  1   
 20  12  30  1   
 21  13  16  1   
 22  13  31  1   
 23  13  32  1   
 24  14  17  2   
 25  14  18  am  
 26  15  19  1   
 27  15  33  1   
 28  15  34  1   
 29  16  19  1   
 30  16  35  1   
 31  16  36  1   
 32  18  20  1   
 33  18  37  1   
 34  19  38  1   
 35  19  39  1   
 36  20  21  1   
 37  20  40  1   
 38  20  41  1   
 39  21  22  1   
 40  21  23  2   
 41  22  24  1   
 42  23  25  1   
 43  23  42  1   
 44  24  25  2   
 45  24  43  1   
 46  25  44  1   
@<TRIPOS>SUBSTRUCTURE
  1 ****   6 GROUP 4 **** **** 0

# MOE 2024.06 (io_trps.svl 2023.06)
