@<TRIPOS>MOLECULE
Structure2528
26 27 1 0 0 
SMALL
USER_CHARGES


@<TRIPOS>ATOM
  1 CL       0.3430    -1.8690     0.8350 Cl    1 <1>  -0.1770 
  2 C       -1.3650    -1.6040     0.5870 C.ar  1 <1>   0.1770 
  3 C       -1.9960    -0.5750     1.2600 C.ar  1 <1>  -0.1500 
  4 C       -2.0590    -2.4270    -0.2790 C.ar  1 <1>  -0.1500 
  5 C       -3.3510    -0.3700     1.0600 C.ar  1 <1>  -0.1500 
  6 C       -3.4150    -2.2200    -0.4780 C.ar  1 <1>  -0.1500 
  7 C       -4.0670    -1.1870     0.1950 C.ar  1 <1>   0.0830 
  8 O       -5.3910    -0.9120     0.0640 O.3   1 <1>  -0.3630 
  9 C       -6.2420    -1.6520    -0.7880 C.3   1 <1>   0.2000 
 10 C       -7.5410    -0.8650    -0.9090 C.3   1 <1>   0.3430 
 11 C       -6.6920    -2.9090    -0.0510 C.3   1 <1>  -0.1600 
 12 N       -8.2600    -1.1200     0.3740 N.4   1 <1>  -0.9060 
 13 C       -7.7850    -2.4320     0.9040 C.3   1 <1>   0.3430 
 14 H       -1.4320     0.0520     1.9280 H     1 <1>   0.1500 
 15 H       -1.5380    -3.2180    -0.7890 H     1 <1>   0.1500 
 16 H       -3.8520     0.4290     1.5770 H     1 <1>   0.1500 
 17 H       -3.9300    -2.8740    -1.1560 H     1 <1>   0.1500 
 18 H       -5.7650    -1.8150    -1.7390 H     1 <1>   0.0800 
 19 H       -8.1160    -1.2570    -1.7330 H     1 <1>   0.0800 
 20 H       -7.3510     0.1840    -1.0700 H     1 <1>   0.0800 
 21 H       -5.8890    -3.3990     0.4710 H     1 <1>   0.0800 
 22 H       -7.1190    -3.6070    -0.7500 H     1 <1>   0.0800 
 23 H       -9.2820    -1.0840     0.2670 H     1 <1>   0.4500 
 24 H       -7.9820    -0.3880     1.0430 H     1 <1>   0.4500 
 25 H       -7.3710    -2.2960     1.8920 H     1 <1>   0.0800 
 26 H       -8.5880    -3.1500     0.9540 H     1 <1>   0.0800 
@<TRIPOS>BOND
  1   1   2  1   
  2   2   3  ar  
  3   2   4  ar  
  4   3   5  ar  
  5   3  14  1   
  6   4   6  ar  
  7   4  15  1   
  8   5   7  ar  
  9   5  16  1   
 10   6   7  ar  
 11   6  17  1   
 12   7   8  1   
 13   8   9  1   
 14   9  10  1   
 15   9  11  1   
 16   9  18  1   
 17  10  12  1   
 18  10  19  1   
 19  10  20  1   
 20  11  13  1   
 21  11  21  1   
 22  11  22  1   
 23  12  13  1   
 24  12  23  1   
 25  12  24  1   
 26  13  25  1   
 27  13  26  1   
@<TRIPOS>SUBSTRUCTURE
  1 ****   7 GROUP 4 **** **** 0

# MOE 2024.06 (io_trps.svl 2023.06)
