@<TRIPOS>MOLECULE
NONAME
43 44 1 0 0 
SMALL
USER_CHARGES


@<TRIPOS>ATOM
  1 O       -0.2880    -1.1780    -1.4020 O.2   1 <1>  -0.5700 
  2 C       -0.8790    -1.8040    -0.5450 C.2   1 <1>   0.5440 
  3 N       -0.1680    -2.4740     0.4170 N.am  1 <1>  -0.7300 
  4 C       -2.3300    -1.8270    -0.5240 C.ar  1 <1>   0.0860 
  5 C        1.3020    -2.5810     0.5670 C.3   1 <1>   0.2200 
  6 C       -3.0700    -0.7370    -0.9850 C.ar  1 <1>  -0.1500 
  7 C       -3.0480    -2.9280    -0.0490 C.ar  1 <1>  -0.1500 
  8 C        1.8750    -1.2150     0.9660 C.3   1 <1>  -0.1600 
  9 C        1.9210    -3.2130    -0.6910 C.3   1 <1>  -0.1600 
 10 C       -4.4510    -0.7370    -0.9590 C.ar  1 <1>  -0.1500 
 11 C       -4.4310    -2.9370    -0.0190 C.ar  1 <1>  -0.1500 
 12 C        3.3970    -1.1950     1.1870 C.3   1 <1>  -0.1600 
 13 C        3.3350    -3.7600    -0.4370 C.3   1 <1>  -0.1600 
 14 C       -5.1450    -1.8330    -0.4750 C.ar  1 <1>   0.0830 
 15 C        4.1790    -1.3000    -0.1300 C.3   1 <1>  -0.1600 
 16 C        4.4670    -2.7330    -0.6030 C.3   1 <1>  -0.1600 
 17 O       -6.4940    -1.7540    -0.4820 O.3   1 <1>  -0.3630 
 18 C       -7.3050    -2.8160    -0.0350 C.3   1 <1>   0.2580 
 19 C       -8.7540    -2.3990    -0.1900 C.2   1 <1>  -0.2880 
 20 C       -9.6610    -2.3600     0.7920 C.2   1 <1>  -0.3000 
 21 H       -0.6890    -2.8570     1.2040 H     1 <1>   0.3700 
 22 H        1.4810    -3.2570     1.3860 H     1 <1>   0.0800 
 23 H       -2.5440     0.1220    -1.3690 H     1 <1>   0.1500 
 24 H       -2.5130    -3.7950     0.2950 H     1 <1>   0.1500 
 25 H        1.4000    -0.9110     1.8810 H     1 <1>   0.0800 
 26 H        1.6230    -0.4870     0.2150 H     1 <1>   0.0800 
 27 H        1.9330    -2.5090    -1.5050 H     1 <1>   0.0800 
 28 H        1.2990    -4.0400    -0.9840 H     1 <1>   0.0800 
 29 H       -5.0030     0.1140    -1.3170 H     1 <1>   0.1500 
 30 H       -4.9330    -3.8080     0.3570 H     1 <1>   0.1500 
 31 H        3.6970    -1.9670     1.8740 H     1 <1>   0.0800 
 32 H        3.6440    -0.2500     1.6410 H     1 <1>   0.0800 
 33 H        3.5200    -4.5640    -1.1290 H     1 <1>   0.0800 
 34 H        3.3830    -4.1860     0.5500 H     1 <1>   0.0800 
 35 H        5.1250    -0.8000    -0.0080 H     1 <1>   0.0800 
 36 H        3.6500    -0.7690    -0.9030 H     1 <1>   0.0800 
 37 H        4.7330    -2.6840    -1.6450 H     1 <1>   0.0800 
 38 H        5.3310    -3.1050    -0.0790 H     1 <1>   0.0800 
 39 H       -7.0710    -3.0140     0.9960 H     1 <1>   0.0800 
 40 H       -7.0960    -3.6810    -0.6390 H     1 <1>   0.0800 
 41 H       -8.9860    -2.1230    -1.2050 H     1 <1>   0.1500 
 42 H      -10.6840    -2.0560     0.6490 H     1 <1>   0.1500 
 43 H       -9.4640    -2.6240     1.8160 H     1 <1>   0.1500 
@<TRIPOS>BOND
  1   1   2  2   
  2   2   3  am  
  3   2   4  1   
  4   3   5  1   
  5   3  21  1   
  6   4   6  ar  
  7   4   7  ar  
  8   5   8  1   
  9   5   9  1   
 10   5  22  1   
 11   6  10  ar  
 12   6  23  1   
 13   7  11  ar  
 14   7  24  1   
 15   8  12  1   
 16   8  25  1   
 17   8  26  1   
 18   9  13  1   
 19   9  27  1   
 20   9  28  1   
 21  10  14  ar  
 22  10  29  1   
 23  11  14  ar  
 24  11  30  1   
 25  12  15  1   
 26  12  31  1   
 27  12  32  1   
 28  13  16  1   
 29  13  33  1   
 30  13  34  1   
 31  14  17  1   
 32  15  16  1   
 33  15  35  1   
 34  15  36  1   
 35  16  37  1   
 36  16  38  1   
 37  17  18  1   
 38  18  19  1   
 39  18  39  1   
 40  18  40  1   
 41  19  20  2   
 42  19  41  1   
 43  20  42  1   
 44  20  43  1   
@<TRIPOS>SUBSTRUCTURE
  1 ****   4 GROUP 4 **** **** 0

# MOE 2024.06 (io_trps.svl 2023.06)
