@<TRIPOS>MOLECULE
NONAME
35 36 1 0 0 
SMALL
USER_CHARGES


@<TRIPOS>ATOM
  1 CL      -0.2610    -0.9420     0.8250 Cl    1 <1>  -0.1770 
  2 C       -1.8700    -0.3400     0.5160 C.ar  1 <1>   0.1770 
  3 C       -2.9520    -0.9730     1.0930 C.ar  1 <1>  -0.1500 
  4 C       -2.0370     0.7640    -0.3020 C.ar  1 <1>  -0.1500 
  5 C       -4.2090    -0.4680     0.8250 C.ar  1 <1>   0.1900 
  6 C       -3.3110     1.2510    -0.5540 C.ar  1 <1>  -0.1500 
  7 F       -5.2380    -1.0660     1.3750 F     1 <1>  -0.1900 
  8 C       -4.4340     0.6400     0.0050 C.ar  1 <1>   0.1170 
  9 N       -5.7540     1.0870    -0.2120 N.am  1 <1>  -0.5470 
 10 C       -6.2960     2.0110    -1.0660 C.2   1 <1>   0.5690 
 11 O       -5.6430     2.6480    -1.8560 O.2   1 <1>  -0.5700 
 12 C       -7.7960     2.2580    -1.0210 C.3   1 <1>   0.1310 
 13 S       -8.7030     0.8290    -0.2480 S.3   1 <1>  -0.2860 
 14 C      -10.3990     1.4190    -0.2090 C.2   1 <1>   0.2430 
 15 N      -10.7530     2.5840    -0.6170 N.2   1 <1>  -0.3380 
 16 N      -11.4080     0.6820     0.2530 N.pl3 1 <1>   0.0480 
 17 N      -12.0730     2.6470    -0.4190 N.2   1 <1>  -0.3380 
 18 C      -12.4470     1.5190     0.0960 C.2   1 <1>   0.0060 
 19 C      -11.3610    -0.6900     0.7970 C.3   1 <1>   0.0160 
 20 C      -13.8780     1.1590     0.4840 C.3   1 <1>   0.0200 
 21 C      -14.8630     2.3220     0.3130 C.3   1 <1>  -0.2400 
 22 H       -2.8190    -1.8290     1.7280 H     1 <1>   0.1500 
 23 H       -1.1750     1.2390    -0.7370 H     1 <1>   0.1500 
 24 H       -3.4180     2.1120    -1.1880 H     1 <1>   0.1500 
 25 H       -6.4520     0.5780     0.3380 H     1 <1>   0.3700 
 26 H       -8.1880     2.3830    -2.0130 H     1 <1>   0.0800 
 27 H       -8.0130     3.1310    -0.4340 H     1 <1>   0.0800 
 28 H      -11.0070    -0.6560     1.8120 H     1 <1>   0.0800 
 29 H      -10.6910    -1.2870     0.2050 H     1 <1>   0.0800 
 30 H      -12.3400    -1.1310     0.7720 H     1 <1>   0.0800 
 31 H      -13.8910     0.8460     1.5130 H     1 <1>   0.0800 
 32 H      -14.2060     0.3350    -0.1240 H     1 <1>   0.0800 
 33 H      -14.5610     3.1570     0.9210 H     1 <1>   0.0800 
 34 H      -15.8520     2.0200     0.6070 H     1 <1>   0.0800 
 35 H      -14.8890     2.6380    -0.7150 H     1 <1>   0.0800 
@<TRIPOS>BOND
  1   1   2  1   
  2   2   3  ar  
  3   2   4  ar  
  4   3   5  ar  
  5   3  22  1   
  6   4   6  ar  
  7   4  23  1   
  8   5   7  1   
  9   5   8  ar  
 10   6   8  ar  
 11   6  24  1   
 12   8   9  1   
 13   9  10  am  
 14   9  25  1   
 15  10  11  2   
 16  10  12  1   
 17  12  13  1   
 18  12  26  1   
 19  12  27  1   
 20  13  14  1   
 21  14  15  2   
 22  14  16  1   
 23  15  17  1   
 24  16  18  1   
 25  16  19  1   
 26  17  18  2   
 27  18  20  1   
 28  19  28  1   
 29  19  29  1   
 30  19  30  1   
 31  20  21  1   
 32  20  31  1   
 33  20  32  1   
 34  21  33  1   
 35  21  34  1   
 36  21  35  1   
@<TRIPOS>SUBSTRUCTURE
  1 ****  13 GROUP 4 **** **** 0

# MOE 2024.06 (io_trps.svl 2023.06)
