@<TRIPOS>MOLECULE
NONAME
33 33 1 0 0 
SMALL
USER_CHARGES


@<TRIPOS>ATOM
  1 S       -0.2030     0.4670     1.4460 S.o2  1 <1>   1.3330 
  2 O        0.5580     0.4710     2.6690 O.2   1 <1>  -0.6500 
  3 O       -0.6880     1.6990     0.8760 O.2   1 <1>  -0.6500 
  4 N       -1.5760    -0.4920     1.8180 N.am  1 <1>  -0.7570 
  5 C        0.6380    -0.5240     0.2100 C.3   1 <1>  -0.0550 
  6 C       -2.6570    -0.6790     0.9810 C.ar  1 <1>   0.1990 
  7 C        1.9470     0.1020    -0.2980 C.3   1 <1>  -0.1600 
  8 C       -2.9810    -1.9580     0.5500 C.ar  1 <1>  -0.1500 
  9 C       -3.4550     0.3780     0.5610 C.ar  1 <1>  -0.1500 
 10 C        2.6150    -0.7860    -1.3550 C.3   1 <1>  -0.1600 
 11 C       -4.0620    -2.1740    -0.2840 C.ar  1 <1>  -0.1500 
 12 C       -4.5340     0.1590    -0.2730 C.ar  1 <1>  -0.1500 
 13 C        3.9130    -0.1520    -1.8600 C.3   1 <1>  -0.2400 
 14 C       -4.8690    -1.1200    -0.7260 C.ar  1 <1>   0.0860 
 15 C       -6.0040    -1.3260    -1.6070 C.2   1 <1>   0.5440 
 16 O       -6.8870    -0.5030    -1.7130 O.2   1 <1>  -0.5700 
 17 N       -6.1420    -2.4360    -2.3700 N.am  1 <1>  -0.8000 
 18 H       -1.7920    -0.3430     2.8000 H     1 <1>   0.4200 
 19 H       -0.0210    -0.6690    -0.6240 H     1 <1>   0.0800 
 20 H        0.8550    -1.4890     0.6280 H     1 <1>   0.0800 
 21 H        2.6180     0.2430     0.5330 H     1 <1>   0.0800 
 22 H        1.7340     1.0700    -0.7210 H     1 <1>   0.0800 
 23 H       -2.3780    -2.7850     0.8790 H     1 <1>   0.1500 
 24 H       -3.2280     1.3780     0.8880 H     1 <1>   0.1500 
 25 H        1.9460    -0.9290    -2.1870 H     1 <1>   0.0800 
 26 H        2.8360    -1.7520    -0.9320 H     1 <1>   0.0800 
 27 H       -4.2900    -3.1790    -0.5890 H     1 <1>   0.1500 
 28 H       -5.1390     0.9940    -0.5870 H     1 <1>   0.1500 
 29 H        3.7150     0.8060    -2.3080 H     1 <1>   0.0800 
 30 H        4.3690    -0.7870    -2.6000 H     1 <1>   0.0800 
 31 H        4.6080    -0.0190    -1.0500 H     1 <1>   0.0800 
 32 H       -6.9530    -2.4970    -2.9890 H     1 <1>   0.3700 
 33 H       -5.4190    -3.1420    -2.4920 H     1 <1>   0.3700 
@<TRIPOS>BOND
  1   1   2  2   
  2   1   3  2   
  3   1   4  am  
  4   1   5  1   
  5   4   6  1   
  6   4  18  1   
  7   5   7  1   
  8   5  19  1   
  9   5  20  1   
 10   6   8  ar  
 11   6   9  ar  
 12   7  10  1   
 13   7  21  1   
 14   7  22  1   
 15   8  11  ar  
 16   8  23  1   
 17   9  12  ar  
 18   9  24  1   
 19  10  13  1   
 20  10  25  1   
 21  10  26  1   
 22  11  14  ar  
 23  11  27  1   
 24  12  14  ar  
 25  12  28  1   
 26  13  29  1   
 27  13  30  1   
 28  13  31  1   
 29  14  15  1   
 30  15  16  2   
 31  15  17  am  
 32  17  32  1   
 33  17  33  1   
@<TRIPOS>SUBSTRUCTURE
  1 ****   6 GROUP 4 **** **** 0

# MOE 2024.06 (io_trps.svl 2023.06)
