@<TRIPOS>MOLECULE
NONAME
38 38 1 0 0 
SMALL
USER_CHARGES


@<TRIPOS>ATOM
  1 S        0.5700     0.1590    -0.1140 S.3   1 <1>  -0.3320 
  2 C        1.2400    -1.2720     0.7710 C.ar  1 <1>   0.1020 
  3 C       -1.2390    -0.1190    -0.3620 C.3   1 <1>   0.0700 
  4 C        2.5430    -1.2330     1.2930 C.ar  1 <1>   0.0860 
  5 C        0.4340    -2.3930     0.9240 C.ar  1 <1>  -0.1500 
  6 C       -1.8310     1.1590    -0.9580 C.3   1 <1>  -0.1600 
  7 C        3.4640    -0.1160     1.1660 C.2   1 <1>   0.5440 
  8 C        2.9730    -2.3670     1.9890 C.ar  1 <1>  -0.1500 
  9 C        0.9000    -3.4970     1.6120 C.ar  1 <1>  -0.1500 
 10 C       -3.3380     1.0160    -1.1960 C.3   1 <1>  -0.2400 
 11 O        4.1860     0.1760     2.1010 O.2   1 <1>  -0.5700 
 12 N        3.5680     0.5810    -0.0060 N.am  1 <1>  -0.7300 
 13 C        2.1730    -3.4810     2.1480 C.ar  1 <1>  -0.1500 
 14 C        4.3810     1.7540    -0.3360 C.3   1 <1>   0.3000 
 15 C        4.0500     2.1110    -1.7840 C.3   1 <1>  -0.2400 
 16 C        5.8660     1.4100    -0.2210 C.3   1 <1>  -0.2400 
 17 C        3.9990     2.9200     0.5770 C.3   1 <1>  -0.2400 
 18 H       -1.6680    -0.3390     0.6000 H     1 <1>   0.0800 
 19 H       -1.3520    -0.9530    -1.0320 H     1 <1>   0.0800 
 20 H       -0.5560    -2.4320     0.5160 H     1 <1>   0.1500 
 21 H       -1.3410     1.3770    -1.8920 H     1 <1>   0.0800 
 22 H       -1.6530     1.9810    -0.2850 H     1 <1>   0.0800 
 23 H        3.9640    -2.3660     2.4130 H     1 <1>   0.1500 
 24 H        0.2750    -4.3660     1.7320 H     1 <1>   0.1500 
 25 H       -3.5370     0.2110    -1.8820 H     1 <1>   0.0800 
 26 H       -3.7310     1.9260    -1.6140 H     1 <1>   0.0800 
 27 H       -3.8490     0.8180    -0.2700 H     1 <1>   0.0800 
 28 H        2.8140     0.4270    -0.6780 H     1 <1>   0.3700 
 29 H        2.5410    -4.3360     2.6900 H     1 <1>   0.1500 
 30 H        3.0050     2.3470    -1.8860 H     1 <1>   0.0800 
 31 H        4.2940     1.2930    -2.4380 H     1 <1>   0.0800 
 32 H        4.6190     2.9690    -2.0920 H     1 <1>   0.0800 
 33 H        6.1010     0.5560    -0.8290 H     1 <1>   0.0800 
 34 H        6.1270     1.1940     0.7990 H     1 <1>   0.0800 
 35 H        6.4650     2.2400    -0.5460 H     1 <1>   0.0800 
 36 H        2.9440     3.1140     0.5170 H     1 <1>   0.0800 
 37 H        4.5300     3.8070     0.2860 H     1 <1>   0.0800 
 38 H        4.2550     2.6990     1.5970 H     1 <1>   0.0800 
@<TRIPOS>BOND
  1   1   2  1   
  2   1   3  1   
  3   2   4  ar  
  4   2   5  ar  
  5   3   6  1   
  6   3  18  1   
  7   3  19  1   
  8   4   7  1   
  9   4   8  ar  
 10   5   9  ar  
 11   5  20  1   
 12   6  10  1   
 13   6  21  1   
 14   6  22  1   
 15   7  11  2   
 16   7  12  am  
 17   8  13  ar  
 18   8  23  1   
 19   9  13  ar  
 20   9  24  1   
 21  10  25  1   
 22  10  26  1   
 23  10  27  1   
 24  12  14  1   
 25  12  28  1   
 26  13  29  1   
 27  14  15  1   
 28  14  16  1   
 29  14  17  1   
 30  15  30  1   
 31  15  31  1   
 32  15  32  1   
 33  16  33  1   
 34  16  34  1   
 35  16  35  1   
 36  17  36  1   
 37  17  37  1   
 38  17  38  1   
@<TRIPOS>SUBSTRUCTURE
  1 ****   2 GROUP 4 **** **** 0

# MOE 2024.06 (io_trps.svl 2023.06)
