@<TRIPOS>MOLECULE
NONAME
34 37 1 0 0 
SMALL
USER_CHARGES


@<TRIPOS>ATOM
  1 S       -0.2710     0.1200    -0.2850 S.3   1 <1>  -0.0800 
  2 C       -0.4660    -1.6010    -0.6030 C.2   1 <1>   0.1040 
  3 C        1.4530    -0.1010    -0.0140 C.2   1 <1>  -0.1400 
  4 N       -1.6770    -2.2020    -0.9250 N.am  1 <1>  -0.4240 
  5 C        0.7200    -2.2610    -0.4980 C.2   1 <1>  -0.0010 
  6 C        1.8090    -1.3890    -0.1480 C.2   1 <1>  -0.1810 
  7 C        2.3360     1.0790     0.3260 C.3   1 <1>   0.0200 
  8 C       -1.6840    -3.5710    -1.1810 C.2   1 <1>   0.6390 
  9 C       -2.9450    -1.4320    -0.9300 C.3   1 <1>   0.2780 
 10 C        0.7210    -3.6740    -0.7430 C.2   1 <1>   0.1870 
 11 C        3.2470    -1.8410     0.0530 C.3   1 <1>   0.0210 
 12 C        3.8100     0.6610     0.1710 C.3   1 <1>  -0.1600 
 13 O       -2.7220    -4.1270    -1.5100 O.2   1 <1>  -0.5700 
 14 N       -0.4500    -4.2880    -1.0660 N.pl3 1 <1>   0.5610 
 15 C       -3.4780    -1.3460     0.4890 C.2   1 <1>  -0.2880 
 16 N        1.7020    -4.5210    -0.7160 N.2   1 <1>  -0.5650 
 17 C        4.0780    -0.7440     0.7500 C.3   1 <1>  -0.1600 
 18 N       -0.1770    -5.6000    -1.2500 N.2   1 <1>  -0.7070 
 19 C       -4.6160    -1.9010     0.9170 C.2   1 <1>  -0.3000 
 20 C        1.0900    -5.6660    -1.0300 C.2   1 <1>   0.3660 
 21 H        2.1400     1.3800     1.3400 H     1 <1>   0.0800 
 22 H        2.1190     1.9060    -0.3270 H     1 <1>   0.0800 
 23 H       -3.6690    -1.9130    -1.5650 H     1 <1>   0.0800 
 24 H       -2.7760    -0.4450    -1.3230 H     1 <1>   0.0800 
 25 H        3.6740    -2.0700    -0.9080 H     1 <1>   0.0800 
 26 H        3.2720    -2.7340     0.6520 H     1 <1>   0.0800 
 27 H        4.4400     1.3860     0.6570 H     1 <1>   0.0800 
 28 H        4.0610     0.6550    -0.8750 H     1 <1>   0.0800 
 29 H       -2.8320    -0.7800     1.1380 H     1 <1>   0.1500 
 30 H        5.1240    -0.9820     0.6620 H     1 <1>   0.0800 
 31 H        3.8310    -0.7380     1.7980 H     1 <1>   0.0800 
 32 H       -4.9780    -1.8290     1.9290 H     1 <1>   0.1500 
 33 H       -5.2810    -2.4790     0.2950 H     1 <1>   0.1500 
 34 H        1.6490    -6.5870    -1.0920 H     1 <1>   0.1500 
@<TRIPOS>BOND
  1   1   2  1   
  2   1   3  1   
  3   2   4  1   
  4   2   5  2   
  5   3   6  2   
  6   3   7  1   
  7   4   8  am  
  8   4   9  1   
  9   5   6  1   
 10   5  10  1   
 11   6  11  1   
 12   7  12  1   
 13   7  21  1   
 14   7  22  1   
 15   8  13  2   
 16   8  14  1   
 17   9  15  1   
 18   9  23  1   
 19   9  24  1   
 20  10  14  1   
 21  10  16  2   
 22  11  17  1   
 23  11  25  1   
 24  11  26  1   
 25  12  17  1   
 26  12  27  1   
 27  12  28  1   
 28  14  18  1   
 29  15  19  2   
 30  15  29  1   
 31  16  20  1   
 32  17  30  1   
 33  17  31  1   
 34  18  20  2   
 35  19  32  1   
 36  19  33  1   
 37  20  34  1   
@<TRIPOS>SUBSTRUCTURE
  1 ****   5 GROUP 4 **** **** 0

# MOE 2024.06 (io_trps.svl 2023.06)
