@<TRIPOS>MOLECULE
NONAME
39 40 1 0 0 
SMALL
USER_CHARGES


@<TRIPOS>ATOM
  1 P       -0.1860    -0.4170     0.3220 P.3   1 <1>   0.9000 
  2 O        0.2730    -1.4900    -0.6020 O.co2 1 <1>  -0.9500 
  3 O        0.5760    -0.1730     1.5870 O.co2 1 <1>  -0.9500 
  4 C        0.0420     1.1460    -0.5510 C.3   1 <1>   0.3430 
  5 C       -1.9280    -0.5660     0.6900 C.3   1 <1>  -0.1600 
  6 N        1.3610     1.6930    -0.1110 N.4   1 <1>  -0.9590 
  7 C       -2.4800     0.6120     1.4980 C.3   1 <1>   0.1400 
  8 C        1.4440     3.1700     0.0180 C.3   1 <1>   0.3430 
  9 C        2.4940     1.0540    -0.8360 C.3   1 <1>   0.3430 
 10 N       -3.0660     1.6620     0.6160 N.am  1 <1>  -0.6600 
 11 C        2.8520     3.5870     0.4860 C.3   1 <1>   0.1200 
 12 C        3.8360     1.5970    -0.3120 C.3   1 <1>   0.1200 
 13 C       -2.6770     2.9570     0.5450 C.2   1 <1>   0.5690 
 14 C       -4.4000     1.4420     0.0230 C.3   1 <1>   0.1400 
 15 O        3.8440     3.0020    -0.3180 O.3   1 <1>  -0.5600 
 16 O       -1.6300     3.4100     0.9430 O.2   1 <1>  -0.5700 
 17 C       -3.7110     3.7950    -0.1540 C.3   1 <1>  -0.0990 
 18 C       -4.9170     2.8520    -0.2900 C.3   1 <1>  -0.1600 
 19 H       -0.7120     1.8470    -0.2690 H     1 <1>   0.0800 
 20 H        0.0150     1.0370    -1.6190 H     1 <1>   0.0800 
 21 H       -2.0560    -1.4430     1.2940 H     1 <1>   0.0800 
 22 H       -2.5180    -0.7190    -0.1920 H     1 <1>   0.0800 
 23 H        1.3930     1.2550     0.8490 H     1 <1>   0.4500 
 24 H       -1.7030     1.0360     2.1150 H     1 <1>   0.0800 
 25 H       -3.2510     0.2550     2.1580 H     1 <1>   0.0800 
 26 H        0.7080     3.5180     0.7250 H     1 <1>   0.0800 
 27 H        1.2410     3.6310    -0.9330 H     1 <1>   0.0800 
 28 H        2.4190     1.2600    -1.8900 H     1 <1>   0.0800 
 29 H        2.4540    -0.0170    -0.6990 H     1 <1>   0.0800 
 30 H        3.0140     3.2850     1.5070 H     1 <1>   0.0800 
 31 H        2.9610     4.6540     0.4220 H     1 <1>   0.0800 
 32 H        4.6410     1.2580    -0.9390 H     1 <1>   0.0800 
 33 H        4.0130     1.2520     0.6920 H     1 <1>   0.0800 
 34 H       -5.0500     0.9360     0.7180 H     1 <1>   0.0800 
 35 H       -4.3030     0.8580    -0.8770 H     1 <1>   0.0800 
 36 H       -3.3360     4.0880    -1.1170 H     1 <1>   0.0800 
 37 H       -3.9490     4.6660     0.4300 H     1 <1>   0.0800 
 38 H       -5.6690     3.1160     0.4340 H     1 <1>   0.0800 
 39 H       -5.3560     2.8980    -1.2710 H     1 <1>   0.0800 
@<TRIPOS>BOND
  1   1   2  ar  
  2   1   3  ar  
  3   1   4  1   
  4   1   5  1   
  5   4   6  1   
  6   4  19  1   
  7   4  20  1   
  8   5   7  1   
  9   5  21  1   
 10   5  22  1   
 11   6   8  1   
 12   6   9  1   
 13   6  23  1   
 14   7  10  1   
 15   7  24  1   
 16   7  25  1   
 17   8  11  1   
 18   8  26  1   
 19   8  27  1   
 20   9  12  1   
 21   9  28  1   
 22   9  29  1   
 23  10  13  am  
 24  10  14  1   
 25  11  15  1   
 26  11  30  1   
 27  11  31  1   
 28  12  15  1   
 29  12  32  1   
 30  12  33  1   
 31  13  16  2   
 32  13  17  1   
 33  14  18  1   
 34  14  34  1   
 35  14  35  1   
 36  17  18  1   
 37  17  36  1   
 38  17  37  1   
 39  18  38  1   
 40  18  39  1   
@<TRIPOS>SUBSTRUCTURE
  1 ****   4 GROUP 4 **** **** 0

# MOE 2024.06 (io_trps.svl 2023.06)
