@<TRIPOS>MOLECULE
NONAME
57 61 1 0 0 
SMALL
USER_CHARGES


@<TRIPOS>ATOM
  1 O        1.1710    -0.6970    -3.0120 O.2   1 <1>  -0.5700 
  2 C        0.1850    -1.2410    -2.5750 C.2   1 <1>   0.5690 
  3 N       -1.0660    -0.7160    -2.8250 N.am  1 <1>  -0.6600 
  4 C        0.4100    -2.4810    -1.7050 C.3   1 <1>   0.1810 
  5 C       -2.3240    -1.1550    -2.1620 C.3   1 <1>   0.1400 
  6 C       -1.1980     0.6480    -3.4080 C.3   1 <1>   0.1400 
  7 O       -0.2440    -2.4010    -0.4400 O.3   1 <1>  -0.3620 
  8 C       -2.6530    -0.1830    -1.0120 C.3   1 <1>   0.3430 
  9 C       -1.4910     1.6440    -2.2710 C.3   1 <1>   0.3430 
 10 C        0.1140    -1.5110     0.5200 C.ar  1 <1>   0.0820 
 11 N       -2.7150     1.2700    -1.4520 N.4   1 <1>  -0.9590 
 12 C       -0.6190    -1.5480     1.6970 C.ar  1 <1>  -0.1500 
 13 C        1.1410    -0.5800     0.3840 C.ar  1 <1>  -0.1500 
 14 C       -2.9740     2.2180    -0.3160 C.3   1 <1>   0.5030 
 15 C       -0.3480    -0.6580     2.7220 C.ar  1 <1>  -0.1500 
 16 C        1.4070     0.3110     1.4080 C.ar  1 <1>  -0.1500 
 17 C       -4.2900     1.8250     0.3990 C.3   1 <1>  -0.1600 
 18 C       -3.1400     3.6560    -0.8640 C.3   1 <1>  -0.1600 
 19 C       -1.8240     2.2070     0.7170 C.3   1 <1>  -0.1600 
 20 C        0.6630     0.2750     2.5750 C.ar  1 <1>  -0.1500 
 21 C       -4.6010     2.8030     1.5470 C.3   1 <1>  -0.0800 
 22 C       -3.4440     4.6440     0.2770 C.3   1 <1>  -0.0800 
 23 C       -2.1260     3.1890     1.8660 C.3   1 <1>  -0.0800 
 24 C       -4.7470     4.2240     0.9790 C.3   1 <1>  -0.1600 
 25 C       -3.4390     2.7760     2.5570 C.3   1 <1>  -0.1600 
 26 C       -2.2870     4.6090     1.2930 C.3   1 <1>  -0.1600 
 27 H        1.4600    -2.6290    -1.5310 H     1 <1>   0.0800 
 28 H        0.0260    -3.3450    -2.2140 H     1 <1>   0.0800 
 29 H       -2.2360    -2.1580    -1.7850 H     1 <1>   0.0800 
 30 H       -3.1260    -1.1570    -2.8800 H     1 <1>   0.0800 
 31 H       -1.9920     0.6610    -4.1330 H     1 <1>   0.0800 
 32 H       -0.2930     0.9380    -3.9140 H     1 <1>   0.0800 
 33 H       -1.8960    -0.2960    -0.2560 H     1 <1>   0.0800 
 34 H       -3.5940    -0.4770    -0.5790 H     1 <1>   0.0800 
 35 H       -1.6180     2.6220    -2.7030 H     1 <1>   0.0800 
 36 H       -0.6230     1.6750    -1.6330 H     1 <1>   0.0800 
 37 H       -3.5250     1.3610    -2.0710 H     1 <1>   0.4500 
 38 H       -1.3950    -2.2830     1.8130 H     1 <1>   0.1500 
 39 H        1.7520    -0.5350    -0.4990 H     1 <1>   0.1500 
 40 H       -0.9160    -0.6960     3.6360 H     1 <1>   0.1500 
 41 H        2.2030     1.0290     1.3030 H     1 <1>   0.1500 
 42 H       -4.2210     0.8450     0.8310 H     1 <1>   0.0800 
 43 H       -5.1100     1.8340    -0.2980 H     1 <1>   0.0800 
 44 H       -2.2410     3.9950    -1.3440 H     1 <1>   0.0800 
 45 H       -3.9430     3.6910    -1.5790 H     1 <1>   0.0800 
 46 H       -0.8940     2.4950     0.2640 H     1 <1>   0.0800 
 47 H       -1.7040     1.2270     1.1370 H     1 <1>   0.0800 
 48 H        0.8790     0.9660     3.3730 H     1 <1>   0.1500 
 49 H       -5.5160     2.5150     2.0400 H     1 <1>   0.0800 
 50 H       -3.5510     5.6410    -0.1170 H     1 <1>   0.0800 
 51 H       -1.3200     3.1740     2.5810 H     1 <1>   0.0800 
 52 H       -4.9670     4.9130     1.7770 H     1 <1>   0.0800 
 53 H       -5.5700     4.2630     0.2860 H     1 <1>   0.0800 
 54 H       -3.6490     3.4520     3.3690 H     1 <1>   0.0800 
 55 H       -3.3380     1.7910     2.9800 H     1 <1>   0.0800 
 56 H       -2.4880     5.3010     2.0940 H     1 <1>   0.0800 
 57 H       -1.3710     4.9230     0.8220 H     1 <1>   0.0800 
@<TRIPOS>BOND
  1   1   2  2   
  2   2   3  am  
  3   2   4  1   
  4   3   5  1   
  5   3   6  1   
  6   4   7  1   
  7   4  27  1   
  8   4  28  1   
  9   5   8  1   
 10   5  29  1   
 11   5  30  1   
 12   6   9  1   
 13   6  31  1   
 14   6  32  1   
 15   7  10  1   
 16   8  11  1   
 17   8  33  1   
 18   8  34  1   
 19   9  11  1   
 20   9  35  1   
 21   9  36  1   
 22  10  12  ar  
 23  10  13  ar  
 24  11  14  1   
 25  11  37  1   
 26  12  15  ar  
 27  12  38  1   
 28  13  16  ar  
 29  13  39  1   
 30  14  17  1   
 31  14  18  1   
 32  14  19  1   
 33  15  20  ar  
 34  15  40  1   
 35  16  20  ar  
 36  16  41  1   
 37  17  21  1   
 38  17  42  1   
 39  17  43  1   
 40  18  22  1   
 41  18  44  1   
 42  18  45  1   
 43  19  23  1   
 44  19  46  1   
 45  19  47  1   
 46  20  48  1   
 47  21  24  1   
 48  21  25  1   
 49  21  49  1   
 50  22  24  1   
 51  22  26  1   
 52  22  50  1   
 53  23  25  1   
 54  23  26  1   
 55  23  51  1   
 56  24  52  1   
 57  24  53  1   
 58  25  54  1   
 59  25  55  1   
 60  26  56  1   
 61  26  57  1   
@<TRIPOS>SUBSTRUCTURE
  1 ****  19 GROUP 4 **** **** 0

# MOE 2024.06 (io_trps.svl 2023.06)
