@<TRIPOS>MOLECULE
NONAME
53 55 1 0 0 
SMALL
USER_CHARGES


@<TRIPOS>ATOM
  1 F        1.5870    -1.3720     2.2210 F     1 <1>  -0.1900 
  2 C        2.6250    -1.6390     1.4790 C.ar  1 <1>   0.1900 
  3 C        2.5890    -1.3130     0.1370 C.ar  1 <1>  -0.1500 
  4 C        3.7250    -2.2420     2.0570 C.ar  1 <1>  -0.1500 
  5 C        3.6960    -1.5970    -0.6440 C.ar  1 <1>  -0.1500 
  6 C        4.8230    -2.5190     1.2610 C.ar  1 <1>  -0.1500 
  7 C        4.8370    -2.1960    -0.1000 C.ar  1 <1>   0.0860 
  8 C        6.0010    -2.4890    -0.9160 C.2   1 <1>   0.5440 
  9 O        6.5080    -3.5940    -0.8490 O.2   1 <1>  -0.5700 
 10 N        6.5630    -1.5500    -1.7580 N.am  1 <1>  -0.6600 
 11 C        6.4510    -0.0830    -1.5410 C.3   1 <1>   0.1400 
 12 C        7.5410    -1.9380    -2.8110 C.3   1 <1>   0.1400 
 13 C        7.8220     0.4730    -1.1470 C.3   1 <1>  -0.1600 
 14 C        8.9270    -1.4180    -2.4280 C.3   1 <1>  -0.1600 
 15 C        8.9080     0.1040    -2.1780 C.3   1 <1>  -0.0190 
 16 C       10.2780     0.6320    -1.7610 C.2   1 <1>   0.5690 
 17 O       10.7890     1.5060    -2.4180 O.2   1 <1>  -0.5700 
 18 N       10.8830     0.1050    -0.6650 N.am  1 <1>  -0.7300 
 19 C       12.2110     0.5100    -0.1490 C.3   1 <1>   0.1400 
 20 C       13.2400    -0.5820    -0.4460 C.3   1 <1>  -0.0220 
 21 C       14.6010    -0.2410     0.1460 C.2   1 <1>  -0.2760 
 22 C       15.1410    -0.9270     1.1590 C.2   1 <1>  -0.2880 
 23 C       15.3060     0.9430    -0.5120 C.3   1 <1>  -0.0220 
 24 C       16.4870    -0.6100     1.7910 C.3   1 <1>  -0.0220 
 25 C       16.7950     0.9970    -0.1390 C.3   1 <1>  -0.1600 
 26 C       16.9970     0.7740     1.3650 C.3   1 <1>  -0.1600 
 27 H        1.7110    -0.8510    -0.2800 H     1 <1>   0.1500 
 28 H        3.7160    -2.4890     3.1030 H     1 <1>   0.1500 
 29 H        3.6840    -1.3590    -1.6940 H     1 <1>   0.1500 
 30 H        5.6880    -2.9970     1.6870 H     1 <1>   0.1500 
 31 H        5.7430     0.1410    -0.7630 H     1 <1>   0.0800 
 32 H        6.1100     0.3830    -2.4510 H     1 <1>   0.0800 
 33 H        7.2330    -1.5140    -3.7510 H     1 <1>   0.0800 
 34 H        7.5710    -3.0090    -2.9260 H     1 <1>   0.0800 
 35 H        8.0850     0.0840    -0.1790 H     1 <1>   0.0800 
 36 H        7.7600     1.5440    -1.0630 H     1 <1>   0.0800 
 37 H        9.6210    -1.6440    -3.2180 H     1 <1>   0.0800 
 38 H        9.2510    -1.9420    -1.5470 H     1 <1>   0.0800 
 39 H        8.6550     0.5840    -3.1070 H     1 <1>   0.0800 
 40 H       10.4210    -0.6510    -0.1580 H     1 <1>   0.3700 
 41 H       12.1480     0.6720     0.9130 H     1 <1>   0.0800 
 42 H       12.5150     1.4330    -0.6130 H     1 <1>   0.0800 
 43 H       13.3320    -0.7100    -1.5100 H     1 <1>   0.0800 
 44 H       12.8940    -1.5090    -0.0250 H     1 <1>   0.0800 
 45 H       14.6600    -1.7760     1.6150 H     1 <1>   0.1500 
 46 H       14.8290     1.8550    -0.1990 H     1 <1>   0.0800 
 47 H       15.2220     0.8730    -1.5830 H     1 <1>   0.0800 
 48 H       17.1940    -1.3650     1.4930 H     1 <1>   0.0800 
 49 H       16.4000    -0.6380     2.8630 H     1 <1>   0.0800 
 50 H       17.2040     1.9490    -0.4300 H     1 <1>   0.0800 
 51 H       17.3200     0.2290    -0.6810 H     1 <1>   0.0800 
 52 H       18.0390     0.8680     1.6170 H     1 <1>   0.0800 
 53 H       16.4540     1.5300     1.9060 H     1 <1>   0.0800 
@<TRIPOS>BOND
  1   1   2  1   
  2   2   3  ar  
  3   2   4  ar  
  4   3   5  ar  
  5   3  27  1   
  6   4   6  ar  
  7   4  28  1   
  8   5   7  ar  
  9   5  29  1   
 10   6   7  ar  
 11   6  30  1   
 12   7   8  1   
 13   8   9  2   
 14   8  10  am  
 15  10  11  1   
 16  10  12  1   
 17  11  13  1   
 18  11  31  1   
 19  11  32  1   
 20  12  14  1   
 21  12  33  1   
 22  12  34  1   
 23  13  15  1   
 24  13  35  1   
 25  13  36  1   
 26  14  15  1   
 27  14  37  1   
 28  14  38  1   
 29  15  16  1   
 30  15  39  1   
 31  16  17  2   
 32  16  18  am  
 33  18  19  1   
 34  18  40  1   
 35  19  20  1   
 36  19  41  1   
 37  19  42  1   
 38  20  21  1   
 39  20  43  1   
 40  20  44  1   
 41  21  22  2   
 42  21  23  1   
 43  22  24  1   
 44  22  45  1   
 45  23  25  1   
 46  23  46  1   
 47  23  47  1   
 48  24  26  1   
 49  24  48  1   
 50  24  49  1   
 51  25  26  1   
 52  25  50  1   
 53  25  51  1   
 54  26  52  1   
 55  26  53  1   
@<TRIPOS>SUBSTRUCTURE
  1 ****  13 GROUP 4 **** **** 0

# MOE 2024.06 (io_trps.svl 2023.06)
