@<TRIPOS>MOLECULE
NONAME
43 45 1 0 0 
SMALL
USER_CHARGES


@<TRIPOS>ATOM
  1 CL      -1.3630     1.9250     3.0260 Cl    1 <1>  -0.1770 
  2 C       -1.5930     2.2190     1.3180 C.ar  1 <1>   0.1770 
  3 C       -0.5910     1.9420     0.4020 C.ar  1 <1>   0.1900 
  4 C       -2.7970     2.7410     0.8850 C.ar  1 <1>  -0.1500 
  5 F        0.5520     1.4530     0.8100 F     1 <1>  -0.1900 
  6 C       -0.7710     2.1720    -0.9490 C.ar  1 <1>  -0.1500 
  7 C       -2.9920     2.9970    -0.4690 C.ar  1 <1>   0.1170 
  8 C       -1.9790     2.6990    -1.3780 C.ar  1 <1>  -0.1500 
  9 N       -4.1920     3.5460    -0.9270 N.am  1 <1>  -0.5470 
 10 C       -4.7770     4.7390    -0.6320 C.2   1 <1>   0.5690 
 11 O       -5.8640     5.0010    -1.0850 O.2   1 <1>  -0.5700 
 12 C       -4.0990     5.7900     0.2750 C.3   1 <1>   0.3090 
 13 N       -5.0040     6.9490     0.5240 N.pl3 1 <1>  -0.8440 
 14 C       -2.7960     6.3260    -0.3190 C.3   1 <1>  -0.0990 
 15 C       -4.6530     8.1830     0.7940 C.cat 1 <1>   1.2000 
 16 C       -2.4050     7.5900     0.4020 C.2   1 <1>   0.8520 
 17 N       -5.5480     9.1460     1.0040 N.pl3 1 <1>  -0.7220 
 18 N       -3.3640     8.4240     0.8400 N.pl3 1 <1>  -0.8600 
 19 O       -1.2590     7.8690     0.5780 O.2   1 <1>  -0.5700 
 20 C       -7.0300     8.9280     1.0140 C.3   1 <1>   0.1680 
 21 C       -5.2160    10.5970     1.1780 C.3   1 <1>   0.1680 
 22 C       -7.6590     9.6780    -0.1640 C.3   1 <1>  -0.1600 
 23 C       -5.8060    11.3920     0.0090 C.3   1 <1>  -0.1600 
 24 C       -7.3210    11.1750    -0.1190 C.3   1 <1>  -0.1600 
 25 H       -3.5740     2.9310     1.6020 H     1 <1>   0.1500 
 26 H        0.0190     1.9410    -1.6430 H     1 <1>   0.1500 
 27 H       -2.1330     2.8820    -2.4290 H     1 <1>   0.1500 
 28 H       -4.7260     2.9860    -1.6000 H     1 <1>   0.3700 
 29 H       -3.8900     5.3250     1.2230 H     1 <1>   0.0800 
 30 H       -5.9860     6.7390     0.3240 H     1 <1>   0.4500 
 31 H       -2.9240     6.5470    -1.3620 H     1 <1>   0.0800 
 32 H       -2.0090     5.6010    -0.2220 H     1 <1>   0.0800 
 33 H       -3.0290     9.2920     1.2280 H     1 <1>   0.4500 
 34 H       -7.4370     9.3080     1.9370 H     1 <1>   0.0800 
 35 H       -7.2900     7.8850     0.9550 H     1 <1>   0.0800 
 36 H       -4.1560    10.7710     1.2210 H     1 <1>   0.0800 
 37 H       -5.6430    10.9500     2.1030 H     1 <1>   0.0800 
 38 H       -8.7280     9.5550    -0.1350 H     1 <1>   0.0800 
 39 H       -7.3090     9.2520    -1.0890 H     1 <1>   0.0800 
 40 H       -5.3190    11.0980    -0.9050 H     1 <1>   0.0800 
 41 H       -5.6100    12.4410     0.1560 H     1 <1>   0.0800 
 42 H       -7.8170    11.6260     0.7240 H     1 <1>   0.0800 
 43 H       -7.6860    11.6590    -1.0100 H     1 <1>   0.0800 
@<TRIPOS>BOND
  1   1   2  1   
  2   2   3  ar  
  3   2   4  ar  
  4   3   5  1   
  5   3   6  ar  
  6   4   7  ar  
  7   4  25  1   
  8   6   8  ar  
  9   6  26  1   
 10   7   8  ar  
 11   7   9  1   
 12   8  27  1   
 13   9  10  am  
 14   9  28  1   
 15  10  11  2   
 16  10  12  1   
 17  12  13  1   
 18  12  14  1   
 19  12  29  1   
 20  13  15  ar  
 21  13  30  1   
 22  14  16  1   
 23  14  31  1   
 24  14  32  1   
 25  15  17  ar  
 26  15  18  ar  
 27  16  18  1   
 28  16  19  2   
 29  17  20  1   
 30  17  21  1   
 31  18  33  1   
 32  20  22  1   
 33  20  34  1   
 34  20  35  1   
 35  21  23  1   
 36  21  36  1   
 37  21  37  1   
 38  22  24  1   
 39  22  38  1   
 40  22  39  1   
 41  23  24  1   
 42  23  40  1   
 43  23  41  1   
 44  24  42  1   
 45  24  43  1   
@<TRIPOS>SUBSTRUCTURE
  1 ****  12 GROUP 4 **** **** 0

# MOE 2024.06 (io_trps.svl 2023.06)
