@<TRIPOS>MOLECULE
NONAME
44 45 1 0 0 
SMALL
USER_CHARGES


@<TRIPOS>ATOM
  1 O        1.2690     1.0480     3.0040 O.2   1 <1>  -0.5700 
  2 C        1.8700     1.4310     2.0270 C.2   1 <1>   0.6900 
  3 N        3.1130     0.9610     1.7580 N.am  1 <1>  -0.5390 
  4 N        1.3310     2.3330     1.1930 N.am  1 <1>  -0.7300 
  5 C        3.8820     1.3630     0.6860 C.2   1 <1>  -0.0290 
  6 C        2.0730     2.9910     0.1000 C.3   1 <1>   0.5020 
  7 C        3.4390     2.3430    -0.1510 C.2   1 <1>  -0.1240 
  8 C        5.1940     0.6030     0.5650 C.3   1 <1>  -0.1020 
  9 C        2.2230     4.4620     0.4850 C.ar  1 <1>  -0.1440 
 10 C        4.0940     2.9080    -1.2880 C.2   1 <1>   0.7060 
 11 C        1.4970     5.4520    -0.1700 C.ar  1 <1>   0.0830 
 12 C        3.0910     4.8250     1.5070 C.ar  1 <1>  -0.1500 
 13 O        3.4940     3.3520    -2.2490 O.2   1 <1>  -0.5700 
 14 O        5.4310     2.9740    -1.2930 O.3   1 <1>  -0.4300 
 15 O        0.6400     5.0750    -1.1550 O.3   1 <1>  -0.3630 
 16 C        1.6320     6.7950     0.2010 C.ar  1 <1>   0.0830 
 17 C        3.2480     6.1530     1.8600 C.ar  1 <1>  -0.1500 
 18 C        6.1440     3.5630    -2.3620 C.3   1 <1>   0.0400 
 19 C        0.9420     5.5170    -2.4620 C.3   1 <1>   0.0400 
 20 O        0.8600     7.7440    -0.3950 O.3   1 <1>  -0.3630 
 21 C        2.5380     7.1460     1.2070 C.ar  1 <1>   0.0830 
 22 C       -0.4380     7.8680     0.1370 C.3   1 <1>   0.0400 
 23 O        2.7730     8.4200     1.6220 O.3   1 <1>  -0.3630 
 24 C        2.9510     9.4340     0.6560 C.3   1 <1>   0.0400 
 25 H        3.4320     0.2550     2.4200 H     1 <1>   0.3700 
 26 H        0.4680     2.7860     1.4850 H     1 <1>   0.3700 
 27 H        1.4840     2.8880    -0.7950 H     1 <1>   0.0800 
 28 H        5.0330    -0.4440     0.7500 H     1 <1>   0.0800 
 29 H        5.9000     0.9770     1.2850 H     1 <1>   0.0800 
 30 H        5.6210     0.6900    -0.4160 H     1 <1>   0.0800 
 31 H        3.6500     4.0720     2.0370 H     1 <1>   0.1500 
 32 H        3.9260     6.4280     2.6480 H     1 <1>   0.1500 
 33 H        7.1950     3.5040    -2.1440 H     1 <1>   0.0800 
 34 H        5.8430     4.5920    -2.4570 H     1 <1>   0.0800 
 35 H        5.9220     3.0250    -3.2680 H     1 <1>   0.0800 
 36 H        0.3780     4.9220    -3.1570 H     1 <1>   0.0800 
 37 H        1.9950     5.3920    -2.6440 H     1 <1>   0.0800 
 38 H        0.6670     6.5510    -2.5590 H     1 <1>   0.0800 
 39 H       -0.9470     8.6530    -0.3910 H     1 <1>   0.0800 
 40 H       -0.3610     8.1130     1.1820 H     1 <1>   0.0800 
 41 H       -0.9600     6.9360     0.0070 H     1 <1>   0.0800 
 42 H        3.5230    10.2260     1.1030 H     1 <1>   0.0800 
 43 H        1.9880     9.8060     0.3580 H     1 <1>   0.0800 
 44 H        3.4790     9.0280    -0.1900 H     1 <1>   0.0800 
@<TRIPOS>BOND
  1   1   2  2   
  2   2   3  am  
  3   2   4  am  
  4   3   5  1   
  5   3  25  1   
  6   4   6  1   
  7   4  26  1   
  8   5   7  2   
  9   5   8  1   
 10   6   7  1   
 11   6   9  1   
 12   6  27  1   
 13   7  10  1   
 14   8  28  1   
 15   8  29  1   
 16   8  30  1   
 17   9  11  ar  
 18   9  12  ar  
 19  10  13  2   
 20  10  14  1   
 21  11  15  1   
 22  11  16  ar  
 23  12  17  ar  
 24  12  31  1   
 25  14  18  1   
 26  15  19  1   
 27  16  20  1   
 28  16  21  ar  
 29  17  21  ar  
 30  17  32  1   
 31  18  33  1   
 32  18  34  1   
 33  18  35  1   
 34  19  36  1   
 35  19  37  1   
 36  19  38  1   
 37  20  22  1   
 38  21  23  1   
 39  22  39  1   
 40  22  40  1   
 41  22  41  1   
 42  23  24  1   
 43  24  42  1   
 44  24  43  1   
 45  24  44  1   
@<TRIPOS>SUBSTRUCTURE
  1 ****   9 GROUP 4 **** **** 0

# MOE 2024.06 (io_trps.svl 2023.06)
