@<TRIPOS>MOLECULE
NONAME
42 43 1 0 0 
SMALL
USER_CHARGES


@<TRIPOS>ATOM
  1 CL       0.0680     0.4660     0.2710 Cl    1 <1>  -0.1770 
  2 C       -1.6380     0.2910    -0.0780 C.ar  1 <1>   0.1770 
  3 C       -2.3800    -0.7740     0.4410 C.ar  1 <1>   0.0830 
  4 C       -2.2320     1.2560    -0.8690 C.ar  1 <1>  -0.1500 
  5 O       -1.8240    -1.7430     1.2100 O.3   1 <1>  -0.3630 
  6 C       -3.7480    -0.8450     0.1900 C.ar  1 <1>  -0.1440 
  7 C       -3.5850     1.1560    -1.1240 C.ar  1 <1>   0.1770 
  8 C       -0.7540    -2.5210     0.6750 C.3   1 <1>   0.1810 
  9 C       -4.3480     0.1270    -0.6010 C.ar  1 <1>  -0.1500 
 10 C       -4.5780    -1.9640     0.7880 C.3   1 <1>   0.4870 
 11 CL      -4.3590     2.3590    -2.1220 Cl    1 <1>  -0.1770 
 12 C       -1.2040    -3.9620     0.4560 C.2   1 <1>   0.5690 
 13 N       -4.7300    -3.0230    -0.2290 N.4   1 <1>  -0.9060 
 14 O       -2.2300    -4.1790    -0.1470 O.2   1 <1>  -0.5700 
 15 N       -0.4760    -4.9920     0.9300 N.am  1 <1>  -0.8000 
 16 C       -5.6340    -4.1190     0.1440 C.3   1 <1>   0.4230 
 17 C       -5.4440    -5.2560    -0.8650 C.3   1 <1>  -0.1600 
 18 C       -7.0890    -3.6280     0.1540 C.3   1 <1>  -0.1600 
 19 C       -6.4110    -6.4160    -0.5860 C.3   1 <1>  -0.1600 
 20 C       -8.0620    -4.7840     0.4320 C.3   1 <1>  -0.1600 
 21 C       -7.8650    -5.9310    -0.5680 C.3   1 <1>  -0.1600 
 22 H       -1.6570     2.0700    -1.2720 H     1 <1>   0.1500 
 23 H        0.0600    -2.4820     1.3750 H     1 <1>   0.0800 
 24 H       -0.4360    -2.1100    -0.2650 H     1 <1>   0.0800 
 25 H       -5.4030     0.1100    -0.8180 H     1 <1>   0.1500 
 26 H       -5.5410    -1.5770     1.0770 H     1 <1>   0.0800 
 27 H       -4.0890    -2.3590     1.6650 H     1 <1>   0.0800 
 28 H       -3.7880    -3.4380    -0.3660 H     1 <1>   0.4500 
 29 H       -5.0010    -2.6230    -1.1290 H     1 <1>   0.4500 
 30 H       -0.7710    -5.9560     0.7550 H     1 <1>   0.3700 
 31 H        0.3980    -4.8950     1.4510 H     1 <1>   0.3700 
 32 H       -5.3760    -4.4880     1.1250 H     1 <1>   0.0800 
 33 H       -4.4360    -5.6300    -0.8100 H     1 <1>   0.0800 
 34 H       -5.6210    -4.8960    -1.8640 H     1 <1>   0.0800 
 35 H       -7.3360    -3.1980    -0.8010 H     1 <1>   0.0800 
 36 H       -7.2320    -2.8830     0.9150 H     1 <1>   0.0800 
 37 H       -6.1730    -6.8670     0.3640 H     1 <1>   0.0800 
 38 H       -6.2960    -7.1740    -1.3430 H     1 <1>   0.0800 
 39 H       -9.0770    -4.4280     0.3700 H     1 <1>   0.0800 
 40 H       -7.9090    -5.1560     1.4320 H     1 <1>   0.0800 
 41 H       -8.5130    -6.7510    -0.3060 H     1 <1>   0.0800 
 42 H       -8.1460    -5.6000    -1.5540 H     1 <1>   0.0800 
@<TRIPOS>BOND
  1   1   2  1   
  2   2   3  ar  
  3   2   4  ar  
  4   3   5  1   
  5   3   6  ar  
  6   4   7  ar  
  7   4  22  1   
  8   5   8  1   
  9   6   9  ar  
 10   6  10  1   
 11   7   9  ar  
 12   7  11  1   
 13   8  12  1   
 14   8  23  1   
 15   8  24  1   
 16   9  25  1   
 17  10  13  1   
 18  10  26  1   
 19  10  27  1   
 20  12  14  2   
 21  12  15  am  
 22  13  16  1   
 23  13  28  1   
 24  13  29  1   
 25  15  30  1   
 26  15  31  1   
 27  16  17  1   
 28  16  18  1   
 29  16  32  1   
 30  17  19  1   
 31  17  33  1   
 32  17  34  1   
 33  18  20  1   
 34  18  35  1   
 35  18  36  1   
 36  19  21  1   
 37  19  37  1   
 38  19  38  1   
 39  20  21  1   
 40  20  39  1   
 41  20  40  1   
 42  21  41  1   
 43  21  42  1   
@<TRIPOS>SUBSTRUCTURE
  1 ****  13 GROUP 4 **** **** 0

# MOE 2024.06 (io_trps.svl 2023.06)
