@<TRIPOS>MOLECULE
NONAME
53 55 1 0 0 
SMALL
USER_CHARGES


@<TRIPOS>ATOM
  1 CL       0.4460    -0.6400     0.5430 Cl    1 <1>  -0.1770 
  2 C        2.1310    -0.2240     0.2870 C.ar  1 <1>   0.1770 
  3 C        2.6440     0.9210     0.8830 C.ar  1 <1>  -0.1440 
  4 C        2.9180    -1.0480    -0.5060 C.ar  1 <1>  -0.1440 
  5 C        3.9760     1.2440     0.6770 C.ar  1 <1>  -0.1500 
  6 C        1.7650     1.8120     1.7510 C.3   1 <1>  -0.0960 
  7 C        4.2470    -0.7080    -0.7000 C.ar  1 <1>  -0.1500 
  8 C        2.3460    -2.3000    -1.1550 C.3   1 <1>  -0.0960 
  9 C        4.7820     0.4300    -0.1170 C.ar  1 <1>   0.0830 
 10 O        6.0920     0.6780    -0.3670 O.3   1 <1>  -0.3630 
 11 C        6.7310     1.8370     0.1270 C.3   1 <1>   0.1200 
 12 C        8.1880     1.8270    -0.3540 C.3   1 <1>   0.2000 
 13 O        8.7650     0.5990    -0.0250 O.3   1 <1>  -0.6800 
 14 C        9.0310     2.9590     0.2710 C.3   1 <1>   0.3430 
 15 N       10.4850     2.6070     0.2470 N.4   1 <1>  -0.9590 
 16 C       11.2830     3.3090     1.3140 C.3   1 <1>   0.3430 
 17 C       11.1100     2.7720    -1.1150 C.3   1 <1>   0.3430 
 18 C       12.7750     2.9160     1.2920 C.3   1 <1>   0.2090 
 19 C       12.6010     2.3770    -1.1310 C.3   1 <1>   0.2090 
 20 N       13.3660     3.0930    -0.0670 N.pl3 1 <1>  -0.8380 
 21 C       14.7270     2.8820    -0.1180 C.ar  1 <1>   0.4100 
 22 N       15.1370     1.6460     0.1310 N.ar  1 <1>  -0.6200 
 23 C       15.5830     3.9370    -0.4160 C.ar  1 <1>  -0.1500 
 24 C       16.4460     1.4580     0.0800 C.ar  1 <1>   0.1600 
 25 C       16.9410     3.7270    -0.4650 C.ar  1 <1>  -0.1500 
 26 C       17.3760     2.4420    -0.2070 C.ar  1 <1>  -0.1500 
 27 H        4.3670     2.1280     1.1400 H     1 <1>   0.1500 
 28 H        1.3810     1.2490     2.5830 H     1 <1>   0.0800 
 29 H        0.9360     2.1820     1.1740 H     1 <1>   0.0800 
 30 H        2.3150     2.6520     2.1330 H     1 <1>   0.0800 
 31 H        4.8810    -1.3260    -1.3100 H     1 <1>   0.1500 
 32 H        1.5330    -2.0370    -1.8070 H     1 <1>   0.0800 
 33 H        1.9800    -2.9710    -0.3980 H     1 <1>   0.0800 
 34 H        3.0930    -2.8140    -1.7320 H     1 <1>   0.0800 
 35 H        6.6830     1.8190     1.2020 H     1 <1>   0.0800 
 36 H        6.2090     2.6990    -0.2510 H     1 <1>   0.0800 
 37 H        8.1990     1.9170    -1.4260 H     1 <1>   0.0800 
 38 H        8.1080    -0.1140    -0.2110 H     1 <1>   0.4000 
 39 H        8.7160     3.0810     1.2940 H     1 <1>   0.0800 
 40 H        8.8530     3.8890    -0.2430 H     1 <1>   0.0800 
 41 H       10.4930     1.5870     0.4440 H     1 <1>   0.4500 
 42 H       10.8780     3.0800     2.2850 H     1 <1>   0.0800 
 43 H       11.2190     4.3750     1.1690 H     1 <1>   0.0800 
 44 H       11.0350     3.8010    -1.4250 H     1 <1>   0.0800 
 45 H       10.5840     2.1670    -1.8340 H     1 <1>   0.0800 
 46 H       12.8830     1.8890     1.6010 H     1 <1>   0.0800 
 47 H       13.3160     3.5270     1.9940 H     1 <1>   0.0800 
 48 H       13.0240     2.6170    -2.0920 H     1 <1>   0.0800 
 49 H       12.6950     1.3130    -0.9900 H     1 <1>   0.0800 
 50 H       15.1670     4.9080    -0.6040 H     1 <1>   0.1500 
 51 H       16.8010     0.4610     0.2780 H     1 <1>   0.1500 
 52 H       17.6310     4.5210    -0.6920 H     1 <1>   0.1500 
 53 H       18.4250     2.2070    -0.2290 H     1 <1>   0.1500 
@<TRIPOS>BOND
  1   1   2  1   
  2   2   3  ar  
  3   2   4  ar  
  4   3   5  ar  
  5   3   6  1   
  6   4   7  ar  
  7   4   8  1   
  8   5   9  ar  
  9   5  27  1   
 10   6  28  1   
 11   6  29  1   
 12   6  30  1   
 13   7   9  ar  
 14   7  31  1   
 15   8  32  1   
 16   8  33  1   
 17   8  34  1   
 18   9  10  1   
 19  10  11  1   
 20  11  12  1   
 21  11  35  1   
 22  11  36  1   
 23  12  13  1   
 24  12  14  1   
 25  12  37  1   
 26  13  38  1   
 27  14  15  1   
 28  14  39  1   
 29  14  40  1   
 30  15  16  1   
 31  15  17  1   
 32  15  41  1   
 33  16  18  1   
 34  16  42  1   
 35  16  43  1   
 36  17  19  1   
 37  17  44  1   
 38  17  45  1   
 39  18  20  1   
 40  18  46  1   
 41  18  47  1   
 42  19  20  1   
 43  19  48  1   
 44  19  49  1   
 45  20  21  1   
 46  21  22  ar  
 47  21  23  ar  
 48  22  24  ar  
 49  23  25  ar  
 50  23  50  1   
 51  24  26  ar  
 52  24  51  1   
 53  25  26  ar  
 54  25  52  1   
 55  26  53  1   
@<TRIPOS>SUBSTRUCTURE
  1 ****  12 GROUP 4 **** **** 0

# MOE 2024.06 (io_trps.svl 2023.06)
