@<TRIPOS>MOLECULE
NONAME
45 46 1 0 0 
SMALL
USER_CHARGES


@<TRIPOS>ATOM
  1 O        3.3460    -9.5370     0.1850 O.3   1 <1>  -0.5600 
  2 C        3.0510    -8.6770    -0.8820 C.3   1 <1>   0.1200 
  3 C        2.7830   -10.8160     0.0640 C.3   1 <1>   0.1200 
  4 C        1.5240    -8.4720    -1.0230 C.3   1 <1>   0.3430 
  5 C        1.2470   -10.7420    -0.1080 C.3   1 <1>   0.3430 
  6 N        0.7590    -9.3220    -0.0440 N.4   1 <1>  -0.9590 
  7 C       -0.7300    -9.2320    -0.1820 C.3   1 <1>   0.3430 
  8 C       -1.2740    -7.8440     0.1680 C.3   1 <1>   0.1200 
  9 O       -2.6640    -7.8850    -0.0270 O.3   1 <1>  -0.3630 
 10 C       -3.4360    -6.7880     0.1770 C.ar  1 <1>   0.0820 
 11 C       -4.7840    -6.9170    -0.1120 C.ar  1 <1>  -0.1500 
 12 C       -2.9480    -5.5730     0.6510 C.ar  1 <1>  -0.1500 
 13 C       -5.6550    -5.8530     0.0590 C.ar  1 <1>  -0.1430 
 14 C       -3.8080    -4.5020     0.8270 C.ar  1 <1>  -0.1430 
 15 C       -5.1530    -4.6480     0.5300 C.ar  1 <1>  -0.1500 
 16 C       -7.1370    -6.0220    -0.2690 C.3   1 <1>   0.0630 
 17 C       -3.2980    -3.1680     1.3420 C.3   1 <1>  -0.0970 
 18 C       -7.5600    -5.0690    -1.3920 C.3   1 <1>  -0.2400 
 19 C       -8.0000    -5.8120     0.9780 C.3   1 <1>  -0.2400 
 20 H        3.4670    -9.0920    -1.7850 H     1 <1>   0.0800 
 21 H        3.5370    -7.7360    -0.6910 H     1 <1>   0.0800 
 22 H        3.0300   -11.3670     0.9550 H     1 <1>   0.0800 
 23 H        3.2380   -11.3160    -0.7750 H     1 <1>   0.0800 
 24 H        1.2320    -8.7150    -2.0320 H     1 <1>   0.0800 
 25 H        1.2990    -7.4300    -0.8640 H     1 <1>   0.0800 
 26 H        0.7800   -11.3310     0.6640 H     1 <1>   0.0800 
 27 H        0.9810   -11.1800    -1.0560 H     1 <1>   0.0800 
 28 H        1.0510    -8.9920     0.8900 H     1 <1>   0.4500 
 29 H       -1.1940    -9.9460     0.4780 H     1 <1>   0.0800 
 30 H       -1.0140    -9.4710    -1.1940 H     1 <1>   0.0800 
 31 H       -0.8730    -7.0880    -0.4840 H     1 <1>   0.0800 
 32 H       -1.0880    -7.6060     1.2000 H     1 <1>   0.0800 
 33 H       -5.1460    -7.8610    -0.4750 H     1 <1>   0.1500 
 34 H       -1.9120    -5.4410     0.8880 H     1 <1>   0.1500 
 35 H       -5.8150    -3.8130     0.6670 H     1 <1>   0.1500 
 36 H       -7.3020    -7.0280    -0.6150 H     1 <1>   0.0800 
 37 H       -2.2760    -3.2410     1.6650 H     1 <1>   0.0800 
 38 H       -3.8960    -2.8450     2.1750 H     1 <1>   0.0800 
 39 H       -3.3620    -2.4290     0.5630 H     1 <1>   0.0800 
 40 H       -7.4640    -4.0440    -1.0820 H     1 <1>   0.0800 
 41 H       -8.5830    -5.2510    -1.6680 H     1 <1>   0.0800 
 42 H       -6.9390    -5.2250    -2.2560 H     1 <1>   0.0800 
 43 H       -7.9140    -4.8030     1.3390 H     1 <1>   0.0800 
 44 H       -7.6840    -6.4820     1.7580 H     1 <1>   0.0800 
 45 H       -9.0330    -6.0100     0.7550 H     1 <1>   0.0800 
@<TRIPOS>BOND
  1   1   2  1   
  2   1   3  1   
  3   2   4  1   
  4   2  20  1   
  5   2  21  1   
  6   3   5  1   
  7   3  22  1   
  8   3  23  1   
  9   4   6  1   
 10   4  24  1   
 11   4  25  1   
 12   5   6  1   
 13   5  26  1   
 14   5  27  1   
 15   6   7  1   
 16   6  28  1   
 17   7   8  1   
 18   7  29  1   
 19   7  30  1   
 20   8   9  1   
 21   8  31  1   
 22   8  32  1   
 23   9  10  1   
 24  10  11  ar  
 25  10  12  ar  
 26  11  13  ar  
 27  11  33  1   
 28  12  14  ar  
 29  12  34  1   
 30  13  15  ar  
 31  13  16  1   
 32  14  15  ar  
 33  14  17  1   
 34  15  35  1   
 35  16  18  1   
 36  16  19  1   
 37  16  36  1   
 38  17  37  1   
 39  17  38  1   
 40  17  39  1   
 41  18  40  1   
 42  18  41  1   
 43  18  42  1   
 44  19  43  1   
 45  19  44  1   
 46  19  45  1   
@<TRIPOS>SUBSTRUCTURE
  1 ****   9 GROUP 4 **** **** 0

# MOE 2024.06 (io_trps.svl 2023.06)
