@<TRIPOS>MOLECULE
NONAME
50 52 1 0 0 
SMALL
USER_CHARGES


@<TRIPOS>ATOM
  1 O        0.5580    -6.7210    -0.2520 O.2   1 <1>  -0.5700 
  2 C       -0.5510    -6.2190    -0.2280 C.2   1 <1>   0.8060 
  3 O       -1.5570    -6.8140    -0.8630 O.3   1 <1>  -0.4300 
  4 C       -0.7940    -4.9810     0.4640 C.2   1 <1>  -0.0860 
  5 C       -1.3940    -8.0250    -1.5660 C.3   1 <1>   0.1200 
  6 C       -1.9540    -4.1650     0.3600 C.ar  1 <1>   0.0000 
  7 C        0.0220    -4.3220     1.3340 C.2   1 <1>  -0.0400 
  8 C       -2.7430    -8.3970    -2.1730 C.3   1 <1>  -0.2400 
  9 C       -1.7140    -3.0780     1.1800 C.ar  1 <1>   0.1400 
 10 C       -3.1630    -4.2230    -0.3350 C.ar  1 <1>  -0.1500 
 11 O       -0.5170    -3.1960     1.7510 O.3   1 <1>  -0.2800 
 12 C        1.4020    -4.6730     1.8700 C.3   1 <1>   0.5230 
 13 C       -2.6280    -2.0470     1.3400 C.ar  1 <1>  -0.1500 
 14 C       -4.0890    -3.2070    -0.1940 C.ar  1 <1>   0.0830 
 15 N        2.3660    -4.8550     0.7510 N.4   1 <1>  -0.9590 
 16 C       -3.8200    -2.1150     0.6480 C.ar  1 <1>  -0.1500 
 17 O       -5.2410    -3.3350    -0.9030 O.3   1 <1>  -0.3620 
 18 C        3.6860    -5.3460     1.2280 C.3   1 <1>   0.3430 
 19 C        2.4840    -3.6320    -0.0940 C.3   1 <1>   0.3430 
 20 C       -6.2710    -2.3760    -0.8100 C.3   1 <1>   0.0400 
 21 C        4.5680    -5.6830     0.0250 C.3   1 <1>  -0.1600 
 22 C        3.3460    -3.9400    -1.3180 C.3   1 <1>  -0.1600 
 23 C        4.7260    -4.4800    -0.9180 C.3   1 <1>  -0.0800 
 24 C        5.5330    -4.8710    -2.1600 C.3   1 <1>  -0.2400 
 25 H       -1.0610    -8.7830    -0.8760 H     1 <1>   0.0800 
 26 H       -0.6540    -7.8820    -2.3350 H     1 <1>   0.0800 
 27 H       -3.4770    -8.5280    -1.3990 H     1 <1>   0.0800 
 28 H       -2.6540    -9.3210    -2.7170 H     1 <1>   0.0800 
 29 H       -3.0700    -7.6310    -2.8530 H     1 <1>   0.0800 
 30 H       -3.3870    -5.0510    -0.9820 H     1 <1>   0.1500 
 31 H        1.3330    -5.5810     2.4470 H     1 <1>   0.0800 
 32 H        1.7390    -3.8820     2.5210 H     1 <1>   0.0800 
 33 H       -2.3980    -1.2230     1.9910 H     1 <1>   0.1500 
 34 H        1.9630    -5.6050     0.1560 H     1 <1>   0.4500 
 35 H       -4.5320    -1.3200     0.7660 H     1 <1>   0.1500 
 36 H        3.5580    -6.2300     1.8330 H     1 <1>   0.0800 
 37 H        4.1660    -4.5880     1.8250 H     1 <1>   0.0800 
 38 H        2.9350    -2.8350     0.4750 H     1 <1>   0.0800 
 39 H        1.5080    -3.3060    -0.4190 H     1 <1>   0.0800 
 40 H       -7.0800    -2.6930    -1.4430 H     1 <1>   0.0800 
 41 H       -5.8960    -1.4250    -1.1460 H     1 <1>   0.0800 
 42 H       -6.6070    -2.3210     0.2100 H     1 <1>   0.0800 
 43 H        4.1390    -6.5170    -0.5040 H     1 <1>   0.0800 
 44 H        5.5370    -5.9900     0.3790 H     1 <1>   0.0800 
 45 H        3.4660    -3.0380    -1.8940 H     1 <1>   0.0800 
 46 H        2.8320    -4.6530    -1.9400 H     1 <1>   0.0800 
 47 H        5.2650    -3.7030    -0.3990 H     1 <1>   0.0800 
 48 H        5.0360    -5.6480    -2.7150 H     1 <1>   0.0800 
 49 H        6.5090    -5.2270    -1.8780 H     1 <1>   0.0800 
 50 H        5.6630    -4.0210    -2.8070 H     1 <1>   0.0800 
@<TRIPOS>BOND
  1   1   2  2   
  2   2   3  1   
  3   2   4  1   
  4   3   5  1   
  5   4   6  1   
  6   4   7  2   
  7   5   8  1   
  8   5  25  1   
  9   5  26  1   
 10   6   9  ar  
 11   6  10  ar  
 12   7  11  1   
 13   7  12  1   
 14   8  27  1   
 15   8  28  1   
 16   8  29  1   
 17   9  11  1   
 18   9  13  ar  
 19  10  14  ar  
 20  10  30  1   
 21  12  15  1   
 22  12  31  1   
 23  12  32  1   
 24  13  16  ar  
 25  13  33  1   
 26  14  16  ar  
 27  14  17  1   
 28  15  18  1   
 29  15  19  1   
 30  15  34  1   
 31  16  35  1   
 32  17  20  1   
 33  18  21  1   
 34  18  36  1   
 35  18  37  1   
 36  19  22  1   
 37  19  38  1   
 38  19  39  1   
 39  20  40  1   
 40  20  41  1   
 41  20  42  1   
 42  21  23  1   
 43  21  43  1   
 44  21  44  1   
 45  22  23  1   
 46  22  45  1   
 47  22  46  1   
 48  23  24  1   
 49  23  47  1   
 50  24  48  1   
 51  24  49  1   
 52  24  50  1   
@<TRIPOS>SUBSTRUCTURE
  1 ****   4 GROUP 4 **** **** 0

# MOE 2024.06 (io_trps.svl 2023.06)
