@<TRIPOS>MOLECULE
NONAME
37 39 1 0 0 
SMALL
USER_CHARGES


@<TRIPOS>ATOM
  1 O        0.6680    -0.7590    -0.9220 O.3   1 <1>  -0.3630 
  2 C       -0.0540    -1.7640    -0.4190 C.ar  1 <1>   0.0830 
  3 C        1.6320    -0.4100     0.0710 C.3   1 <1>   0.4000 
  4 C        0.3770    -2.0700     0.8380 C.ar  1 <1>   0.0830 
  5 C       -1.0970    -2.4450    -1.0120 C.ar  1 <1>  -0.1500 
  6 O        1.3910    -1.2720     1.1830 O.3   1 <1>  -0.3630 
  7 C       -0.2100    -3.0790     1.5730 C.ar  1 <1>  -0.1500 
  8 C       -1.7150    -3.4610    -0.2870 C.ar  1 <1>  -0.1440 
  9 C       -1.2640    -3.7770     0.9970 C.ar  1 <1>  -0.1500 
 10 C       -2.8790    -4.2190    -0.8950 C.3   1 <1>   0.4870 
 11 N       -4.1330    -3.7840    -0.2220 N.4   1 <1>  -0.9590 
 12 C       -5.2370    -4.7380    -0.5150 C.3   1 <1>   0.3430 
 13 C       -4.4510    -2.3610    -0.5410 C.3   1 <1>   0.3430 
 14 C       -6.4650    -4.4900     0.3640 C.3   1 <1>  -0.1600 
 15 C       -5.1990    -1.7260     0.6310 C.3   1 <1>  -0.1600 
 16 C       -7.2420    -3.2230    -0.0230 C.3   1 <1>  -0.1600 
 17 C       -6.7230    -1.9360     0.6320 C.3   1 <1>  -0.1600 
 18 H        1.4920     0.6140     0.3700 H     1 <1>   0.0800 
 19 H        2.6230    -0.5820    -0.3100 H     1 <1>   0.0800 
 20 H       -1.3970    -2.1720    -2.0090 H     1 <1>   0.1500 
 21 H        0.1530    -3.3060     2.5610 H     1 <1>   0.1500 
 22 H       -1.7200    -4.5700     1.5640 H     1 <1>   0.1500 
 23 H       -2.7240    -5.2750    -0.7460 H     1 <1>   0.0800 
 24 H       -2.9360    -4.0280    -1.9550 H     1 <1>   0.0800 
 25 H       -3.9400    -3.8150     0.7860 H     1 <1>   0.4500 
 26 H       -4.8930    -5.7440    -0.3350 H     1 <1>   0.0800 
 27 H       -5.5200    -4.6660    -1.5530 H     1 <1>   0.0800 
 28 H       -5.0290    -2.2850    -1.4480 H     1 <1>   0.0800 
 29 H       -3.5350    -1.8100    -0.6800 H     1 <1>   0.0800 
 30 H       -6.2010    -4.4810     1.4070 H     1 <1>   0.0800 
 31 H       -7.1260    -5.3280     0.2180 H     1 <1>   0.0800 
 32 H       -5.0220    -0.6640     0.5990 H     1 <1>   0.0800 
 33 H       -4.7790    -2.0740     1.5580 H     1 <1>   0.0800 
 34 H       -8.2700    -3.3470     0.2770 H     1 <1>   0.0800 
 35 H       -7.2490    -3.1120    -1.0950 H     1 <1>   0.0800 
 36 H       -7.1870    -1.1040     0.1280 H     1 <1>   0.0800 
 37 H       -7.0660    -1.9010     1.6540 H     1 <1>   0.0800 
@<TRIPOS>BOND
  1   1   2  1   
  2   1   3  1   
  3   2   4  ar  
  4   2   5  ar  
  5   3   6  1   
  6   3  18  1   
  7   3  19  1   
  8   4   6  1   
  9   4   7  ar  
 10   5   8  ar  
 11   5  20  1   
 12   7   9  ar  
 13   7  21  1   
 14   8   9  ar  
 15   8  10  1   
 16   9  22  1   
 17  10  11  1   
 18  10  23  1   
 19  10  24  1   
 20  11  12  1   
 21  11  13  1   
 22  11  25  1   
 23  12  14  1   
 24  12  26  1   
 25  12  27  1   
 26  13  15  1   
 27  13  28  1   
 28  13  29  1   
 29  14  16  1   
 30  14  30  1   
 31  14  31  1   
 32  15  17  1   
 33  15  32  1   
 34  15  33  1   
 35  16  17  1   
 36  16  34  1   
 37  16  35  1   
 38  17  36  1   
 39  17  37  1   
@<TRIPOS>SUBSTRUCTURE
  1 ****   8 GROUP 4 **** **** 0

# MOE 2024.06 (io_trps.svl 2023.06)
