@<TRIPOS>MOLECULE
NONAME
29 29 1 0 0 
SMALL
USER_CHARGES


@<TRIPOS>ATOM
  1 F        0.5100    -0.2260     0.0760 F     1 <1>  -0.1900 
  2 C        1.8080    -0.1470    -0.0030 C.ar  1 <1>   0.1900 
  3 C        2.5480    -1.3130    -0.0510 C.ar  1 <1>  -0.1500 
  4 C        2.4030     1.0980    -0.0390 C.ar  1 <1>  -0.1500 
  5 C        3.9270    -1.2220    -0.1340 C.ar  1 <1>  -0.1500 
  6 C        3.7830     1.1700    -0.1210 C.ar  1 <1>  -0.1500 
  7 C        4.5770     0.0190    -0.1630 C.ar  1 <1>   0.0860 
  8 C        6.0250     0.1220    -0.2370 C.2   1 <1>   0.5440 
  9 O        6.5520     1.0870    -0.7540 O.2   1 <1>  -0.5700 
 10 N        6.8240    -0.8540     0.2890 N.am  1 <1>  -0.7300 
 11 C        8.3000    -0.8600     0.2330 C.3   1 <1>   0.1400 
 12 C        8.7900    -2.3010     0.1210 C.3   1 <1>  -0.1600 
 13 C       10.3130    -2.3470     0.0200 C.3   1 <1>   0.1200 
 14 O       10.6890    -3.6820    -0.0330 O.3   1 <1>  -0.5600 
 15 C       12.0610    -3.8790    -0.1490 C.3   1 <1>   0.0400 
 16 H        2.0500    -2.2660    -0.0270 H     1 <1>   0.1500 
 17 H        1.7980     1.9860    -0.0050 H     1 <1>   0.1500 
 18 H        4.5070    -2.1260    -0.1850 H     1 <1>   0.1500 
 19 H        4.2650     2.1330    -0.1530 H     1 <1>   0.1500 
 20 H        6.4030    -1.5990     0.8440 H     1 <1>   0.3700 
 21 H        8.6890    -0.4000     1.1260 H     1 <1>   0.0800 
 22 H        8.6320    -0.2890    -0.6190 H     1 <1>   0.0800 
 23 H        8.3720    -2.7530    -0.7610 H     1 <1>   0.0800 
 24 H        8.4840    -2.8550     0.9900 H     1 <1>   0.0800 
 25 H       10.7680    -1.8950     0.8840 H     1 <1>   0.0800 
 26 H       10.6500    -1.8550    -0.8770 H     1 <1>   0.0800 
 27 H       12.2450    -4.9380    -0.1800 H     1 <1>   0.0800 
 28 H       12.5560    -3.4500     0.7060 H     1 <1>   0.0800 
 29 H       12.4100    -3.4240    -1.0590 H     1 <1>   0.0800 
@<TRIPOS>BOND
  1   1   2  1   
  2   2   3  ar  
  3   2   4  ar  
  4   3   5  ar  
  5   3  16  1   
  6   4   6  ar  
  7   4  17  1   
  8   5   7  ar  
  9   5  18  1   
 10   6   7  ar  
 11   6  19  1   
 12   7   8  1   
 13   8   9  2   
 14   8  10  am  
 15  10  11  1   
 16  10  20  1   
 17  11  12  1   
 18  11  21  1   
 19  11  22  1   
 20  12  13  1   
 21  12  23  1   
 22  12  24  1   
 23  13  14  1   
 24  13  25  1   
 25  13  26  1   
 26  14  15  1   
 27  15  27  1   
 28  15  28  1   
 29  15  29  1   
@<TRIPOS>SUBSTRUCTURE
  1 ****  10 GROUP 4 **** **** 0

# MOE 2024.06 (io_trps.svl 2023.06)
