@<TRIPOS>MOLECULE
NONAME
46 48 1 0 0 
SMALL
USER_CHARGES


@<TRIPOS>ATOM
  1 F       -1.5570    -1.0130     1.9590 F     1 <1>  -0.1900 
  2 C       -2.6590    -0.6920     1.3290 C.ar  1 <1>   0.1900 
  3 C       -3.8650    -1.1590     1.8160 C.ar  1 <1>  -0.1500 
  4 C       -2.5740     0.1010     0.2000 C.ar  1 <1>  -0.1500 
  5 C       -5.0260    -0.8160     1.1440 C.ar  1 <1>  -0.1500 
  6 C       -3.7440     0.4350    -0.4590 C.ar  1 <1>  -0.1500 
  7 C       -4.9750    -0.0170     0.0030 C.ar  1 <1>   0.1000 
  8 N       -6.1300     0.3390    -0.6830 N.pl3 1 <1>  -0.8380 
  9 C       -7.0370     1.2910     0.0250 C.3   1 <1>   0.2090 
 10 C       -6.8810    -0.7850    -1.3260 C.3   1 <1>   0.2090 
 11 C       -8.1330     1.8270    -0.9150 C.3   1 <1>   0.1400 
 12 C       -7.9630    -0.2490    -2.2780 C.3   1 <1>   0.1400 
 13 N       -8.8740     0.7040    -1.5710 N.am  1 <1>  -0.6600 
 14 C      -10.1000     0.2860    -1.1290 C.2   1 <1>   0.6900 
 15 O      -10.3490    -0.9020    -1.0510 O.2   1 <1>  -0.5700 
 16 N      -11.0210     1.2380    -0.8020 N.am  1 <1>  -0.5470 
 17 C      -12.2780     1.1510    -0.1880 C.ar  1 <1>   0.1170 
 18 C      -12.6500     0.0840     0.6230 C.ar  1 <1>  -0.1500 
 19 C      -13.1870     2.1860    -0.3760 C.ar  1 <1>  -0.1500 
 20 C      -13.8960     0.0440     1.2260 C.ar  1 <1>  -0.1430 
 21 C      -14.4350     2.1610     0.2220 C.ar  1 <1>  -0.1430 
 22 C      -14.7840     1.0870     1.0230 C.ar  1 <1>  -0.1500 
 23 C      -14.2940    -1.1270     2.1050 C.3   1 <1>  -0.0970 
 24 C      -15.4250     3.2930     0.0100 C.3   1 <1>  -0.0970 
 25 H       -3.8900    -1.7740     2.6970 H     1 <1>   0.1500 
 26 H       -1.6180     0.4450    -0.1490 H     1 <1>   0.1500 
 27 H       -5.9770    -1.1650     1.5000 H     1 <1>   0.1500 
 28 H       -3.7190     1.0490    -1.3410 H     1 <1>   0.1500 
 29 H       -6.4580     2.1140     0.4060 H     1 <1>   0.0800 
 30 H       -7.5000     0.7940     0.8600 H     1 <1>   0.0800 
 31 H       -7.3490    -1.3920    -0.5710 H     1 <1>   0.0800 
 32 H       -6.1940    -1.4030    -1.8770 H     1 <1>   0.0800 
 33 H       -7.6740     2.4370    -1.6740 H     1 <1>   0.0800 
 34 H       -8.8040     2.4470    -0.3480 H     1 <1>   0.0800 
 35 H       -8.5260    -1.0740    -2.6810 H     1 <1>   0.0800 
 36 H       -7.4890     0.2570    -3.1000 H     1 <1>   0.0800 
 37 H      -10.7920     2.1420    -1.1980 H     1 <1>   0.3700 
 38 H      -11.9580    -0.7220     0.7840 H     1 <1>   0.1500 
 39 H      -12.9140     3.0160    -1.0000 H     1 <1>   0.1500 
 40 H      -15.7520     1.0610     1.4910 H     1 <1>   0.1500 
 41 H      -13.5790    -1.9270     2.0220 H     1 <1>   0.0800 
 42 H      -15.2570    -1.5000     1.8060 H     1 <1>   0.0800 
 43 H      -14.3430    -0.8130     3.1310 H     1 <1>   0.0800 
 44 H      -15.0720     3.9800    -0.7370 H     1 <1>   0.0800 
 45 H      -15.5680     3.8280     0.9320 H     1 <1>   0.0800 
 46 H      -16.3710     2.8960    -0.3120 H     1 <1>   0.0800 
@<TRIPOS>BOND
  1   1   2  1   
  2   2   3  ar  
  3   2   4  ar  
  4   3   5  ar  
  5   3  25  1   
  6   4   6  ar  
  7   4  26  1   
  8   5   7  ar  
  9   5  27  1   
 10   6   7  ar  
 11   6  28  1   
 12   7   8  1   
 13   8   9  1   
 14   8  10  1   
 15   9  11  1   
 16   9  29  1   
 17   9  30  1   
 18  10  12  1   
 19  10  31  1   
 20  10  32  1   
 21  11  13  1   
 22  11  33  1   
 23  11  34  1   
 24  12  13  1   
 25  12  35  1   
 26  12  36  1   
 27  13  14  am  
 28  14  15  2   
 29  14  16  am  
 30  16  17  1   
 31  16  37  1   
 32  17  18  ar  
 33  17  19  ar  
 34  18  20  ar  
 35  18  38  1   
 36  19  21  ar  
 37  19  39  1   
 38  20  22  ar  
 39  20  23  1   
 40  21  22  ar  
 41  21  24  1   
 42  22  40  1   
 43  23  41  1   
 44  23  42  1   
 45  23  43  1   
 46  24  44  1   
 47  24  45  1   
 48  24  46  1   
@<TRIPOS>SUBSTRUCTURE
  1 ****  13 GROUP 4 **** **** 0

# MOE 2024.06 (io_trps.svl 2023.06)
