@<TRIPOS>MOLECULE
NONAME
54 58 1 0 0 
SMALL
USER_CHARGES


@<TRIPOS>ATOM
  1 S       -0.3910     0.2600    -0.2060 S.o2  1 <1>   1.2120 
  2 O        0.2490     0.2800    -1.5010 O.2   1 <1>  -0.6500 
  3 O       -1.7960    -0.0390    -0.0560 O.2   1 <1>  -0.6500 
  4 C        0.0120     1.7360     0.6880 C.2   1 <1>  -0.1670 
  5 C        0.5540    -0.7460     0.9240 C.3   1 <1>  -0.0550 
  6 C        0.9520     1.5870     1.6180 C.2   1 <1>  -0.2880 
  7 C        1.5000     0.1680     1.7330 C.3   1 <1>   0.3580 
  8 N        2.9050     0.0470     1.2270 N.am  1 <1>  -0.4770 
  9 C        3.4850     1.1990     0.6690 C.ar  1 <1>   0.1170 
 10 C        3.5580    -1.1500     1.4980 C.2   1 <1>   0.5690 
 11 C        4.2090     2.0710     1.4730 C.ar  1 <1>  -0.1500 
 12 C        3.3160     1.5170    -0.6730 C.ar  1 <1>  -0.1500 
 13 O        3.0450    -1.9180     2.2830 O.2   1 <1>  -0.5700 
 14 C        4.8840    -1.6090     0.8080 C.3   1 <1>   0.0610 
 15 C        4.7680     3.2210     0.9460 C.ar  1 <1>  -0.1500 
 16 C        3.8740     2.6660    -1.2020 C.ar  1 <1>  -0.1500 
 17 C        5.2920    -3.0240     1.3240 C.3   1 <1>  -0.1600 
 18 C        4.6940    -1.7330    -0.7260 C.3   1 <1>  -0.1600 
 19 C        6.0880    -0.6680     1.0830 C.3   1 <1>  -0.1600 
 20 C        4.6040     3.5240    -0.3960 C.ar  1 <1>  -0.1430 
 21 C        6.5710    -3.5470     0.6480 C.3   1 <1>  -0.0800 
 22 C        5.9770    -2.2360    -1.4170 C.3   1 <1>  -0.0800 
 23 C        7.3720    -1.1770     0.4010 C.3   1 <1>  -0.0800 
 24 C        5.2210     4.7830    -0.9780 C.3   1 <1>  -0.0970 
 25 C        6.3380    -3.6280    -0.8700 C.3   1 <1>  -0.1600 
 26 C        7.7240    -2.5730     0.9400 C.3   1 <1>  -0.1600 
 27 C        7.1310    -1.2610    -1.1180 C.3   1 <1>  -0.1600 
 28 H       -0.5070     2.6340     0.4160 H     1 <1>   0.1500 
 29 H        1.0870    -1.5220     0.4100 H     1 <1>   0.0800 
 30 H       -0.1230    -1.2060     1.6160 H     1 <1>   0.0800 
 31 H        1.3680     2.3370     2.2690 H     1 <1>   0.1500 
 32 H        1.4760    -0.1280     2.7690 H     1 <1>   0.0800 
 33 H        4.3370     1.8430     2.5160 H     1 <1>   0.1500 
 34 H        2.7440     0.8650    -1.3090 H     1 <1>   0.1500 
 35 H        5.3320     3.8790     1.5840 H     1 <1>   0.1500 
 36 H        3.7350     2.8900    -2.2450 H     1 <1>   0.1500 
 37 H        4.4940    -3.7220     1.1410 H     1 <1>   0.0800 
 38 H        5.4460    -2.9880     2.3890 H     1 <1>   0.0800 
 39 H        4.4400    -0.7820    -1.1480 H     1 <1>   0.0800 
 40 H        3.8830    -2.4070    -0.9380 H     1 <1>   0.0800 
 41 H        6.2470    -0.5790     2.1430 H     1 <1>   0.0800 
 42 H        5.9000     0.3100     0.6940 H     1 <1>   0.0800 
 43 H        6.8140    -4.5230     1.0320 H     1 <1>   0.0800 
 44 H        5.8180    -2.2940    -2.4800 H     1 <1>   0.0800 
 45 H        8.1830    -0.4970     0.6020 H     1 <1>   0.0800 
 46 H        4.6300     5.1450    -1.8010 H     1 <1>   0.0800 
 47 H        6.2140     4.5720    -1.3310 H     1 <1>   0.0800 
 48 H        5.2730     5.5560    -0.2330 H     1 <1>   0.0800 
 49 H        5.5410    -4.3200    -1.0810 H     1 <1>   0.0800 
 50 H        7.2260    -3.9930    -1.3570 H     1 <1>   0.0800 
 51 H        8.6270    -2.9270     0.4740 H     1 <1>   0.0800 
 52 H        7.9000    -2.5220     2.0000 H     1 <1>   0.0800 
 53 H        8.0280    -1.5970    -1.6100 H     1 <1>   0.0800 
 54 H        6.8930    -0.2850    -1.5040 H     1 <1>   0.0800 
@<TRIPOS>BOND
  1   1   2  2   
  2   1   3  2   
  3   1   4  1   
  4   1   5  1   
  5   4   6  2   
  6   4  28  1   
  7   5   7  1   
  8   5  29  1   
  9   5  30  1   
 10   6   7  1   
 11   6  31  1   
 12   7   8  1   
 13   7  32  1   
 14   8   9  1   
 15   8  10  am  
 16   9  11  ar  
 17   9  12  ar  
 18  10  13  2   
 19  10  14  1   
 20  11  15  ar  
 21  11  33  1   
 22  12  16  ar  
 23  12  34  1   
 24  14  17  1   
 25  14  18  1   
 26  14  19  1   
 27  15  20  ar  
 28  15  35  1   
 29  16  20  ar  
 30  16  36  1   
 31  17  21  1   
 32  17  37  1   
 33  17  38  1   
 34  18  22  1   
 35  18  39  1   
 36  18  40  1   
 37  19  23  1   
 38  19  41  1   
 39  19  42  1   
 40  20  24  1   
 41  21  25  1   
 42  21  26  1   
 43  21  43  1   
 44  22  25  1   
 45  22  27  1   
 46  22  44  1   
 47  23  26  1   
 48  23  27  1   
 49  23  45  1   
 50  24  46  1   
 51  24  47  1   
 52  24  48  1   
 53  25  49  1   
 54  25  50  1   
 55  26  51  1   
 56  26  52  1   
 57  27  53  1   
 58  27  54  1   
@<TRIPOS>SUBSTRUCTURE
  1 ****   8 GROUP 4 **** **** 0

# MOE 2024.06 (io_trps.svl 2023.06)
