@<TRIPOS>MOLECULE
NONAME
48 47 1 0 0 
SMALL
USER_CHARGES


@<TRIPOS>ATOM
  1 N        0.0650     0.7060    -0.8310 N.4   1 <1>  -0.9590 
  2 C        1.5010     0.3680    -1.1130 C.3   1 <1>   0.3430 
  3 C       -0.6900    -0.4870    -0.2870 C.3   1 <1>   0.3430 
  4 C       -0.5400     1.2770    -2.0810 C.3   1 <1>   0.2630 
  5 C        2.3140     0.1130     0.1720 C.3   1 <1>  -0.0800 
  6 C       -2.1370    -0.1730     0.1950 C.3   1 <1>   0.3430 
  7 C        3.7810    -0.1310    -0.2380 C.3   1 <1>  -0.1600 
  8 C        2.1990     1.2820     1.1720 C.3   1 <1>  -0.2400 
  9 N       -2.8890    -1.3610     0.7500 N.4   1 <1>  -0.9590 
 10 C        4.6930    -0.5960     0.9060 C.3   1 <1>  -0.0220 
 11 C       -4.3210    -0.9900     1.0170 C.3   1 <1>   0.2630 
 12 C       -2.2920    -1.9140     2.0140 C.3   1 <1>   0.2630 
 13 C        6.0630    -0.9360     0.3450 C.2   1 <1>  -0.2880 
 14 C        7.2050    -0.2470     0.4580 C.2   1 <1>  -0.2760 
 15 C        8.4980    -0.7530    -0.1620 C.3   1 <1>  -0.1020 
 16 C        7.4000     1.0820     1.1760 C.3   1 <1>  -0.1020 
 17 H        0.1100     1.4570    -0.1230 H     1 <1>   0.4500 
 18 H        1.5600    -0.4980    -1.7530 H     1 <1>   0.0800 
 19 H        1.9620     1.1900    -1.6370 H     1 <1>   0.0800 
 20 H       -0.7350    -1.2460    -1.0510 H     1 <1>   0.0800 
 21 H       -0.1420    -0.8900     0.5480 H     1 <1>   0.0800 
 22 H       -0.5640     0.5340    -2.8640 H     1 <1>   0.0800 
 23 H        0.0450     2.1150    -2.4290 H     1 <1>   0.0800 
 24 H       -1.5440     1.6230    -1.9000 H     1 <1>   0.0800 
 25 H        1.9610    -0.7890     0.6400 H     1 <1>   0.0800 
 26 H       -2.6920     0.2230    -0.6400 H     1 <1>   0.0800 
 27 H       -2.0910     0.5910     0.9540 H     1 <1>   0.0800 
 28 H        3.8120    -0.8880    -1.0040 H     1 <1>   0.0800 
 29 H        4.2010     0.7670    -0.6600 H     1 <1>   0.0800 
 30 H        2.5770     2.1930     0.7390 H     1 <1>   0.0800 
 31 H        2.7710     1.0790     2.0610 H     1 <1>   0.0800 
 32 H        1.1860     1.4430     1.4910 H     1 <1>   0.0800 
 33 H       -2.9170    -2.1240     0.0500 H     1 <1>   0.4500 
 34 H        4.2880    -1.4730     1.3800 H     1 <1>   0.0800 
 35 H        4.7770     0.1660     1.6560 H     1 <1>   0.0800 
 36 H       -4.3790    -0.2100     1.7590 H     1 <1>   0.0800 
 37 H       -4.8690    -1.8460     1.3800 H     1 <1>   0.0800 
 38 H       -4.7980    -0.6430     0.1140 H     1 <1>   0.0800 
 39 H       -2.2720    -1.1600     2.7850 H     1 <1>   0.0800 
 40 H       -1.2880    -2.2650     1.8450 H     1 <1>   0.0800 
 41 H       -2.8820    -2.7450     2.3710 H     1 <1>   0.0800 
 42 H        6.0360    -1.8660    -0.1990 H     1 <1>   0.1500 
 43 H        8.8670    -0.0460    -0.8830 H     1 <1>   0.0800 
 44 H        8.3430    -1.6940    -0.6600 H     1 <1>   0.0800 
 45 H        9.2440    -0.8930     0.6000 H     1 <1>   0.0800 
 46 H        8.0770     0.9550     2.0020 H     1 <1>   0.0800 
 47 H        6.4800     1.4810     1.5560 H     1 <1>   0.0800 
 48 H        7.8160     1.8070     0.5000 H     1 <1>   0.0800 
@<TRIPOS>BOND
  1   1   2  1   
  2   1   3  1   
  3   1   4  1   
  4   1  17  1   
  5   2   5  1   
  6   2  18  1   
  7   2  19  1   
  8   3   6  1   
  9   3  20  1   
 10   3  21  1   
 11   4  22  1   
 12   4  23  1   
 13   4  24  1   
 14   5   7  1   
 15   5   8  1   
 16   5  25  1   
 17   6   9  1   
 18   6  26  1   
 19   6  27  1   
 20   7  10  1   
 21   7  28  1   
 22   7  29  1   
 23   8  30  1   
 24   8  31  1   
 25   8  32  1   
 26   9  11  1   
 27   9  12  1   
 28   9  33  1   
 29  10  13  1   
 30  10  34  1   
 31  10  35  1   
 32  11  36  1   
 33  11  37  1   
 34  11  38  1   
 35  12  39  1   
 36  12  40  1   
 37  12  41  1   
 38  13  14  2   
 39  13  42  1   
 40  14  15  1   
 41  14  16  1   
 42  15  43  1   
 43  15  44  1   
 44  15  45  1   
 45  16  46  1   
 46  16  47  1   
 47  16  48  1   
@<TRIPOS>SUBSTRUCTURE
  1 ****   5 GROUP 4 **** **** 0

# MOE 2024.06 (io_trps.svl 2023.06)
