@<TRIPOS>MOLECULE
NONAME
39 39 1 0 0 
SMALL
USER_CHARGES


@<TRIPOS>ATOM
  1 S       -0.2300    -0.0870    -0.0990 S.o2  1 <1>   1.3330 
  2 O        0.7410     0.7660     0.5450 O.2   1 <1>  -0.6500 
  3 O       -1.6360     0.1760     0.0900 O.2   1 <1>  -0.6500 
  4 N        0.1260    -1.7120     0.3960 N.am  1 <1>  -0.6930 
  5 C        0.1210    -0.0980    -1.8460 C.3   1 <1>  -0.1350 
  6 C        1.3870    -2.2550     0.1850 C.ar  1 <1>   0.1990 
  7 C       -0.9780    -2.6230     0.8340 C.3   1 <1>   0.3370 
  8 C        1.5730    -3.2690    -0.7470 C.ar  1 <1>  -0.1500 
  9 C        2.4880    -1.7980     0.8980 C.ar  1 <1>  -0.1500 
 10 C       -2.0150    -2.9880    -0.2690 C.2   1 <1>   0.5690 
 11 C       -1.5800    -2.0760     2.1420 C.3   1 <1>  -0.2400 
 12 C        2.8250    -3.8180    -0.9560 C.ar  1 <1>  -0.1500 
 13 C        3.7410    -2.3440     0.6910 C.ar  1 <1>  -0.1500 
 14 O       -1.8700    -2.5250    -1.3800 O.2   1 <1>  -0.5700 
 15 N       -3.0500    -3.8730    -0.0280 N.am  1 <1>  -0.6600 
 16 C        3.9170    -3.3600    -0.2350 C.ar  1 <1>  -0.1430 
 17 C       -3.1480    -4.7960     1.1370 C.3   1 <1>   0.0600 
 18 C       -4.1550    -4.0370    -1.0150 C.3   1 <1>   0.0600 
 19 C        5.2930    -3.9590    -0.4630 C.3   1 <1>  -0.0970 
 20 H       -0.0150     0.8850    -2.2490 H     1 <1>   0.0800 
 21 H       -0.5340    -0.7690    -2.3630 H     1 <1>   0.0800 
 22 H        1.1340    -0.4040    -2.0170 H     1 <1>   0.0800 
 23 H       -0.5070    -3.5530     1.0940 H     1 <1>   0.0800 
 24 H        0.7320    -3.6230    -1.3180 H     1 <1>   0.1500 
 25 H        2.3550    -1.0080     1.6160 H     1 <1>   0.1500 
 26 H       -2.2920    -1.2970     1.9430 H     1 <1>   0.0800 
 27 H       -0.8020    -1.6930     2.7780 H     1 <1>   0.0800 
 28 H       -2.0920    -2.8500     2.6790 H     1 <1>   0.0800 
 29 H        2.9480    -4.6020    -1.6830 H     1 <1>   0.1500 
 30 H        4.5800    -1.9730     1.2540 H     1 <1>   0.1500 
 31 H       -2.1920    -4.9280     1.6090 H     1 <1>   0.0800 
 32 H       -3.4920    -5.7610     0.8080 H     1 <1>   0.0800 
 33 H       -3.8490    -4.4020     1.8520 H     1 <1>   0.0800 
 34 H       -4.1630    -3.2220    -1.7190 H     1 <1>   0.0800 
 35 H       -5.1030    -4.0500    -0.5050 H     1 <1>   0.0800 
 36 H       -4.0270    -4.9580    -1.5550 H     1 <1>   0.0800 
 37 H        5.2110    -4.9820    -0.7840 H     1 <1>   0.0800 
 38 H        5.8680    -3.9340     0.4460 H     1 <1>   0.0800 
 39 H        5.8130    -3.3980    -1.2180 H     1 <1>   0.0800 
@<TRIPOS>BOND
  1   1   2  2   
  2   1   3  2   
  3   1   4  am  
  4   1   5  1   
  5   4   6  1   
  6   4   7  1   
  7   5  20  1   
  8   5  21  1   
  9   5  22  1   
 10   6   8  ar  
 11   6   9  ar  
 12   7  10  1   
 13   7  11  1   
 14   7  23  1   
 15   8  12  ar  
 16   8  24  1   
 17   9  13  ar  
 18   9  25  1   
 19  10  14  2   
 20  10  15  am  
 21  11  26  1   
 22  11  27  1   
 23  11  28  1   
 24  12  16  ar  
 25  12  29  1   
 26  13  16  ar  
 27  13  30  1   
 28  15  17  1   
 29  15  18  1   
 30  16  19  1   
 31  17  31  1   
 32  17  32  1   
 33  17  33  1   
 34  18  34  1   
 35  18  35  1   
 36  18  36  1   
 37  19  37  1   
 38  19  38  1   
 39  19  39  1   
@<TRIPOS>SUBSTRUCTURE
  1 ****   4 GROUP 4 **** **** 0

# MOE 2024.06 (io_trps.svl 2023.06)
