@<TRIPOS>MOLECULE
NONAME
40 42 1 0 0 
SMALL
USER_CHARGES


@<TRIPOS>ATOM
  1 O        0.0910    -1.1900    -0.8280 O.3   1 <1>  -0.5600 
  2 C       -0.3570    -1.5900     0.4260 C.3   1 <1>   0.5600 
  3 C        1.2650    -0.4700    -0.6910 C.3   1 <1>   0.1200 
  4 O        0.6160    -1.2410     1.3430 O.3   1 <1>  -0.5600 
  5 C       -1.6470    -0.8560     0.7480 C.3   1 <1>  -0.1600 
  6 C       -0.5460    -3.0970     0.4190 C.3   1 <1>  -0.1600 
  7 C        1.7650    -0.8610     0.6790 C.3   1 <1>   0.1200 
  8 C       -2.7130    -1.2520    -0.2640 C.3   1 <1>   0.3430 
  9 C       -1.6260    -3.4590    -0.5910 C.3   1 <1>   0.3430 
 10 N       -2.8930    -2.7390    -0.2660 N.4   1 <1>  -0.9590 
 11 C       -3.9870    -3.1410    -1.1920 C.3   1 <1>   0.4860 
 12 C       -5.2910    -2.5770    -0.6650 C.ar  1 <1>  -0.1440 
 13 C       -5.8980    -3.1370     0.4500 C.ar  1 <1>  -0.1500 
 14 C       -5.8850    -1.4900    -1.2890 C.ar  1 <1>  -0.1500 
 15 C       -7.0780    -2.6060     0.9400 C.ar  1 <1>  -0.1500 
 16 C       -7.0650    -0.9630    -0.7950 C.ar  1 <1>  -0.1500 
 17 C       -7.6660    -1.5170     0.3220 C.ar  1 <1>  -0.1440 
 18 C       -8.9620    -0.9370     0.8620 C.3   1 <1>  -0.0970 
 19 H        1.0330     0.5800    -0.7320 H     1 <1>   0.0800 
 20 H        1.9530    -0.7330    -1.4750 H     1 <1>   0.0800 
 21 H       -1.4780     0.2040     0.7020 H     1 <1>   0.0800 
 22 H       -1.9740    -1.1040     1.7410 H     1 <1>   0.0800 
 23 H       -0.8290    -3.4370     1.3980 H     1 <1>   0.0800 
 24 H        0.3790    -3.5730     0.1480 H     1 <1>   0.0800 
 25 H        2.2360    -0.0450     1.2000 H     1 <1>   0.0800 
 26 H        2.4300    -1.7050     0.6270 H     1 <1>   0.0800 
 27 H       -2.4080    -0.9210    -1.2440 H     1 <1>   0.0800 
 28 H       -3.6420    -0.7650    -0.0120 H     1 <1>   0.0800 
 29 H       -1.7870    -4.5250    -0.5790 H     1 <1>   0.0800 
 30 H       -1.2900    -3.1760    -1.5770 H     1 <1>   0.0800 
 31 H       -3.2050    -3.0060     0.6760 H     1 <1>   0.4500 
 32 H       -4.0610    -4.2150    -1.2390 H     1 <1>   0.0800 
 33 H       -3.7950    -2.7660    -2.1840 H     1 <1>   0.0800 
 34 H       -5.4710    -3.9910     0.9480 H     1 <1>   0.1500 
 35 H       -5.4450    -1.0410    -2.1630 H     1 <1>   0.1500 
 36 H       -7.5410    -3.0460     1.8070 H     1 <1>   0.1500 
 37 H       -7.5180    -0.1170    -1.2850 H     1 <1>   0.1500 
 38 H       -9.5520    -1.7040     1.3300 H     1 <1>   0.0800 
 39 H       -9.5420    -0.5040     0.0660 H     1 <1>   0.0800 
 40 H       -8.7460    -0.1740     1.5880 H     1 <1>   0.0800 
@<TRIPOS>BOND
  1   1   2  1   
  2   1   3  1   
  3   2   4  1   
  4   2   5  1   
  5   2   6  1   
  6   3   7  1   
  7   3  19  1   
  8   3  20  1   
  9   4   7  1   
 10   5   8  1   
 11   5  21  1   
 12   5  22  1   
 13   6   9  1   
 14   6  23  1   
 15   6  24  1   
 16   7  25  1   
 17   7  26  1   
 18   8  10  1   
 19   8  27  1   
 20   8  28  1   
 21   9  10  1   
 22   9  29  1   
 23   9  30  1   
 24  10  11  1   
 25  10  31  1   
 26  11  12  1   
 27  11  32  1   
 28  11  33  1   
 29  12  13  ar  
 30  12  14  ar  
 31  13  15  ar  
 32  13  34  1   
 33  14  16  ar  
 34  14  35  1   
 35  15  17  ar  
 36  15  36  1   
 37  16  17  ar  
 38  16  37  1   
 39  17  18  1   
 40  18  38  1   
 41  18  39  1   
 42  18  40  1   
@<TRIPOS>SUBSTRUCTURE
  1 ****   8 GROUP 4 **** **** 0

# MOE 2024.06 (io_trps.svl 2023.06)
