@<TRIPOS>MOLECULE
NONAME
53 55 1 0 0 
SMALL
USER_CHARGES


@<TRIPOS>ATOM
  1 N       -0.2260    -0.2180    -0.0200 N.4   1 <1>  -0.9590 
  2 C       -0.1520    -1.7130    -0.0320 C.3   1 <1>   0.3430 
  3 C       -1.2100     0.3240    -1.0040 C.3   1 <1>   0.3430 
  4 C        1.1200     0.4000    -0.2840 C.3   1 <1>   0.3430 
  5 C       -1.5340    -2.3150     0.2350 C.3   1 <1>  -0.1600 
  6 C       -2.6000    -0.2600    -0.7400 C.3   1 <1>  -0.1600 
  7 C        2.1050     0.1800     0.8680 C.3   1 <1>  -0.0170 
  8 C       -2.5550    -1.7890    -0.7810 C.3   1 <1>   0.4230 
  9 C        3.3810     0.9300     0.5450 C.ar  1 <1>  -0.1440 
 10 N       -3.9210    -2.3610    -0.5790 N.4   1 <1>  -0.9590 
 11 C        3.5350     2.2500     0.9410 C.ar  1 <1>  -0.1500 
 12 C        4.4000     0.3070    -0.1610 C.ar  1 <1>  -0.1500 
 13 C       -4.5230    -2.1890     0.7820 C.3   1 <1>   0.4860 
 14 C       -4.0110    -3.7980    -1.0080 C.3   1 <1>   0.2630 
 15 C        4.6910     2.9420     0.6280 C.ar  1 <1>  -0.1500 
 16 C        5.5560     1.0000    -0.4740 C.ar  1 <1>  -0.1500 
 17 C       -6.0140    -2.4200     0.6630 C.ar  1 <1>  -0.1430 
 18 C        5.7020     2.3180    -0.0810 C.ar  1 <1>  -0.1500 
 19 C       -6.5790    -3.6010     1.1250 C.ar  1 <1>  -0.1500 
 20 C       -6.8280    -1.4530     0.0870 C.ar  1 <1>  -0.1500 
 21 C       -7.9390    -3.8190     0.9970 C.ar  1 <1>  -0.1500 
 22 C       -8.1880    -1.6750    -0.0400 C.ar  1 <1>  -0.1500 
 23 C       -8.7430    -2.8580     0.4120 C.ar  1 <1>  -0.1500 
 24 H       -0.5040     0.0950     0.9230 H     1 <1>   0.4500 
 25 H        0.5380    -2.0550     0.7240 H     1 <1>   0.0800 
 26 H        0.2130    -2.0490    -0.9910 H     1 <1>   0.0800 
 27 H       -0.8960     0.0770    -2.0060 H     1 <1>   0.0800 
 28 H       -1.2510     1.4010    -0.9260 H     1 <1>   0.0800 
 29 H        1.0080     1.4640    -0.4210 H     1 <1>   0.0800 
 30 H        1.5440     0.0000    -1.1910 H     1 <1>   0.0800 
 31 H       -1.8220    -2.0750     1.2420 H     1 <1>   0.0800 
 32 H       -1.4500    -3.3840     0.1530 H     1 <1>   0.0800 
 33 H       -3.2650     0.1040    -1.5040 H     1 <1>   0.0800 
 34 H       -2.9480     0.1000     0.2110 H     1 <1>   0.0800 
 35 H        2.3350    -0.8630     0.9900 H     1 <1>   0.0800 
 36 H        1.6980     0.5570     1.7900 H     1 <1>   0.0800 
 37 H       -2.2200    -2.0760    -1.7660 H     1 <1>   0.0800 
 38 H       -4.5740    -1.8590    -1.1990 H     1 <1>   0.4500 
 39 H        2.7650     2.7550     1.4980 H     1 <1>   0.1500 
 40 H        4.3130    -0.7190    -0.4720 H     1 <1>   0.1500 
 41 H       -4.3570    -1.1910     1.1500 H     1 <1>   0.0800 
 42 H       -4.0950    -2.8900     1.4790 H     1 <1>   0.0800 
 43 H       -3.4280    -4.4290    -0.3560 H     1 <1>   0.0800 
 44 H       -3.6500    -3.9150    -2.0180 H     1 <1>   0.0800 
 45 H       -5.0360    -4.1340    -0.9790 H     1 <1>   0.0800 
 46 H        4.8090     3.9670     0.9370 H     1 <1>   0.1500 
 47 H        6.3460     0.5150    -1.0210 H     1 <1>   0.1500 
 48 H        6.6020     2.8560    -0.3240 H     1 <1>   0.1500 
 49 H       -5.9780    -4.3640     1.5910 H     1 <1>   0.1500 
 50 H       -6.4280    -0.5180    -0.2650 H     1 <1>   0.1500 
 51 H       -8.3790    -4.7360     1.3550 H     1 <1>   0.1500 
 52 H       -8.8220    -0.9270    -0.4870 H     1 <1>   0.1500 
 53 H       -9.8020    -3.0290     0.3140 H     1 <1>   0.1500 
@<TRIPOS>BOND
  1   1   2  1   
  2   1   3  1   
  3   1   4  1   
  4   1  24  1   
  5   2   5  1   
  6   2  25  1   
  7   2  26  1   
  8   3   6  1   
  9   3  27  1   
 10   3  28  1   
 11   4   7  1   
 12   4  29  1   
 13   4  30  1   
 14   5   8  1   
 15   5  31  1   
 16   5  32  1   
 17   6   8  1   
 18   6  33  1   
 19   6  34  1   
 20   7   9  1   
 21   7  35  1   
 22   7  36  1   
 23   8  10  1   
 24   8  37  1   
 25   9  11  ar  
 26   9  12  ar  
 27  10  13  1   
 28  10  14  1   
 29  10  38  1   
 30  11  15  ar  
 31  11  39  1   
 32  12  16  ar  
 33  12  40  1   
 34  13  17  1   
 35  13  41  1   
 36  13  42  1   
 37  14  43  1   
 38  14  44  1   
 39  14  45  1   
 40  15  18  ar  
 41  15  46  1   
 42  16  18  ar  
 43  16  47  1   
 44  17  19  ar  
 45  17  20  ar  
 46  18  48  1   
 47  19  21  ar  
 48  19  49  1   
 49  20  22  ar  
 50  20  50  1   
 51  21  23  ar  
 52  21  51  1   
 53  22  23  ar  
 54  22  52  1   
 55  23  53  1   
@<TRIPOS>SUBSTRUCTURE
  1 ****   1 GROUP 4 **** **** 0

# MOE 2024.06 (io_trps.svl 2023.06)
