@<TRIPOS>MOLECULE
NONAME
44 46 1 0 0 
SMALL
USER_CHARGES


@<TRIPOS>ATOM
  1 N       -1.8330     0.5880     1.1400 N.pl3 1 <1>  -0.7040 
  2 C       -2.8820     0.0280     0.5430 C.cat 1 <1>   1.0690 
  3 C       -1.9580     1.9540     0.9700 C.2   1 <1>   0.1740 
  4 N       -3.6620     0.9540     0.0010 N.pl3 1 <1>  -0.6420 
  5 N       -3.3470    -1.2270     0.3560 N.pl3 1 <1>  -0.5800 
  6 C       -3.0880     2.1850     0.2670 C.2   1 <1>   0.1920 
  7 C       -0.9340     2.9200     1.5310 C.3   1 <1>  -0.0810 
  8 C       -4.7430     0.2920    -0.5630 C.ar  1 <1>   0.3810 
  9 C       -4.5520    -1.0660    -0.3340 C.ar  1 <1>   0.3040 
 10 C       -2.7920    -2.5160     0.8610 C.3   1 <1>   0.1600 
 11 C       -5.8580     0.7610    -1.2410 C.ar  1 <1>  -0.1580 
 12 C       -5.4970    -1.9880    -0.7750 C.ar  1 <1>  -0.1580 
 13 C       -2.3030    -3.4200    -0.2940 C.3   1 <1>   0.3360 
 14 C       -6.7900    -0.1590    -1.6840 C.ar  1 <1>  -0.1580 
 15 C       -6.6100    -1.5230    -1.4500 C.ar  1 <1>  -0.1580 
 16 N       -1.7000    -4.7120     0.1780 N.4   1 <1>  -0.9610 
 17 C       -0.9640    -5.3890    -0.9280 C.3   1 <1>   0.3360 
 18 C       -2.7160    -5.6400     0.7480 C.3   1 <1>   0.3360 
 19 C        0.3630    -4.6790    -1.1640 C.3   1 <1>  -0.2480 
 20 C       -2.0270    -6.6070     1.7020 C.3   1 <1>  -0.2480 
 21 H       -1.0900     0.1150     1.6530 H     1 <1>   0.4440 
 22 H       -3.5240     3.1170    -0.0600 H     1 <1>   0.1420 
 23 H        0.0350     2.7230     1.1080 H     1 <1>   0.0710 
 24 H       -0.8750     2.8220     2.6000 H     1 <1>   0.0710 
 25 H       -1.2080     3.9340     1.2960 H     1 <1>   0.0710 
 26 H       -3.5620    -3.0190     1.4200 H     1 <1>   0.0710 
 27 H       -1.9700    -2.3110     1.5240 H     1 <1>   0.0710 
 28 H       -5.9910     1.8150    -1.4130 H     1 <1>   0.1420 
 29 H       -5.3760    -3.0400    -0.5950 H     1 <1>   0.1420 
 30 H       -1.5640    -2.8740    -0.8560 H     1 <1>   0.0710 
 31 H       -3.1270    -3.6370    -0.9540 H     1 <1>   0.0710 
 32 H       -7.6690     0.1740    -2.2140 H     1 <1>   0.1420 
 33 H       -7.3590    -2.2150    -1.8050 H     1 <1>   0.1420 
 34 H       -1.0030    -4.5370     0.9140 H     1 <1>   0.4440 
 35 H       -1.5560    -5.3900    -1.8300 H     1 <1>   0.0710 
 36 H       -0.7610    -6.4140    -0.6610 H     1 <1>   0.0710 
 37 H       -3.2130    -6.1830    -0.0400 H     1 <1>   0.0710 
 38 H       -3.4590    -5.0880     1.2990 H     1 <1>   0.0710 
 39 H        0.2230    -3.6780    -1.5290 H     1 <1>   0.0710 
 40 H        0.9180    -5.2200    -1.9120 H     1 <1>   0.0710 
 41 H        0.9550    -4.6640    -0.2660 H     1 <1>   0.0710 
 42 H       -1.3180    -7.2320     1.1910 H     1 <1>   0.0710 
 43 H       -2.7680    -7.2510     2.1440 H     1 <1>   0.0710 
 44 H       -1.5350    -6.0770     2.4980 H     1 <1>   0.0710 
@<TRIPOS>BOND
  1   1   2  ar  
  2   1   3  1   
  3   1  21  1   
  4   2   4  ar  
  5   2   5  ar  
  6   3   6  2   
  7   3   7  1   
  8   4   6  1   
  9   4   8  1   
 10   5   9  1   
 11   5  10  1   
 12   6  22  1   
 13   7  23  1   
 14   7  24  1   
 15   7  25  1   
 16   8   9  ar  
 17   8  11  ar  
 18   9  12  ar  
 19  10  13  1   
 20  10  26  1   
 21  10  27  1   
 22  11  14  ar  
 23  11  28  1   
 24  12  15  ar  
 25  12  29  1   
 26  13  16  1   
 27  13  30  1   
 28  13  31  1   
 29  14  15  ar  
 30  14  32  1   
 31  15  33  1   
 32  16  17  1   
 33  16  18  1   
 34  16  34  1   
 35  17  19  1   
 36  17  35  1   
 37  17  36  1   
 38  18  20  1   
 39  18  37  1   
 40  18  38  1   
 41  19  39  1   
 42  19  40  1   
 43  19  41  1   
 44  20  42  1   
 45  20  43  1   
 46  20  44  1   
@<TRIPOS>SUBSTRUCTURE
  1 ****   5 GROUP 4 **** **** 0

# MOE 2024.06 (io_trps.svl 2023.06)
