@<TRIPOS>MOLECULE
NONAME
48 49 1 0 0 
SMALL
USER_CHARGES


@<TRIPOS>ATOM
  1 O        0.3960    -1.1730     0.7100 O.2   1 <1>  -0.5700 
  2 C       -0.0820    -2.1470     0.1640 C.2   1 <1>   0.7800 
  3 O        0.6900    -3.1970    -0.1260 O.3   1 <1>  -0.4300 
  4 N       -1.4150    -2.2250    -0.1600 N.am  1 <1>  -0.6600 
  5 C        2.0800    -3.2070     0.1290 C.3   1 <1>   0.1200 
  6 C       -2.0290    -3.4220    -0.7840 C.3   1 <1>   0.1400 
  7 C       -2.3360    -1.0920     0.1000 C.3   1 <1>   0.1400 
  8 C        2.8040    -2.5490    -1.0440 C.3   1 <1>  -0.2400 
  9 C       -3.1390    -3.9300     0.1370 C.3   1 <1>  -0.1600 
 10 C       -3.4450    -1.5770     1.0330 C.3   1 <1>  -0.1600 
 11 C       -4.1370    -2.8100     0.4480 C.3   1 <1>   0.4230 
 12 N       -5.1280    -3.3090     1.4250 N.4   1 <1>  -0.9060 
 13 C       -6.5440    -3.3080     0.9810 C.3   1 <1>   0.4230 
 14 C       -6.7080    -4.2310    -0.2370 C.3   1 <1>  -0.1600 
 15 C       -7.0180    -1.8620     0.7740 C.3   1 <1>  -0.1600 
 16 C       -8.1740    -4.6340    -0.4510 C.3   1 <1>  -0.1600 
 17 C       -8.4910    -1.7280     0.3530 C.3   1 <1>  -0.1600 
 18 C       -8.9940    -3.6550    -1.3040 C.3   1 <1>  -0.1600 
 19 C       -8.7250    -2.1560    -1.1020 C.3   1 <1>  -0.1600 
 20 H        2.3840    -4.2340     0.2270 H     1 <1>   0.0800 
 21 H        2.2790    -2.6940     1.0560 H     1 <1>   0.0800 
 22 H       -1.2990    -4.1990    -0.9380 H     1 <1>   0.0800 
 23 H       -2.4280    -3.1500    -1.7480 H     1 <1>   0.0800 
 24 H       -2.7450    -0.7480    -0.8350 H     1 <1>   0.0800 
 25 H       -1.8120    -0.2670     0.5540 H     1 <1>   0.0800 
 26 H        2.5790    -3.0670    -1.9590 H     1 <1>   0.0800 
 27 H        3.8650    -2.5870    -0.8800 H     1 <1>   0.0800 
 28 H        2.5120    -1.5170    -1.1310 H     1 <1>   0.0800 
 29 H       -2.6810    -4.2920     1.0410 H     1 <1>   0.0800 
 30 H       -3.6370    -4.7480    -0.3510 H     1 <1>   0.0800 
 31 H       -4.1520    -0.7780     1.1640 H     1 <1>   0.0800 
 32 H       -3.0010    -1.8060     1.9860 H     1 <1>   0.0800 
 33 H       -4.6290    -2.5260    -0.4690 H     1 <1>   0.0800 
 34 H       -5.0510    -2.7450     2.2780 H     1 <1>   0.4500 
 35 H       -4.8680    -4.2640     1.6890 H     1 <1>   0.4500 
 36 H       -7.1400    -3.7270     1.7770 H     1 <1>   0.0800 
 37 H       -6.1610    -5.1390    -0.0540 H     1 <1>   0.0800 
 38 H       -6.3200    -3.7790    -1.1330 H     1 <1>   0.0800 
 39 H       -6.4150    -1.3640     0.0360 H     1 <1>   0.0800 
 40 H       -6.9030    -1.3330     1.7040 H     1 <1>   0.0800 
 41 H       -8.6600    -4.7680     0.5020 H     1 <1>   0.0800 
 42 H       -8.2040    -5.5920    -0.9440 H     1 <1>   0.0800 
 43 H       -8.7600    -0.6870     0.4330 H     1 <1>   0.0800 
 44 H       -9.1410    -2.2710     1.0180 H     1 <1>   0.0800 
 45 H      -10.0370    -3.8450    -1.1130 H     1 <1>   0.0800 
 46 H       -8.8300    -3.8810    -2.3450 H     1 <1>   0.0800 
 47 H       -7.8910    -1.8530    -1.7120 H     1 <1>   0.0800 
 48 H       -9.5820    -1.6230    -1.4790 H     1 <1>   0.0800 
@<TRIPOS>BOND
  1   1   2  2   
  2   2   3  1   
  3   2   4  am  
  4   3   5  1   
  5   4   6  1   
  6   4   7  1   
  7   5   8  1   
  8   5  20  1   
  9   5  21  1   
 10   6   9  1   
 11   6  22  1   
 12   6  23  1   
 13   7  10  1   
 14   7  24  1   
 15   7  25  1   
 16   8  26  1   
 17   8  27  1   
 18   8  28  1   
 19   9  11  1   
 20   9  29  1   
 21   9  30  1   
 22  10  11  1   
 23  10  31  1   
 24  10  32  1   
 25  11  12  1   
 26  11  33  1   
 27  12  13  1   
 28  12  34  1   
 29  12  35  1   
 30  13  14  1   
 31  13  15  1   
 32  13  36  1   
 33  14  16  1   
 34  14  37  1   
 35  14  38  1   
 36  15  17  1   
 37  15  39  1   
 38  15  40  1   
 39  16  18  1   
 40  16  41  1   
 41  16  42  1   
 42  17  19  1   
 43  17  43  1   
 44  17  44  1   
 45  18  19  1   
 46  18  45  1   
 47  18  46  1   
 48  19  47  1   
 49  19  48  1   
@<TRIPOS>SUBSTRUCTURE
  1 ****  11 GROUP 4 **** **** 0

# MOE 2024.06 (io_trps.svl 2023.06)
