@<TRIPOS>MOLECULE
NONAME
35 35 1 0 0 
SMALL
USER_CHARGES


@<TRIPOS>ATOM
  1 O        0.3140    -0.1380    -1.1420 O.2   1 <1>  -0.5700 
  2 C        0.8510     0.9300    -0.9080 C.2   1 <1>   0.6900 
  3 N        2.1520     1.1480    -1.2660 N.am  1 <1>  -0.6600 
  4 N        0.1960     1.9270    -0.2630 N.am  1 <1>  -0.7300 
  5 C        2.7260     2.4890    -1.5560 C.3   1 <1>   0.1400 
  6 C        3.1250     0.0290    -1.3520 C.3   1 <1>   0.1400 
  7 C       -1.1470     1.9340     0.3170 C.3   1 <1>   0.3000 
  8 C        3.8800     2.7760    -0.5930 C.3   1 <1>  -0.1600 
  9 C        4.2980     0.2930    -0.4000 C.3   1 <1>  -0.1600 
 10 C       -2.1900     1.7050    -0.7770 C.3   1 <1>  -0.2400 
 11 C       -1.3460     3.3210     0.9270 C.3   1 <1>  -0.2400 
 12 C       -1.2430     0.8740     1.4140 C.3   1 <1>  -0.2400 
 13 C        4.9500     1.6680    -0.6530 C.3   1 <1>  -0.1860 
 14 C        6.1040     1.9310     0.3100 C.2   1 <1>   0.9060 
 15 O        5.8590     2.1990     1.4910 O.co2 1 <1>  -0.9000 
 16 O        7.2560     1.8700    -0.1310 O.co2 1 <1>  -0.9000 
 17 H        0.8160     2.6280     0.1290 H     1 <1>   0.3700 
 18 H        1.9760     3.2560    -1.4760 H     1 <1>   0.0800 
 19 H        3.0960     2.4930    -2.5670 H     1 <1>   0.0800 
 20 H        3.4830    -0.0480    -2.3630 H     1 <1>   0.0800 
 21 H        2.6510    -0.9020    -1.0890 H     1 <1>   0.0800 
 22 H        3.4980     2.8520     0.4110 H     1 <1>   0.0800 
 23 H        4.3340     3.7190    -0.8410 H     1 <1>   0.0800 
 24 H        5.0390    -0.4780    -0.5190 H     1 <1>   0.0800 
 25 H        3.9450     0.2490     0.6160 H     1 <1>   0.0800 
 26 H       -2.0720     2.4270    -1.5650 H     1 <1>   0.0800 
 27 H       -3.1810     1.7960    -0.3720 H     1 <1>   0.0800 
 28 H       -2.0920     0.7190    -1.1930 H     1 <1>   0.0800 
 29 H       -0.6170     3.5030     1.6970 H     1 <1>   0.0800 
 30 H       -2.3240     3.3940     1.3670 H     1 <1>   0.0800 
 31 H       -1.2590     4.0800     0.1710 H     1 <1>   0.0800 
 32 H       -0.4760     1.0250     2.1520 H     1 <1>   0.0800 
 33 H       -1.1340    -0.1110     0.9970 H     1 <1>   0.0800 
 34 H       -2.2010     0.9250     1.8980 H     1 <1>   0.0800 
 35 H        5.3740     1.6620    -1.6400 H     1 <1>   0.0800 
@<TRIPOS>BOND
  1   1   2  2   
  2   2   3  am  
  3   2   4  am  
  4   3   5  1   
  5   3   6  1   
  6   4   7  1   
  7   4  17  1   
  8   5   8  1   
  9   5  18  1   
 10   5  19  1   
 11   6   9  1   
 12   6  20  1   
 13   6  21  1   
 14   7  10  1   
 15   7  11  1   
 16   7  12  1   
 17   8  13  1   
 18   8  22  1   
 19   8  23  1   
 20   9  13  1   
 21   9  24  1   
 22   9  25  1   
 23  10  26  1   
 24  10  27  1   
 25  10  28  1   
 26  11  29  1   
 27  11  30  1   
 28  11  31  1   
 29  12  32  1   
 30  12  33  1   
 31  12  34  1   
 32  13  14  1   
 33  13  35  1   
 34  14  15  ar  
 35  14  16  ar  
@<TRIPOS>SUBSTRUCTURE
  1 ****   3 GROUP 4 **** **** 0

# MOE 2024.06 (io_trps.svl 2023.06)
