@<TRIPOS>MOLECULE
NONAME
47 48 1 0 0 
SMALL
USER_CHARGES


@<TRIPOS>ATOM
  1 O       -0.4250    -0.3580     0.2620 O.3   1 <1>  -0.3630 
  2 C       -1.6790    -0.8580     0.1340 C.ar  1 <1>   0.0830 
  3 C        0.7070    -1.1290    -0.0640 C.3   1 <1>   0.1200 
  4 C       -1.9610    -2.1440    -0.3190 C.ar  1 <1>  -0.1500 
  5 C       -2.7250    -0.0190     0.4820 C.ar  1 <1>  -0.1500 
  6 C        1.9510    -0.2760     0.1920 C.3   1 <1>  -0.1600 
  7 C       -3.2740    -2.5720    -0.4180 C.ar  1 <1>  -0.1500 
  8 C       -4.0360    -0.4500     0.3820 C.ar  1 <1>  -0.1500 
  9 C        3.2390    -1.0440    -0.1390 C.3   1 <1>  -0.1600 
 10 C       -4.3170    -1.7300    -0.0670 C.ar  1 <1>  -0.1430 
 11 C        4.4770    -0.1760     0.1200 C.3   1 <1>  -0.1600 
 12 C       -5.7550    -2.2030    -0.1790 C.3   1 <1>  -0.0970 
 13 C        5.7690    -0.9360    -0.2090 C.3   1 <1>  -0.1600 
 14 C        6.9960    -0.0590     0.0480 C.3   1 <1>   0.3430 
 15 N        8.2380    -0.7750    -0.3520 N.4   1 <1>  -0.9590 
 16 C        8.5850    -1.9260     0.5190 C.3   1 <1>   0.3430 
 17 C        9.4310     0.1040    -0.3510 C.3   1 <1>   0.3430 
 18 C       10.0650    -2.1700     0.2540 C.3   1 <1>  -0.1600 
 19 C       10.6100    -0.8590    -0.3200 C.3   1 <1>  -0.1600 
 20 H        0.6400    -1.4060    -1.1020 H     1 <1>   0.0800 
 21 H        0.7100    -2.0060     0.5600 H     1 <1>   0.0800 
 22 H       -1.1780    -2.8230    -0.5980 H     1 <1>   0.1500 
 23 H       -2.5030     0.9730     0.8300 H     1 <1>   0.1500 
 24 H        1.9610     0.0180     1.2270 H     1 <1>   0.0800 
 25 H        1.8930     0.6100    -0.4170 H     1 <1>   0.0800 
 26 H       -3.4810    -3.5670    -0.7710 H     1 <1>   0.1500 
 27 H       -4.8350     0.2170     0.6550 H     1 <1>   0.1500 
 28 H        3.2160    -1.3440    -1.1730 H     1 <1>   0.0800 
 29 H        3.2860    -1.9330     0.4680 H     1 <1>   0.0800 
 30 H        4.4850     0.1250     1.1550 H     1 <1>   0.0800 
 31 H        4.4150     0.7140    -0.4850 H     1 <1>   0.0800 
 32 H       -5.8150    -3.2650    -0.0240 H     1 <1>   0.0800 
 33 H       -6.1380    -1.9710    -1.1560 H     1 <1>   0.0800 
 34 H       -6.3680    -1.7180     0.5590 H     1 <1>   0.0800 
 35 H        5.7460    -1.2290    -1.2440 H     1 <1>   0.0800 
 36 H        5.8130    -1.8200     0.4030 H     1 <1>   0.0800 
 37 H        7.0420     0.2100     1.0910 H     1 <1>   0.0800 
 38 H        6.9010     0.8480    -0.5290 H     1 <1>   0.0800 
 39 H        8.1220    -1.1340    -1.3090 H     1 <1>   0.4500 
 40 H        7.9890    -2.7960     0.2910 H     1 <1>   0.0800 
 41 H        8.4450    -1.6560     1.5540 H     1 <1>   0.0800 
 42 H        9.4390     0.7090     0.5420 H     1 <1>   0.0800 
 43 H        9.4600     0.7440    -1.2190 H     1 <1>   0.0800 
 44 H       10.1820    -2.9700    -0.4570 H     1 <1>   0.0800 
 45 H       10.5670    -2.4470     1.1650 H     1 <1>   0.0800 
 46 H       11.4070    -0.4580     0.2820 H     1 <1>   0.0800 
 47 H       10.9810    -1.0120    -1.3190 H     1 <1>   0.0800 
@<TRIPOS>BOND
  1   1   2  1   
  2   1   3  1   
  3   2   4  ar  
  4   2   5  ar  
  5   3   6  1   
  6   3  20  1   
  7   3  21  1   
  8   4   7  ar  
  9   4  22  1   
 10   5   8  ar  
 11   5  23  1   
 12   6   9  1   
 13   6  24  1   
 14   6  25  1   
 15   7  10  ar  
 16   7  26  1   
 17   8  10  ar  
 18   8  27  1   
 19   9  11  1   
 20   9  28  1   
 21   9  29  1   
 22  10  12  1   
 23  11  13  1   
 24  11  30  1   
 25  11  31  1   
 26  12  32  1   
 27  12  33  1   
 28  12  34  1   
 29  13  14  1   
 30  13  35  1   
 31  13  36  1   
 32  14  15  1   
 33  14  37  1   
 34  14  38  1   
 35  15  16  1   
 36  15  17  1   
 37  15  39  1   
 38  16  18  1   
 39  16  40  1   
 40  16  41  1   
 41  17  19  1   
 42  17  42  1   
 43  17  43  1   
 44  18  19  1   
 45  18  44  1   
 46  18  45  1   
 47  19  46  1   
 48  19  47  1   
@<TRIPOS>SUBSTRUCTURE
  1 ****   9 GROUP 4 **** **** 0

# MOE 2024.06 (io_trps.svl 2023.06)
