@<TRIPOS>MOLECULE
NONAME
29 30 1 0 0 
SMALL
USER_CHARGES


@<TRIPOS>ATOM
  1 S       -0.3950    -0.0690    -0.4610 S.3   1 <1>  -0.3710 
  2 C       -0.4870    -1.7820    -0.0830 C.2   1 <1>   0.6510 
  3 C        1.3310     0.1450     0.1330 C.3   1 <1>   0.0700 
  4 N       -1.5180    -2.4850    -0.3010 N.2   1 <1>  -0.6610 
  5 N        0.6580    -2.2110     0.4490 N.am  1 <1>  -0.4200 
  6 C        1.7700    -1.2440     0.6330 C.3   1 <1>   0.1400 
  7 C       -1.4090    -3.7920     0.0550 C.2   1 <1>   0.7110 
  8 C        0.7110    -3.5230     0.7850 C.2   1 <1>   0.8410 
  9 N       -0.3510    -4.3200     0.5790 N.2   1 <1>  -0.6610 
 10 N       -2.5120    -4.5760    -0.1690 N.pl3 1 <1>  -0.7880 
 11 O        1.7330    -3.9730     1.2760 O.2   1 <1>  -0.5700 
 12 C       -3.7530    -4.0660    -0.8150 C.3   1 <1>   0.2090 
 13 C       -2.5500    -6.0110     0.2220 C.3   1 <1>   0.2090 
 14 C       -4.7110    -3.5610     0.2600 C.3   1 <1>  -0.2400 
 15 C       -2.0890    -6.8670    -0.9540 C.3   1 <1>  -0.2400 
 16 H        1.3230     0.8770     0.9220 H     1 <1>   0.0800 
 17 H        1.9280     0.4860    -0.6940 H     1 <1>   0.0800 
 18 H        2.0300    -1.1980     1.6770 H     1 <1>   0.0800 
 19 H        2.6300    -1.5830     0.0820 H     1 <1>   0.0800 
 20 H       -4.2190    -4.8550    -1.3800 H     1 <1>   0.0800 
 21 H       -3.5210    -3.2710    -1.5030 H     1 <1>   0.0800 
 22 H       -3.5510    -6.2850     0.5070 H     1 <1>   0.0800 
 23 H       -1.9120    -6.1860     1.0730 H     1 <1>   0.0800 
 24 H       -4.9730    -4.3530     0.9360 H     1 <1>   0.0800 
 25 H       -5.6070    -3.1890    -0.2010 H     1 <1>   0.0800 
 26 H       -4.2520    -2.7590     0.8100 H     1 <1>   0.0800 
 27 H       -2.7320    -6.7250    -1.8020 H     1 <1>   0.0800 
 28 H       -2.1080    -7.9050    -0.6750 H     1 <1>   0.0800 
 29 H       -1.0810    -6.6050    -1.2220 H     1 <1>   0.0800 
@<TRIPOS>BOND
  1   1   2  1   
  2   1   3  1   
  3   2   4  2   
  4   2   5  1   
  5   3   6  1   
  6   3  16  1   
  7   3  17  1   
  8   4   7  1   
  9   5   6  1   
 10   5   8  am  
 11   6  18  1   
 12   6  19  1   
 13   7   9  2   
 14   7  10  1   
 15   8   9  1   
 16   8  11  2   
 17  10  12  1   
 18  10  13  1   
 19  12  14  1   
 20  12  20  1   
 21  12  21  1   
 22  13  15  1   
 23  13  22  1   
 24  13  23  1   
 25  14  24  1   
 26  14  25  1   
 27  14  26  1   
 28  15  27  1   
 29  15  28  1   
 30  15  29  1   
@<TRIPOS>SUBSTRUCTURE
  1 ****   7 GROUP 4 **** **** 0

# MOE 2024.06 (io_trps.svl 2023.06)
