@<TRIPOS>MOLECULE
NONAME
41 42 1 0 0 
SMALL
USER_CHARGES


@<TRIPOS>ATOM
  1 S        0.6730     0.8360     1.4980 S.3   1 <1>  -0.9360 
  2 C        0.1460     2.3410     1.1950 C.cat 1 <1>   0.7360 
  3 N        0.6260     3.4250     1.7600 N.pl3 1 <1>  -0.3930 
  4 N       -0.7970     2.6930     0.3400 N.pl3 1 <1>  -0.7640 
  5 N        0.0120     4.5380     1.2630 N.2   1 <1>  -0.2600 
  6 C       -0.8280     4.0670     0.4110 C.2   1 <1>   0.4850 
  7 C       -1.5500     1.7310    -0.4850 C.3   1 <1>   0.3540 
  8 C       -1.7340     4.9370    -0.4480 C.3   1 <1>   0.0080 
  9 C       -2.6590     1.0910     0.3480 C.3   1 <1>  -0.2400 
 10 C       -3.2080     4.8650    -0.0210 C.3   1 <1>  -0.1600 
 11 C       -4.0830     5.8520    -0.8020 C.3   1 <1>  -0.0170 
 12 C       -5.5370     5.6720    -0.4020 C.ar  1 <1>  -0.1430 
 13 C       -6.3720     4.8520    -1.1450 C.ar  1 <1>  -0.1500 
 14 C       -6.0390     6.3190     0.7150 C.ar  1 <1>  -0.1500 
 15 C       -7.6970     4.6720    -0.7820 C.ar  1 <1>  -0.1430 
 16 C       -7.3600     6.1460     1.0880 C.ar  1 <1>  -0.1500 
 17 C       -8.1980     5.3200     0.3430 C.ar  1 <1>   0.0830 
 18 C       -8.5940     3.7670    -1.6150 C.3   1 <1>  -0.0970 
 19 O       -9.5030     5.1110     0.6640 O.3   1 <1>  -0.3620 
 20 C      -10.1020     5.7370     1.7760 C.3   1 <1>   0.0400 
 21 H        1.3710     3.3690     2.4540 H     1 <1>   0.4500 
 22 H       -0.8790     0.9650    -0.8400 H     1 <1>   0.0800 
 23 H       -1.9700     2.2310    -1.3390 H     1 <1>   0.0800 
 24 H       -1.6310     4.6400    -1.4750 H     1 <1>   0.0800 
 25 H       -1.3950     5.9550    -0.3670 H     1 <1>   0.0800 
 26 H       -2.2270     0.5090     1.1430 H     1 <1>   0.0800 
 27 H       -3.2420     0.4330    -0.2690 H     1 <1>   0.0800 
 28 H       -3.3070     1.8350     0.7720 H     1 <1>   0.0800 
 29 H       -3.2890     5.0770     1.0310 H     1 <1>   0.0800 
 30 H       -3.5840     3.8720    -0.1860 H     1 <1>   0.0800 
 31 H       -3.9790     5.6850    -1.8600 H     1 <1>   0.0800 
 32 H       -3.7770     6.8630    -0.5960 H     1 <1>   0.0800 
 33 H       -5.9870     4.3490    -2.0140 H     1 <1>   0.1500 
 34 H       -5.4040     6.9580     1.3010 H     1 <1>   0.1500 
 35 H       -7.7150     6.6610     1.9580 H     1 <1>   0.1500 
 36 H       -8.0650     3.3550    -2.4540 H     1 <1>   0.0800 
 37 H       -9.4350     4.3290    -1.9810 H     1 <1>   0.0800 
 38 H       -8.9590     2.9590    -1.0070 H     1 <1>   0.0800 
 39 H      -11.1300     5.4260     1.8200 H     1 <1>   0.0800 
 40 H      -10.0480     6.8030     1.6460 H     1 <1>   0.0800 
 41 H       -9.5880     5.4280     2.6680 H     1 <1>   0.0800 
@<TRIPOS>BOND
  1   1   2  1   
  2   2   3  ar  
  3   2   4  ar  
  4   3   5  1   
  5   3  21  1   
  6   4   6  1   
  7   4   7  1   
  8   5   6  2   
  9   6   8  1   
 10   7   9  1   
 11   7  22  1   
 12   7  23  1   
 13   8  10  1   
 14   8  24  1   
 15   8  25  1   
 16   9  26  1   
 17   9  27  1   
 18   9  28  1   
 19  10  11  1   
 20  10  29  1   
 21  10  30  1   
 22  11  12  1   
 23  11  31  1   
 24  11  32  1   
 25  12  13  ar  
 26  12  14  ar  
 27  13  15  ar  
 28  13  33  1   
 29  14  16  ar  
 30  14  34  1   
 31  15  17  ar  
 32  15  18  1   
 33  16  17  ar  
 34  16  35  1   
 35  17  19  1   
 36  18  36  1   
 37  18  37  1   
 38  18  38  1   
 39  19  20  1   
 40  20  39  1   
 41  20  40  1   
 42  20  41  1   
@<TRIPOS>SUBSTRUCTURE
  1 ****  10 GROUP 4 **** **** 0

# MOE 2024.06 (io_trps.svl 2023.06)
