@<TRIPOS>MOLECULE
NONAME
35 36 1 0 0 
SMALL
USER_CHARGES


@<TRIPOS>ATOM
  1 O        1.4710    -2.3270     0.7030 O.co2 1 <1>  -0.9000 
  2 C        0.5700    -2.5790    -0.1010 C.2   1 <1>   0.9060 
  3 O        0.8050    -2.9830    -1.2470 O.co2 1 <1>  -0.9000 
  4 C       -0.8810    -2.3740     0.3150 C.3   1 <1>  -0.1860 
  5 C       -1.6820    -3.6980     0.2270 C.3   1 <1>  -0.0190 
  6 C       -1.5230    -1.2560    -0.5370 C.3   1 <1>  -0.1600 
  7 C       -1.1380    -4.7800     1.1790 C.2   1 <1>   0.4230 
  8 C       -3.1820    -3.4580     0.5130 C.3   1 <1>  -0.1600 
  9 C       -3.0060    -1.0540    -0.2100 C.3   1 <1>  -0.1600 
 10 O       -1.3270    -4.6180     2.3630 O.2   1 <1>  -0.5700 
 11 C       -0.5330    -6.0010     0.6730 C.ar  1 <1>   0.0860 
 12 C       -3.7790    -2.3650    -0.3810 C.3   1 <1>  -0.1600 
 13 C        0.0800    -6.1220    -0.5770 C.ar  1 <1>  -0.1500 
 14 C       -0.5590    -7.1560     1.4610 C.ar  1 <1>  -0.1500 
 15 C        0.6160    -7.3190    -1.0170 C.ar  1 <1>  -0.1500 
 16 C       -0.0270    -8.3570     1.0280 C.ar  1 <1>  -0.1500 
 17 C        0.5640    -8.4480    -0.2190 C.ar  1 <1>  -0.1440 
 18 C        1.1530    -9.7590    -0.7070 C.3   1 <1>  -0.0970 
 19 H       -0.8700    -2.0540     1.3410 H     1 <1>   0.0800 
 20 H       -1.6130    -4.0520    -0.7840 H     1 <1>   0.0800 
 21 H       -0.9850    -0.3390    -0.3730 H     1 <1>   0.0800 
 22 H       -1.4190    -1.5100    -1.5790 H     1 <1>   0.0800 
 23 H       -3.7230    -4.3760     0.3680 H     1 <1>   0.0800 
 24 H       -3.3030    -3.1660     1.5420 H     1 <1>   0.0800 
 25 H       -3.1010    -0.7090     0.8050 H     1 <1>   0.0800 
 26 H       -3.4180    -0.3020    -0.8600 H     1 <1>   0.0800 
 27 H       -3.7330    -2.6770    -1.4100 H     1 <1>   0.0800 
 28 H       -4.8120    -2.2120    -0.1230 H     1 <1>   0.0800 
 29 H        0.1620    -5.2690    -1.2240 H     1 <1>   0.1500 
 30 H       -1.0080    -7.1040     2.4370 H     1 <1>   0.1500 
 31 H        1.0800    -7.3580    -1.9870 H     1 <1>   0.1500 
 32 H       -0.0740    -9.2190     1.6700 H     1 <1>   0.1500 
 33 H        2.0320    -9.5740    -1.2980 H     1 <1>   0.0800 
 34 H        0.4310   -10.2800    -1.3080 H     1 <1>   0.0800 
 35 H        1.4290   -10.3820     0.1250 H     1 <1>   0.0800 
@<TRIPOS>BOND
  1   1   2  ar  
  2   2   3  ar  
  3   2   4  1   
  4   4   5  1   
  5   4   6  1   
  6   4  19  1   
  7   5   7  1   
  8   5   8  1   
  9   5  20  1   
 10   6   9  1   
 11   6  21  1   
 12   6  22  1   
 13   7  10  2   
 14   7  11  1   
 15   8  12  1   
 16   8  23  1   
 17   8  24  1   
 18   9  12  1   
 19   9  25  1   
 20   9  26  1   
 21  11  13  ar  
 22  11  14  ar  
 23  12  27  1   
 24  12  28  1   
 25  13  15  ar  
 26  13  29  1   
 27  14  16  ar  
 28  14  30  1   
 29  15  17  ar  
 30  15  31  1   
 31  16  17  ar  
 32  16  32  1   
 33  17  18  1   
 34  18  33  1   
 35  18  34  1   
 36  18  35  1   
@<TRIPOS>SUBSTRUCTURE
  1 ****   7 GROUP 4 **** **** 0

# MOE 2024.06 (io_trps.svl 2023.06)
