@<TRIPOS>MOLECULE
NONAME
43 43 1 0 0 
SMALL
USER_CHARGES


@<TRIPOS>ATOM
  1 O        3.6430    -5.7460    -0.8710 O.3   1 <1>  -0.3630 
  2 C        4.8810    -5.5290    -0.3730 C.ar  1 <1>   0.0830 
  3 C        2.6280    -5.8640     0.0900 C.3   1 <1>   0.1200 
  4 C        5.6910    -6.6100    -0.0160 C.ar  1 <1>  -0.1440 
  5 C        5.3210    -4.2170    -0.2190 C.ar  1 <1>  -0.1440 
  6 C        1.3170    -6.0980    -0.6590 C.3   1 <1>   0.3430 
  7 C        6.9340    -6.3600     0.5590 C.ar  1 <1>  -0.1440 
  8 C        5.2340    -8.0480    -0.2570 C.3   1 <1>  -0.0970 
  9 C        6.5620    -3.9910     0.3460 C.ar  1 <1>  -0.1500 
 10 C        4.4800    -3.0270    -0.6600 C.3   1 <1>  -0.0960 
 11 N        0.1620    -6.2400     0.2790 N.4   1 <1>  -0.9060 
 12 C        7.3560    -5.0520     0.7360 C.ar  1 <1>  -0.1500 
 13 C        7.8620    -7.4830     1.0020 C.3   1 <1>  -0.0970 
 14 C       -1.1130    -6.4700    -0.4400 C.3   1 <1>   0.3430 
 15 C       -2.2390    -6.6050     0.5810 C.3   1 <1>  -0.1600 
 16 C       -3.5830    -6.8440    -0.1180 C.3   1 <1>  -0.1600 
 17 C       -4.7150    -6.9800     0.9040 C.3   1 <1>  -0.2400 
 18 H        2.6000    -4.9510     0.6580 H     1 <1>   0.0800 
 19 H        2.8700    -6.6960     0.7290 H     1 <1>   0.0800 
 20 H        1.4150    -6.9920    -1.2530 H     1 <1>   0.0800 
 21 H        1.1460    -5.2640    -1.3210 H     1 <1>   0.0800 
 22 H        4.4360    -8.0960    -0.9730 H     1 <1>   0.0800 
 23 H        4.9050    -8.4880     0.6660 H     1 <1>   0.0800 
 24 H        6.0430    -8.6360    -0.6520 H     1 <1>   0.0800 
 25 H        6.9240    -2.9870     0.4840 H     1 <1>   0.1500 
 26 H        3.7320    -2.8090     0.0790 H     1 <1>   0.0800 
 27 H        4.0030    -3.2370    -1.6000 H     1 <1>   0.0800 
 28 H        5.0980    -2.1560    -0.7900 H     1 <1>   0.0800 
 29 H        0.0710    -5.3940     0.8560 H     1 <1>   0.4500 
 30 H        0.3270    -7.0250     0.9230 H     1 <1>   0.4500 
 31 H        8.3170    -4.8480     1.1760 H     1 <1>   0.1500 
 32 H        7.3320    -8.1880     1.6170 H     1 <1>   0.0800 
 33 H        8.6880    -7.0990     1.5740 H     1 <1>   0.0800 
 34 H        8.2570    -7.9930     0.1410 H     1 <1>   0.0800 
 35 H       -1.0500    -7.3710    -1.0300 H     1 <1>   0.0800 
 36 H       -1.3210    -5.6430    -1.1010 H     1 <1>   0.0800 
 37 H       -2.3100    -5.7040     1.1670 H     1 <1>   0.0800 
 38 H       -2.0390    -7.4340     1.2380 H     1 <1>   0.0800 
 39 H       -3.5390    -7.7450    -0.7090 H     1 <1>   0.0800 
 40 H       -3.8090    -6.0230    -0.7790 H     1 <1>   0.0800 
 41 H       -4.5370    -7.8120     1.5640 H     1 <1>   0.0800 
 42 H       -5.6500    -7.1480     0.3970 H     1 <1>   0.0800 
 43 H       -4.8080    -6.0840     1.4930 H     1 <1>   0.0800 
@<TRIPOS>BOND
  1   1   2  1   
  2   1   3  1   
  3   2   4  ar  
  4   2   5  ar  
  5   3   6  1   
  6   3  18  1   
  7   3  19  1   
  8   4   7  ar  
  9   4   8  1   
 10   5   9  ar  
 11   5  10  1   
 12   6  11  1   
 13   6  20  1   
 14   6  21  1   
 15   7  12  ar  
 16   7  13  1   
 17   8  22  1   
 18   8  23  1   
 19   8  24  1   
 20   9  12  ar  
 21   9  25  1   
 22  10  26  1   
 23  10  27  1   
 24  10  28  1   
 25  11  14  1   
 26  11  29  1   
 27  11  30  1   
 28  12  31  1   
 29  13  32  1   
 30  13  33  1   
 31  13  34  1   
 32  14  15  1   
 33  14  35  1   
 34  14  36  1   
 35  15  16  1   
 36  15  37  1   
 37  15  38  1   
 38  16  17  1   
 39  16  39  1   
 40  16  40  1   
 41  17  41  1   
 42  17  42  1   
 43  17  43  1   
@<TRIPOS>SUBSTRUCTURE
  1 ****   3 GROUP 4 **** **** 0

# MOE 2024.06 (io_trps.svl 2023.06)
