@<TRIPOS>MOLECULE
NONAME
33 34 1 0 0 
SMALL
USER_CHARGES


@<TRIPOS>ATOM
  1 F        0.6740    -0.2260     0.8410 F     1 <1>  -0.1900 
  2 C        0.4110    -1.4810     0.5600 C.ar  1 <1>   0.1900 
  3 C        1.2760    -2.2130    -0.2690 C.ar  1 <1>   0.1000 
  4 C       -0.7360    -2.0190     1.1100 C.ar  1 <1>  -0.1500 
  5 N        2.4540    -1.7260    -0.8550 N.pl3 1 <1>  -0.8690 
  6 C        0.9130    -3.5300    -0.5330 C.ar  1 <1>  -0.1500 
  7 C       -1.0590    -3.3360     0.8330 C.ar  1 <1>  -0.1500 
  8 C        3.3950    -0.9160    -0.0730 C.3   1 <1>   0.2890 
  9 C       -0.2340    -4.0860     0.0100 C.ar  1 <1>  -0.1500 
 10 C        3.4760     0.4680    -0.7080 C.3   1 <1>  -0.1600 
 11 C        4.7620    -1.5910    -0.0730 C.3   1 <1>  -0.1600 
 12 C        4.5070     1.3240     0.0160 C.3   1 <1>   0.3430 
 13 C        5.7830    -0.7100     0.6420 C.3   1 <1>   0.3430 
 14 N        5.8350     0.6370    -0.0030 N.4   1 <1>  -0.9590 
 15 C        6.8810     1.4930     0.6350 C.3   1 <1>   0.2630 
 16 H       -1.3650    -1.4180     1.7410 H     1 <1>   0.1500 
 17 H        2.9130    -2.3920    -1.4840 H     1 <1>   0.4000 
 18 H        1.5340    -4.1310    -1.1720 H     1 <1>   0.1500 
 19 H       -1.9500    -3.7750     1.2510 H     1 <1>   0.1500 
 20 H        3.0480    -0.8310     0.9450 H     1 <1>   0.0800 
 21 H       -0.4880    -5.1090    -0.2100 H     1 <1>   0.1500 
 22 H        2.5150     0.9460    -0.6400 H     1 <1>   0.0800 
 23 H        3.7330     0.3890    -1.7490 H     1 <1>   0.0800 
 24 H        5.0910    -1.7780    -1.0800 H     1 <1>   0.0800 
 25 H        4.6910    -2.5330     0.4430 H     1 <1>   0.0800 
 26 H        4.1900     1.4820     1.0350 H     1 <1>   0.0800 
 27 H        4.5790     2.2850    -0.4690 H     1 <1>   0.0800 
 28 H        6.7540    -1.1780     0.5970 H     1 <1>   0.0800 
 29 H        5.5050    -0.6070     1.6790 H     1 <1>   0.0800 
 30 H        6.0900     0.4980    -0.9920 H     1 <1>   0.4500 
 31 H        6.6450     1.6640     1.6730 H     1 <1>   0.0800 
 32 H        6.9420     2.4460     0.1340 H     1 <1>   0.0800 
 33 H        7.8450     1.0140     0.5750 H     1 <1>   0.0800 
@<TRIPOS>BOND
  1   1   2  1   
  2   2   3  ar  
  3   2   4  ar  
  4   3   5  1   
  5   3   6  ar  
  6   4   7  ar  
  7   4  16  1   
  8   5   8  1   
  9   5  17  1   
 10   6   9  ar  
 11   6  18  1   
 12   7   9  ar  
 13   7  19  1   
 14   8  10  1   
 15   8  11  1   
 16   8  20  1   
 17   9  21  1   
 18  10  12  1   
 19  10  22  1   
 20  10  23  1   
 21  11  13  1   
 22  11  24  1   
 23  11  25  1   
 24  12  14  1   
 25  12  26  1   
 26  12  27  1   
 27  13  14  1   
 28  13  28  1   
 29  13  29  1   
 30  14  15  1   
 31  14  30  1   
 32  15  31  1   
 33  15  32  1   
 34  15  33  1   
@<TRIPOS>SUBSTRUCTURE
  1 ****   8 GROUP 4 **** **** 0

# MOE 2024.06 (io_trps.svl 2023.06)
