@<TRIPOS>MOLECULE
NONAME
31 32 1 0 0 
SMALL
USER_CHARGES


@<TRIPOS>ATOM
  1 CL      -0.9870    -0.7440    -2.0300 Cl    1 <1>  -0.1770 
  2 C       -0.3900    -1.9800    -0.9520 C.ar  1 <1>   0.1770 
  3 C        0.8030    -2.6130    -1.2440 C.ar  1 <1>  -0.1500 
  4 C       -1.1210    -2.3040     0.1760 C.ar  1 <1>  -0.1500 
  5 C        1.2810    -3.5970    -0.3910 C.ar  1 <1>  -0.1440 
  6 C       -0.6430    -3.2840     1.0290 C.ar  1 <1>  -0.1500 
  7 C        0.5530    -3.9260     0.7440 C.ar  1 <1>  -0.1500 
  8 C        2.5900    -4.3080    -0.6980 C.3   1 <1>   0.2140 
  9 S        3.9580    -3.3620     0.1000 S.3   1 <1>  -0.2860 
 10 C        5.4050    -4.3280    -0.3450 C.2   1 <1>   0.2430 
 11 N        5.3530    -5.4010    -1.0520 N.2   1 <1>  -0.3380 
 12 N        6.6390    -3.9950     0.0320 N.pl3 1 <1>   0.0480 
 13 N        6.6180    -5.8200    -1.1640 N.2   1 <1>  -0.3380 
 14 C        7.3610    -4.9820    -0.5210 C.2   1 <1>   0.0060 
 15 C        7.0760    -2.8400     0.8470 C.3   1 <1>   0.0960 
 16 C        8.8680    -5.1060    -0.4100 C.3   1 <1>  -0.0600 
 17 C        7.3850    -1.6340    -0.0450 C.3   1 <1>  -0.2400 
 18 H        1.3470    -2.3330    -2.1280 H     1 <1>   0.1500 
 19 H       -2.0460    -1.7960     0.3790 H     1 <1>   0.1500 
 20 H       -1.1980    -3.5470     1.9130 H     1 <1>   0.1500 
 21 H        0.9180    -4.6840     1.4160 H     1 <1>   0.1500 
 22 H        2.7940    -4.3380    -1.7530 H     1 <1>   0.0800 
 23 H        2.6110    -5.3040    -0.2930 H     1 <1>   0.0800 
 24 H        7.9500    -3.1200     1.4070 H     1 <1>   0.0800 
 25 H        6.2970    -2.5910     1.5450 H     1 <1>   0.0800 
 26 H        9.3440    -4.2330    -0.8170 H     1 <1>   0.0800 
 27 H        9.2030    -5.9670    -0.9620 H     1 <1>   0.0800 
 28 H        9.1560    -5.2250     0.6180 H     1 <1>   0.0800 
 29 H        8.1710    -1.8680    -0.7410 H     1 <1>   0.0800 
 30 H        7.7020    -0.8050     0.5610 H     1 <1>   0.0800 
 31 H        6.5050    -1.3380    -0.5900 H     1 <1>   0.0800 
@<TRIPOS>BOND
  1   1   2  1   
  2   2   3  ar  
  3   2   4  ar  
  4   3   5  ar  
  5   3  18  1   
  6   4   6  ar  
  7   4  19  1   
  8   5   7  ar  
  9   5   8  1   
 10   6   7  ar  
 11   6  20  1   
 12   7  21  1   
 13   8   9  1   
 14   8  22  1   
 15   8  23  1   
 16   9  10  1   
 17  10  11  2   
 18  10  12  1   
 19  11  13  1   
 20  12  14  1   
 21  12  15  1   
 22  13  14  2   
 23  14  16  1   
 24  15  17  1   
 25  15  24  1   
 26  15  25  1   
 27  16  26  1   
 28  16  27  1   
 29  16  28  1   
 30  17  29  1   
 31  17  30  1   
 32  17  31  1   
@<TRIPOS>SUBSTRUCTURE
  1 ****   9 GROUP 4 **** **** 0

# MOE 2024.06 (io_trps.svl 2023.06)
