@<TRIPOS>MOLECULE
NONAME
52 54 1 0 0 
SMALL
USER_CHARGES


@<TRIPOS>ATOM
  1 F        0.4550     0.9940     1.5280 F     1 <1>  -0.1900 
  2 C        1.1840     1.3020     0.4800 C.ar  1 <1>   0.1900 
  3 C        0.8040     2.3680    -0.3450 C.ar  1 <1>   0.1000 
  4 C        2.3110     0.5390     0.2460 C.ar  1 <1>  -0.1500 
  5 N       -0.3270     3.1720    -0.1560 N.pl3 1 <1>  -0.8380 
  6 C        1.6230     2.6370    -1.4350 C.ar  1 <1>  -0.1500 
  7 C        3.1050     0.8340    -0.8490 C.ar  1 <1>  -0.1500 
  8 C       -0.3200     4.0380     1.0590 C.3   1 <1>   0.2090 
  9 C       -1.6470     2.4900    -0.2940 C.3   1 <1>   0.2090 
 10 C        2.7580     1.8830    -1.6870 C.ar  1 <1>  -0.1500 
 11 C       -1.4710     5.0600     1.0050 C.3   1 <1>   0.1100 
 12 C       -2.7910     3.5210    -0.3420 C.3   1 <1>   0.1100 
 13 N       -2.7950     4.4170     0.8400 N.3   1 <1>  -0.8100 
 14 C       -3.8760     5.4430     0.8040 C.3   1 <1>   0.1710 
 15 C       -5.3160     4.9160     0.7090 C.2   1 <1>   0.5690 
 16 O       -5.9760     4.8340     1.7180 O.2   1 <1>  -0.5700 
 17 N       -5.8120     4.5920    -0.5220 N.am  1 <1>  -0.7300 
 18 C       -7.1400     4.0250    -0.8440 C.3   1 <1>   0.2200 
 19 C       -8.2500     4.9890    -0.3960 C.3   1 <1>  -0.1600 
 20 C       -7.2320     2.6040    -0.2710 C.3   1 <1>  -0.1600 
 21 C       -9.5950     4.6870    -1.0750 C.3   1 <1>  -0.1600 
 22 C       -8.5590     1.8800    -0.5550 C.3   1 <1>  -0.1600 
 23 C      -10.4580     3.6330    -0.3620 C.3   1 <1>  -0.1600 
 24 C       -9.7200     2.4450     0.2750 C.3   1 <1>  -0.1600 
 25 H        2.5600    -0.2700     0.9090 H     1 <1>   0.1500 
 26 H        1.3560     3.4490    -2.0850 H     1 <1>   0.1500 
 27 H        3.9880     0.2510    -1.0500 H     1 <1>   0.1500 
 28 H        0.6210     4.5560     1.1210 H     1 <1>   0.0800 
 29 H       -0.4290     3.4300     1.9410 H     1 <1>   0.0800 
 30 H       -1.8050     1.8290     0.5400 H     1 <1>   0.0800 
 31 H       -1.6520     1.9040    -1.1960 H     1 <1>   0.0800 
 32 H        3.3740     2.1140    -2.5380 H     1 <1>   0.1500 
 33 H       -1.2880     5.7340     0.1850 H     1 <1>   0.0800 
 34 H       -1.4650     5.6310     1.9170 H     1 <1>   0.0800 
 35 H       -3.7190     2.9790    -0.3830 H     1 <1>   0.0800 
 36 H       -2.6910     4.1020    -1.2420 H     1 <1>   0.0800 
 37 H       -3.7070     6.1080    -0.0230 H     1 <1>   0.0800 
 38 H       -3.8170     6.0270     1.7050 H     1 <1>   0.0800 
 39 H       -5.1900     4.6780    -1.3230 H     1 <1>   0.3700 
 40 H       -7.1930     3.9450    -1.9160 H     1 <1>   0.0800 
 41 H       -7.9570     5.9840    -0.6810 H     1 <1>   0.0800 
 42 H       -8.3590     4.9730     0.6740 H     1 <1>   0.0800 
 43 H       -7.0740     2.6350     0.7930 H     1 <1>   0.0800 
 44 H       -6.4360     2.0210    -0.6980 H     1 <1>   0.0800 
 45 H       -9.4240     4.3790    -2.0920 H     1 <1>   0.0800 
 46 H      -10.1670     5.5980    -1.1220 H     1 <1>   0.0800 
 47 H       -8.4280     0.8480    -0.2780 H     1 <1>   0.0800 
 48 H       -8.7940     1.9020    -1.6060 H     1 <1>   0.0800 
 49 H      -11.1740     3.2560    -1.0720 H     1 <1>   0.0800 
 50 H      -11.0200     4.1210     0.4160 H     1 <1>   0.0800 
 51 H       -9.3570     2.7320     1.2480 H     1 <1>   0.0800 
 52 H      -10.4400     1.6620     0.4370 H     1 <1>   0.0800 
@<TRIPOS>BOND
  1   1   2  1   
  2   2   3  ar  
  3   2   4  ar  
  4   3   5  1   
  5   3   6  ar  
  6   4   7  ar  
  7   4  25  1   
  8   5   8  1   
  9   5   9  1   
 10   6  10  ar  
 11   6  26  1   
 12   7  10  ar  
 13   7  27  1   
 14   8  11  1   
 15   8  28  1   
 16   8  29  1   
 17   9  12  1   
 18   9  30  1   
 19   9  31  1   
 20  10  32  1   
 21  11  13  1   
 22  11  33  1   
 23  11  34  1   
 24  12  13  1   
 25  12  35  1   
 26  12  36  1   
 27  13  14  1   
 28  14  15  1   
 29  14  37  1   
 30  14  38  1   
 31  15  16  2   
 32  15  17  am  
 33  17  18  1   
 34  17  39  1   
 35  18  19  1   
 36  18  20  1   
 37  18  40  1   
 38  19  21  1   
 39  19  41  1   
 40  19  42  1   
 41  20  22  1   
 42  20  43  1   
 43  20  44  1   
 44  21  23  1   
 45  21  45  1   
 46  21  46  1   
 47  22  24  1   
 48  22  47  1   
 49  22  48  1   
 50  23  24  1   
 51  23  49  1   
 52  23  50  1   
 53  24  51  1   
 54  24  52  1   
@<TRIPOS>SUBSTRUCTURE
  1 ****  12 GROUP 4 **** **** 0

# MOE 2024.06 (io_trps.svl 2023.06)
