@<TRIPOS>MOLECULE
NONAME
35 36 1 0 0 
SMALL
USER_CHARGES


@<TRIPOS>ATOM
  1 S       -0.1770    -0.2370     1.4120 S.3   1 <1>  -0.0800 
  2 C        0.5250     1.0250     0.3990 C.2   1 <1>   0.1040 
  3 C       -1.7750     0.0550     0.7540 C.2   1 <1>  -0.1400 
  4 N        1.8930     1.3000     0.4790 N.am  1 <1>  -0.4940 
  5 C       -0.4410     1.6020    -0.3670 C.2   1 <1>   0.0190 
  6 C       -1.7490     1.0450    -0.1500 C.2   1 <1>  -0.1810 
  7 C       -2.9600    -0.7610     1.2190 C.3   1 <1>   0.0200 
  8 C        2.9420     0.6720     1.0920 C.2   1 <1>   0.5690 
  9 C       -0.2040     2.6530    -1.3070 C.1   1 <1>   0.5380 
 10 C       -3.0180     1.4960    -0.8610 C.3   1 <1>   0.0210 
 11 C       -4.1400    -0.5210     0.2600 C.3   1 <1>  -0.1600 
 12 O        2.8650    -0.3590     1.7150 O.2   1 <1>  -0.5700 
 13 C        4.3010     1.3580     0.9500 C.3   1 <1>   0.1710 
 14 N       -0.0100     3.4900    -2.0580 N.1   1 <1>  -0.5570 
 15 C       -4.2730     0.9640    -0.1370 C.3   1 <1>  -0.1600 
 16 N        4.3550     2.3470    -0.1740 N.3   1 <1>  -0.8100 
 17 C        5.4560     3.2980     0.0200 C.3   1 <1>   0.0300 
 18 C        4.4970     1.6720    -1.4730 C.3   1 <1>   0.0300 
 19 H        2.2430     2.1120    -0.0470 H     1 <1>   0.3700 
 20 H       -3.2220    -0.4550     2.2160 H     1 <1>   0.0800 
 21 H       -2.7050    -1.8060     1.2360 H     1 <1>   0.0800 
 22 H       -2.9990     1.1260    -1.8710 H     1 <1>   0.0800 
 23 H       -3.0640     2.5710    -0.8970 H     1 <1>   0.0800 
 24 H       -5.0510    -0.8620     0.7220 H     1 <1>   0.0800 
 25 H       -3.9860    -1.1040    -0.6320 H     1 <1>   0.0800 
 26 H        5.0620     0.6090     0.8220 H     1 <1>   0.0800 
 27 H        4.4910     1.8640     1.8790 H     1 <1>   0.0800 
 28 H       -5.1320     1.0970    -0.7710 H     1 <1>   0.0800 
 29 H       -4.4320     1.5470     0.7550 H     1 <1>   0.0800 
 30 H        5.3230     3.8310     0.9450 H     1 <1>   0.0800 
 31 H        5.4650     4.0150    -0.7830 H     1 <1>   0.0800 
 32 H        6.4020     2.7830     0.0420 H     1 <1>   0.0800 
 33 H        3.6870     0.9800    -1.6310 H     1 <1>   0.0800 
 34 H        5.4280     1.1310    -1.5200 H     1 <1>   0.0800 
 35 H        4.4770     2.3990    -2.2670 H     1 <1>   0.0800 
@<TRIPOS>BOND
  1   1   2  1   
  2   1   3  1   
  3   2   4  1   
  4   2   5  2   
  5   3   6  2   
  6   3   7  1   
  7   4   8  am  
  8   4  19  1   
  9   5   6  1   
 10   5   9  1   
 11   6  10  1   
 12   7  11  1   
 13   7  20  1   
 14   7  21  1   
 15   8  12  2   
 16   8  13  1   
 17   9  14  3   
 18  10  15  1   
 19  10  22  1   
 20  10  23  1   
 21  11  15  1   
 22  11  24  1   
 23  11  25  1   
 24  13  16  1   
 25  13  26  1   
 26  13  27  1   
 27  15  28  1   
 28  15  29  1   
 29  16  17  1   
 30  16  18  1   
 31  17  30  1   
 32  17  31  1   
 33  17  32  1   
 34  18  33  1   
 35  18  34  1   
 36  18  35  1   
@<TRIPOS>SUBSTRUCTURE
  1 ****   2 GROUP 4 **** **** 0

# MOE 2024.06 (io_trps.svl 2023.06)
