@<TRIPOS>MOLECULE
NONAME
57 61 1 0 0 
SMALL
USER_CHARGES


@<TRIPOS>ATOM
  1 O       -1.9220    -0.2040     1.1600 O.2   1 <1>  -0.5700 
  2 C       -1.2430    -0.7870     0.3290 C.2   1 <1>   0.5440 
  3 N       -1.1920    -0.2030    -0.9120 N.am  1 <1>  -0.6600 
  4 C       -0.6010    -2.0500     0.6360 C.ar  1 <1>   0.0860 
  5 C       -0.3620     1.0310    -1.0590 C.3   1 <1>   0.1400 
  6 C       -2.4560    -0.1450    -1.7070 C.3   1 <1>   0.1400 
  7 C        0.7090    -2.3720     0.2450 C.ar  1 <1>   0.0830 
  8 C       -1.3160    -3.0060     1.3620 C.ar  1 <1>  -0.1500 
  9 C       -1.1590     2.3080    -0.6960 C.3   1 <1>   0.3430 
 10 C       -3.2000     1.2010    -1.5230 C.3   1 <1>   0.3430 
 11 O        1.4330    -1.4370    -0.4210 O.3   1 <1>  -0.3630 
 12 C        1.2440    -3.6220     0.5560 C.ar  1 <1>  -0.1500 
 13 C       -0.7790    -4.2390     1.6720 C.ar  1 <1>  -0.1500 
 14 N       -2.6070     2.0110    -0.4010 N.4   1 <1>  -0.9590 
 15 C        2.7530    -1.6700    -0.8670 C.3   1 <1>   0.0400 
 16 C        0.5040    -4.5490     1.2630 C.ar  1 <1>  -0.1500 
 17 C       -3.4250     3.1500     0.1070 C.3   1 <1>   0.5030 
 18 C       -4.8090     2.6330     0.5620 C.3   1 <1>  -0.1600 
 19 C       -3.6210     4.2250    -0.9840 C.3   1 <1>  -0.1600 
 20 C       -2.7280     3.7930     1.3290 C.3   1 <1>  -0.1600 
 21 C       -5.6650     3.7870     1.1140 C.3   1 <1>  -0.0800 
 22 C       -4.4720     5.3880    -0.4340 C.3   1 <1>  -0.0800 
 23 C       -3.5720     4.9540     1.8860 C.3   1 <1>  -0.0800 
 24 C       -5.8440     4.8500     0.0130 C.3   1 <1>  -0.1600 
 25 C       -4.9480     4.4190     2.3180 C.3   1 <1>  -0.1600 
 26 C       -3.7610     6.0110     0.7820 C.3   1 <1>  -0.1600 
 27 H       -0.0030     1.0990    -2.0710 H     1 <1>   0.0800 
 28 H        0.5010     0.9650    -0.4170 H     1 <1>   0.0800 
 29 H       -3.1050    -0.9470    -1.3970 H     1 <1>   0.0800 
 30 H       -2.2340    -0.2990    -2.7490 H     1 <1>   0.0800 
 31 H       -2.3150    -2.7720     1.6890 H     1 <1>   0.1500 
 32 H       -1.0820     3.0160    -1.5040 H     1 <1>   0.0800 
 33 H       -0.6940     2.7470     0.1690 H     1 <1>   0.0800 
 34 H       -4.2350     0.9840    -1.3290 H     1 <1>   0.0800 
 35 H       -3.1500     1.7630    -2.4400 H     1 <1>   0.0800 
 36 H        2.2390    -3.8950     0.2620 H     1 <1>   0.1500 
 37 H       -1.3540    -4.9580     2.2300 H     1 <1>   0.1500 
 38 H       -2.5470     1.3280     0.3860 H     1 <1>   0.4500 
 39 H        3.1000    -0.7860    -1.3700 H     1 <1>   0.0800 
 40 H        2.7490    -2.5010    -1.5510 H     1 <1>   0.0800 
 41 H        3.3800    -1.8750    -0.0160 H     1 <1>   0.0800 
 42 H        0.9260    -5.5120     1.5010 H     1 <1>   0.1500 
 43 H       -4.6890     1.8850     1.3260 H     1 <1>   0.0800 
 44 H       -5.3510     2.1980    -0.2560 H     1 <1>   0.0800 
 45 H       -2.6720     4.6150    -1.3020 H     1 <1>   0.0800 
 46 H       -4.1220     3.8080    -1.8380 H     1 <1>   0.0800 
 47 H       -1.7700     4.1960     1.0620 H     1 <1>   0.0800 
 48 H       -2.5860     3.0560     2.1000 H     1 <1>   0.0800 
 49 H       -6.6290     3.4160     1.4220 H     1 <1>   0.0800 
 50 H       -4.6080     6.1370    -1.1970 H     1 <1>   0.0800 
 51 H       -3.0740     5.3970     2.7330 H     1 <1>   0.0800 
 52 H       -6.4460     5.6610     0.3890 H     1 <1>   0.0800 
 53 H       -6.3670     4.4280    -0.8270 H     1 <1>   0.0800 
 54 H       -5.5430     5.2250     2.7150 H     1 <1>   0.0800 
 55 H       -4.8300     3.6900     3.1020 H     1 <1>   0.0800 
 56 H       -4.3470     6.8310     1.1630 H     1 <1>   0.0800 
 57 H       -2.8060     6.4120     0.4870 H     1 <1>   0.0800 
@<TRIPOS>BOND
  1   1   2  2   
  2   2   3  am  
  3   2   4  1   
  4   3   5  1   
  5   3   6  1   
  6   4   7  ar  
  7   4   8  ar  
  8   5   9  1   
  9   5  27  1   
 10   5  28  1   
 11   6  10  1   
 12   6  29  1   
 13   6  30  1   
 14   7  11  1   
 15   7  12  ar  
 16   8  13  ar  
 17   8  31  1   
 18   9  14  1   
 19   9  32  1   
 20   9  33  1   
 21  10  14  1   
 22  10  34  1   
 23  10  35  1   
 24  11  15  1   
 25  12  16  ar  
 26  12  36  1   
 27  13  16  ar  
 28  13  37  1   
 29  14  17  1   
 30  14  38  1   
 31  15  39  1   
 32  15  40  1   
 33  15  41  1   
 34  16  42  1   
 35  17  18  1   
 36  17  19  1   
 37  17  20  1   
 38  18  21  1   
 39  18  43  1   
 40  18  44  1   
 41  19  22  1   
 42  19  45  1   
 43  19  46  1   
 44  20  23  1   
 45  20  47  1   
 46  20  48  1   
 47  21  24  1   
 48  21  25  1   
 49  21  49  1   
 50  22  24  1   
 51  22  26  1   
 52  22  50  1   
 53  23  25  1   
 54  23  26  1   
 55  23  51  1   
 56  24  52  1   
 57  24  53  1   
 58  25  54  1   
 59  25  55  1   
 60  26  56  1   
 61  26  57  1   
@<TRIPOS>SUBSTRUCTURE
  1 ****  14 GROUP 4 **** **** 0

# MOE 2024.06 (io_trps.svl 2023.06)
