@<TRIPOS>MOLECULE
NONAME
32 32 1 0 0 
SMALL
USER_CHARGES


@<TRIPOS>ATOM
  1 S        0.8010     0.9200     0.5560 S.3   1 <1>  -0.3310 
  2 C       -0.9430     1.3480     0.4180 C.ar  1 <1>   0.1020 
  3 C        1.3760     0.4720    -1.1590 C.3   1 <1>   0.1310 
  4 C       -1.6210     1.3120    -0.7920 C.ar  1 <1>  -0.1500 
  5 C       -1.5910     1.7190     1.5830 C.ar  1 <1>  -0.1500 
  6 C        2.8480     0.0880    -1.1880 C.2   1 <1>   0.5690 
  7 C       -2.9630     1.6530    -0.8260 C.ar  1 <1>  -0.1500 
  8 C       -2.9320     2.0590     1.5420 C.ar  1 <1>  -0.1500 
  9 O        3.3530    -0.1460    -2.2600 O.2   1 <1>  -0.5700 
 10 N        3.5530     0.0170    -0.0290 N.am  1 <1>  -0.7300 
 11 C       -3.6170     2.0250     0.3380 C.ar  1 <1>  -0.1500 
 12 C        4.9910    -0.3040     0.1000 C.3   1 <1>   0.1400 
 13 C        5.7240     0.8120     0.8620 C.3   1 <1>  -0.0800 
 14 C        7.2250     0.5040     0.9260 C.3   1 <1>  -0.2400 
 15 C        5.1780     1.0040     2.2870 C.3   1 <1>  -0.2400 
 16 H        1.2110     1.3280    -1.7860 H     1 <1>   0.0800 
 17 H        0.7780    -0.3550    -1.4920 H     1 <1>   0.0800 
 18 H       -1.1340     1.0260    -1.7020 H     1 <1>   0.1500 
 19 H       -1.0490     1.7410     2.5110 H     1 <1>   0.1500 
 20 H       -3.5020     1.6290    -1.7580 H     1 <1>   0.1500 
 21 H       -3.4420     2.3490     2.4440 H     1 <1>   0.1500 
 22 H        3.0680     0.2440     0.8440 H     1 <1>   0.3700 
 23 H       -4.6590     2.2900     0.3070 H     1 <1>   0.1500 
 24 H        5.4240    -0.4180    -0.8800 H     1 <1>   0.0800 
 25 H        5.0970    -1.2390     0.6230 H     1 <1>   0.0800 
 26 H        5.5970     1.7310     0.3130 H     1 <1>   0.0800 
 27 H        7.4040    -0.4080     1.4680 H     1 <1>   0.0800 
 28 H        7.7500     1.3040     1.4180 H     1 <1>   0.0800 
 29 H        7.6270     0.4000    -0.0670 H     1 <1>   0.0800 
 30 H        5.2450     0.0860     2.8450 H     1 <1>   0.0800 
 31 H        4.1500     1.3200     2.2640 H     1 <1>   0.0800 
 32 H        5.7420     1.7600     2.8030 H     1 <1>   0.0800 
@<TRIPOS>BOND
  1   1   2  1   
  2   1   3  1   
  3   2   4  ar  
  4   2   5  ar  
  5   3   6  1   
  6   3  16  1   
  7   3  17  1   
  8   4   7  ar  
  9   4  18  1   
 10   5   8  ar  
 11   5  19  1   
 12   6   9  2   
 13   6  10  am  
 14   7  11  ar  
 15   7  20  1   
 16   8  11  ar  
 17   8  21  1   
 18  10  12  1   
 19  10  22  1   
 20  11  23  1   
 21  12  13  1   
 22  12  24  1   
 23  12  25  1   
 24  13  14  1   
 25  13  15  1   
 26  13  26  1   
 27  14  27  1   
 28  14  28  1   
 29  14  29  1   
 30  15  30  1   
 31  15  31  1   
 32  15  32  1   
@<TRIPOS>SUBSTRUCTURE
  1 ****   1 GROUP 4 **** **** 0

# MOE 2024.06 (io_trps.svl 2023.06)
