@<TRIPOS>MOLECULE
NONAME
36 36 1 0 0 
SMALL
USER_CHARGES


@<TRIPOS>ATOM
  1 O       -1.7250    -1.2680     2.0330 O.2   1 <1>  -0.5700 
  2 C       -1.9650    -1.8540     1.0080 C.2   1 <1>   0.7200 
  3 O       -1.4330    -3.0430     0.7560 O.3   1 <1>  -0.4300 
  4 C       -2.9200    -1.2910    -0.0280 C.3   1 <1>   0.0000 
  5 C       -0.5850    -3.6940     1.6790 C.3   1 <1>   0.0400 
  6 C       -2.1960    -1.2300    -1.3640 C.2   1 <1>   0.7200 
  7 C       -4.4200    -1.4770     0.1090 C.3   1 <1>   0.0000 
  8 C       -3.8040    -0.1410     0.4170 C.3   1 <1>  -0.1950 
  9 O       -1.6210    -0.2240    -1.6830 O.2   1 <1>  -0.5700 
 10 O       -2.1840    -2.2680    -2.1980 O.3   1 <1>  -0.4300 
 11 C       -4.8990    -2.3950     1.2000 C.2   1 <1>   0.7200 
 12 C       -5.4040    -1.5760    -1.0300 C.2   1 <1>   0.7200 
 13 C       -4.0620     1.1020    -0.4490 C.3   1 <1>  -0.1450 
 14 C       -2.5080    -3.6180    -1.9240 C.3   1 <1>   0.0400 
 15 O       -4.5400    -3.5430     1.2500 O.2   1 <1>  -0.5700 
 16 O       -5.7170    -1.8670     2.1010 O.3   1 <1>  -0.4300 
 17 O       -5.1730    -2.2010    -2.0300 O.2   1 <1>  -0.5700 
 18 O       -6.5510    -0.9290    -0.8610 O.3   1 <1>  -0.4300 
 19 C       -6.2080    -2.6190     3.1920 C.3   1 <1>   0.0400 
 20 C       -7.5620    -0.9340    -1.8480 C.3   1 <1>   0.0400 
 21 H       -0.2750    -4.6320     1.2560 H     1 <1>   0.0800 
 22 H       -1.1300    -3.8620     2.5920 H     1 <1>   0.0800 
 23 H        0.2720    -3.0690     1.8670 H     1 <1>   0.0800 
 24 H       -3.7760     0.1300     1.4600 H     1 <1>   0.1000 
 25 H       -4.1270     0.8580    -1.4950 H     1 <1>   0.0800 
 26 H       -3.2590     1.8060    -0.3200 H     1 <1>   0.0800 
 27 H       -4.9810     1.5740    -0.1510 H     1 <1>   0.0800 
 28 H       -3.2820    -3.6820    -1.1820 H     1 <1>   0.0800 
 29 H       -1.6220    -4.1220    -1.5810 H     1 <1>   0.0800 
 30 H       -2.8510    -4.0700    -2.8380 H     1 <1>   0.0800 
 31 H       -6.8490    -1.9870     3.7800 H     1 <1>   0.0800 
 32 H       -5.3760    -2.9570     3.7840 H     1 <1>   0.0800 
 33 H       -6.7630    -3.4610     2.8140 H     1 <1>   0.0800 
 34 H       -8.3890    -0.3460    -1.4910 H     1 <1>   0.0800 
 35 H       -7.8760    -1.9490    -2.0210 H     1 <1>   0.0800 
 36 H       -7.1680    -0.5080    -2.7540 H     1 <1>   0.0800 
@<TRIPOS>BOND
  1   1   2  2   
  2   2   3  1   
  3   2   4  1   
  4   3   5  1   
  5   4   6  1   
  6   4   7  1   
  7   4   8  1   
  8   5  21  1   
  9   5  22  1   
 10   5  23  1   
 11   6   9  2   
 12   6  10  1   
 13   7   8  1   
 14   7  11  1   
 15   7  12  1   
 16   8  13  1   
 17   8  24  1   
 18  10  14  1   
 19  11  15  2   
 20  11  16  1   
 21  12  17  2   
 22  12  18  1   
 23  13  25  1   
 24  13  26  1   
 25  13  27  1   
 26  14  28  1   
 27  14  29  1   
 28  14  30  1   
 29  16  19  1   
 30  18  20  1   
 31  19  31  1   
 32  19  32  1   
 33  19  33  1   
 34  20  34  1   
 35  20  35  1   
 36  20  36  1   
@<TRIPOS>SUBSTRUCTURE
  1 ****   7 GROUP 4 **** **** 0

# MOE 2024.06 (io_trps.svl 2023.06)
