@<TRIPOS>MOLECULE
NONAME
38 40 1 0 0 
SMALL
USER_CHARGES


@<TRIPOS>ATOM
  1 O       -0.0650     3.4670     0.2980 O.2   1 <1>  -0.5700 
  2 C        0.8450     4.1250     0.7710 C.2   1 <1>   0.7150 
  3 N        0.4990     5.1460     1.6160 N.am  1 <1>  -0.7300 
  4 C        2.2320     3.8800     0.4390 C.2   1 <1>   0.0550 
  5 C       -0.8300     5.3440     2.2740 C.3   1 <1>   0.1400 
  6 O        2.5460     2.9670    -0.4920 O.3   1 <1>  -0.2800 
  7 C        3.3750     4.4380     0.9180 C.2   1 <1>  -0.1500 
  8 C       -1.8690     6.0160     1.3480 C.3   1 <1>   0.3430 
  9 C        3.8710     2.9320    -0.6150 C.ar  1 <1>   0.1400 
 10 C        4.4540     3.8390     0.2480 C.ar  1 <1>   0.0000 
 11 N       -2.2300     5.1440     0.1930 N.4   1 <1>  -0.9590 
 12 C        4.6250     2.1320    -1.4620 C.ar  1 <1>  -0.1500 
 13 C        5.8450     3.9620     0.2760 C.ar  1 <1>  -0.1500 
 14 C       -2.7090     5.8560    -1.0100 C.3   1 <1>   0.3430 
 15 C       -3.2230     4.0890     0.4910 C.3   1 <1>   0.3430 
 16 C        6.0000     2.2580    -1.4290 C.ar  1 <1>  -0.1500 
 17 C        6.6060     3.1720    -0.5610 C.ar  1 <1>  -0.1500 
 18 C       -3.3970     4.7790    -1.8400 C.3   1 <1>  -0.1600 
 19 C       -3.6770     3.6170    -0.8820 C.3   1 <1>  -0.1600 
 20 H        1.2720     5.6800     2.0210 H     1 <1>   0.3700 
 21 H       -0.6900     5.9640     3.1430 H     1 <1>   0.0800 
 22 H       -1.2070     4.3940     2.6130 H     1 <1>   0.0800 
 23 H        3.4990     5.1970     1.6690 H     1 <1>   0.1500 
 24 H       -1.4490     6.9410     0.9880 H     1 <1>   0.0800 
 25 H       -2.7560     6.2520     1.9120 H     1 <1>   0.0800 
 26 H       -1.3690     4.6190    -0.0700 H     1 <1>   0.4500 
 27 H        4.1330     1.4370    -2.1180 H     1 <1>   0.1500 
 28 H        6.3040     4.6670     0.9460 H     1 <1>   0.1500 
 29 H       -1.8950     6.3140    -1.5500 H     1 <1>   0.0800 
 30 H       -3.4270     6.6100    -0.7300 H     1 <1>   0.0800 
 31 H       -4.0590     4.5080     1.0270 H     1 <1>   0.0800 
 32 H       -2.7870     3.2830     1.0610 H     1 <1>   0.0800 
 33 H        6.6140     1.6520    -2.0730 H     1 <1>   0.1500 
 34 H        7.6790     3.2540    -0.5530 H     1 <1>   0.1500 
 35 H       -2.7470     4.4600    -2.6360 H     1 <1>   0.0800 
 36 H       -4.3040     5.1660    -2.2730 H     1 <1>   0.0800 
 37 H       -4.7190     3.3450    -0.8680 H     1 <1>   0.0800 
 38 H       -3.1010     2.7530    -1.1680 H     1 <1>   0.0800 
@<TRIPOS>BOND
  1   1   2  2   
  2   2   3  am  
  3   2   4  1   
  4   3   5  1   
  5   3  20  1   
  6   4   6  1   
  7   4   7  2   
  8   5   8  1   
  9   5  21  1   
 10   5  22  1   
 11   6   9  1   
 12   7  10  1   
 13   7  23  1   
 14   8  11  1   
 15   8  24  1   
 16   8  25  1   
 17   9  10  ar  
 18   9  12  ar  
 19  10  13  ar  
 20  11  14  1   
 21  11  15  1   
 22  11  26  1   
 23  12  16  ar  
 24  12  27  1   
 25  13  17  ar  
 26  13  28  1   
 27  14  18  1   
 28  14  29  1   
 29  14  30  1   
 30  15  19  1   
 31  15  31  1   
 32  15  32  1   
 33  16  17  ar  
 34  16  33  1   
 35  17  34  1   
 36  18  19  1   
 37  18  35  1   
 38  18  36  1   
 39  19  37  1   
 40  19  38  1   
@<TRIPOS>SUBSTRUCTURE
  1 ****   2 GROUP 4 **** **** 0

# MOE 2024.06 (io_trps.svl 2023.06)
