@<TRIPOS>MOLECULE
NONAME
38 39 1 0 0 
SMALL
USER_CHARGES


@<TRIPOS>ATOM
  1 CL      -0.1770    -0.6750    -1.8140 Cl    1 <1>  -0.1770 
  2 C        0.6340    -1.8410    -0.7900 C.ar  1 <1>   0.1770 
  3 C       -0.0770    -2.9110    -0.2590 C.ar  1 <1>   0.0820 
  4 C        1.9800    -1.6670    -0.5300 C.ar  1 <1>  -0.1500 
  5 O       -1.4000    -3.0120    -0.5600 O.3   1 <1>  -0.3630 
  6 C        0.5980    -3.8210     0.5520 C.ar  1 <1>  -0.1500 
  7 C        2.6450    -2.5750     0.2780 C.ar  1 <1>  -0.1430 
  8 C       -2.2030    -4.0520    -0.0660 C.3   1 <1>   0.1200 
  9 C        1.9480    -3.6480     0.8130 C.ar  1 <1>  -0.1500 
 10 C        4.1240    -2.4020     0.5730 C.3   1 <1>  -0.0960 
 11 C       -3.6110    -3.8160    -0.6160 C.3   1 <1>   0.3430 
 12 N       -4.5730    -4.8630    -0.1560 N.4   1 <1>  -0.9060 
 13 C       -5.9450    -4.6530    -0.6570 C.3   1 <1>   0.4230 
 14 C       -6.6200    -3.5520     0.1540 C.3   1 <1>  -0.1600 
 15 C       -6.7670    -5.8850    -0.2980 C.3   1 <1>  -0.1600 
 16 C       -7.0660    -4.2100     1.4660 C.3   1 <1>  -0.1600 
 17 C       -7.1590    -5.7140     1.1750 C.3   1 <1>  -0.1600 
 18 H        2.4950    -0.8280    -0.9610 H     1 <1>   0.1500 
 19 H        0.1030    -4.6660     0.9890 H     1 <1>   0.1500 
 20 H       -2.1910    -4.0010     1.0090 H     1 <1>   0.0800 
 21 H       -1.7970    -4.9840    -0.4180 H     1 <1>   0.0800 
 22 H        2.4620    -4.3580     1.4390 H     1 <1>   0.1500 
 23 H        4.4170    -1.3730     0.4570 H     1 <1>   0.0800 
 24 H        4.7040    -3.0040    -0.1030 H     1 <1>   0.0800 
 25 H        4.3430    -2.7030     1.5820 H     1 <1>   0.0800 
 26 H       -3.5640    -3.8160    -1.6930 H     1 <1>   0.0800 
 27 H       -3.9460    -2.8450    -0.2910 H     1 <1>   0.0800 
 28 H       -4.6380    -4.8780     0.8690 H     1 <1>   0.4500 
 29 H       -4.2600    -5.7920    -0.4580 H     1 <1>   0.4500 
 30 H       -5.9510    -4.4550    -1.7190 H     1 <1>   0.0800 
 31 H       -7.5000    -3.2350    -0.3810 H     1 <1>   0.0800 
 32 H       -6.0050    -2.6850     0.3150 H     1 <1>   0.0800 
 33 H       -6.2560    -6.8120    -0.4890 H     1 <1>   0.0800 
 34 H       -7.6660    -5.8730    -0.8920 H     1 <1>   0.0800 
 35 H       -8.0180    -3.8180     1.7850 H     1 <1>   0.0800 
 36 H       -6.3480    -4.0280     2.2480 H     1 <1>   0.0800 
 37 H       -6.4830    -6.2570     1.8140 H     1 <1>   0.0800 
 38 H       -8.1570    -6.0820     1.3490 H     1 <1>   0.0800 
@<TRIPOS>BOND
  1   1   2  1   
  2   2   3  ar  
  3   2   4  ar  
  4   3   5  1   
  5   3   6  ar  
  6   4   7  ar  
  7   4  18  1   
  8   5   8  1   
  9   6   9  ar  
 10   6  19  1   
 11   7   9  ar  
 12   7  10  1   
 13   8  11  1   
 14   8  20  1   
 15   8  21  1   
 16   9  22  1   
 17  10  23  1   
 18  10  24  1   
 19  10  25  1   
 20  11  12  1   
 21  11  26  1   
 22  11  27  1   
 23  12  13  1   
 24  12  28  1   
 25  12  29  1   
 26  13  14  1   
 27  13  15  1   
 28  13  30  1   
 29  14  16  1   
 30  14  31  1   
 31  14  32  1   
 32  15  17  1   
 33  15  33  1   
 34  15  34  1   
 35  16  17  1   
 36  16  35  1   
 37  16  36  1   
 38  17  37  1   
 39  17  38  1   
@<TRIPOS>SUBSTRUCTURE
  1 ****   8 GROUP 4 **** **** 0

# MOE 2024.06 (io_trps.svl 2023.06)
