@<TRIPOS>MOLECULE
NONAME
48 50 1 0 0 
SMALL
USER_CHARGES


@<TRIPOS>ATOM
  1 O       -0.0780     0.5590     1.3690 O.2   1 <1>  -0.5700 
  2 C        0.0160     1.5880     0.7270 C.2   1 <1>   0.5440 
  3 N       -1.1200     2.1210     0.1540 N.am  1 <1>  -0.6600 
  4 C        1.3190     2.2050     0.5770 C.ar  1 <1>   0.0860 
  5 C       -2.4810     1.6010     0.4800 C.3   1 <1>   0.1400 
  6 C       -1.1310     3.1270    -0.9490 C.3   1 <1>   0.1400 
  7 C        2.3970     1.4720     0.0860 C.ar  1 <1>  -0.1500 
  8 C        1.5450     3.5340     0.9250 C.ar  1 <1>  -0.1500 
  9 C       -3.4750     2.7620     0.6570 C.3   1 <1>   0.1200 
 10 C       -2.1940     4.2060    -0.6810 C.3   1 <1>   0.1200 
 11 C        3.6620     2.0310    -0.0730 C.ar  1 <1>   0.0820 
 12 C        2.7910     4.1080     0.7700 C.ar  1 <1>  -0.1500 
 13 O       -3.4440     3.6210    -0.4490 O.3   1 <1>  -0.5600 
 14 O        4.6950     1.2880    -0.5650 O.3   1 <1>  -0.3630 
 15 C        3.8600     3.3800     0.2750 C.ar  1 <1>   0.0820 
 16 C        4.6350    -0.1170    -0.6520 C.3   1 <1>   0.1200 
 17 O        5.0210     4.0830     0.1870 O.3   1 <1>  -0.3630 
 18 C        6.0190    -0.6210    -1.0490 C.3   1 <1>  -0.2400 
 19 C        6.2740     3.5000    -0.1010 C.3   1 <1>   0.2630 
 20 C        7.3600     4.5500     0.0800 C.ar  1 <1>  -0.1430 
 21 C        8.1380     4.9540    -0.9940 C.ar  1 <1>  -0.1500 
 22 C        7.5850     5.1080     1.3290 C.ar  1 <1>  -0.1500 
 23 C        9.1320     5.9020    -0.8200 C.ar  1 <1>  -0.1500 
 24 C        8.5780     6.0550     1.5060 C.ar  1 <1>  -0.1500 
 25 C        9.3540     6.4520     0.4310 C.ar  1 <1>  -0.1500 
 26 H       -2.4550     1.0180     1.3850 H     1 <1>   0.0800 
 27 H       -2.8170     0.9620    -0.3170 H     1 <1>   0.0800 
 28 H       -1.3690     2.6290    -1.8730 H     1 <1>   0.0800 
 29 H       -0.1690     3.5900    -1.0650 H     1 <1>   0.0800 
 30 H        2.2030     0.4480    -0.1670 H     1 <1>   0.1500 
 31 H        0.7340     4.1160     1.3250 H     1 <1>   0.1500 
 32 H       -3.2370     3.3280     1.5410 H     1 <1>   0.0800 
 33 H       -4.4760     2.3810     0.7500 H     1 <1>   0.0800 
 34 H       -2.2890     4.8530    -1.5350 H     1 <1>   0.0800 
 35 H       -1.9260     4.8000     0.1750 H     1 <1>   0.0800 
 36 H        2.9500     5.1380     1.0400 H     1 <1>   0.1500 
 37 H        3.9060    -0.3850    -1.3970 H     1 <1>   0.0800 
 38 H        4.3500    -0.5090     0.3100 H     1 <1>   0.0800 
 39 H        6.3020    -0.2130    -2.0030 H     1 <1>   0.0800 
 40 H        6.0080    -1.6930    -1.1250 H     1 <1>   0.0800 
 41 H        6.7440    -0.3370    -0.3070 H     1 <1>   0.0800 
 42 H        6.2530     3.1390    -1.1130 H     1 <1>   0.0800 
 43 H        6.4340     2.6840     0.5810 H     1 <1>   0.0800 
 44 H        7.9740     4.5350    -1.9710 H     1 <1>   0.1500 
 45 H        6.9800     4.8050     2.1670 H     1 <1>   0.1500 
 46 H        9.7330     6.2120    -1.6570 H     1 <1>   0.1500 
 47 H        8.7450     6.4830     2.4780 H     1 <1>   0.1500 
 48 H       10.1260     7.1890     0.5660 H     1 <1>   0.1500 
@<TRIPOS>BOND
  1   1   2  2   
  2   2   3  am  
  3   2   4  1   
  4   3   5  1   
  5   3   6  1   
  6   4   7  ar  
  7   4   8  ar  
  8   5   9  1   
  9   5  26  1   
 10   5  27  1   
 11   6  10  1   
 12   6  28  1   
 13   6  29  1   
 14   7  11  ar  
 15   7  30  1   
 16   8  12  ar  
 17   8  31  1   
 18   9  13  1   
 19   9  32  1   
 20   9  33  1   
 21  10  13  1   
 22  10  34  1   
 23  10  35  1   
 24  11  14  1   
 25  11  15  ar  
 26  12  15  ar  
 27  12  36  1   
 28  14  16  1   
 29  15  17  1   
 30  16  18  1   
 31  16  37  1   
 32  16  38  1   
 33  17  19  1   
 34  18  39  1   
 35  18  40  1   
 36  18  41  1   
 37  19  20  1   
 38  19  42  1   
 39  19  43  1   
 40  20  21  ar  
 41  20  22  ar  
 42  21  23  ar  
 43  21  44  1   
 44  22  24  ar  
 45  22  45  1   
 46  23  25  ar  
 47  23  46  1   
 48  24  25  ar  
 49  24  47  1   
 50  25  48  1   
@<TRIPOS>SUBSTRUCTURE
  1 ****  15 GROUP 4 **** **** 0

# MOE 2024.06 (io_trps.svl 2023.06)
