@<TRIPOS>MOLECULE
NONAME
32 35 1 0 0 
SMALL
USER_CHARGES


@<TRIPOS>ATOM
  1 S       -0.0230    -0.0070    -3.2580 S.3   1 <1>  -0.0550 
  2 S       -0.5310     2.1040    -3.1040 S.3   1 <1>  -0.0550 
  3 C        1.1560    -0.2300    -1.9050 C.2   1 <1>   0.2820 
  4 C       -1.8410     2.0800    -1.8600 C.2   1 <1>   0.2820 
  5 N        1.4320     0.7640    -1.0360 N.2   1 <1>  -0.5650 
  6 C        1.8380    -1.3660    -1.6380 C.2   1 <1>  -0.3020 
  7 N       -2.6700     3.1380    -1.7320 N.2   1 <1>  -0.5650 
  8 C       -2.1160     1.0880    -0.9840 C.2   1 <1>  -0.3020 
  9 C        2.2900     0.1960    -0.2550 C.2   1 <1>   0.0060 
 10 N        2.5780    -1.0720    -0.5550 N.pl3 1 <1>   0.0480 
 11 C       -3.4350     2.7520    -0.7640 C.2   1 <1>   0.0070 
 12 N       -3.1620     1.5400    -0.2740 N.pl3 1 <1>   0.0480 
 13 C        3.0500     0.6780     0.9490 C.3   1 <1>   0.0200 
 14 C        3.5560    -1.6820     0.3450 C.3   1 <1>   0.0960 
 15 C       -4.5930     3.3950    -0.0550 C.3   1 <1>   0.0200 
 16 C       -4.0370     1.1360     0.8230 C.3   1 <1>   0.0960 
 17 C        4.0100    -0.5000     1.2330 C.3   1 <1>  -0.1600 
 18 C       -5.0980     2.2600     0.8640 C.3   1 <1>  -0.1600 
 19 H        1.8360    -2.3160    -2.1360 H     1 <1>   0.1500 
 20 H       -1.6390     0.1390    -0.8300 H     1 <1>   0.1500 
 21 H        2.3680     0.8360     1.7660 H     1 <1>   0.0800 
 22 H        3.5790     1.5880     0.7280 H     1 <1>   0.0800 
 23 H        4.3710    -2.0960    -0.2220 H     1 <1>   0.0800 
 24 H        3.0700    -2.4460     0.9250 H     1 <1>   0.0800 
 25 H       -5.3430     3.7130    -0.7580 H     1 <1>   0.0800 
 26 H       -4.2410     4.2360     0.5160 H     1 <1>   0.0800 
 27 H       -3.4640     1.1020     1.7320 H     1 <1>   0.0800 
 28 H       -4.4730     0.1760     0.6130 H     1 <1>   0.0800 
 29 H        4.0020    -0.7720     2.2730 H     1 <1>   0.0800 
 30 H        5.0130    -0.2200     0.9600 H     1 <1>   0.0800 
 31 H       -6.0300     1.8770     0.4840 H     1 <1>   0.0800 
 32 H       -5.2560     2.6070     1.8690 H     1 <1>   0.0800 
@<TRIPOS>BOND
  1   1   2  1   
  2   1   3  1   
  3   2   4  1   
  4   3   5  1   
  5   3   6  2   
  6   4   7  1   
  7   4   8  2   
  8   5   9  2   
  9   6  10  1   
 10   6  19  1   
 11   7  11  2   
 12   8  12  1   
 13   8  20  1   
 14   9  10  1   
 15   9  13  1   
 16  10  14  1   
 17  11  12  1   
 18  11  15  1   
 19  12  16  1   
 20  13  17  1   
 21  13  21  1   
 22  13  22  1   
 23  14  17  1   
 24  14  23  1   
 25  14  24  1   
 26  15  18  1   
 27  15  25  1   
 28  15  26  1   
 29  16  18  1   
 30  16  27  1   
 31  16  28  1   
 32  17  29  1   
 33  17  30  1   
 34  18  31  1   
 35  18  32  1   
@<TRIPOS>SUBSTRUCTURE
  1 ****   8 GROUP 4 **** **** 0

# MOE 2024.06 (io_trps.svl 2023.06)
