@<TRIPOS>MOLECULE
NONAME
38 39 1 0 0 
SMALL
USER_CHARGES


@<TRIPOS>ATOM
  1 BR      -0.3950    -1.5610     1.9010 Br    1 <1>  -0.1110 
  2 C        1.3730    -1.5510     1.1390 C.ar  1 <1>   0.1110 
  3 C        1.5310    -1.1430    -0.1710 C.ar  1 <1>  -0.1500 
  4 C        2.4370    -1.9520     1.9220 C.ar  1 <1>  -0.1500 
  5 C        2.8020    -1.1340    -0.7240 C.ar  1 <1>  -0.1440 
  6 C        3.7060    -1.9430     1.3700 C.ar  1 <1>  -0.1500 
  7 C        3.8950    -1.5340     0.0480 C.ar  1 <1>   0.0830 
  8 C        2.9840    -0.6860    -2.1680 C.3   1 <1>  -0.0960 
  9 O        5.1190    -1.5040    -0.5450 O.3   1 <1>  -0.3630 
 10 C        6.2890    -1.8510     0.1530 C.3   1 <1>   0.1200 
 11 C        7.4600    -1.6890    -0.8220 C.3   1 <1>   0.3430 
 12 N        8.7820    -2.0610    -0.2190 N.4   1 <1>  -0.9590 
 13 C        9.2040    -1.1130     0.8590 C.3   1 <1>   0.3430 
 14 C        9.8210    -2.1550    -1.2880 C.3   1 <1>   0.3430 
 15 C       10.4990    -1.6080     1.5040 C.3   1 <1>  -0.1600 
 16 C       11.1310    -2.6740    -0.6910 C.3   1 <1>  -0.1600 
 17 C       11.6150    -1.7940     0.4680 C.3   1 <1>  -0.1600 
 18 H        0.6700    -0.8410    -0.7390 H     1 <1>   0.1500 
 19 H        2.2690    -2.2630     2.9380 H     1 <1>   0.1500 
 20 H        4.5230    -2.2580     1.9890 H     1 <1>   0.1500 
 21 H        2.0420    -0.4180    -2.6130 H     1 <1>   0.0800 
 22 H        3.4190    -1.4810    -2.7460 H     1 <1>   0.0800 
 23 H        3.6340     0.1690    -2.2070 H     1 <1>   0.0800 
 24 H        6.1950    -2.8730     0.4740 H     1 <1>   0.0800 
 25 H        6.3810    -1.1860     0.9930 H     1 <1>   0.0800 
 26 H        7.4920    -0.6660    -1.1590 H     1 <1>   0.0800 
 27 H        7.2690    -2.3190    -1.6750 H     1 <1>   0.0800 
 28 H        8.7080    -2.9980     0.2010 H     1 <1>   0.4500 
 29 H        8.4380    -1.0390     1.6140 H     1 <1>   0.0800 
 30 H        9.3640    -0.1320     0.4400 H     1 <1>   0.0800 
 31 H        9.9860    -1.1820    -1.7240 H     1 <1>   0.0800 
 32 H        9.4930    -2.8240    -2.0670 H     1 <1>   0.0800 
 33 H       10.3140    -2.5370     2.0150 H     1 <1>   0.0800 
 34 H       10.8190    -0.8950     2.2440 H     1 <1>   0.0800 
 35 H       11.8840    -2.6930    -1.4610 H     1 <1>   0.0800 
 36 H       10.9940    -3.6870    -0.3530 H     1 <1>   0.0800 
 37 H       12.4770    -2.2440     0.9340 H     1 <1>   0.0800 
 38 H       11.9160    -0.8320     0.0870 H     1 <1>   0.0800 
@<TRIPOS>BOND
  1   1   2  1   
  2   2   3  ar  
  3   2   4  ar  
  4   3   5  ar  
  5   3  18  1   
  6   4   6  ar  
  7   4  19  1   
  8   5   7  ar  
  9   5   8  1   
 10   6   7  ar  
 11   6  20  1   
 12   7   9  1   
 13   8  21  1   
 14   8  22  1   
 15   8  23  1   
 16   9  10  1   
 17  10  11  1   
 18  10  24  1   
 19  10  25  1   
 20  11  12  1   
 21  11  26  1   
 22  11  27  1   
 23  12  13  1   
 24  12  14  1   
 25  12  28  1   
 26  13  15  1   
 27  13  29  1   
 28  13  30  1   
 29  14  16  1   
 30  14  31  1   
 31  14  32  1   
 32  15  17  1   
 33  15  33  1   
 34  15  34  1   
 35  16  17  1   
 36  16  35  1   
 37  16  36  1   
 38  17  37  1   
 39  17  38  1   
@<TRIPOS>SUBSTRUCTURE
  1 ****  10 GROUP 4 **** **** 0

# MOE 2024.06 (io_trps.svl 2023.06)
