@<TRIPOS>MOLECULE
NONAME
50 52 1 0 0 
SMALL
USER_CHARGES


@<TRIPOS>ATOM
  1 S        0.3120    -1.4490    -2.0470 S.o2  1 <1>   1.4470 
  2 O        1.4250    -2.2420    -2.5190 O.2   1 <1>  -0.6500 
  3 O       -0.1200    -0.2950    -2.7990 O.2   1 <1>  -0.6500 
  4 N        0.8290    -0.8500    -0.5440 N.am  1 <1>  -0.8490 
  5 C       -1.1220    -2.4830    -1.5970 C.ar  1 <1>  -0.0090 
  6 C        1.5020    -1.8720     0.2880 C.3   1 <1>   0.1960 
  7 C        1.6860     0.3450    -0.6810 C.3   1 <1>   0.1960 
  8 C       -1.5720    -3.5570    -2.3660 C.ar  1 <1>  -0.1440 
  9 C       -1.8130    -2.2000    -0.4260 C.ar  1 <1>  -0.1500 
 10 C        1.7790    -1.3510     1.7220 C.3   1 <1>   0.3430 
 11 C        2.1910     0.8720     0.6890 C.3   1 <1>   0.3430 
 12 C       -2.6370    -4.3280    -1.9240 C.ar  1 <1>  -0.1500 
 13 C       -0.9130    -3.9160    -3.6920 C.3   1 <1>  -0.0970 
 14 C       -2.8660    -2.9690     0.0570 C.ar  1 <1>   0.0860 
 15 N        1.5580     0.1360     1.8420 N.4   1 <1>  -0.9590 
 16 C       -3.2690    -4.0470    -0.7270 C.ar  1 <1>  -0.1500 
 17 C       -3.4610    -2.6370     1.3390 C.2   1 <1>   0.5440 
 18 C        1.9470     0.6740     3.1780 C.3   1 <1>   0.2630 
 19 O       -2.7680    -2.1150     2.1930 O.2   1 <1>  -0.5700 
 20 N       -4.7870    -2.9150     1.5780 N.am  1 <1>  -0.5470 
 21 C       -5.5870    -2.7170     2.7140 C.ar  1 <1>   0.1170 
 22 C       -6.6960    -3.5350     2.8980 C.ar  1 <1>  -0.1500 
 23 C       -5.3370    -1.7240     3.6570 C.ar  1 <1>  -0.1500 
 24 C       -7.5270    -3.3750     3.9930 C.ar  1 <1>  -0.1500 
 25 C       -6.1640    -1.5610     4.7540 C.ar  1 <1>  -0.1500 
 26 C       -7.2610    -2.3870     4.9240 C.ar  1 <1>  -0.1500 
 27 H        2.4340    -2.1620    -0.1700 H     1 <1>   0.0800 
 28 H        0.8920    -2.7580     0.3560 H     1 <1>   0.0800 
 29 H        1.1270     1.1300    -1.1640 H     1 <1>   0.0800 
 30 H        2.5310     0.1230    -1.3130 H     1 <1>   0.0800 
 31 H       -1.5270    -1.3450     0.1590 H     1 <1>   0.1500 
 32 H        2.7930    -1.5990     1.9920 H     1 <1>   0.0800 
 33 H        1.1260    -1.8660     2.4080 H     1 <1>   0.0800 
 34 H        1.9710     1.9250     0.7580 H     1 <1>   0.0800 
 35 H        3.2610     0.7600     0.7310 H     1 <1>   0.0800 
 36 H       -2.9780    -5.1630    -2.5130 H     1 <1>   0.1500 
 37 H       -0.8050    -3.0420    -4.3110 H     1 <1>   0.0800 
 38 H       -1.5040    -4.6310    -4.2360 H     1 <1>   0.0800 
 39 H        0.0590    -4.3450    -3.5220 H     1 <1>   0.0800 
 40 H        0.5390     0.2560     1.7060 H     1 <1>   0.4500 
 41 H       -4.0740    -4.6820    -0.4010 H     1 <1>   0.1500 
 42 H        3.0060     0.5480     3.3400 H     1 <1>   0.0800 
 43 H        1.4140     0.1550     3.9590 H     1 <1>   0.0800 
 44 H        1.7090     1.7230     3.2430 H     1 <1>   0.0800 
 45 H       -5.2770    -3.3520     0.8010 H     1 <1>   0.3700 
 46 H       -6.9140    -4.3090     2.1860 H     1 <1>   0.1500 
 47 H       -4.4950    -1.0690     3.5380 H     1 <1>   0.1500 
 48 H       -8.3790    -4.0180     4.1240 H     1 <1>   0.1500 
 49 H       -5.9530    -0.7900     5.4750 H     1 <1>   0.1500 
 50 H       -7.9040    -2.2600     5.7780 H     1 <1>   0.1500 
@<TRIPOS>BOND
  1   1   2  2   
  2   1   3  2   
  3   1   4  am  
  4   1   5  1   
  5   4   6  1   
  6   4   7  1   
  7   5   8  ar  
  8   5   9  ar  
  9   6  10  1   
 10   6  27  1   
 11   6  28  1   
 12   7  11  1   
 13   7  29  1   
 14   7  30  1   
 15   8  12  ar  
 16   8  13  1   
 17   9  14  ar  
 18   9  31  1   
 19  10  15  1   
 20  10  32  1   
 21  10  33  1   
 22  11  15  1   
 23  11  34  1   
 24  11  35  1   
 25  12  16  ar  
 26  12  36  1   
 27  13  37  1   
 28  13  38  1   
 29  13  39  1   
 30  14  16  ar  
 31  14  17  1   
 32  15  18  1   
 33  15  40  1   
 34  16  41  1   
 35  17  19  2   
 36  17  20  am  
 37  18  42  1   
 38  18  43  1   
 39  18  44  1   
 40  20  21  1   
 41  20  45  1   
 42  21  22  ar  
 43  21  23  ar  
 44  22  24  ar  
 45  22  46  1   
 46  23  25  ar  
 47  23  47  1   
 48  24  26  ar  
 49  24  48  1   
 50  25  26  ar  
 51  25  49  1   
 52  26  50  1   
@<TRIPOS>SUBSTRUCTURE
  1 ****   9 GROUP 4 **** **** 0

# MOE 2024.06 (io_trps.svl 2023.06)
