@<TRIPOS>MOLECULE
NONAME
42 43 1 0 0 
SMALL
USER_CHARGES


@<TRIPOS>ATOM
  1 O        2.6030    -0.7670    -2.7750 O.3   1 <1>  -0.5120 
  2 C        2.8560    -1.5690    -1.7290 C.2   1 <1>   0.3510 
  3 N        2.3730    -2.7550    -1.6700 N.2   1 <1>  -0.7070 
  4 C        3.6530    -1.1960    -0.6300 C.ar  1 <1>   0.0000 
  5 N        2.8440    -3.2410    -0.4850 N.pl3 1 <1>   0.3140 
  6 C        4.3870    -0.0850    -0.1960 C.ar  1 <1>  -0.1440 
  7 C        3.6210    -2.3230     0.1670 C.ar  1 <1>   0.1050 
  8 C        2.5350    -4.6110     0.0150 C.3   1 <1>   0.1760 
  9 C        5.0240    -0.2220     1.0110 C.ar  1 <1>  -0.1500 
 10 C        4.4730     1.1930    -1.0130 C.3   1 <1>  -0.0960 
 11 N        4.2440    -2.4630     1.3540 N.ar  1 <1>  -0.5670 
 12 C        3.0800    -5.6880    -0.9450 C.3   1 <1>  -0.1600 
 13 C        1.0200    -4.7900     0.2420 C.3   1 <1>  -0.1600 
 14 C        4.9250    -1.4170     1.7430 C.ar  1 <1>   0.1670 
 15 C        4.6070    -5.6190    -1.1130 C.3   1 <1>  -0.1600 
 16 C        0.4540    -3.8080     1.2810 C.3   1 <1>  -0.1600 
 17 C        5.6390    -1.5370     3.0730 C.3   1 <1>  -0.0970 
 18 C        5.1140    -6.7600    -1.9990 C.3   1 <1>  -0.2400 
 19 C       -1.0290    -4.0810     1.5430 C.3   1 <1>  -0.2400 
 20 H        3.0460     0.0840    -2.6500 H     1 <1>   0.4500 
 21 H        3.0290    -4.7310     0.9620 H     1 <1>   0.0800 
 22 H        5.6070     0.5850     1.4130 H     1 <1>   0.1500 
 23 H        3.4910     1.6100    -1.1510 H     1 <1>   0.0800 
 24 H        4.9150     0.9890    -1.9720 H     1 <1>   0.0800 
 25 H        5.0810     1.9230    -0.5110 H     1 <1>   0.0800 
 26 H        2.6030    -5.5820    -1.9050 H     1 <1>   0.0800 
 27 H        2.8190    -6.6570    -0.5570 H     1 <1>   0.0800 
 28 H        0.8410    -5.7940     0.5830 H     1 <1>   0.0800 
 29 H        0.5040    -4.6660    -0.6950 H     1 <1>   0.0800 
 30 H        5.0830    -5.6770    -0.1490 H     1 <1>   0.0800 
 31 H        4.8840    -4.6810    -1.5640 H     1 <1>   0.0800 
 32 H        0.5630    -2.7960     0.9260 H     1 <1>   0.0800 
 33 H        1.0010    -3.8970     2.2040 H     1 <1>   0.0800 
 34 H        6.1710    -0.6360     3.3150 H     1 <1>   0.0800 
 35 H        6.3370    -2.3520     3.0320 H     1 <1>   0.0800 
 36 H        4.9210    -1.7350     3.8480 H     1 <1>   0.0800 
 37 H        4.8770    -7.7140    -1.5600 H     1 <1>   0.0800 
 38 H        4.6640    -6.7040    -2.9750 H     1 <1>   0.0800 
 39 H        6.1820    -6.6910    -2.1100 H     1 <1>   0.0800 
 40 H       -1.5960    -3.9740     0.6340 H     1 <1>   0.0800 
 41 H       -1.4090    -3.3810     2.2660 H     1 <1>   0.0800 
 42 H       -1.1690    -5.0770     1.9250 H     1 <1>   0.0800 
@<TRIPOS>BOND
  1   1   2  1   
  2   1  20  1   
  3   2   3  2   
  4   2   4  1   
  5   3   5  1   
  6   4   6  ar  
  7   4   7  ar  
  8   5   7  1   
  9   5   8  1   
 10   6   9  ar  
 11   6  10  1   
 12   7  11  ar  
 13   8  12  1   
 14   8  13  1   
 15   8  21  1   
 16   9  14  ar  
 17   9  22  1   
 18  10  23  1   
 19  10  24  1   
 20  10  25  1   
 21  11  14  ar  
 22  12  15  1   
 23  12  26  1   
 24  12  27  1   
 25  13  16  1   
 26  13  28  1   
 27  13  29  1   
 28  14  17  1   
 29  15  18  1   
 30  15  30  1   
 31  15  31  1   
 32  16  19  1   
 33  16  32  1   
 34  16  33  1   
 35  17  34  1   
 36  17  35  1   
 37  17  36  1   
 38  18  37  1   
 39  18  38  1   
 40  18  39  1   
 41  19  40  1   
 42  19  41  1   
 43  19  42  1   
@<TRIPOS>SUBSTRUCTURE
  1 ****   7 GROUP 4 **** **** 0

# MOE 2024.06 (io_trps.svl 2023.06)
