@<TRIPOS>MOLECULE
NONAME
33 34 1 0 0 
SMALL
USER_CHARGES


@<TRIPOS>ATOM
  1 F       -0.5400    -0.1400    -1.6330 F     1 <1>  -0.3400 
  2 C       -0.2910     1.1550    -1.8280 C.3   1 <1>   0.8180 
  3 F        0.1900     1.1770    -3.0740 F     1 <1>  -0.3400 
  4 C       -1.6300     1.9120    -1.8430 C.2   1 <1>  -0.0620 
  5 C        0.8110     1.6560    -0.8470 C.3   1 <1>   0.6800 
  6 O       -2.4860     1.5540    -0.8730 O.3   1 <1>  -0.1590 
  7 C       -1.9820     2.8660    -2.7380 C.2   1 <1>  -0.1360 
  8 F        1.2460     2.8650    -1.2330 F     1 <1>  -0.3400 
  9 F        1.9100     0.8990    -0.9660 F     1 <1>  -0.3400 
 10 C        0.3920     1.7520     0.6310 C.3   1 <1>   0.6800 
 11 C       -3.7070     2.1190    -0.7360 C.ar  1 <1>   0.0820 
 12 C       -3.2450     3.5180    -2.6800 C.2   1 <1>   0.4690 
 13 F       -0.5250     2.7150     0.7750 F     1 <1>  -0.3400 
 14 F       -0.2470     0.6470     1.0290 F     1 <1>  -0.3400 
 15 C        1.5900     2.0620     1.5630 C.3   1 <1>   0.6000 
 16 C       -4.1330     3.1140    -1.6250 C.ar  1 <1>   0.0860 
 17 C       -4.5210     1.6950     0.3020 C.ar  1 <1>  -0.1500 
 18 O       -3.5330     4.3780    -3.4900 O.2   1 <1>  -0.5700 
 19 F        2.3580     0.9920     1.7640 F     1 <1>  -0.3400 
 20 F        1.1940     2.4110     2.7870 F     1 <1>  -0.3400 
 21 C       -5.4050     3.6600    -1.4330 C.ar  1 <1>  -0.1500 
 22 C       -5.7760     2.2470     0.4790 C.ar  1 <1>   0.0830 
 23 C       -6.2170     3.2380    -0.4000 C.ar  1 <1>  -0.1500 
 24 O       -6.5100     1.7810     1.5130 O.3   1 <1>  -0.3630 
 25 C       -7.8010     2.2750     1.7950 C.3   1 <1>   0.0400 
 26 H       -1.3390     3.1860    -3.5390 H     1 <1>   0.1500 
 27 H        2.2190     2.8470     1.1870 H     1 <1>   0.0800 
 28 H       -4.1790     0.9320     0.9780 H     1 <1>   0.1500 
 29 H       -5.7480     4.4250    -2.1100 H     1 <1>   0.1500 
 30 H       -7.1870     3.6840    -0.2870 H     1 <1>   0.1500 
 31 H       -8.1750     1.7550     2.6590 H     1 <1>   0.0800 
 32 H       -8.4400     2.0870     0.9510 H     1 <1>   0.0800 
 33 H       -7.7350     3.3280     2.0040 H     1 <1>   0.0800 
@<TRIPOS>BOND
  1   1   2  1   
  2   2   3  1   
  3   2   4  1   
  4   2   5  1   
  5   4   6  1   
  6   4   7  2   
  7   5   8  1   
  8   5   9  1   
  9   5  10  1   
 10   6  11  1   
 11   7  12  1   
 12   7  26  1   
 13  10  13  1   
 14  10  14  1   
 15  10  15  1   
 16  11  16  ar  
 17  11  17  ar  
 18  12  16  1   
 19  12  18  2   
 20  15  19  1   
 21  15  20  1   
 22  15  27  1   
 23  16  21  ar  
 24  17  22  ar  
 25  17  28  1   
 26  21  23  ar  
 27  21  29  1   
 28  22  23  ar  
 29  22  24  1   
 30  23  30  1   
 31  24  25  1   
 32  25  31  1   
 33  25  32  1   
 34  25  33  1   
@<TRIPOS>SUBSTRUCTURE
  1 ****   6 GROUP 4 **** **** 0

# MOE 2024.06 (io_trps.svl 2023.06)
