@<TRIPOS>MOLECULE
NONAME
56 59 1 0 0 
SMALL
USER_CHARGES


@<TRIPOS>ATOM
  1 N        0.1300     0.3490     0.0330 N.3   1 <1>  -0.8100 
  2 C       -1.1680     1.0120    -0.3360 C.3   1 <1>   0.1900 
  3 C        0.2840    -0.9610    -0.6630 C.3   1 <1>   0.1100 
  4 C        1.3730     1.1470    -0.1230 C.3   1 <1>   0.2540 
  5 C       -1.2930     2.4720     0.2180 C.3   1 <1>  -0.0800 
  6 C       -2.3510     0.0800     0.1120 C.3   1 <1>   0.4230 
  7 C       -1.0050    -1.8060    -0.7080 C.3   1 <1>   0.3430 
  8 C        2.5840     0.3770     0.3850 C.ar  1 <1>  -0.1440 
  9 C       -2.7140     2.9200     0.6460 C.3   1 <1>  -0.1600 
 10 C       -0.7720     3.4940    -0.8240 C.3   1 <1>  -0.1600 
 11 N       -1.9760    -1.3490     0.3300 N.4   1 <1>  -0.9590 
 12 C       -3.5230    -0.0120    -0.8670 C.3   1 <1>  -0.1600 
 13 C        3.5960    -0.0020    -0.4840 C.ar  1 <1>  -0.1500 
 14 C        2.6800     0.0430     1.7270 C.ar  1 <1>  -0.1500 
 15 C       -2.7220     4.3520     1.1990 C.3   1 <1>  -0.1600 
 16 C       -0.7610     4.9260    -0.2750 C.3   1 <1>  -0.1600 
 17 C       -3.2330    -2.1290     0.3380 C.3   1 <1>   0.3430 
 18 C       -4.1770    -1.3710    -0.5940 C.3   1 <1>  -0.1600 
 19 C        4.6930    -0.7130    -0.0230 C.ar  1 <1>  -0.1430 
 20 C        3.7720    -0.6660     2.1930 C.ar  1 <1>  -0.1500 
 21 C       -2.1600     5.3480     0.1820 C.3   1 <1>  -0.1600 
 22 C        4.7750    -1.0450     1.3190 C.ar  1 <1>  -0.1500 
 23 C        5.7990    -1.1270    -0.9770 C.3   1 <1>  -0.0970 
 24 H       -1.2050     1.0790    -1.4100 H     1 <1>   0.0800 
 25 H        1.0350    -1.5430    -0.1550 H     1 <1>   0.0800 
 26 H        0.6310    -0.8060    -1.6700 H     1 <1>   0.0800 
 27 H        1.3130     2.0540     0.4500 H     1 <1>   0.0800 
 28 H        1.5140     1.4060    -1.1580 H     1 <1>   0.0800 
 29 H       -0.6900     2.5380     1.1080 H     1 <1>   0.0800 
 30 H       -2.7290     0.4430     1.0500 H     1 <1>   0.0800 
 31 H       -0.7530    -2.8430    -0.5600 H     1 <1>   0.0800 
 32 H       -1.4500    -1.7100    -1.6840 H     1 <1>   0.0800 
 33 H       -3.1020     2.2900     1.4250 H     1 <1>   0.0800 
 34 H       -3.3820     2.8810    -0.1960 H     1 <1>   0.0800 
 35 H       -1.4010     3.4670    -1.6970 H     1 <1>   0.0800 
 36 H        0.2230     3.2590    -1.1480 H     1 <1>   0.0800 
 37 H       -1.4720    -1.3810     1.2280 H     1 <1>   0.4500 
 38 H       -3.1660     0.0250    -1.8820 H     1 <1>   0.0800 
 39 H       -4.2200     0.7940    -0.7220 H     1 <1>   0.0800 
 40 H        3.5350     0.2560    -1.5260 H     1 <1>   0.1500 
 41 H        1.9010     0.3350     2.4090 H     1 <1>   0.1500 
 42 H       -2.1310     4.3930     2.0980 H     1 <1>   0.0800 
 43 H       -3.7280     4.6360     1.4560 H     1 <1>   0.0800 
 44 H       -0.4140     5.6040    -1.0360 H     1 <1>   0.0800 
 45 H       -0.0790     4.9880     0.5560 H     1 <1>   0.0800 
 46 H       -3.6460    -2.1400     1.3340 H     1 <1>   0.0800 
 47 H       -3.0750    -3.1440     0.0090 H     1 <1>   0.0800 
 48 H       -4.3190    -1.9190    -1.5100 H     1 <1>   0.0800 
 49 H       -5.1360    -1.2550    -0.1180 H     1 <1>   0.0800 
 50 H        3.8430    -0.9230     3.2350 H     1 <1>   0.1500 
 51 H       -2.1160     6.3300     0.6220 H     1 <1>   0.0800 
 52 H       -2.8160     5.4000    -0.6710 H     1 <1>   0.0800 
 53 H        5.6210    -1.5970     1.6890 H     1 <1>   0.1500 
 54 H        5.8350    -0.4680    -1.8260 H     1 <1>   0.0800 
 55 H        5.6270    -2.1300    -1.3220 H     1 <1>   0.0800 
 56 H        6.7530    -1.0890    -0.4810 H     1 <1>   0.0800 
@<TRIPOS>BOND
  1   1   2  1   
  2   1   3  1   
  3   1   4  1   
  4   2   5  1   
  5   2   6  1   
  6   2  24  1   
  7   3   7  1   
  8   3  25  1   
  9   3  26  1   
 10   4   8  1   
 11   4  27  1   
 12   4  28  1   
 13   5   9  1   
 14   5  10  1   
 15   5  29  1   
 16   6  11  1   
 17   6  12  1   
 18   6  30  1   
 19   7  11  1   
 20   7  31  1   
 21   7  32  1   
 22   8  13  ar  
 23   8  14  ar  
 24   9  15  1   
 25   9  33  1   
 26   9  34  1   
 27  10  16  1   
 28  10  35  1   
 29  10  36  1   
 30  11  17  1   
 31  11  37  1   
 32  12  18  1   
 33  12  38  1   
 34  12  39  1   
 35  13  19  ar  
 36  13  40  1   
 37  14  20  ar  
 38  14  41  1   
 39  15  21  1   
 40  15  42  1   
 41  15  43  1   
 42  16  21  1   
 43  16  44  1   
 44  16  45  1   
 45  17  18  1   
 46  17  46  1   
 47  17  47  1   
 48  18  48  1   
 49  18  49  1   
 50  19  22  ar  
 51  19  23  1   
 52  20  22  ar  
 53  20  50  1   
 54  21  51  1   
 55  21  52  1   
 56  22  53  1   
 57  23  54  1   
 58  23  55  1   
 59  23  56  1   
@<TRIPOS>SUBSTRUCTURE
  1 ****   1 GROUP 4 **** **** 0

# MOE 2024.06 (io_trps.svl 2023.06)
