@<TRIPOS>MOLECULE
NONAME
34 35 1 0 0 
SMALL
USER_CHARGES


@<TRIPOS>ATOM
  1 F        0.6690     0.4790    -1.0850 F     1 <1>  -0.1900 
  2 C        1.9170     0.2740    -0.7490 C.ar  1 <1>   0.1900 
  3 C        2.7560    -0.3560    -1.6470 C.ar  1 <1>  -0.1500 
  4 C        2.3510     0.6980     0.4920 C.ar  1 <1>  -0.1500 
  5 C        4.0750    -0.5670    -1.2840 C.ar  1 <1>  -0.1500 
  6 C        3.6730     0.4780     0.8400 C.ar  1 <1>  -0.1500 
  7 C        4.5500    -0.1570    -0.0380 C.ar  1 <1>   0.1170 
  8 N        5.8810    -0.3410     0.3600 N.am  1 <1>  -0.5470 
  9 C        6.8310    -1.2370    -0.0320 C.2   1 <1>   0.6900 
 10 O        6.5810    -2.1380    -0.8110 O.2   1 <1>  -0.5700 
 11 N        8.0850    -1.0680     0.4850 N.am  1 <1>  -0.6600 
 12 C        8.9680    -2.2010     0.8790 C.3   1 <1>   0.2200 
 13 C        8.8500     0.1400     0.0790 C.3   1 <1>   0.1400 
 14 C        9.8410    -2.6020    -0.3170 C.3   1 <1>  -0.1600 
 15 C        8.1900    -3.3860     1.4580 C.3   1 <1>  -0.2400 
 16 C        9.7430    -0.2050    -1.1200 C.3   1 <1>  -0.1600 
 17 C       10.6580    -1.4060    -0.8310 C.3   1 <1>  -0.1600 
 18 H        2.3850    -0.6730    -2.6050 H     1 <1>   0.1500 
 19 H        1.6680     1.1850     1.1640 H     1 <1>   0.1500 
 20 H        4.7380    -1.0530    -1.9770 H     1 <1>   0.1500 
 21 H        4.0260     0.7990     1.8030 H     1 <1>   0.1500 
 22 H        6.1930     0.2090     1.1520 H     1 <1>   0.3700 
 23 H        9.6190    -1.8440     1.6600 H     1 <1>   0.0800 
 24 H        9.4530     0.4740     0.9060 H     1 <1>   0.0800 
 25 H        8.1760     0.9350    -0.1930 H     1 <1>   0.0800 
 26 H        9.2080    -2.9780    -1.1030 H     1 <1>   0.0800 
 27 H       10.5090    -3.3940    -0.0270 H     1 <1>   0.0800 
 28 H        7.6100    -3.8780     0.6980 H     1 <1>   0.0800 
 29 H        7.5390    -3.0530     2.2450 H     1 <1>   0.0800 
 30 H        8.8760    -4.1050     1.8650 H     1 <1>   0.0800 
 31 H       10.3410     0.6510    -1.3790 H     1 <1>   0.0800 
 32 H        9.1140    -0.4300    -1.9640 H     1 <1>   0.0800 
 33 H       11.1850    -1.6850    -1.7270 H     1 <1>   0.0800 
 34 H       11.3860    -1.1280    -0.0890 H     1 <1>   0.0800 
@<TRIPOS>BOND
  1   1   2  1   
  2   2   3  ar  
  3   2   4  ar  
  4   3   5  ar  
  5   3  18  1   
  6   4   6  ar  
  7   4  19  1   
  8   5   7  ar  
  9   5  20  1   
 10   6   7  ar  
 11   6  21  1   
 12   7   8  1   
 13   8   9  am  
 14   8  22  1   
 15   9  10  2   
 16   9  11  am  
 17  11  12  1   
 18  11  13  1   
 19  12  14  1   
 20  12  15  1   
 21  12  23  1   
 22  13  16  1   
 23  13  24  1   
 24  13  25  1   
 25  14  17  1   
 26  14  26  1   
 27  14  27  1   
 28  15  28  1   
 29  15  29  1   
 30  15  30  1   
 31  16  17  1   
 32  16  31  1   
 33  16  32  1   
 34  17  33  1   
 35  17  34  1   
@<TRIPOS>SUBSTRUCTURE
  1 ****   8 GROUP 4 **** **** 0

# MOE 2024.06 (io_trps.svl 2023.06)
