@<TRIPOS>MOLECULE
NONAME
34 35 1 0 0 
SMALL
USER_CHARGES


@<TRIPOS>ATOM
  1 O       -0.8450    -0.6940    -0.1870 O.2   1 <1>  -0.5700 
  2 C       -0.5030    -1.8400    -0.0270 C.2   1 <1>   0.5950 
  3 C        0.8530    -2.3260    -0.0680 C.2   1 <1>  -0.0860 
  4 C       -1.5830    -2.8720     0.2690 C.3   1 <1>  -0.0990 
  5 C        1.1910    -3.6460     0.0770 C.2   1 <1>  -0.3320 
  6 C        2.0710    -1.6470    -0.2370 C.2   1 <1>  -0.1810 
  7 C       -1.2150    -4.2820    -0.2400 C.3   1 <1>  -0.1600 
  8 N        2.5310    -3.8000     0.0330 N.pl3 1 <1>   0.0480 
  9 C        0.1600    -4.7500     0.2670 C.3   1 <1>   0.0200 
 10 C        3.1000    -2.5580    -0.1610 C.2   1 <1>  -0.2370 
 11 C        2.1490    -0.1450    -0.4700 C.3   1 <1>  -0.0590 
 12 C        3.2590    -5.0800     0.1950 C.3   1 <1>   0.0160 
 13 C        4.5260    -2.3510    -0.2480 C.2   1 <1>   0.8050 
 14 O        5.3150    -3.2160    -0.5790 O.2   1 <1>  -0.5700 
 15 O        5.0070    -1.1470     0.0720 O.3   1 <1>  -0.4300 
 16 C        6.3850    -0.8590     0.0210 C.3   1 <1>   0.1200 
 17 C        6.5760     0.5990     0.4280 C.3   1 <1>  -0.2400 
 18 H       -2.5010    -2.5530    -0.1890 H     1 <1>   0.0800 
 19 H       -1.7320    -2.8980     1.3330 H     1 <1>   0.0800 
 20 H       -1.1900    -4.2590    -1.3160 H     1 <1>   0.0800 
 21 H       -1.9710    -4.9880     0.0560 H     1 <1>   0.0800 
 22 H        0.1010    -5.0000     1.3120 H     1 <1>   0.0800 
 23 H        0.4480    -5.6310    -0.2800 H     1 <1>   0.0800 
 24 H        3.1120     0.1510    -0.8380 H     1 <1>   0.0800 
 25 H        1.4180     0.1500    -1.2000 H     1 <1>   0.0800 
 26 H        1.9480     0.3760     0.4480 H     1 <1>   0.0800 
 27 H        2.5950    -5.8510     0.5330 H     1 <1>   0.0800 
 28 H        4.0430    -4.9540     0.9190 H     1 <1>   0.0800 
 29 H        3.6880    -5.3620    -0.7490 H     1 <1>   0.0800 
 30 H        6.8970    -1.5200     0.7000 H     1 <1>   0.0800 
 31 H        6.7330    -1.0290    -0.9840 H     1 <1>   0.0800 
 32 H        7.6210     0.8490     0.4000 H     1 <1>   0.0800 
 33 H        6.2120     0.7550     1.4270 H     1 <1>   0.0800 
 34 H        6.0510     1.2450    -0.2530 H     1 <1>   0.0800 
@<TRIPOS>BOND
  1   1   2  2   
  2   2   3  1   
  3   2   4  1   
  4   3   5  2   
  5   3   6  1   
  6   4   7  1   
  7   4  18  1   
  8   4  19  1   
  9   5   8  1   
 10   5   9  1   
 11   6  10  2   
 12   6  11  1   
 13   7   9  1   
 14   7  20  1   
 15   7  21  1   
 16   8  10  1   
 17   8  12  1   
 18   9  22  1   
 19   9  23  1   
 20  10  13  1   
 21  11  24  1   
 22  11  25  1   
 23  11  26  1   
 24  12  27  1   
 25  12  28  1   
 26  12  29  1   
 27  13  14  2   
 28  13  15  1   
 29  15  16  1   
 30  16  17  1   
 31  16  30  1   
 32  16  31  1   
 33  17  32  1   
 34  17  33  1   
 35  17  34  1   
@<TRIPOS>SUBSTRUCTURE
  1 ****   6 GROUP 4 **** **** 0

# MOE 2024.06 (io_trps.svl 2023.06)
