@<TRIPOS>MOLECULE
NONAME
46 48 1 0 0 
SMALL
USER_CHARGES


@<TRIPOS>ATOM
  1 F        0.9640    -1.0560    -2.3090 F     1 <1>  -0.1900 
  2 C        2.0410    -1.4930    -1.7180 C.ar  1 <1>   0.1900 
  3 C        1.9560    -1.9360    -0.4120 C.ar  1 <1>  -0.1500 
  4 C        3.2330    -1.4960    -2.4150 C.ar  1 <1>  -0.1500 
  5 C        3.1040    -2.3980     0.2080 C.ar  1 <1>  -0.1500 
  6 C        4.3710    -1.9630    -1.7800 C.ar  1 <1>  -0.1500 
  7 C        4.3270    -2.4260    -0.4640 C.ar  1 <1>   0.0280 
  8 C        5.5320    -2.9090     0.1710 C.2   1 <1>  -0.1670 
  9 C        6.6580    -2.1850     0.2870 C.2   1 <1>  -0.2880 
 10 C        5.4830    -4.3360     0.7050 C.3   1 <1>  -0.0220 
 11 C        7.9580    -2.6530     0.9070 C.3   1 <1>   0.4810 
 12 C        6.6860    -4.6540     1.6020 C.3   1 <1>   0.3430 
 13 N        7.9440    -4.1410     0.9860 N.4   1 <1>  -0.9590 
 14 C        9.1640    -4.6720     1.6490 C.3   1 <1>   0.4860 
 15 C       10.3790    -4.2120     0.8680 C.ar  1 <1>  -0.1430 
 16 C       10.6460    -4.7440    -0.3850 C.ar  1 <1>  -0.1500 
 17 C       11.2240    -3.2470     1.3950 C.ar  1 <1>  -0.1500 
 18 C       11.7360    -4.3070    -1.1200 C.ar  1 <1>  -0.1430 
 19 C       12.3160    -2.8070     0.6690 C.ar  1 <1>  -0.1500 
 20 C       12.5760    -3.3300    -0.5950 C.ar  1 <1>   0.0830 
 21 C       12.0130    -4.9010    -2.4950 C.3   1 <1>  -0.0970 
 22 O       13.6290    -2.9310    -1.3540 O.3   1 <1>  -0.3620 
 23 C       14.5900    -2.0140    -0.8800 C.3   1 <1>   0.0400 
 24 H        1.0110    -1.9130     0.1000 H     1 <1>   0.1500 
 25 H        3.2620    -1.1410    -3.4300 H     1 <1>   0.1500 
 26 H        3.0450    -2.7310     1.2280 H     1 <1>   0.1500 
 27 H        5.3050    -1.9720    -2.3130 H     1 <1>   0.1500 
 28 H        6.7180    -1.1680    -0.0650 H     1 <1>   0.1500 
 29 H        5.4580    -5.0220    -0.1240 H     1 <1>   0.0800 
 30 H        4.5870    -4.4940     1.2780 H     1 <1>   0.0800 
 31 H        8.0700    -2.2200     1.8880 H     1 <1>   0.0800 
 32 H        8.7850    -2.3310     0.2930 H     1 <1>   0.0800 
 33 H        6.7450    -5.7200     1.7500 H     1 <1>   0.0800 
 34 H        6.5410    -4.1850     2.5620 H     1 <1>   0.0800 
 35 H        7.9670    -4.4530     0.0080 H     1 <1>   0.4500 
 36 H        9.1410    -5.7500     1.6650 H     1 <1>   0.0800 
 37 H        9.2240    -4.3160     2.6650 H     1 <1>   0.0800 
 38 H       10.0120    -5.5070    -0.8020 H     1 <1>   0.1500 
 39 H       11.0500    -2.8270     2.3710 H     1 <1>   0.1500 
 40 H       12.9540    -2.0590     1.0990 H     1 <1>   0.1500 
 41 H       11.2820    -5.6420    -2.7620 H     1 <1>   0.0800 
 42 H       12.9850    -5.3610    -2.5010 H     1 <1>   0.0800 
 43 H       12.0010    -4.1220    -3.2370 H     1 <1>   0.0800 
 44 H       15.3360    -1.8880    -1.6440 H     1 <1>   0.0800 
 45 H       15.0450    -2.4130     0.0100 H     1 <1>   0.0800 
 46 H       14.1090    -1.0730    -0.6810 H     1 <1>   0.0800 
@<TRIPOS>BOND
  1   1   2  1   
  2   2   3  ar  
  3   2   4  ar  
  4   3   5  ar  
  5   3  24  1   
  6   4   6  ar  
  7   4  25  1   
  8   5   7  ar  
  9   5  26  1   
 10   6   7  ar  
 11   6  27  1   
 12   7   8  1   
 13   8   9  2   
 14   8  10  1   
 15   9  11  1   
 16   9  28  1   
 17  10  12  1   
 18  10  29  1   
 19  10  30  1   
 20  11  13  1   
 21  11  31  1   
 22  11  32  1   
 23  12  13  1   
 24  12  33  1   
 25  12  34  1   
 26  13  14  1   
 27  13  35  1   
 28  14  15  1   
 29  14  36  1   
 30  14  37  1   
 31  15  16  ar  
 32  15  17  ar  
 33  16  18  ar  
 34  16  38  1   
 35  17  19  ar  
 36  17  39  1   
 37  18  20  ar  
 38  18  21  1   
 39  19  20  ar  
 40  19  40  1   
 41  20  22  1   
 42  21  41  1   
 43  21  42  1   
 44  21  43  1   
 45  22  23  1   
 46  23  44  1   
 47  23  45  1   
 48  23  46  1   
@<TRIPOS>SUBSTRUCTURE
  1 ****  11 GROUP 4 **** **** 0

# MOE 2024.06 (io_trps.svl 2023.06)
