@<TRIPOS>MOLECULE
NONAME
44 46 1 0 0 
SMALL
USER_CHARGES


@<TRIPOS>ATOM
  1 O        1.0840     0.1280    -1.7220 O.2   1 <1>  -0.5700 
  2 C        1.7430    -0.5500    -0.9020 C.2   1 <1>   0.5410 
  3 C        2.5490     0.0510     0.1010 C.2   1 <1>   0.0140 
  4 C        1.6710    -1.9540    -0.9830 C.2   1 <1>  -0.1360 
  5 C        2.6850     1.4660     0.1910 C.2   1 <1>   0.2000 
  6 C        3.1860    -0.8040     1.0150 C.2   1 <1>  -0.1500 
  7 C        2.3340    -2.7550    -0.0930 C.2   1 <1>  -0.1500 
  8 N        1.7230     2.3480    -0.0510 N.pl3 1 <1>  -0.5500 
  9 N        3.7610     2.2050     0.5200 N.pl3 1 <1>  -0.4270 
 10 C        3.0930    -2.1730     0.9230 C.2   1 <1>  -0.1500 
 11 C        2.2280     3.5800     0.1650 C.2   1 <1>   0.4390 
 12 N        3.4580     3.5330     0.5110 N.2   1 <1>  -0.4920 
 13 C        5.1530     1.7750     0.7580 C.3   1 <1>   0.2090 
 14 C        1.3980     4.8260    -0.0090 C.3   1 <1>  -0.1790 
 15 C        6.1010     2.7590     0.0540 C.3   1 <1>   0.3430 
 16 N        7.5570     2.3970     0.1550 N.4   1 <1>  -0.9590 
 17 C        8.3850     3.5500    -0.3040 C.3   1 <1>   0.3430 
 18 C        7.8870     1.1580    -0.6130 C.3   1 <1>   0.3430 
 19 C        9.8670     3.2430    -0.0810 C.3   1 <1>  -0.1600 
 20 C        9.3570     0.7940    -0.3970 C.3   1 <1>  -0.1600 
 21 C       10.2900     1.9480    -0.7860 C.3   1 <1>  -0.1600 
 22 H        1.0690    -2.3680    -1.7710 H     1 <1>   0.1500 
 23 H        3.7490    -0.3720     1.8230 H     1 <1>   0.1500 
 24 H        2.2720    -3.8290    -0.1600 H     1 <1>   0.1500 
 25 H        0.7950     2.1240    -0.4170 H     1 <1>   0.4000 
 26 H        3.5930    -2.8100     1.6350 H     1 <1>   0.1500 
 27 H        5.2850     0.7860     0.3620 H     1 <1>   0.0800 
 28 H        5.3330     1.7760     1.8180 H     1 <1>   0.0800 
 29 H        0.5570     4.7980     0.6580 H     1 <1>   0.0800 
 30 H        1.0490     4.8920    -1.0220 H     1 <1>   0.0800 
 31 H        1.9920     5.6930     0.2150 H     1 <1>   0.0800 
 32 H        5.9440     3.7300     0.4950 H     1 <1>   0.0800 
 33 H        5.8140     2.8220    -0.9830 H     1 <1>   0.0800 
 34 H        7.7950     2.2370     1.1420 H     1 <1>   0.4500 
 35 H        8.1170     4.4400     0.2440 H     1 <1>   0.0800 
 36 H        8.2090     3.7330    -1.3520 H     1 <1>   0.0800 
 37 H        7.7080     1.3220    -1.6640 H     1 <1>   0.0800 
 38 H        7.2670     0.3380    -0.2870 H     1 <1>   0.0800 
 39 H       10.0620     3.1680     0.9750 H     1 <1>   0.0800 
 40 H       10.4560     4.0610    -0.4580 H     1 <1>   0.0800 
 41 H        9.5960    -0.0710    -0.9930 H     1 <1>   0.0800 
 42 H        9.5130     0.5260     0.6330 H     1 <1>   0.0800 
 43 H       11.3070     1.7030    -0.5230 H     1 <1>   0.0800 
 44 H       10.2560     2.0930    -1.8530 H     1 <1>   0.0800 
@<TRIPOS>BOND
  1   1   2  2   
  2   2   3  1   
  3   2   4  1   
  4   3   5  2   
  5   3   6  1   
  6   4   7  2   
  7   4  22  1   
  8   5   8  1   
  9   5   9  1   
 10   6  10  2   
 11   6  23  1   
 12   7  10  1   
 13   7  24  1   
 14   8  11  1   
 15   8  25  1   
 16   9  12  1   
 17   9  13  1   
 18  10  26  1   
 19  11  12  2   
 20  11  14  1   
 21  13  15  1   
 22  13  27  1   
 23  13  28  1   
 24  14  29  1   
 25  14  30  1   
 26  14  31  1   
 27  15  16  1   
 28  15  32  1   
 29  15  33  1   
 30  16  17  1   
 31  16  18  1   
 32  16  34  1   
 33  17  19  1   
 34  17  35  1   
 35  17  36  1   
 36  18  20  1   
 37  18  37  1   
 38  18  38  1   
 39  19  21  1   
 40  19  39  1   
 41  19  40  1   
 42  20  21  1   
 43  20  41  1   
 44  20  42  1   
 45  21  43  1   
 46  21  44  1   
@<TRIPOS>SUBSTRUCTURE
  1 ****  13 GROUP 4 **** **** 0

# MOE 2024.06 (io_trps.svl 2023.06)
