@<TRIPOS>MOLECULE
NONAME
42 44 1 0 0 
SMALL
USER_CHARGES


@<TRIPOS>ATOM
  1 O        0.7100     0.4610    -1.3840 O.2   1 <1>  -0.5700 
  2 C        1.0280     1.4430    -0.7490 C.2   1 <1>   0.5690 
  3 N        2.3750     1.7210    -0.6130 N.am  1 <1>  -0.4770 
  4 C       -0.1080     2.2690    -0.0600 C.3   1 <1>   0.0610 
  5 C        3.1250     2.8910    -0.4340 C.ar  1 <1>   0.1170 
  6 C        3.3000     0.5690    -0.4500 C.3   1 <1>   0.1400 
  7 C       -1.3180     1.3320     0.2330 C.3   1 <1>  -0.1600 
  8 C       -0.5740     3.4360    -0.9820 C.3   1 <1>  -0.1600 
  9 C        0.3610     2.8250     1.3110 C.3   1 <1>  -0.2400 
 10 C        4.3640     2.6180     0.1060 C.ar  1 <1>  -0.1440 
 11 C        2.8030     4.2020    -0.7620 C.ar  1 <1>  -0.1500 
 12 C        4.5380     1.1270     0.2770 C.3   1 <1>   0.0630 
 13 C       -2.5670     2.0340     0.8030 C.3   1 <1>  -0.1600 
 14 C       -2.0970     3.5790    -1.1610 C.3   1 <1>  -0.1600 
 15 C        5.2640     3.6270     0.3980 C.ar  1 <1>  -0.1500 
 16 C        3.6960     5.2220    -0.4770 C.ar  1 <1>  -0.1500 
 17 C        5.8500     0.6170    -0.3320 C.3   1 <1>  -0.2400 
 18 C       -2.8260     3.4150     0.1760 C.3   1 <1>  -0.1600 
 19 C        4.9190     4.9380     0.1100 C.ar  1 <1>  -0.1500 
 20 H        3.5580     0.1980    -1.4270 H     1 <1>   0.0800 
 21 H        2.8350    -0.2170     0.1190 H     1 <1>   0.0800 
 22 H       -1.0170     0.5410     0.8990 H     1 <1>   0.0800 
 23 H       -1.6170     0.8590    -0.6870 H     1 <1>   0.0800 
 24 H       -0.1420     3.3140    -1.9600 H     1 <1>   0.0800 
 25 H       -0.2100     4.3670    -0.5870 H     1 <1>   0.0800 
 26 H        0.7030     2.0210     1.9380 H     1 <1>   0.0800 
 27 H       -0.4320     3.3370     1.8210 H     1 <1>   0.0800 
 28 H        1.1640     3.5270     1.2040 H     1 <1>   0.0800 
 29 H        1.8770     4.4270    -1.2450 H     1 <1>   0.1500 
 30 H        4.4880     0.8760     1.3220 H     1 <1>   0.0800 
 31 H       -2.4720     2.1440     1.8700 H     1 <1>   0.0800 
 32 H       -3.4180     1.4000     0.6260 H     1 <1>   0.0800 
 33 H       -2.4510     2.8320    -1.8520 H     1 <1>   0.0800 
 34 H       -2.3210     4.5430    -1.5830 H     1 <1>   0.0800 
 35 H        6.2200     3.4010     0.8360 H     1 <1>   0.1500 
 36 H        3.4420     6.2400    -0.7180 H     1 <1>   0.1500 
 37 H        5.9210     0.9130    -1.3650 H     1 <1>   0.0800 
 38 H        5.8970    -0.4560    -0.2730 H     1 <1>   0.0800 
 39 H        6.6900     1.0260     0.2000 H     1 <1>   0.0800 
 40 H       -2.4860     4.1820     0.8500 H     1 <1>   0.0800 
 41 H       -3.8840     3.5540     0.0350 H     1 <1>   0.0800 
 42 H        5.6070     5.7350     0.3330 H     1 <1>   0.1500 
@<TRIPOS>BOND
  1   1   2  2   
  2   2   3  am  
  3   2   4  1   
  4   3   5  1   
  5   3   6  1   
  6   4   7  1   
  7   4   8  1   
  8   4   9  1   
  9   5  10  ar  
 10   5  11  ar  
 11   6  12  1   
 12   6  20  1   
 13   6  21  1   
 14   7  13  1   
 15   7  22  1   
 16   7  23  1   
 17   8  14  1   
 18   8  24  1   
 19   8  25  1   
 20   9  26  1   
 21   9  27  1   
 22   9  28  1   
 23  10  12  1   
 24  10  15  ar  
 25  11  16  ar  
 26  11  29  1   
 27  12  17  1   
 28  12  30  1   
 29  13  18  1   
 30  13  31  1   
 31  13  32  1   
 32  14  18  1   
 33  14  33  1   
 34  14  34  1   
 35  15  19  ar  
 36  15  35  1   
 37  16  19  ar  
 38  16  36  1   
 39  17  37  1   
 40  17  38  1   
 41  17  39  1   
 42  18  40  1   
 43  18  41  1   
 44  19  42  1   
@<TRIPOS>SUBSTRUCTURE
  1 ****   3 GROUP 4 **** **** 0

# MOE 2024.06 (io_trps.svl 2023.06)
