@<TRIPOS>MOLECULE
NONAME
53 54 1 0 0 
SMALL
USER_CHARGES


@<TRIPOS>ATOM
  1 CL       1.9490    -2.1250    -1.6830 Cl    1 <1>  -0.1770 
  2 C        1.0760    -2.4080    -0.1930 C.ar  1 <1>   0.1770 
  3 C        1.7530    -2.4160     1.0200 C.ar  1 <1>   0.0830 
  4 C       -0.2870    -2.6170    -0.2590 C.ar  1 <1>  -0.1500 
  5 O        3.0920    -2.2000     1.0080 O.3   1 <1>  -0.3630 
  6 C        1.0240    -2.6420     2.1830 C.ar  1 <1>  -0.1500 
  7 C       -1.0240    -2.8420     0.8970 C.ar  1 <1>  -0.0090 
  8 C        3.8390    -2.0460     2.2080 C.3   1 <1>   0.1810 
  9 C       -0.3440    -2.8500     2.1120 C.ar  1 <1>  -0.1500 
 10 S       -2.8140    -3.1070     0.8120 S.o2  1 <1>   1.4470 
 11 C        5.2920    -1.7080     1.9060 C.2   1 <1>   0.5690 
 12 O       -3.4420    -1.9780     0.1660 O.2   1 <1>  -0.6500 
 13 O       -3.3080    -3.6050     2.0740 O.2   1 <1>  -0.6500 
 14 N       -2.9550    -4.4210    -0.2180 N.am  1 <1>  -0.9140 
 15 O        6.0200    -1.4780     2.8400 O.2   1 <1>  -0.5700 
 16 N        5.6800    -1.6810     0.5930 N.am  1 <1>  -0.5470 
 17 C       -4.2380    -4.4690    -0.8990 C.3   1 <1>   0.1960 
 18 C        6.8970    -1.4170    -0.0590 C.ar  1 <1>   0.1170 
 19 C       -4.3910    -5.8020    -1.6490 C.3   1 <1>  -0.0800 
 20 C        6.9160    -1.3120    -1.4540 C.ar  1 <1>  -0.1430 
 21 C        8.0940    -1.2670     0.6370 C.ar  1 <1>  -0.1500 
 22 C       -5.7100    -5.8130    -2.4330 C.3   1 <1>  -0.2400 
 23 C       -4.3480    -7.0140    -0.7020 C.3   1 <1>  -0.2400 
 24 C        8.1120    -1.0660    -2.1110 C.ar  1 <1>  -0.1500 
 25 C        5.6510    -1.4600    -2.2980 C.3   1 <1>  -0.0170 
 26 C        9.2810    -1.0190    -0.0260 C.ar  1 <1>  -0.1500 
 27 C        9.2920    -0.9180    -1.4040 C.ar  1 <1>  -0.1500 
 28 C        5.3280    -2.9370    -2.5410 C.3   1 <1>  -0.2400 
 29 H       -0.7800    -2.6030    -1.2160 H     1 <1>   0.1500 
 30 H        1.4960    -2.6620     3.1490 H     1 <1>   0.1500 
 31 H        3.7970    -2.9680     2.7590 H     1 <1>   0.0800 
 32 H        3.4040    -1.2500     2.7840 H     1 <1>   0.0800 
 33 H       -0.8990    -3.0230     3.0210 H     1 <1>   0.1500 
 34 H       -2.9450    -5.2180     0.4160 H     1 <1>   0.4200 
 35 H        4.9090    -1.8840    -0.0470 H     1 <1>   0.3700 
 36 H       -4.2990    -3.6510    -1.6000 H     1 <1>   0.0800 
 37 H       -5.0380    -4.3610    -0.1840 H     1 <1>   0.0800 
 38 H       -3.5840    -5.8840    -2.3580 H     1 <1>   0.0800 
 39 H        8.1120    -1.3460     1.7060 H     1 <1>   0.1500 
 40 H       -6.5510    -5.7370    -1.7660 H     1 <1>   0.0800 
 41 H       -5.8020    -6.7250    -2.9970 H     1 <1>   0.0800 
 42 H       -5.7430    -4.9880    -3.1230 H     1 <1>   0.0800 
 43 H       -5.1090    -6.9330     0.0540 H     1 <1>   0.0800 
 44 H       -3.3890    -7.0940    -0.2250 H     1 <1>   0.0800 
 45 H       -4.5140    -7.9220    -1.2560 H     1 <1>   0.0800 
 46 H        8.1350    -0.9880    -3.1840 H     1 <1>   0.1500 
 47 H        5.7900    -0.9730    -3.2470 H     1 <1>   0.0800 
 48 H        4.8200    -0.9720    -1.8190 H     1 <1>   0.0800 
 49 H       10.1940    -0.9050     0.5310 H     1 <1>   0.1500 
 50 H       10.2140    -0.7260    -1.9240 H     1 <1>   0.1500 
 51 H        6.1520    -3.4170    -3.0370 H     1 <1>   0.0800 
 52 H        4.4540    -3.0260    -3.1610 H     1 <1>   0.0800 
 53 H        5.1450    -3.4450    -1.6120 H     1 <1>   0.0800 
@<TRIPOS>BOND
  1   1   2  1   
  2   2   3  ar  
  3   2   4  ar  
  4   3   5  1   
  5   3   6  ar  
  6   4   7  ar  
  7   4  29  1   
  8   5   8  1   
  9   6   9  ar  
 10   6  30  1   
 11   7   9  ar  
 12   7  10  1   
 13   8  11  1   
 14   8  31  1   
 15   8  32  1   
 16   9  33  1   
 17  10  12  2   
 18  10  13  2   
 19  10  14  am  
 20  11  15  2   
 21  11  16  am  
 22  14  17  1   
 23  14  34  1   
 24  16  18  1   
 25  16  35  1   
 26  17  19  1   
 27  17  36  1   
 28  17  37  1   
 29  18  20  ar  
 30  18  21  ar  
 31  19  22  1   
 32  19  23  1   
 33  19  38  1   
 34  20  24  ar  
 35  20  25  1   
 36  21  26  ar  
 37  21  39  1   
 38  22  40  1   
 39  22  41  1   
 40  22  42  1   
 41  23  43  1   
 42  23  44  1   
 43  23  45  1   
 44  24  27  ar  
 45  24  46  1   
 46  25  28  1   
 47  25  47  1   
 48  25  48  1   
 49  26  27  ar  
 50  26  49  1   
 51  27  50  1   
 52  28  51  1   
 53  28  52  1   
 54  28  53  1   
@<TRIPOS>SUBSTRUCTURE
  1 ****   2 GROUP 4 **** **** 0

# MOE 2024.06 (io_trps.svl 2023.06)
