@<TRIPOS>MOLECULE
NONAME
45 46 1 0 0 
SMALL
USER_CHARGES


@<TRIPOS>ATOM
  1 O       -1.0110    -0.4090    -0.1260 O.3   1 <1>  -0.3630 
  2 C       -1.9210     0.5840     0.0280 C.ar  1 <1>   0.0830 
  3 C       -1.2160    -1.7020     0.4000 C.3   1 <1>   0.0400 
  4 C       -1.5280     1.8470    -0.3780 C.ar  1 <1>  -0.1500 
  5 C       -3.1940     0.3910     0.5590 C.ar  1 <1>  -0.1500 
  6 C       -2.3960     2.9250    -0.2510 C.ar  1 <1>   0.0830 
  7 C       -4.0660     1.4630     0.6820 C.ar  1 <1>  -0.1430 
  8 O       -2.0920     4.1920    -0.6230 O.3   1 <1>  -0.3630 
  9 C       -3.6580     2.7260     0.2820 C.ar  1 <1>  -0.1500 
 10 C       -5.4590     1.2670     1.2300 C.3   1 <1>   0.4860 
 11 C       -0.8140     4.5160    -1.1270 C.3   1 <1>   0.0400 
 12 N       -6.3500     1.1620     0.0580 N.4   1 <1>  -0.9060 
 13 C       -7.7710     0.9170     0.3680 C.3   1 <1>   0.4230 
 14 C       -8.5080     0.4930    -0.9200 C.3   1 <1>  -0.0800 
 15 C       -8.3940     2.1800     0.9800 C.3   1 <1>  -0.1600 
 16 C      -10.0060     0.2900    -0.6310 C.3   1 <1>  -0.1600 
 17 C       -7.9310    -0.7940    -1.5390 C.3   1 <1>  -0.2400 
 18 C       -9.8910     1.9790     1.2560 C.3   1 <1>  -0.1600 
 19 C      -10.6350     1.5440    -0.0110 C.3   1 <1>  -0.1600 
 20 H       -0.3310    -2.2820     0.2090 H     1 <1>   0.0800 
 21 H       -2.0580    -2.1530    -0.0950 H     1 <1>   0.0800 
 22 H       -1.3800    -1.6280     1.4600 H     1 <1>   0.0800 
 23 H       -0.5420     1.9610    -0.7860 H     1 <1>   0.1500 
 24 H       -3.5000    -0.5900     0.8730 H     1 <1>   0.1500 
 25 H       -4.3010     3.5840     0.3740 H     1 <1>   0.1500 
 26 H       -5.7330     2.1090     1.8440 H     1 <1>   0.0800 
 27 H       -5.5030     0.3680     1.8240 H     1 <1>   0.0800 
 28 H       -0.7930     5.5710    -1.3330 H     1 <1>   0.0800 
 29 H       -0.6440     3.9640    -2.0350 H     1 <1>   0.0800 
 30 H       -0.0730     4.2750    -0.3850 H     1 <1>   0.0800 
 31 H       -6.0020     0.4020    -0.5340 H     1 <1>   0.4500 
 32 H       -6.2560     2.0140    -0.5030 H     1 <1>   0.4500 
 33 H       -7.8520     0.1100     1.0790 H     1 <1>   0.0800 
 34 H       -8.4270     1.2870    -1.6450 H     1 <1>   0.0800 
 35 H       -8.2810     3.0100     0.3030 H     1 <1>   0.0800 
 36 H       -7.9150     2.4270     1.9100 H     1 <1>   0.0800 
 37 H      -10.1430    -0.5420     0.0400 H     1 <1>   0.0800 
 38 H      -10.5270     0.0570    -1.5450 H     1 <1>   0.0800 
 39 H       -7.9480    -1.6040    -0.8300 H     1 <1>   0.0800 
 40 H       -6.9240    -0.6550    -1.8880 H     1 <1>   0.0800 
 41 H       -8.5230    -1.0880    -2.3900 H     1 <1>   0.0800 
 42 H      -10.3190     2.8980     1.6230 H     1 <1>   0.0800 
 43 H      -10.0240     1.2310     2.0200 H     1 <1>   0.0800 
 44 H      -11.6670     1.3470     0.2290 H     1 <1>   0.0800 
 45 H      -10.6210     2.3470    -0.7310 H     1 <1>   0.0800 
@<TRIPOS>BOND
  1   1   2  1   
  2   1   3  1   
  3   2   4  ar  
  4   2   5  ar  
  5   3  20  1   
  6   3  21  1   
  7   3  22  1   
  8   4   6  ar  
  9   4  23  1   
 10   5   7  ar  
 11   5  24  1   
 12   6   8  1   
 13   6   9  ar  
 14   7   9  ar  
 15   7  10  1   
 16   8  11  1   
 17   9  25  1   
 18  10  12  1   
 19  10  26  1   
 20  10  27  1   
 21  11  28  1   
 22  11  29  1   
 23  11  30  1   
 24  12  13  1   
 25  12  31  1   
 26  12  32  1   
 27  13  14  1   
 28  13  15  1   
 29  13  33  1   
 30  14  16  1   
 31  14  17  1   
 32  14  34  1   
 33  15  18  1   
 34  15  35  1   
 35  15  36  1   
 36  16  19  1   
 37  16  37  1   
 38  16  38  1   
 39  17  39  1   
 40  17  40  1   
 41  17  41  1   
 42  18  19  1   
 43  18  42  1   
 44  18  43  1   
 45  19  44  1   
 46  19  45  1   
@<TRIPOS>SUBSTRUCTURE
  1 ****   7 GROUP 4 **** **** 0

# MOE 2024.06 (io_trps.svl 2023.06)
