@<TRIPOS>MOLECULE
NONAME
30 31 1 0 0 
SMALL
USER_CHARGES


@<TRIPOS>ATOM
  1 O       -0.2710    -0.0110     0.5260 O.2   1 <1>  -0.5700 
  2 C       -0.6440    -1.1640     0.4170 C.2   1 <1>   0.6900 
  3 N       -1.9700    -1.4840     0.5830 N.am  1 <1>  -0.6600 
  4 N        0.2410    -2.1500     0.1140 N.am  1 <1>  -0.4930 
  5 C       -2.4860    -2.8500     0.8790 C.3   1 <1>   0.1400 
  6 C       -3.0210    -0.4280     0.5830 C.3   1 <1>   0.1400 
  7 C        1.6220    -2.1160    -0.0540 C.2   1 <1>   0.3520 
  8 C       -3.5460    -3.2300    -0.1600 C.3   1 <1>  -0.1600 
  9 C       -4.1020    -0.7830    -0.4460 C.3   1 <1>  -0.1600 
 10 N        2.2750    -3.1620    -0.4230 N.2   1 <1>  -0.4100 
 11 C        2.4890    -1.0380     0.1350 C.2   1 <1>  -0.1500 
 12 C       -4.6740    -2.1890    -0.2140 C.3   1 <1>  -0.1600 
 13 O        3.5340    -2.8030    -0.4820 O.3   1 <1>  -0.0190 
 14 C        3.6930    -1.5470    -0.1560 C.2   1 <1>  -0.0400 
 15 C        5.0770    -0.9330    -0.1610 C.3   1 <1>  -0.0600 
 16 H       -0.1720    -3.0430    -0.1150 H     1 <1>   0.3700 
 17 H       -2.9290    -2.8450     1.8600 H     1 <1>   0.0800 
 18 H       -1.6950    -3.5780     0.8810 H     1 <1>   0.0800 
 19 H       -2.5980     0.5320     0.3390 H     1 <1>   0.0800 
 20 H       -3.4530    -0.3630     1.5660 H     1 <1>   0.0800 
 21 H       -3.9570    -4.1930     0.0870 H     1 <1>   0.0800 
 22 H       -3.0780    -3.3100    -1.1260 H     1 <1>   0.0800 
 23 H       -3.6710    -0.7240    -1.4300 H     1 <1>   0.0800 
 24 H       -4.8930    -0.0570    -0.3920 H     1 <1>   0.0800 
 25 H        2.2120    -0.0470     0.4420 H     1 <1>   0.1500 
 26 H       -5.2170    -2.2030     0.7160 H     1 <1>   0.0800 
 27 H       -5.3620    -2.4370    -1.0040 H     1 <1>   0.0800 
 28 H        5.0250     0.1000     0.1300 H     1 <1>   0.0800 
 29 H        5.5010    -0.9990    -1.1460 H     1 <1>   0.0800 
 30 H        5.7110    -1.4600     0.5290 H     1 <1>   0.0800 
@<TRIPOS>BOND
  1   1   2  2   
  2   2   3  am  
  3   2   4  am  
  4   3   5  1   
  5   3   6  1   
  6   4   7  1   
  7   4  16  1   
  8   5   8  1   
  9   5  17  1   
 10   5  18  1   
 11   6   9  1   
 12   6  19  1   
 13   6  20  1   
 14   7  10  2   
 15   7  11  1   
 16   8  12  1   
 17   8  21  1   
 18   8  22  1   
 19   9  12  1   
 20   9  23  1   
 21   9  24  1   
 22  10  13  1   
 23  11  14  2   
 24  11  25  1   
 25  12  26  1   
 26  12  27  1   
 27  13  14  1   
 28  14  15  1   
 29  15  28  1   
 30  15  29  1   
 31  15  30  1   
@<TRIPOS>SUBSTRUCTURE
  1 ****   4 GROUP 4 **** **** 0

# MOE 2024.06 (io_trps.svl 2023.06)
