@<TRIPOS>MOLECULE
NONAME
32 32 1 0 0 
SMALL
USER_CHARGES


@<TRIPOS>ATOM
  1 BR      -0.0870     0.0910     0.5110 Br    1 <1>  -0.1110 
  2 C       -2.0010    -0.0430     0.3490 C.ar  1 <1>   0.1110 
  3 C       -2.7440     1.1180     0.2680 C.ar  1 <1>  -0.1500 
  4 C       -2.5800    -1.2950     0.3180 C.ar  1 <1>  -0.1500 
  5 C       -4.1230     1.0280     0.1510 C.ar  1 <1>  -0.1440 
  6 C       -3.9560    -1.3860     0.2010 C.ar  1 <1>  -0.1500 
  7 C       -4.7320    -0.2280     0.1170 C.ar  1 <1>   0.0830 
  8 C       -4.9480     2.3040     0.0620 C.3   1 <1>  -0.0960 
  9 O       -6.0880    -0.2580     0.0010 O.3   1 <1>  -0.3630 
 10 C       -6.8010    -1.4680    -0.0460 C.3   1 <1>   0.1200 
 11 C       -8.2820    -1.1060    -0.1810 C.3   1 <1>   0.3430 
 12 N       -9.1500    -2.3190    -0.2490 N.4   1 <1>  -0.9060 
 13 C      -10.5790    -1.9890    -0.3580 C.3   1 <1>   0.4810 
 14 C      -11.3040    -3.3090    -0.2970 C.2   1 <1>  -0.2880 
 15 C      -12.0260    -3.7440     0.7410 C.2   1 <1>  -0.3000 
 16 H       -2.2450     2.0700     0.2970 H     1 <1>   0.1500 
 17 H       -1.9630    -2.1740     0.3840 H     1 <1>   0.1500 
 18 H       -4.3920    -2.3660     0.1780 H     1 <1>   0.1500 
 19 H       -4.3200     3.1760     0.1040 H     1 <1>   0.0800 
 20 H       -5.6450     2.3470     0.8790 H     1 <1>   0.0800 
 21 H       -5.4930     2.3230    -0.8650 H     1 <1>   0.0800 
 22 H       -6.6130    -2.0020     0.8680 H     1 <1>   0.0800 
 23 H       -6.4570    -2.0240    -0.9010 H     1 <1>   0.0800 
 24 H       -8.4110    -0.5170    -1.0750 H     1 <1>   0.0800 
 25 H       -8.5650    -0.5040     0.6680 H     1 <1>   0.0800 
 26 H       -9.0460    -2.8970     0.5950 H     1 <1>   0.4500 
 27 H       -8.8960    -2.9130    -1.0460 H     1 <1>   0.4500 
 28 H      -10.7940    -1.4770    -1.2830 H     1 <1>   0.0800 
 29 H      -10.8820    -1.3660     0.4690 H     1 <1>   0.0800 
 30 H      -11.1950    -3.8930    -1.1960 H     1 <1>   0.1500 
 31 H      -12.5410    -4.6920     0.7560 H     1 <1>   0.1500 
 32 H      -12.1810    -3.2060     1.6640 H     1 <1>   0.1500 
@<TRIPOS>BOND
  1   1   2  1   
  2   2   3  ar  
  3   2   4  ar  
  4   3   5  ar  
  5   3  16  1   
  6   4   6  ar  
  7   4  17  1   
  8   5   7  ar  
  9   5   8  1   
 10   6   7  ar  
 11   6  18  1   
 12   7   9  1   
 13   8  19  1   
 14   8  20  1   
 15   8  21  1   
 16   9  10  1   
 17  10  11  1   
 18  10  22  1   
 19  10  23  1   
 20  11  12  1   
 21  11  24  1   
 22  11  25  1   
 23  12  13  1   
 24  12  26  1   
 25  12  27  1   
 26  13  14  1   
 27  13  28  1   
 28  13  29  1   
 29  14  15  2   
 30  14  30  1   
 31  15  31  1   
 32  15  32  1   
@<TRIPOS>SUBSTRUCTURE
  1 ****   9 GROUP 4 **** **** 0

# MOE 2024.06 (io_trps.svl 2023.06)
