@<TRIPOS>MOLECULE
Structure498
27 29 1 0 0 
SMALL
USER_CHARGES


@<TRIPOS>ATOM
  1 N        0.0160    -0.1480     0.3050 N.ar  1 <1>  -0.6200 
  2 C       -0.6000    -1.3210     0.3280 C.ar  1 <1>   0.5880 
  3 C        1.3090    -0.1760     0.1100 C.ar  1 <1>   0.1660 
  4 N       -0.0420    -2.5130     0.1840 N.ar  1 <1>  -0.6200 
  5 C       -2.1060    -1.2970     0.5540 C.3   1 <1>  -0.0680 
  6 C        1.9930    -1.3620    -0.0560 C.ar  1 <1>  -0.1440 
  7 C        2.0130     1.1670     0.0940 C.3   1 <1>  -0.0160 
  8 C        1.2540    -2.5220    -0.0090 C.ar  1 <1>   0.1600 
  9 C       -3.0460    -1.9470    -0.4200 C.3   1 <1>  -0.2000 
 10 C       -3.0110    -0.4560    -0.3010 C.3   1 <1>  -0.2000 
 11 C        3.4880    -1.4070    -0.2880 C.3   1 <1>   0.4860 
 12 C        3.4490     1.0580    -0.4170 C.3   1 <1>   0.3430 
 13 N        4.1190    -0.1380     0.1720 N.4   1 <1>  -0.9060 
 14 H       -2.3460    -1.3770     1.5980 H     1 <1>   0.1000 
 15 H        2.0080     1.5740     1.0900 H     1 <1>   0.0800 
 16 H        1.4660     1.8490    -0.5330 H     1 <1>   0.0800 
 17 H        1.7210    -3.4860    -0.1330 H     1 <1>   0.1500 
 18 H       -3.8930    -2.4840    -0.0310 H     1 <1>   0.1000 
 19 H       -2.6340    -2.4090    -1.3000 H     1 <1>   0.1000 
 20 H       -2.5770     0.1180    -1.1010 H     1 <1>   0.1000 
 21 H       -3.8350     0.0500     0.1700 H     1 <1>   0.1000 
 22 H        3.6740    -1.5470    -1.3420 H     1 <1>   0.0800 
 23 H        3.9120    -2.2430     0.2440 H     1 <1>   0.0800 
 24 H        3.9880     1.9570    -0.1610 H     1 <1>   0.0800 
 25 H        3.4340     0.9710    -1.4920 H     1 <1>   0.0800 
 26 H        5.1200    -0.1410    -0.0620 H     1 <1>   0.4500 
 27 H        4.0450    -0.0930     1.1970 H     1 <1>   0.4500 
@<TRIPOS>BOND
  1   1   2  ar  
  2   1   3  ar  
  3   2   4  ar  
  4   2   5  1   
  5   3   6  ar  
  6   3   7  1   
  7   4   8  ar  
  8   5   9  1   
  9   5  10  1   
 10   5  14  1   
 11   6   8  ar  
 12   6  11  1   
 13   7  12  1   
 14   7  15  1   
 15   7  16  1   
 16   8  17  1   
 17   9  10  1   
 18   9  18  1   
 19   9  19  1   
 20  10  20  1   
 21  10  21  1   
 22  11  13  1   
 23  11  22  1   
 24  11  23  1   
 25  12  13  1   
 26  12  24  1   
 27  12  25  1   
 28  13  26  1   
 29  13  27  1   
@<TRIPOS>SUBSTRUCTURE
  1 ****   3 GROUP 4 **** **** 0

# MOE 2024.06 (io_trps.svl 2023.06)
