@<TRIPOS>MOLECULE
NONAME
36 38 1 0 0 
SMALL
USER_CHARGES


@<TRIPOS>ATOM
  1 O       -1.3760     2.9910     2.3960 O.2   1 <1>  -0.5700 
  2 C       -0.8040     2.9280     1.3330 C.2   1 <1>   0.5690 
  3 N       -1.4870     2.6760     0.1670 N.am  1 <1>  -0.6600 
  4 C        0.7080     3.1240     1.3410 C.3   1 <1>   0.0440 
  5 C       -2.9690     2.4860     0.1570 C.3   1 <1>   0.1400 
  6 C       -0.8850     2.6300    -1.2020 C.3   1 <1>   0.1400 
  7 C        1.2250     4.3580     0.5860 C.ar  1 <1>  -0.1440 
  8 C       -3.3560     1.2690    -0.6990 C.3   1 <1>   0.1200 
  9 C       -1.3980     1.4090    -1.9840 C.3   1 <1>   0.1200 
 10 C        2.5750     4.4070     0.1430 C.ar  1 <1>   0.0000 
 11 C        0.3820     5.4130     0.3400 C.ar  1 <1>  -0.1500 
 12 O       -2.7960     1.3650    -1.9790 O.3   1 <1>  -0.5600 
 13 C        3.0020     5.5340    -0.6000 C.ar  1 <1>   0.0000 
 14 C        3.5380     3.4010     0.4020 C.ar  1 <1>  -0.1500 
 15 C        0.8160     6.5310    -0.3770 C.ar  1 <1>  -0.1500 
 16 C        2.0970     6.5840    -0.8410 C.ar  1 <1>  -0.1500 
 17 C        4.3270     5.5900    -1.0780 C.ar  1 <1>  -0.1500 
 18 C        4.8190     3.4820    -0.0690 C.ar  1 <1>  -0.1500 
 19 C        5.2190     4.5880    -0.8240 C.ar  1 <1>  -0.1500 
 20 H        1.1250     2.2300     0.9200 H     1 <1>   0.0800 
 21 H        1.0400     3.1870     2.3610 H     1 <1>   0.0800 
 22 H       -3.4350     3.3670    -0.2480 H     1 <1>   0.0800 
 23 H       -3.3400     2.3450     1.1570 H     1 <1>   0.0800 
 24 H        0.1870     2.5870    -1.1570 H     1 <1>   0.0800 
 25 H       -1.1540     3.5260    -1.7340 H     1 <1>   0.0800 
 26 H       -4.4250     1.2200    -0.8100 H     1 <1>   0.0800 
 27 H       -3.0140     0.3590    -0.2380 H     1 <1>   0.0800 
 28 H       -1.0230     0.4970    -1.5510 H     1 <1>   0.0800 
 29 H       -1.0760     1.4630    -3.0090 H     1 <1>   0.0800 
 30 H       -0.6380     5.4170     0.6860 H     1 <1>   0.1500 
 31 H        3.2690     2.5460     0.9910 H     1 <1>   0.1500 
 32 H        0.1270     7.3390    -0.5540 H     1 <1>   0.1500 
 33 H        2.4370     7.4390    -1.3980 H     1 <1>   0.1500 
 34 H        4.6290     6.4480    -1.6520 H     1 <1>   0.1500 
 35 H        5.5340     2.7050     0.1350 H     1 <1>   0.1500 
 36 H        6.2300     4.6370    -1.1900 H     1 <1>   0.1500 
@<TRIPOS>BOND
  1   1   2  2   
  2   2   3  am  
  3   2   4  1   
  4   3   5  1   
  5   3   6  1   
  6   4   7  1   
  7   4  20  1   
  8   4  21  1   
  9   5   8  1   
 10   5  22  1   
 11   5  23  1   
 12   6   9  1   
 13   6  24  1   
 14   6  25  1   
 15   7  10  ar  
 16   7  11  ar  
 17   8  12  1   
 18   8  26  1   
 19   8  27  1   
 20   9  12  1   
 21   9  28  1   
 22   9  29  1   
 23  10  13  ar  
 24  10  14  ar  
 25  11  15  ar  
 26  11  30  1   
 27  13  16  ar  
 28  13  17  ar  
 29  14  18  ar  
 30  14  31  1   
 31  15  16  ar  
 32  15  32  1   
 33  16  33  1   
 34  17  19  ar  
 35  17  34  1   
 36  18  19  ar  
 37  18  35  1   
 38  19  36  1   
@<TRIPOS>SUBSTRUCTURE
  1 ****   7 GROUP 4 **** **** 0

# MOE 2024.06 (io_trps.svl 2023.06)
