@<TRIPOS>MOLECULE
NONAME
31 31 1 0 0 
SMALL
USER_CHARGES


@<TRIPOS>ATOM
  1 F       -0.0060    -1.0970     1.5490 F     1 <1>  -0.3400 
  2 C        0.7230    -1.2780     0.4470 C.3   1 <1>   1.0810 
  3 F        0.0710    -0.6420    -0.5250 F     1 <1>  -0.3400 
  4 F        1.8310    -0.5650     0.6460 F     1 <1>  -0.3400 
  5 C        0.9910    -2.7740     0.1260 C.2   1 <1>   0.4950 
  6 O        2.1530    -3.1660     0.0410 O.2   1 <1>  -0.5700 
  7 C       -0.0480    -3.6960    -0.0800 C.2   1 <1>  -0.1360 
  8 C       -1.4110    -3.5700    -0.0400 C.2   1 <1>   0.2000 
  9 N       -2.2580    -4.5790    -0.3150 N.pl3 1 <1>  -0.8690 
 10 N       -2.1480    -2.4830     0.2630 N.pl3 1 <1>  -0.8690 
 11 C       -3.6770    -4.2180    -0.2500 C.3   1 <1>   0.3690 
 12 C       -3.5970    -2.7120     0.2400 C.3   1 <1>   0.3690 
 13 C       -4.3430    -5.2090     0.7140 C.3   1 <1>  -0.2400 
 14 C       -4.2370    -4.4320    -1.6620 C.3   1 <1>  -0.2400 
 15 C       -4.1930    -1.6600    -0.7030 C.3   1 <1>  -0.2400 
 16 C       -4.0910    -2.4470     1.6690 C.3   1 <1>  -0.2400 
 17 H        0.3080    -4.6790    -0.3170 H     1 <1>   0.1500 
 18 H       -1.9960    -5.5100    -0.6400 H     1 <1>   0.4000 
 19 H       -1.8200    -1.6230     0.7100 H     1 <1>   0.4000 
 20 H       -5.3740    -4.9480     0.8590 H     1 <1>   0.0800 
 21 H       -3.8440    -5.2080     1.6660 H     1 <1>   0.0800 
 22 H       -4.3010    -6.2060     0.3160 H     1 <1>   0.0800 
 23 H       -4.1830    -5.4700    -1.9360 H     1 <1>   0.0800 
 24 H       -5.2660    -4.1280    -1.7040 H     1 <1>   0.0800 
 25 H       -3.6750    -3.8650    -2.3810 H     1 <1>   0.0800 
 26 H       -5.2490    -1.8190    -0.8170 H     1 <1>   0.0800 
 27 H       -3.7250    -1.7070    -1.6690 H     1 <1>   0.0800 
 28 H       -4.0410    -0.6720    -0.3080 H     1 <1>   0.0800 
 29 H       -3.5640    -3.0660     2.3720 H     1 <1>   0.0800 
 30 H       -5.1430    -2.6510     1.7420 H     1 <1>   0.0800 
 31 H       -3.9290    -1.4190     1.9380 H     1 <1>   0.0800 
@<TRIPOS>BOND
  1   1   2  1   
  2   2   3  1   
  3   2   4  1   
  4   2   5  1   
  5   5   6  2   
  6   5   7  1   
  7   7   8  2   
  8   7  17  1   
  9   8   9  1   
 10   8  10  1   
 11   9  11  1   
 12   9  18  1   
 13  10  12  1   
 14  10  19  1   
 15  11  12  1   
 16  11  13  1   
 17  11  14  1   
 18  12  15  1   
 19  12  16  1   
 20  13  20  1   
 21  13  21  1   
 22  13  22  1   
 23  14  23  1   
 24  14  24  1   
 25  14  25  1   
 26  15  26  1   
 27  15  27  1   
 28  15  28  1   
 29  16  29  1   
 30  16  30  1   
 31  16  31  1   
@<TRIPOS>SUBSTRUCTURE
  1 ****  10 GROUP 4 **** **** 0

# MOE 2024.06 (io_trps.svl 2023.06)
