@<TRIPOS>MOLECULE
NONAME
37 38 1 0 0 
SMALL
USER_CHARGES


@<TRIPOS>ATOM
  1 O        0.0800    -0.7390     1.4380 O.2   1 <1>  -0.5700 
  2 C        0.1670    -1.8670     1.0150 C.2   1 <1>   0.4950 
  3 C        1.3970    -2.4320     0.5400 C.2   1 <1>   0.0290 
  4 C       -1.1230    -2.6690     1.0300 C.3   1 <1>  -0.0990 
  5 C        1.3840    -3.7920     0.0740 C.2   1 <1>   0.4950 
  6 C        2.5370    -1.6580     0.5440 C.2   1 <1>  -0.0500 
  7 C       -1.1650    -3.7640    -0.0440 C.3   1 <1>   0.0000 
  8 O        2.3570    -4.3760    -0.3420 O.2   1 <1>  -0.5700 
  9 C        0.1050    -4.6150     0.0910 C.3   1 <1>  -0.0990 
 10 N        3.7830    -2.0360     0.1280 N.pl3 1 <1>  -0.6000 
 11 C       -1.2520    -3.1410    -1.4500 C.3   1 <1>  -0.2400 
 12 C       -2.4030    -4.6480     0.1700 C.3   1 <1>  -0.2400 
 13 C        4.9920    -1.3650     0.0820 C.ar  1 <1>   0.4100 
 14 N        5.9850    -2.0910    -0.4030 N.ar  1 <1>  -0.6200 
 15 C        5.1390    -0.0470     0.5070 C.ar  1 <1>  -0.1500 
 16 C        7.1640    -1.5010    -0.4700 C.ar  1 <1>   0.1670 
 17 C        6.3700     0.5610     0.4340 C.ar  1 <1>  -0.1500 
 18 C        7.4060    -0.1960    -0.0710 C.ar  1 <1>  -0.1500 
 19 C        8.2900    -2.3470    -1.0270 C.3   1 <1>  -0.0970 
 20 H       -1.2220    -3.1060     2.0080 H     1 <1>   0.0800 
 21 H       -1.9520    -1.9970     0.8940 H     1 <1>   0.0800 
 22 H        2.4580    -0.6480     0.9100 H     1 <1>   0.1500 
 23 H        0.1440    -5.3330    -0.7090 H     1 <1>   0.0800 
 24 H        0.0850    -5.1650     1.0150 H     1 <1>   0.0800 
 25 H        3.8910    -2.9990    -0.2290 H     1 <1>   0.4000 
 26 H       -0.4100    -2.5070    -1.6650 H     1 <1>   0.0800 
 27 H       -2.1450    -2.5470    -1.5440 H     1 <1>   0.0800 
 28 H       -1.2850    -3.9110    -2.2010 H     1 <1>   0.0800 
 29 H       -3.3040    -4.0640     0.0900 H     1 <1>   0.0800 
 30 H       -2.3860    -5.1070     1.1430 H     1 <1>   0.0800 
 31 H       -2.4430    -5.4290    -0.5700 H     1 <1>   0.0800 
 32 H        4.2970     0.4930     0.8910 H     1 <1>   0.1500 
 33 H        6.5190     1.5780     0.7540 H     1 <1>   0.1500 
 34 H        8.3910     0.2270    -0.1520 H     1 <1>   0.1500 
 35 H        9.2130    -1.7990    -1.0520 H     1 <1>   0.0800 
 36 H        8.0420    -2.6590    -2.0250 H     1 <1>   0.0800 
 37 H        8.4180    -3.2200    -0.4130 H     1 <1>   0.0800 
@<TRIPOS>BOND
  1   1   2  2   
  2   2   3  1   
  3   2   4  1   
  4   3   5  1   
  5   3   6  2   
  6   4   7  1   
  7   4  20  1   
  8   4  21  1   
  9   5   8  2   
 10   5   9  1   
 11   6  10  1   
 12   6  22  1   
 13   7   9  1   
 14   7  11  1   
 15   7  12  1   
 16   9  23  1   
 17   9  24  1   
 18  10  13  1   
 19  10  25  1   
 20  11  26  1   
 21  11  27  1   
 22  11  28  1   
 23  12  29  1   
 24  12  30  1   
 25  12  31  1   
 26  13  14  ar  
 27  13  15  ar  
 28  14  16  ar  
 29  15  17  ar  
 30  15  32  1   
 31  16  18  ar  
 32  16  19  1   
 33  17  18  ar  
 34  17  33  1   
 35  18  34  1   
 36  19  35  1   
 37  19  36  1   
 38  19  37  1   
@<TRIPOS>SUBSTRUCTURE
  1 ****   6 GROUP 4 **** **** 0

# MOE 2024.06 (io_trps.svl 2023.06)
