@<TRIPOS>MOLECULE
NONAME
46 48 1 0 0 
SMALL
USER_CHARGES


@<TRIPOS>ATOM
  1 F        1.0220    -1.7060     0.3090 F     1 <1>  -0.1900 
  2 C       -0.0710    -2.4090     0.2130 C.ar  1 <1>   0.1900 
  3 C       -0.5030    -3.1290     1.3080 C.ar  1 <1>  -0.1500 
  4 C       -0.7620    -2.4120    -0.9830 C.ar  1 <1>  -0.1500 
  5 C       -1.6670    -3.8700     1.1970 C.ar  1 <1>  -0.1500 
  6 C       -1.9230    -3.1590    -1.0770 C.ar  1 <1>  -0.1500 
  7 C       -2.4080    -3.8980     0.0100 C.ar  1 <1>   0.0860 
  8 C       -3.6370    -4.6700    -0.0830 C.2   1 <1>   0.5440 
  9 O       -3.8580    -5.5950     0.6760 O.2   1 <1>  -0.5700 
 10 N       -4.6310    -4.3550    -0.9800 N.am  1 <1>  -0.6600 
 11 C       -5.5250    -5.4480    -1.4650 C.3   1 <1>   0.1400 
 12 C       -5.3250    -3.0440    -0.8450 C.3   1 <1>   0.1400 
 13 C       -6.7310    -5.5970    -0.5180 C.3   1 <1>   0.3430 
 14 C       -6.5520    -3.1910     0.0830 C.3   1 <1>   0.3430 
 15 N       -7.4830    -4.2980    -0.3540 N.4   1 <1>  -0.9590 
 16 C       -8.6140    -4.4760     0.6040 C.3   1 <1>   0.3430 
 17 C       -9.8880    -3.7760     0.1090 C.3   1 <1>  -0.0800 
 18 C       -9.7320    -2.2430     0.0030 C.3   1 <1>  -0.0220 
 19 C      -11.0680    -4.1310     1.0350 C.3   1 <1>  -0.1600 
 20 C      -11.0720    -1.5660    -0.2120 C.2   1 <1>  -0.2880 
 21 C      -12.3990    -3.5920     0.4870 C.3   1 <1>  -0.0220 
 22 C      -12.2470    -2.1650    -0.0090 C.2   1 <1>  -0.2880 
 23 H        0.0630    -3.1100     2.2230 H     1 <1>   0.1500 
 24 H       -0.3890    -1.8450    -1.8180 H     1 <1>   0.1500 
 25 H       -2.0100    -4.4420     2.0430 H     1 <1>   0.1500 
 26 H       -2.4580    -3.1760    -2.0100 H     1 <1>   0.1500 
 27 H       -4.9780    -6.3760    -1.4930 H     1 <1>   0.0800 
 28 H       -5.8570    -5.2320    -2.4660 H     1 <1>   0.0800 
 29 H       -5.6320    -2.6960    -1.8160 H     1 <1>   0.0800 
 30 H       -4.6530    -2.3130    -0.4300 H     1 <1>   0.0800 
 31 H       -6.3610    -5.9280     0.4400 H     1 <1>   0.0800 
 32 H       -7.3880    -6.3600    -0.9010 H     1 <1>   0.0800 
 33 H       -7.0800    -2.2540     0.1160 H     1 <1>   0.0800 
 34 H       -6.1930    -3.4010     1.0770 H     1 <1>   0.0800 
 35 H       -7.8780    -4.0520    -1.2710 H     1 <1>   0.4500 
 36 H       -8.3420    -4.1010     1.5780 H     1 <1>   0.0800 
 37 H       -8.8310    -5.5270     0.7100 H     1 <1>   0.0800 
 38 H      -10.1290    -4.1630    -0.8670 H     1 <1>   0.0800 
 39 H       -9.0940    -1.9980    -0.8260 H     1 <1>   0.0800 
 40 H       -9.2970    -1.8440     0.9030 H     1 <1>   0.0800 
 41 H      -10.9010    -3.7010     2.0080 H     1 <1>   0.0800 
 42 H      -11.1530    -5.1980     1.1540 H     1 <1>   0.0800 
 43 H      -10.9930    -0.5430    -0.5450 H     1 <1>   0.1500 
 44 H      -13.1420    -3.6250     1.2650 H     1 <1>   0.0800 
 45 H      -12.7430    -4.2070    -0.3270 H     1 <1>   0.0800 
 46 H      -13.1920    -1.6750    -0.1840 H     1 <1>   0.1500 
@<TRIPOS>BOND
  1   1   2  1   
  2   2   3  ar  
  3   2   4  ar  
  4   3   5  ar  
  5   3  23  1   
  6   4   6  ar  
  7   4  24  1   
  8   5   7  ar  
  9   5  25  1   
 10   6   7  ar  
 11   6  26  1   
 12   7   8  1   
 13   8   9  2   
 14   8  10  am  
 15  10  11  1   
 16  10  12  1   
 17  11  13  1   
 18  11  27  1   
 19  11  28  1   
 20  12  14  1   
 21  12  29  1   
 22  12  30  1   
 23  13  15  1   
 24  13  31  1   
 25  13  32  1   
 26  14  15  1   
 27  14  33  1   
 28  14  34  1   
 29  15  16  1   
 30  15  35  1   
 31  16  17  1   
 32  16  36  1   
 33  16  37  1   
 34  17  18  1   
 35  17  19  1   
 36  17  38  1   
 37  18  20  1   
 38  18  39  1   
 39  18  40  1   
 40  19  21  1   
 41  19  41  1   
 42  19  42  1   
 43  20  22  2   
 44  20  43  1   
 45  21  22  1   
 46  21  44  1   
 47  21  45  1   
 48  22  46  1   
@<TRIPOS>SUBSTRUCTURE
  1 ****  14 GROUP 4 **** **** 0

# MOE 2024.06 (io_trps.svl 2023.06)
