@<TRIPOS>MOLECULE
NONAME
30 32 1 0 0 
SMALL
USER_CHARGES


@<TRIPOS>ATOM
  1 S       -7.2610     0.1300     0.5270 S.o2  1 <1>   1.0900 
  2 O       -7.3590     0.1940     1.9620 O.2   1 <1>  -0.6500 
  3 O       -8.2770    -0.4380    -0.3200 O.2   1 <1>  -0.6500 
  4 C       -6.8400     1.7730    -0.0640 C.3   1 <1>  -0.0550 
  5 C       -5.7060    -0.6700     0.1350 C.3   1 <1>  -0.0550 
  6 C       -5.5550     1.5090    -0.8190 C.3   1 <1>   0.1500 
  7 C       -4.7820     0.5200     0.0340 C.3   1 <1>   0.4100 
  8 S       -4.2900     2.7940    -1.0880 S.3   1 <1>  -0.3610 
  9 N       -3.4140     0.4490    -0.5480 N.pl3 1 <1>  -0.6930 
 10 C       -2.9970     1.6190    -1.0220 C.cat 1 <1>   0.8400 
 11 C       -2.6490    -0.7170    -0.3880 C.ar  1 <1>   0.3490 
 12 N       -1.8070     1.9630    -1.4190 N.pl3 1 <1>  -0.7540 
 13 C       -2.3530    -1.5110    -1.4870 C.ar  1 <1>  -0.1500 
 14 C       -2.1800    -1.0870     0.8660 C.ar  1 <1>  -0.1500 
 15 C       -1.5970    -2.6600    -1.3370 C.ar  1 <1>  -0.1500 
 16 C       -1.4250    -2.2360     1.0180 C.ar  1 <1>  -0.1500 
 17 C       -1.1340    -3.0220    -0.0840 C.ar  1 <1>  -0.1500 
 18 H       -6.6650     2.4380     0.7610 H     1 <1>   0.0800 
 19 H       -7.6020     2.1750    -0.7050 H     1 <1>   0.0800 
 20 H       -5.7710    -1.1800    -0.8080 H     1 <1>   0.0800 
 21 H       -5.4070    -1.3490     0.9110 H     1 <1>   0.0800 
 22 H       -5.7740     1.0860    -1.7870 H     1 <1>   0.0800 
 23 H       -4.6780     0.9280     1.0290 H     1 <1>   0.0800 
 24 H       -1.0050     1.3320    -1.4050 H     1 <1>   0.4500 
 25 H       -1.6020     2.9020    -1.7680 H     1 <1>   0.4500 
 26 H       -2.7140    -1.2390    -2.4620 H     1 <1>   0.1500 
 27 H       -2.3970    -0.4810     1.7270 H     1 <1>   0.1500 
 28 H       -1.3680    -3.2780    -2.1900 H     1 <1>   0.1500 
 29 H       -1.0610    -2.5250     1.9910 H     1 <1>   0.1500 
 30 H       -0.5460    -3.9190     0.0350 H     1 <1>   0.1500 
@<TRIPOS>BOND
  1   1   2  2   
  2   1   3  2   
  3   1   4  1   
  4   1   5  1   
  5   4   6  1   
  6   4  18  1   
  7   4  19  1   
  8   5   7  1   
  9   5  20  1   
 10   5  21  1   
 11   6   7  1   
 12   6   8  1   
 13   6  22  1   
 14   7   9  1   
 15   7  23  1   
 16   8  10  1   
 17   9  10  ar  
 18   9  11  1   
 19  10  12  ar  
 20  11  13  ar  
 21  11  14  ar  
 22  12  24  1   
 23  12  25  1   
 24  13  15  ar  
 25  13  26  1   
 26  14  16  ar  
 27  14  27  1   
 28  15  17  ar  
 29  15  28  1   
 30  16  17  ar  
 31  16  29  1   
 32  17  30  1   
@<TRIPOS>SUBSTRUCTURE
  1 ****   9 GROUP 4 **** **** 0

# MOE 2024.06 (io_trps.svl 2023.06)
