@<TRIPOS>MOLECULE
NONAME
39 40 1 0 0 
SMALL
USER_CHARGES


@<TRIPOS>ATOM
  1 O        2.8530    -3.8620     0.8770 O.2   1 <1>  -0.5700 
  2 C        1.9310    -3.3150     0.2990 C.2   1 <1>   0.5440 
  3 N        2.2730    -2.4450    -0.7100 N.am  1 <1>  -0.6600 
  4 C        0.5530    -3.5120     0.7190 C.ar  1 <1>   0.0860 
  5 C        3.4090    -2.7550    -1.6380 C.3   1 <1>   0.1400 
  6 C        1.8800    -1.0170    -0.6380 C.3   1 <1>   0.1400 
  7 C       -0.5140    -3.3090    -0.1550 C.ar  1 <1>  -0.1500 
  8 C        0.2450    -3.9150     2.0200 C.ar  1 <1>  -0.1500 
  9 C        4.8010    -2.5380    -1.0020 C.3   1 <1>   0.3430 
 10 C        2.7560    -0.2830     0.3860 C.3   1 <1>  -0.1600 
 11 C       -1.8280    -3.4740     0.2440 C.ar  1 <1>   0.0830 
 12 C       -1.0640    -4.0880     2.4320 C.ar  1 <1>  -0.1500 
 13 N        4.7350    -1.7920     0.2940 N.4   1 <1>  -0.9590 
 14 C        4.2670    -0.3860     0.1460 C.3   1 <1>   0.3430 
 15 O       -2.7800    -3.2350    -0.6910 O.3   1 <1>  -0.3620 
 16 C       -2.1050    -3.8660     1.5490 C.ar  1 <1>  -0.1500 
 17 C        6.0050    -1.9060     1.0660 C.3   1 <1>   0.2630 
 18 C       -4.1500    -3.4220    -0.4090 C.3   1 <1>   0.0400 
 19 H        3.3230    -2.1530    -2.5250 H     1 <1>   0.0800 
 20 H        3.3330    -3.7830    -1.9500 H     1 <1>   0.0800 
 21 H        0.8460    -0.9370    -0.3430 H     1 <1>   0.0800 
 22 H        1.9750    -0.5620    -1.6100 H     1 <1>   0.0800 
 23 H       -0.3270    -3.0200    -1.1730 H     1 <1>   0.1500 
 24 H        1.0450    -4.0970     2.7170 H     1 <1>   0.1500 
 25 H        5.4450    -2.0290    -1.7000 H     1 <1>   0.0800 
 26 H        5.2260    -3.5120    -0.8190 H     1 <1>   0.0800 
 27 H        2.5250    -0.6340     1.3760 H     1 <1>   0.0800 
 28 H        2.4870     0.7580     0.3590 H     1 <1>   0.0800 
 29 H       -1.2740    -4.3980     3.4420 H     1 <1>   0.1500 
 30 H        3.9910    -2.3150     0.8090 H     1 <1>   0.4500 
 31 H        4.7670     0.2350     0.8720 H     1 <1>   0.0800 
 32 H        4.5130    -0.0140    -0.8350 H     1 <1>   0.0800 
 33 H       -3.1130    -4.0040     1.8920 H     1 <1>   0.1500 
 34 H        6.8100    -1.4200     0.5400 H     1 <1>   0.0800 
 35 H        6.2590    -2.9440     1.2100 H     1 <1>   0.0800 
 36 H        5.8930    -1.4460     2.0340 H     1 <1>   0.0800 
 37 H       -4.7080    -3.1920    -1.2980 H     1 <1>   0.0800 
 38 H       -4.4380    -2.7550     0.3850 H     1 <1>   0.0800 
 39 H       -4.3130    -4.4480    -0.1300 H     1 <1>   0.0800 
@<TRIPOS>BOND
  1   1   2  2   
  2   2   3  am  
  3   2   4  1   
  4   3   5  1   
  5   3   6  1   
  6   4   7  ar  
  7   4   8  ar  
  8   5   9  1   
  9   5  19  1   
 10   5  20  1   
 11   6  10  1   
 12   6  21  1   
 13   6  22  1   
 14   7  11  ar  
 15   7  23  1   
 16   8  12  ar  
 17   8  24  1   
 18   9  13  1   
 19   9  25  1   
 20   9  26  1   
 21  10  14  1   
 22  10  27  1   
 23  10  28  1   
 24  11  15  1   
 25  11  16  ar  
 26  12  16  ar  
 27  12  29  1   
 28  13  14  1   
 29  13  17  1   
 30  13  30  1   
 31  14  31  1   
 32  14  32  1   
 33  15  18  1   
 34  16  33  1   
 35  17  34  1   
 36  17  35  1   
 37  17  36  1   
 38  18  37  1   
 39  18  38  1   
 40  18  39  1   
@<TRIPOS>SUBSTRUCTURE
  1 ****   2 GROUP 4 **** **** 0

# MOE 2024.06 (io_trps.svl 2023.06)
