@<TRIPOS>MOLECULE
NONAME
44 46 1 0 0 
SMALL
USER_CHARGES


@<TRIPOS>ATOM
  1 S        0.5330     0.7170    -0.2900 S.o2  1 <1>   1.4470 
  2 O        0.5880     1.8130    -1.2260 O.2   1 <1>  -0.6500 
  3 O        1.3100     0.7760     0.9290 O.2   1 <1>  -0.6500 
  4 N        1.0720    -0.6130    -1.1580 N.am  1 <1>  -0.9140 
  5 C       -1.1910     0.2910     0.0830 C.ar  1 <1>  -0.0090 
  6 C        1.5580    -1.7210    -0.3500 C.3   1 <1>   0.2760 
  7 C       -1.6970     0.3980     1.3740 C.ar  1 <1>  -0.1500 
  8 C       -2.0500    -0.1500    -0.9170 C.ar  1 <1>  -0.1500 
  9 C        3.0440    -1.5550     0.0820 C.3   1 <1>   0.1500 
 10 C        1.3710    -3.0100    -1.1540 C.3   1 <1>  -0.1600 
 11 C       -3.0110     0.0690     1.6600 C.ar  1 <1>  -0.1500 
 12 C       -3.3650    -0.4820    -0.6410 C.ar  1 <1>  -0.1500 
 13 S        4.0030    -0.6770    -1.2540 S.3   1 <1>  -0.3310 
 14 C        3.7650    -2.8930     0.3490 C.3   1 <1>  -0.1600 
 15 C        1.7290    -4.2590    -0.3240 C.3   1 <1>  -0.1600 
 16 C       -3.8470    -0.3720     0.6500 C.ar  1 <1>  -0.1500 
 17 C        5.5680    -0.1380    -0.5410 C.ar  1 <1>   0.1010 
 18 C        2.7810    -3.9930     0.7700 C.3   1 <1>  -0.1600 
 19 C        6.5680     0.2050    -1.4380 C.ar  1 <1>  -0.1500 
 20 C        5.7720    -0.0570     0.8310 C.ar  1 <1>  -0.1500 
 21 C        7.8010     0.6250    -0.9640 C.ar  1 <1>  -0.1500 
 22 C        7.0030     0.3610     1.3110 C.ar  1 <1>  -0.1500 
 23 C        7.9930     0.6920     0.4040 C.ar  1 <1>   0.1900 
 24 F        9.1530     1.0850     0.8560 F     1 <1>  -0.1900 
 25 H        1.8780    -0.2600    -1.6770 H     1 <1>   0.4200 
 26 H        0.9480    -1.8110     0.5350 H     1 <1>   0.0800 
 27 H       -1.0550     0.7430     2.1680 H     1 <1>   0.1500 
 28 H       -1.6800    -0.2360    -1.9260 H     1 <1>   0.1500 
 29 H        3.0740    -0.9360     0.9590 H     1 <1>   0.0800 
 30 H        2.0070    -2.9700    -2.0220 H     1 <1>   0.0800 
 31 H        0.3520    -3.0880    -1.4910 H     1 <1>   0.0800 
 32 H       -3.3840     0.1580     2.6660 H     1 <1>   0.1500 
 33 H       -4.0120    -0.8220    -1.4310 H     1 <1>   0.1500 
 34 H        4.5090    -2.7560     1.1130 H     1 <1>   0.0800 
 35 H        4.2690    -3.2190    -0.5450 H     1 <1>   0.0800 
 36 H        2.0940    -5.0190    -0.9940 H     1 <1>   0.0800 
 37 H        0.8400    -4.6470     0.1440 H     1 <1>   0.0800 
 38 H       -4.8700    -0.6290     0.8690 H     1 <1>   0.1500 
 39 H        2.2860    -3.6900     1.6780 H     1 <1>   0.0800 
 40 H        3.3160    -4.9030     0.9830 H     1 <1>   0.0800 
 41 H        6.3810     0.1420    -2.4960 H     1 <1>   0.1500 
 42 H        4.9960    -0.3020     1.5300 H     1 <1>   0.1500 
 43 H        8.5950     0.8950    -1.6360 H     1 <1>   0.1500 
 44 H        7.1950     0.4340     2.3660 H     1 <1>   0.1500 
@<TRIPOS>BOND
  1   1   2  2   
  2   1   3  2   
  3   1   4  am  
  4   1   5  1   
  5   4   6  1   
  6   4  25  1   
  7   5   7  ar  
  8   5   8  ar  
  9   6   9  1   
 10   6  10  1   
 11   6  26  1   
 12   7  11  ar  
 13   7  27  1   
 14   8  12  ar  
 15   8  28  1   
 16   9  13  1   
 17   9  14  1   
 18   9  29  1   
 19  10  15  1   
 20  10  30  1   
 21  10  31  1   
 22  11  16  ar  
 23  11  32  1   
 24  12  16  ar  
 25  12  33  1   
 26  13  17  1   
 27  14  18  1   
 28  14  34  1   
 29  14  35  1   
 30  15  18  1   
 31  15  36  1   
 32  15  37  1   
 33  16  38  1   
 34  17  19  ar  
 35  17  20  ar  
 36  18  39  1   
 37  18  40  1   
 38  19  21  ar  
 39  19  41  1   
 40  20  22  ar  
 41  20  42  1   
 42  21  23  ar  
 43  21  43  1   
 44  22  23  ar  
 45  22  44  1   
 46  23  24  1   
@<TRIPOS>SUBSTRUCTURE
  1 ****   9 GROUP 4 **** **** 0

# MOE 2024.06 (io_trps.svl 2023.06)
