@<TRIPOS>MOLECULE
NONAME
47 49 1 0 0 
SMALL
USER_CHARGES


@<TRIPOS>ATOM
  1 N        0.4380     0.0230     0.5190 N.3   1 <1>  -0.8100 
  2 C        1.1100    -1.2240     0.9470 C.3   1 <1>   0.1100 
  3 C        0.8490     0.3810    -0.8610 C.3   1 <1>   0.1100 
  4 C       -1.0280    -0.0720     0.6430 C.3   1 <1>   0.2480 
  5 C        2.6490    -1.1450     0.7800 C.3   1 <1>   0.3430 
  6 C        2.3810     0.5620    -0.9780 C.3   1 <1>   0.3430 
  7 C       -1.6870     1.2990     0.5690 C.2   1 <1>  -0.2540 
  8 N        3.0710     0.2160     0.3120 N.4   1 <1>  -0.9590 
  9 C       -1.0100     2.5350     0.7860 C.2   1 <1>  -0.2880 
 10 C       -3.3630     1.1530     0.2120 C.3   1 <1>   0.1160 
 11 C        4.5410     0.4060     0.3100 C.3   1 <1>   0.3430 
 12 C       -2.0360     3.8930     0.6360 C.3   1 <1>  -0.0220 
 13 C       -4.6850     2.2240    -0.0450 C.3   1 <1>   0.0000 
 14 C       -3.1890     2.4340     0.3050 C.3   1 <1>   0.0000 
 15 C        4.8680     1.8910     0.2080 C.3   1 <1>  -0.2400 
 16 C       -3.7010     3.6070     0.2270 C.3   1 <1>   0.0000 
 17 C       -5.8410     2.0910     0.9810 C.3   1 <1>  -0.2400 
 18 C       -5.2840     2.1260    -1.4720 C.3   1 <1>  -0.2400 
 19 H        0.7360    -2.0600     0.3790 H     1 <1>   0.0800 
 20 H        0.8830    -1.4090     1.9830 H     1 <1>   0.0800 
 21 H        0.3700     1.2980    -1.1610 H     1 <1>   0.0800 
 22 H        0.5280    -0.3840    -1.5480 H     1 <1>   0.0800 
 23 H       -1.2890    -0.5160     1.5890 H     1 <1>   0.0800 
 24 H       -1.4160    -0.7010    -0.1410 H     1 <1>   0.0800 
 25 H        2.9680    -1.8920     0.0720 H     1 <1>   0.0800 
 26 H        3.1130    -1.3700     1.7260 H     1 <1>   0.0800 
 27 H        2.5840     1.5880    -1.2370 H     1 <1>   0.0800 
 28 H        2.7520    -0.0570    -1.7770 H     1 <1>   0.0800 
 29 H        2.6300     0.8520     0.9960 H     1 <1>   0.4500 
 30 H        0.0250     2.7000     1.0290 H     1 <1>   0.1500 
 31 H       -3.7250     0.5730     1.0470 H     1 <1>   0.0000 
 32 H        4.9850    -0.1300    -0.5140 H     1 <1>   0.0800 
 33 H        4.9560     0.0210     1.2270 H     1 <1>   0.0800 
 34 H       -1.6150     4.5510    -0.1070 H     1 <1>   0.0800 
 35 H       -2.0100     4.4370     1.5660 H     1 <1>   0.0800 
 36 H       -2.7250     2.4890    -0.7650 H     1 <1>   0.0000 
 37 H       -3.2270     2.4150     1.4700 H     1 <1>   0.0000 
 38 H        4.5640     2.2970    -0.7390 H     1 <1>   0.0800 
 39 H        5.9330     2.0230     0.2920 H     1 <1>   0.0800 
 40 H        4.4020     2.4400     1.0060 H     1 <1>   0.0800 
 41 H       -3.7970     4.1200    -0.7180 H     1 <1>   0.0000 
 42 H       -5.4740     2.1590     1.9900 H     1 <1>   0.0800 
 43 H       -6.3370     1.1440     0.8640 H     1 <1>   0.0800 
 44 H       -6.5590     2.8780     0.8320 H     1 <1>   0.0800 
 45 H       -4.5160     2.2090    -2.2210 H     1 <1>   0.0800 
 46 H       -5.9970     2.9150    -1.6300 H     1 <1>   0.0800 
 47 H       -5.7800     1.1810    -1.6020 H     1 <1>   0.0800 
@<TRIPOS>BOND
  1   1   2  1   
  2   1   3  1   
  3   1   4  1   
  4   2   5  1   
  5   2  19  1   
  6   2  20  1   
  7   3   6  1   
  8   3  21  1   
  9   3  22  1   
 10   4   7  1   
 11   4  23  1   
 12   4  24  1   
 13   5   8  1   
 14   5  25  1   
 15   5  26  1   
 16   6   8  1   
 17   6  27  1   
 18   6  28  1   
 19   7   9  2   
 20   7  10  1   
 21   8  11  1   
 22   8  29  1   
 23   9  12  1   
 24   9  30  1   
 25  10  13  1   
 26  10  14  1   
 27  10  31  1   
 28  11  15  1   
 29  11  32  1   
 30  11  33  1   
 31  12  16  1   
 32  12  34  1   
 33  12  35  1   
 34  13  16  1   
 35  13  17  1   
 36  13  18  1   
 37  14  16  1   
 38  14  36  1   
 39  14  37  1   
 40  15  38  1   
 41  15  39  1   
 42  15  40  1   
 43  16  41  1   
 44  17  42  1   
 45  17  43  1   
 46  17  44  1   
 47  18  45  1   
 48  18  46  1   
 49  18  47  1   
@<TRIPOS>SUBSTRUCTURE
  1 ****   7 GROUP 4 **** **** 0

# MOE 2024.06 (io_trps.svl 2023.06)
