@<TRIPOS>MOLECULE
NONAME
26 27 1 0 0 
SMALL
USER_CHARGES


@<TRIPOS>ATOM
  1 O       -5.8290    -0.0870    -1.8620 O.3   1 <1>  -0.6800 
  2 C       -5.4540     0.3460    -0.6060 C.3   1 <1>   0.4240 
  3 C       -6.2640     1.5990    -0.2810 C.ar  1 <1>  -0.1440 
  4 C       -5.6670    -0.8110     0.3790 C.3   1 <1>   0.3430 
  5 C       -3.9350     0.4550    -0.6140 C.3   1 <1>  -0.1600 
  6 C       -7.6430     1.4930    -0.1340 C.ar  1 <1>  -0.1500 
  7 C       -5.6750     2.8510    -0.1350 C.ar  1 <1>  -0.1500 
  8 N       -4.5330    -1.7640     0.1440 N.4   1 <1>  -0.9060 
  9 C       -3.4460    -0.9900    -0.5240 C.3   1 <1>   0.3430 
 10 C       -8.4110     2.6030     0.1680 C.ar  1 <1>  -0.1500 
 11 C       -6.4440     3.9610     0.1680 C.ar  1 <1>  -0.1500 
 12 C       -7.8120     3.8380     0.3220 C.ar  1 <1>  -0.1500 
 13 H       -6.1300     0.6920    -2.3790 H     1 <1>   0.4000 
 14 H       -6.6270    -1.2740     0.2260 H     1 <1>   0.0800 
 15 H       -5.6140    -0.4200     1.3820 H     1 <1>   0.0800 
 16 H       -3.5960     0.9800     0.2610 H     1 <1>   0.0800 
 17 H       -3.5600     0.9590    -1.4870 H     1 <1>   0.0800 
 18 H       -8.1420     0.5470    -0.2610 H     1 <1>   0.1500 
 19 H       -4.6160     2.9990    -0.2550 H     1 <1>   0.1500 
 20 H       -4.8570    -2.4880    -0.5120 H     1 <1>   0.4500 
 21 H       -4.2210    -2.2220     1.0100 H     1 <1>   0.4500 
 22 H       -2.5190    -1.0510     0.0250 H     1 <1>   0.0800 
 23 H       -3.2910    -1.3750    -1.5210 H     1 <1>   0.0800 
 24 H       -9.4780     2.5090     0.2820 H     1 <1>   0.1500 
 25 H       -5.9800     4.9260     0.2820 H     1 <1>   0.1500 
 26 H       -8.4090     4.7030     0.5580 H     1 <1>   0.1500 
@<TRIPOS>BOND
  1   1   2  1   
  2   1  13  1   
  3   2   3  1   
  4   2   4  1   
  5   2   5  1   
  6   3   6  ar  
  7   3   7  ar  
  8   4   8  1   
  9   4  14  1   
 10   4  15  1   
 11   5   9  1   
 12   5  16  1   
 13   5  17  1   
 14   6  10  ar  
 15   6  18  1   
 16   7  11  ar  
 17   7  19  1   
 18   8   9  1   
 19   8  20  1   
 20   8  21  1   
 21   9  22  1   
 22   9  23  1   
 23  10  12  ar  
 24  10  24  1   
 25  11  12  ar  
 26  11  25  1   
 27  12  26  1   
@<TRIPOS>SUBSTRUCTURE
  1 ****   3 GROUP 4 **** **** 0

# MOE 2024.06 (io_trps.svl 2023.06)
