@<TRIPOS>MOLECULE
NONAME
41 41 1 0 0 
SMALL
USER_CHARGES


@<TRIPOS>ATOM
  1 O       -1.5980     1.4330     2.3080 O.2   1 <1>  -0.5700 
  2 C       -1.0010     1.7030     1.2960 C.2   1 <1>   0.5690 
  3 N       -1.5430     1.6020     0.0460 N.am  1 <1>  -0.5470 
  4 C        0.4190     2.1970     1.4020 C.3   1 <1>  -0.1790 
  5 C       -2.8140     1.1550    -0.3360 C.ar  1 <1>   0.1170 
  6 C       -3.4990     0.1760     0.3740 C.ar  1 <1>  -0.1500 
  7 C       -3.4160     1.6900    -1.4670 C.ar  1 <1>  -0.1500 
  8 C       -4.7570    -0.2390    -0.0170 C.ar  1 <1>  -0.1500 
  9 C       -4.6760     1.2810    -1.8640 C.ar  1 <1>  -0.1500 
 10 C       -5.3620     0.3210    -1.1330 C.ar  1 <1>  -0.1430 
 11 C       -6.7600    -0.1050    -1.5320 C.3   1 <1>   0.4860 
 12 N       -7.7140     0.4640    -0.5390 N.4   1 <1>  -0.9590 
 13 C       -9.0530    -0.2010    -0.6540 C.3   1 <1>   0.3430 
 14 C       -7.7800     1.9510    -0.6660 C.3   1 <1>   0.3430 
 15 C       -9.5630    -0.7090     0.7010 C.3   1 <1>   0.1200 
 16 C       -8.5180     2.5740     0.5210 C.3   1 <1>  -0.1600 
 17 O      -10.7740    -1.3380     0.4800 O.3   1 <1>  -0.6800 
 18 C       -8.4350     4.1030     0.4710 C.3   1 <1>  -0.2400 
 19 H       -0.9530     1.9450    -0.7100 H     1 <1>   0.3700 
 20 H        0.4810     3.2090     1.0490 H     1 <1>   0.0800 
 21 H        1.0700     1.5700     0.8230 H     1 <1>   0.0800 
 22 H        0.7360     2.1690     2.4290 H     1 <1>   0.0800 
 23 H       -3.0410    -0.2660     1.2430 H     1 <1>   0.1500 
 24 H       -2.8950     2.4390    -2.0380 H     1 <1>   0.1500 
 25 H       -5.2480    -1.0030     0.5620 H     1 <1>   0.1500 
 26 H       -5.1120     1.7220    -2.7460 H     1 <1>   0.1500 
 27 H       -6.8140    -1.1820    -1.5270 H     1 <1>   0.0800 
 28 H       -6.9920     0.2470    -2.5240 H     1 <1>   0.0800 
 29 H       -7.3010     0.2620     0.3810 H     1 <1>   0.4500 
 30 H       -8.9860    -1.0470    -1.3180 H     1 <1>   0.0800 
 31 H       -9.7720     0.4890    -1.0630 H     1 <1>   0.0800 
 32 H       -8.2720     2.2260    -1.5850 H     1 <1>   0.0800 
 33 H       -6.7800     2.3550    -0.6890 H     1 <1>   0.0800 
 34 H       -9.7300     0.1000     1.3900 H     1 <1>   0.0800 
 35 H       -8.8870    -1.4320     1.1250 H     1 <1>   0.0800 
 36 H       -8.0740     2.2400     1.4430 H     1 <1>   0.0800 
 37 H       -9.5560     2.2940     0.5060 H     1 <1>   0.0800 
 38 H      -11.1680    -1.6790     1.3120 H     1 <1>   0.4000 
 39 H       -7.4100     4.4330     0.5120 H     1 <1>   0.0800 
 40 H       -8.9560     4.5280     1.3120 H     1 <1>   0.0800 
 41 H       -8.8860     4.4840    -0.4300 H     1 <1>   0.0800 
@<TRIPOS>BOND
  1   1   2  2   
  2   2   3  am  
  3   2   4  1   
  4   3   5  1   
  5   3  19  1   
  6   4  20  1   
  7   4  21  1   
  8   4  22  1   
  9   5   6  ar  
 10   5   7  ar  
 11   6   8  ar  
 12   6  23  1   
 13   7   9  ar  
 14   7  24  1   
 15   8  10  ar  
 16   8  25  1   
 17   9  10  ar  
 18   9  26  1   
 19  10  11  1   
 20  11  12  1   
 21  11  27  1   
 22  11  28  1   
 23  12  13  1   
 24  12  14  1   
 25  12  29  1   
 26  13  15  1   
 27  13  30  1   
 28  13  31  1   
 29  14  16  1   
 30  14  32  1   
 31  14  33  1   
 32  15  17  1   
 33  15  34  1   
 34  15  35  1   
 35  16  18  1   
 36  16  36  1   
 37  16  37  1   
 38  17  38  1   
 39  18  39  1   
 40  18  40  1   
 41  18  41  1   
@<TRIPOS>SUBSTRUCTURE
  1 ****  10 GROUP 4 **** **** 0

# MOE 2024.06 (io_trps.svl 2023.06)
