@<TRIPOS>MOLECULE
NONAME
45 47 1 0 0 
SMALL
USER_CHARGES


@<TRIPOS>ATOM
  1 CL      -5.1610    -4.9770    -1.7420 Cl    1 <1>  -0.1770 
  2 C       -3.5620    -4.2850    -1.5480 C.ar  1 <1>   0.1770 
  3 C       -2.9820    -4.0590    -0.2960 C.ar  1 <1>   0.0820 
  4 C       -2.8720    -3.9860    -2.7080 C.ar  1 <1>  -0.1500 
  5 O       -3.5820    -4.2980     0.8990 O.3   1 <1>  -0.3630 
  6 C       -1.6910    -3.5540    -0.2420 C.ar  1 <1>  -0.1500 
  7 C       -1.5890    -3.4710    -2.6350 C.ar  1 <1>  -0.1500 
  8 C       -4.9170    -3.8710     1.1050 C.3   1 <1>   0.1200 
  9 C       -0.9920    -3.2580    -1.4020 C.ar  1 <1>  -0.1440 
 10 C       -5.1410    -3.5740     2.5950 C.3   1 <1>   0.2000 
 11 C        0.4170    -2.6990    -1.3260 C.3   1 <1>  -0.0960 
 12 O       -4.6740    -4.6460     3.3360 O.3   1 <1>  -0.6800 
 13 C       -6.6140    -3.3620     2.9620 C.3   1 <1>   0.0960 
 14 N       -7.1650    -2.1930     2.2500 N.pl3 1 <1>   0.0480 
 15 C       -7.7100    -2.1690     1.0040 C.ar  1 <1>  -0.1520 
 16 C       -7.0950    -0.8930     2.6360 C.2   1 <1>   0.0360 
 17 C       -7.9240    -0.8360     0.7190 C.ar  1 <1>   0.2270 
 18 C       -8.0320    -3.1600     0.0740 C.ar  1 <1>  -0.1500 
 19 N       -7.5330    -0.0540     1.7640 N.2   1 <1>  -0.5650 
 20 C       -8.4570    -0.4670    -0.5120 C.ar  1 <1>  -0.1500 
 21 C       -8.5520    -2.7930    -1.1490 C.ar  1 <1>  -0.1430 
 22 C       -8.7690    -1.4340    -1.4460 C.ar  1 <1>  -0.1430 
 23 C       -8.8820    -3.8770    -2.1660 C.3   1 <1>  -0.0970 
 24 C       -9.3450    -1.0060    -2.7880 C.3   1 <1>  -0.0970 
 25 H       -3.3350    -4.1610    -3.6620 H     1 <1>   0.1500 
 26 H       -1.2400    -3.3910     0.7200 H     1 <1>   0.1500 
 27 H       -1.0560    -3.2380    -3.5410 H     1 <1>   0.1500 
 28 H       -5.5740    -4.6600     0.7910 H     1 <1>   0.0800 
 29 H       -5.0960    -2.9900     0.5130 H     1 <1>   0.0800 
 30 H       -4.5660    -2.7090     2.8800 H     1 <1>   0.0800 
 31 H        0.8860    -2.9750    -0.3990 H     1 <1>   0.0800 
 32 H        0.3870    -1.6260    -1.3930 H     1 <1>   0.0800 
 33 H        1.0150    -3.0800    -2.1340 H     1 <1>   0.0800 
 34 H       -3.8310    -4.9520     2.9350 H     1 <1>   0.4000 
 35 H       -6.7010    -3.1910     4.0190 H     1 <1>   0.0800 
 36 H       -7.1900    -4.2300     2.7000 H     1 <1>   0.0800 
 37 H       -6.6960    -0.6100     3.5950 H     1 <1>   0.1500 
 38 H       -7.8710    -4.1950     0.3160 H     1 <1>   0.1500 
 39 H       -8.6080     0.5790    -0.6980 H     1 <1>   0.1500 
 40 H       -8.6520    -4.8520    -1.7790 H     1 <1>   0.0800 
 41 H       -8.3060    -3.7280    -3.0610 H     1 <1>   0.0800 
 42 H       -9.9290    -3.8480    -2.4100 H     1 <1>   0.0800 
 43 H       -9.4420     0.0630    -2.8410 H     1 <1>   0.0800 
 44 H      -10.3180    -1.4410    -2.9280 H     1 <1>   0.0800 
 45 H       -8.6980    -1.3250    -3.5850 H     1 <1>   0.0800 
@<TRIPOS>BOND
  1   1   2  1   
  2   2   3  ar  
  3   2   4  ar  
  4   3   5  1   
  5   3   6  ar  
  6   4   7  ar  
  7   4  25  1   
  8   5   8  1   
  9   6   9  ar  
 10   6  26  1   
 11   7   9  ar  
 12   7  27  1   
 13   8  10  1   
 14   8  28  1   
 15   8  29  1   
 16   9  11  1   
 17  10  12  1   
 18  10  13  1   
 19  10  30  1   
 20  11  31  1   
 21  11  32  1   
 22  11  33  1   
 23  12  34  1   
 24  13  14  1   
 25  13  35  1   
 26  13  36  1   
 27  14  15  1   
 28  14  16  1   
 29  15  17  ar  
 30  15  18  ar  
 31  16  19  2   
 32  16  37  1   
 33  17  19  1   
 34  17  20  ar  
 35  18  21  ar  
 36  18  38  1   
 37  20  22  ar  
 38  20  39  1   
 39  21  22  ar  
 40  21  23  1   
 41  22  24  1   
 42  23  40  1   
 43  23  41  1   
 44  23  42  1   
 45  24  43  1   
 46  24  44  1   
 47  24  45  1   
@<TRIPOS>SUBSTRUCTURE
  1 ****   8 GROUP 4 **** **** 0

# MOE 2024.06 (io_trps.svl 2023.06)
