@<TRIPOS>MOLECULE
NONAME
41 45 1 0 0 
SMALL
USER_CHARGES


@<TRIPOS>ATOM
  1 O       -0.3180    -1.6670     2.2380 O.2   1 <1>  -0.5700 
  2 C       -0.6310    -1.4980     1.0890 C.2   1 <1>   0.5690 
  3 N        0.1310    -1.7430    -0.0290 N.am  1 <1>  -0.4200 
  4 C       -1.9180    -0.8960     0.6000 C.3   1 <1>  -0.0190 
  5 C       -0.6400    -1.6570    -1.1660 C.2   1 <1>   0.5690 
  6 C        1.5770    -2.0460    -0.0110 C.3   1 <1>   0.1400 
  7 C       -3.3730    -0.6150     1.0160 C.3   1 <1>   0.1530 
  8 C       -2.0740    -1.6760    -0.7160 C.3   1 <1>  -0.0190 
  9 O       -0.2590    -1.6380    -2.3070 O.2   1 <1>  -0.5700 
 10 C        1.8000    -3.5560     0.0850 C.3   1 <1>  -0.0170 
 11 C       -4.2700    -1.8420     0.9060 C.2   1 <1>  -0.2880 
 12 C       -3.7690    -0.0120    -0.3410 C.3   1 <1>  -0.1900 
 13 C       -3.4830    -1.2470    -1.1960 C.3   1 <1>   0.1530 
 14 C        3.2890    -3.8560     0.1070 C.ar  1 <1>  -0.1440 
 15 C       -4.3810    -2.1750    -0.3840 C.2   1 <1>  -0.2880 
 16 C       -4.9540     0.8720    -0.5470 C.3   1 <1>  -0.2000 
 17 C       -3.5550     1.4000    -0.7810 C.3   1 <1>  -0.2000 
 18 C        3.9810    -4.0480    -1.0790 C.ar  1 <1>  -0.1500 
 19 C        3.9690    -3.9340     1.3130 C.ar  1 <1>  -0.1500 
 20 C        5.3390    -4.3150    -1.0600 C.ar  1 <1>  -0.1500 
 21 C        5.3270    -4.2020     1.3330 C.ar  1 <1>  -0.1500 
 22 C        6.0130    -4.3920     0.1460 C.ar  1 <1>  -0.1500 
 23 H       -1.5530     0.0950     0.3760 H     1 <1>   0.0800 
 24 H        2.0330    -1.5580     0.8340 H     1 <1>   0.0800 
 25 H        2.0330    -1.6670    -0.9100 H     1 <1>   0.0800 
 26 H       -3.5350     0.0410     1.8550 H     1 <1>   0.0800 
 27 H       -2.1740    -2.7270    -0.4900 H     1 <1>   0.0800 
 28 H        1.3480    -4.0450    -0.7590 H     1 <1>   0.0800 
 29 H        1.3440    -3.9330     0.9830 H     1 <1>   0.0800 
 30 H       -4.7030    -2.2790     1.7900 H     1 <1>   0.1500 
 31 H       -3.6790    -1.1850    -2.2530 H     1 <1>   0.0800 
 32 H       -4.9360    -2.9610    -0.8670 H     1 <1>   0.1500 
 33 H       -5.5020     1.2120     0.3140 H     1 <1>   0.1000 
 34 H       -5.5910     0.6930    -1.3960 H     1 <1>   0.1000 
 35 H       -3.2470     1.5950    -1.7940 H     1 <1>   0.1000 
 36 H       -3.1690     2.1250    -0.0840 H     1 <1>   0.1000 
 37 H        3.4670    -3.9890    -2.0230 H     1 <1>   0.1500 
 38 H        3.4450    -3.7870     2.2420 H     1 <1>   0.1500 
 39 H        5.8710    -4.4630    -1.9830 H     1 <1>   0.1500 
 40 H        5.8490    -4.2620     2.2720 H     1 <1>   0.1500 
 41 H        7.0680    -4.6000     0.1620 H     1 <1>   0.1500 
@<TRIPOS>BOND
  1   1   2  2   
  2   2   3  am  
  3   2   4  1   
  4   3   5  am  
  5   3   6  1   
  6   4   7  1   
  7   4   8  1   
  8   4  23  1   
  9   5   8  1   
 10   5   9  2   
 11   6  10  1   
 12   6  24  1   
 13   6  25  1   
 14   7  11  1   
 15   7  12  1   
 16   7  26  1   
 17   8  13  1   
 18   8  27  1   
 19  10  14  1   
 20  10  28  1   
 21  10  29  1   
 22  11  15  2   
 23  11  30  1   
 24  12  13  1   
 25  12  16  1   
 26  12  17  1   
 27  13  15  1   
 28  13  31  1   
 29  14  18  ar  
 30  14  19  ar  
 31  15  32  1   
 32  16  17  1   
 33  16  33  1   
 34  16  34  1   
 35  17  35  1   
 36  17  36  1   
 37  18  20  ar  
 38  18  37  1   
 39  19  21  ar  
 40  19  38  1   
 41  20  22  ar  
 42  20  39  1   
 43  21  22  ar  
 44  21  40  1   
 45  22  41  1   
@<TRIPOS>SUBSTRUCTURE
  1 ****   3 GROUP 4 **** **** 0

# MOE 2024.06 (io_trps.svl 2023.06)
