@<TRIPOS>MOLECULE
NONAME
34 34 1 0 0 
SMALL
USER_CHARGES


@<TRIPOS>ATOM
  1 CL      -0.3470    -0.1160     2.2920 Cl    1 <1>  -0.1770 
  2 C       -1.6880    -0.7960     1.4100 C.ar  1 <1>   0.1770 
  3 C       -1.9680    -0.3330     0.1380 C.ar  1 <1>  -0.1500 
  4 C       -2.4520    -1.7870     1.9940 C.ar  1 <1>  -0.1500 
  5 C       -3.0360    -0.8700    -0.5600 C.ar  1 <1>  -0.1500 
  6 C       -3.5200    -2.3230     1.2940 C.ar  1 <1>  -0.1500 
  7 C       -3.8210    -1.8620     0.0170 C.ar  1 <1>  -0.1430 
  8 C       -5.0020    -2.4380    -0.7430 C.3   1 <1>   0.4870 
  9 N       -6.2590    -1.8960    -0.1540 N.4   1 <1>  -0.9590 
 10 C       -7.4420    -2.6700    -0.6570 C.3   1 <1>   0.3430 
 11 C       -6.3700    -0.4280    -0.4100 C.3   1 <1>   0.3430 
 12 C       -8.3680    -3.1260     0.4800 C.3   1 <1>   0.1200 
 13 C       -7.4920     0.1970     0.4210 C.3   1 <1>  -0.1600 
 14 O       -9.3820    -3.8750    -0.0870 O.3   1 <1>  -0.6800 
 15 C       -7.4740     1.7250     0.2970 C.3   1 <1>  -0.2400 
 16 H       -1.3500     0.4350    -0.2930 H     1 <1>   0.1500 
 17 H       -2.2040    -2.1310     2.9830 H     1 <1>   0.1500 
 18 H       -3.2400    -0.5060    -1.5540 H     1 <1>   0.1500 
 19 H       -4.1010    -3.1030     1.7580 H     1 <1>   0.1500 
 20 H       -4.9840    -3.5120    -0.6550 H     1 <1>   0.0800 
 21 H       -4.9350    -2.1800    -1.7870 H     1 <1>   0.0800 
 22 H       -6.1680    -2.0210     0.8620 H     1 <1>   0.4500 
 23 H       -7.1070    -3.5520    -1.1780 H     1 <1>   0.0800 
 24 H       -8.0090    -2.0690    -1.3490 H     1 <1>   0.0800 
 25 H       -6.5480    -0.2440    -1.4580 H     1 <1>   0.0800 
 26 H       -5.4440     0.0550    -0.1400 H     1 <1>   0.0800 
 27 H       -8.8150    -2.2900     0.9880 H     1 <1>   0.0800 
 28 H       -7.8440    -3.7550     1.1790 H     1 <1>   0.0800 
 29 H       -7.3670    -0.0610     1.4590 H     1 <1>   0.0800 
 30 H       -8.4500    -0.1550     0.0820 H     1 <1>   0.0800 
 31 H      -10.0240    -4.1910     0.5850 H     1 <1>   0.4000 
 32 H       -6.5400     2.1280     0.6510 H     1 <1>   0.0800 
 33 H       -8.2670     2.1510     0.8880 H     1 <1>   0.0800 
 34 H       -7.6180     2.0290    -0.7260 H     1 <1>   0.0800 
@<TRIPOS>BOND
  1   1   2  1   
  2   2   3  ar  
  3   2   4  ar  
  4   3   5  ar  
  5   3  16  1   
  6   4   6  ar  
  7   4  17  1   
  8   5   7  ar  
  9   5  18  1   
 10   6   7  ar  
 11   6  19  1   
 12   7   8  1   
 13   8   9  1   
 14   8  20  1   
 15   8  21  1   
 16   9  10  1   
 17   9  11  1   
 18   9  22  1   
 19  10  12  1   
 20  10  23  1   
 21  10  24  1   
 22  11  13  1   
 23  11  25  1   
 24  11  26  1   
 25  12  14  1   
 26  12  27  1   
 27  12  28  1   
 28  13  15  1   
 29  13  29  1   
 30  13  30  1   
 31  14  31  1   
 32  15  32  1   
 33  15  33  1   
 34  15  34  1   
@<TRIPOS>SUBSTRUCTURE
  1 ****   7 GROUP 4 **** **** 0

# MOE 2024.06 (io_trps.svl 2023.06)
