@<TRIPOS>MOLECULE
NONAME
39 41 1 0 0 
SMALL
USER_CHARGES


@<TRIPOS>ATOM
  1 CL      -0.8080    -1.7780     2.2550 Cl    1 <1>  -0.1770 
  2 C       -1.7040    -1.7750     0.7450 C.ar  1 <1>   0.1770 
  3 C       -1.2000    -2.4300    -0.3860 C.ar  1 <1>   0.1000 
  4 C       -2.9130    -1.1080     0.7210 C.ar  1 <1>  -0.1500 
  5 N        0.0180    -3.1220    -0.4270 N.pl3 1 <1>  -0.8380 
  6 C       -1.9640    -2.3850    -1.5460 C.ar  1 <1>  -0.1500 
  7 C       -3.6550    -1.0790    -0.4480 C.ar  1 <1>  -0.1500 
  8 C        0.0750    -4.3930     0.3560 C.3   1 <1>   0.2090 
  9 C        1.2510    -2.2810    -0.3480 C.3   1 <1>   0.2090 
 10 C       -3.1770    -1.7190    -1.5790 C.ar  1 <1>  -0.1500 
 11 C        1.3470    -5.1970     0.0150 C.3   1 <1>   0.3430 
 12 C        2.5070    -3.1110    -0.6800 C.3   1 <1>   0.3430 
 13 N        2.6040    -4.3720     0.1500 N.4   1 <1>  -0.9590 
 14 C        3.8220    -5.1660    -0.1770 C.3   1 <1>   0.4860 
 15 C        5.0520    -4.3210     0.0760 C.ar  1 <1>  -0.1430 
 16 C        5.4800    -4.0860     1.3740 C.ar  1 <1>   0.1600 
 17 C        5.7630    -3.7650    -0.9720 C.ar  1 <1>  -0.1500 
 18 N        6.5170    -3.3380     1.7000 N.ar  1 <1>  -0.6200 
 19 C        6.8570    -2.9920    -0.6450 C.ar  1 <1>  -0.1500 
 20 C        7.1860    -2.8100     0.6880 C.ar  1 <1>   0.1600 
 21 H       -3.2720    -0.6150     1.6070 H     1 <1>   0.1500 
 22 H       -1.6010    -2.8780    -2.4280 H     1 <1>   0.1500 
 23 H       -4.5990    -0.5620    -0.4770 H     1 <1>   0.1500 
 24 H       -0.7940    -4.9870     0.1260 H     1 <1>   0.0800 
 25 H        0.0560    -4.1790     1.4090 H     1 <1>   0.0800 
 26 H        1.3480    -1.8600     0.6370 H     1 <1>   0.0800 
 27 H        1.1670    -1.4660    -1.0470 H     1 <1>   0.0800 
 28 H       -3.7530    -1.6970    -2.4890 H     1 <1>   0.1500 
 29 H        1.2550    -5.5490    -0.9990 H     1 <1>   0.0800 
 30 H        1.3980    -6.0570     0.6620 H     1 <1>   0.0800 
 31 H        3.3780    -2.4960    -0.5200 H     1 <1>   0.0800 
 32 H        2.4720    -3.3680    -1.7250 H     1 <1>   0.0800 
 33 H        2.6770    -4.0670     1.1290 H     1 <1>   0.4500 
 34 H        3.7980    -5.4710    -1.2110 H     1 <1>   0.0800 
 35 H        3.8650    -6.0510     0.4360 H     1 <1>   0.0800 
 36 H        4.9490    -4.5290     2.2000 H     1 <1>   0.1500 
 37 H        5.4960    -3.9190    -2.0050 H     1 <1>   0.1500 
 38 H        7.4570    -2.5330    -1.4110 H     1 <1>   0.1500 
 39 H        8.0420    -2.2030     0.9330 H     1 <1>   0.1500 
@<TRIPOS>BOND
  1   1   2  1   
  2   2   3  ar  
  3   2   4  ar  
  4   3   5  1   
  5   3   6  ar  
  6   4   7  ar  
  7   4  21  1   
  8   5   8  1   
  9   5   9  1   
 10   6  10  ar  
 11   6  22  1   
 12   7  10  ar  
 13   7  23  1   
 14   8  11  1   
 15   8  24  1   
 16   8  25  1   
 17   9  12  1   
 18   9  26  1   
 19   9  27  1   
 20  10  28  1   
 21  11  13  1   
 22  11  29  1   
 23  11  30  1   
 24  12  13  1   
 25  12  31  1   
 26  12  32  1   
 27  13  14  1   
 28  13  33  1   
 29  14  15  1   
 30  14  34  1   
 31  14  35  1   
 32  15  16  ar  
 33  15  17  ar  
 34  16  18  ar  
 35  16  36  1   
 36  17  19  ar  
 37  17  37  1   
 38  18  20  ar  
 39  19  20  ar  
 40  19  38  1   
 41  20  39  1   
@<TRIPOS>SUBSTRUCTURE
  1 ****   9 GROUP 4 **** **** 0

# MOE 2024.06 (io_trps.svl 2023.06)
