@<TRIPOS>MOLECULE
NONAME
29 29 1 0 0 
SMALL
USER_CHARGES


@<TRIPOS>ATOM
  1 I        0.1810     0.6380     2.1310 I     1 <1>  -0.0810 
  2 C        1.8360     1.2640     0.9420 C.ar  1 <1>   0.0810 
  3 C        2.1580     2.6090     0.9070 C.ar  1 <1>  -0.1500 
  4 C        2.5420     0.3100     0.2350 C.ar  1 <1>  -0.1500 
  5 C        3.2340     3.0210     0.1360 C.ar  1 <1>  -0.1440 
  6 C        3.6130     0.7310    -0.5310 C.ar  1 <1>  -0.1500 
  7 C        3.9710     2.0750    -0.5840 C.ar  1 <1>   0.1000 
  8 C        3.5960     4.5000     0.0920 C.3   1 <1>  -0.0960 
  9 N        5.0590     2.4590    -1.3560 N.pl3 1 <1>  -0.8690 
 10 C        6.4140     2.0180    -0.8800 C.3   1 <1>   0.2700 
 11 C        7.3750     3.1720    -0.5740 C.2   1 <1>   0.6590 
 12 O        7.0690     4.3290    -0.7380 O.2   1 <1>  -0.5700 
 13 O        8.5710     2.8210    -0.1170 O.3   1 <1>  -0.4300 
 14 C        9.5490     3.7850     0.2010 C.3   1 <1>   0.1200 
 15 C       10.7940     3.0530     0.6920 C.3   1 <1>  -0.2400 
 16 H        1.5750     3.3140     1.4720 H     1 <1>   0.1500 
 17 H        2.2630    -0.7270     0.2780 H     1 <1>   0.1500 
 18 H        4.1790     0.0190    -1.1030 H     1 <1>   0.1500 
 19 H        2.9150     5.0830     0.6840 H     1 <1>   0.0800 
 20 H        3.5550     4.8580    -0.9210 H     1 <1>   0.0800 
 21 H        4.5900     4.6470     0.4750 H     1 <1>   0.0800 
 22 H        5.0930     3.4810    -1.4870 H     1 <1>   0.4000 
 23 H        6.8590     1.4000    -1.6380 H     1 <1>   0.0800 
 24 H        6.3080     1.4260     0.0120 H     1 <1>   0.0800 
 25 H        9.1540     4.4330     0.9660 H     1 <1>   0.0800 
 26 H        9.7620     4.3610    -0.6840 H     1 <1>   0.0800 
 27 H       10.5640     2.4760     1.5700 H     1 <1>   0.0800 
 28 H       11.5580     3.7660     0.9420 H     1 <1>   0.0800 
 29 H       11.1710     2.4040    -0.0780 H     1 <1>   0.0800 
@<TRIPOS>BOND
  1   1   2  1   
  2   2   3  ar  
  3   2   4  ar  
  4   3   5  ar  
  5   3  16  1   
  6   4   6  ar  
  7   4  17  1   
  8   5   7  ar  
  9   5   8  1   
 10   6   7  ar  
 11   6  18  1   
 12   7   9  1   
 13   8  19  1   
 14   8  20  1   
 15   8  21  1   
 16   9  10  1   
 17   9  22  1   
 18  10  11  1   
 19  10  23  1   
 20  10  24  1   
 21  11  12  2   
 22  11  13  1   
 23  13  14  1   
 24  14  15  1   
 25  14  25  1   
 26  14  26  1   
 27  15  27  1   
 28  15  28  1   
 29  15  29  1   
@<TRIPOS>SUBSTRUCTURE
  1 ****   7 GROUP 4 **** **** 0

# MOE 2024.06 (io_trps.svl 2023.06)
