@<TRIPOS>MOLECULE
NONAME
36 36 1 0 0 
SMALL
USER_CHARGES


@<TRIPOS>ATOM
  1 O       -0.0200     0.2550    -1.0770 O.2   1 <1>  -0.5700 
  2 C       -0.1540     1.1240    -0.2390 C.2   1 <1>   0.6900 
  3 N       -1.3730     1.6310     0.0970 N.am  1 <1>  -0.5470 
  4 N        0.9250     1.6390     0.3980 N.am  1 <1>  -0.7300 
  5 C       -2.6720     1.2530    -0.2800 C.ar  1 <1>   0.1170 
  6 C        2.3230     1.2440     0.1490 C.3   1 <1>   0.2200 
  7 C       -3.7010     2.1980    -0.2660 C.ar  1 <1>  -0.1430 
  8 C       -2.9720    -0.0560    -0.6470 C.ar  1 <1>  -0.1500 
  9 C        2.7810     0.4090     1.3570 C.3   1 <1>  -0.1600 
 10 C        3.1470     2.5250    -0.0830 C.3   1 <1>  -0.1600 
 11 C       -4.9890     1.8220    -0.6150 C.ar  1 <1>  -0.1500 
 12 C       -3.4400     3.6480     0.1210 C.3   1 <1>  -0.0970 
 13 C       -4.2570    -0.4240    -0.9960 C.ar  1 <1>  -0.1500 
 14 C        4.2050    -0.1510     1.2390 C.3   1 <1>  -0.2400 
 15 C        4.2580     2.3400    -1.1280 C.3   1 <1>  -0.2400 
 16 C       -5.2700     0.5170    -0.9800 C.ar  1 <1>  -0.1500 
 17 H       -1.3250     2.5040     0.6060 H     1 <1>   0.3700 
 18 H        0.7870     2.2270     1.2140 H     1 <1>   0.3700 
 19 H        2.3600     0.6330    -0.7390 H     1 <1>   0.0800 
 20 H       -2.1950    -0.7990    -0.6580 H     1 <1>   0.1500 
 21 H        2.1070    -0.4250     1.4560 H     1 <1>   0.0800 
 22 H        2.7130     1.0000     2.2530 H     1 <1>   0.0800 
 23 H        3.5740     2.8640     0.8440 H     1 <1>   0.0800 
 24 H        2.4980     3.3030    -0.4510 H     1 <1>   0.0800 
 25 H       -5.7880     2.5430    -0.6090 H     1 <1>   0.1500 
 26 H       -2.6660     4.0620    -0.5020 H     1 <1>   0.0800 
 27 H       -3.1390     3.7070     1.1510 H     1 <1>   0.0800 
 28 H       -4.3250     4.2460    -0.0070 H     1 <1>   0.0800 
 29 H       -4.4670    -1.4400    -1.2790 H     1 <1>   0.1500 
 30 H        4.3210    -0.6890     0.3140 H     1 <1>   0.0800 
 31 H        4.3990    -0.8270     2.0530 H     1 <1>   0.0800 
 32 H        4.9320     0.6400     1.2820 H     1 <1>   0.0800 
 33 H        4.9650     1.5910    -0.8240 H     1 <1>   0.0800 
 34 H        4.7860     3.2670    -1.2690 H     1 <1>   0.0800 
 35 H        3.8330     2.0470    -2.0730 H     1 <1>   0.0800 
 36 H       -6.2720     0.2350    -1.2510 H     1 <1>   0.1500 
@<TRIPOS>BOND
  1   1   2  2   
  2   2   3  am  
  3   2   4  am  
  4   3   5  1   
  5   3  17  1   
  6   4   6  1   
  7   4  18  1   
  8   5   7  ar  
  9   5   8  ar  
 10   6   9  1   
 11   6  10  1   
 12   6  19  1   
 13   7  11  ar  
 14   7  12  1   
 15   8  13  ar  
 16   8  20  1   
 17   9  14  1   
 18   9  21  1   
 19   9  22  1   
 20  10  15  1   
 21  10  23  1   
 22  10  24  1   
 23  11  16  ar  
 24  11  25  1   
 25  12  26  1   
 26  12  27  1   
 27  12  28  1   
 28  13  16  ar  
 29  13  29  1   
 30  14  30  1   
 31  14  31  1   
 32  14  32  1   
 33  15  33  1   
 34  15  34  1   
 35  15  35  1   
 36  16  36  1   
@<TRIPOS>SUBSTRUCTURE
  1 ****   2 GROUP 4 **** **** 0

# MOE 2024.06 (io_trps.svl 2023.06)
