@<TRIPOS>MOLECULE
NONAME
40 41 1 0 0 
SMALL
USER_CHARGES


@<TRIPOS>ATOM
  1 O        3.0870    -1.0360    -0.6150 O.3   1 <1>  -0.6800 
  2 C        2.0900    -0.3450     0.0780 C.3   1 <1>   0.1200 
  3 C        2.7300     0.5540     1.1550 C.3   1 <1>   0.3430 
  4 N        4.0520     1.0700     0.6840 N.4   1 <1>  -0.9590 
  5 C        5.1300     0.7980     1.6760 C.3   1 <1>   0.4860 
  6 C        4.0500     2.4860     0.2100 C.3   1 <1>   0.3430 
  7 C        6.4750     1.1950     1.0960 C.ar  1 <1>  -0.1440 
  8 C        3.1530     2.6610    -1.0160 C.3   1 <1>  -0.1600 
  9 C        7.0770     0.4110     0.0790 C.ar  1 <1>   0.0000 
 10 C        7.0850     2.3330     1.5600 C.ar  1 <1>  -0.1500 
 11 C        3.3190     4.0610    -1.6170 C.3   1 <1>  -0.2400 
 12 C        8.2930     0.8640    -0.4830 C.ar  1 <1>   0.0000 
 13 C        6.5410    -0.8050    -0.4110 C.ar  1 <1>  -0.1500 
 14 C        8.3000     2.7590     1.0180 C.ar  1 <1>  -0.1500 
 15 C        8.8830     2.0410     0.0140 C.ar  1 <1>  -0.1500 
 16 C        8.8900     0.1260    -1.5240 C.ar  1 <1>  -0.1500 
 17 C        7.1450    -1.5030    -1.4190 C.ar  1 <1>  -0.1500 
 18 C        8.3310    -1.0310    -1.9870 C.ar  1 <1>  -0.1500 
 19 H        2.6940    -1.6530    -1.2730 H     1 <1>   0.4000 
 20 H        1.4230    -1.0580     0.5310 H     1 <1>   0.0800 
 21 H        1.5370     0.2460    -0.6310 H     1 <1>   0.0800 
 22 H        2.8690    -0.0420     2.0420 H     1 <1>   0.0800 
 23 H        2.0670     1.3650     1.4060 H     1 <1>   0.0800 
 24 H        4.2740     0.4700    -0.1350 H     1 <1>   0.4500 
 25 H        5.1480    -0.2500     1.9280 H     1 <1>   0.0800 
 26 H        4.9480     1.3600     2.5770 H     1 <1>   0.0800 
 27 H        5.0520     2.7710    -0.0690 H     1 <1>   0.0800 
 28 H        3.7250     3.1430     1.0000 H     1 <1>   0.0800 
 29 H        2.1210     2.5310    -0.7460 H     1 <1>   0.0800 
 30 H        3.4170     1.9340    -1.7650 H     1 <1>   0.0800 
 31 H        6.6530     2.9310     2.3450 H     1 <1>   0.1500 
 32 H        3.0470     4.8210    -0.9040 H     1 <1>   0.0800 
 33 H        2.6850     4.1690    -2.4810 H     1 <1>   0.0800 
 34 H        4.3370     4.2250    -1.9260 H     1 <1>   0.0800 
 35 H        5.6430    -1.2100     0.0130 H     1 <1>   0.1500 
 36 H        8.7650     3.6540     1.3970 H     1 <1>   0.1500 
 37 H        9.8160     2.3670    -0.4130 H     1 <1>   0.1500 
 38 H        9.8070     0.4900    -1.9520 H     1 <1>   0.1500 
 39 H        6.7260    -2.4250    -1.7860 H     1 <1>   0.1500 
 40 H        8.7930    -1.5910    -2.7830 H     1 <1>   0.1500 
@<TRIPOS>BOND
  1   1   2  1   
  2   1  19  1   
  3   2   3  1   
  4   2  20  1   
  5   2  21  1   
  6   3   4  1   
  7   3  22  1   
  8   3  23  1   
  9   4   5  1   
 10   4   6  1   
 11   4  24  1   
 12   5   7  1   
 13   5  25  1   
 14   5  26  1   
 15   6   8  1   
 16   6  27  1   
 17   6  28  1   
 18   7   9  ar  
 19   7  10  ar  
 20   8  11  1   
 21   8  29  1   
 22   8  30  1   
 23   9  12  ar  
 24   9  13  ar  
 25  10  14  ar  
 26  10  31  1   
 27  11  32  1   
 28  11  33  1   
 29  11  34  1   
 30  12  15  ar  
 31  12  16  ar  
 32  13  17  ar  
 33  13  35  1   
 34  14  15  ar  
 35  14  36  1   
 36  15  37  1   
 37  16  18  ar  
 38  16  38  1   
 39  17  18  ar  
 40  17  39  1   
 41  18  40  1   
@<TRIPOS>SUBSTRUCTURE
  1 ****   9 GROUP 4 **** **** 0

# MOE 2024.06 (io_trps.svl 2023.06)
