@<TRIPOS>MOLECULE
NONAME
52 54 1 0 0 
SMALL
USER_CHARGES


@<TRIPOS>ATOM
  1 O       -0.7440     3.0260     2.5290 O.2   1 <1>  -0.5700 
  2 C       -0.1040     2.6590     1.5720 C.2   1 <1>   0.5690 
  3 N       -0.6380     1.9010     0.5820 N.am  1 <1>  -0.7300 
  4 C        1.3720     3.0520     1.4560 C.3   1 <1>   0.1710 
  5 C       -2.0120     1.3870     0.5110 C.3   1 <1>   0.2200 
  6 N        2.2020     2.0980     0.6610 N.3   1 <1>  -0.8100 
  7 C       -1.9450    -0.1440     0.5890 C.3   1 <1>  -0.1600 
  8 C       -2.6500     1.9430    -0.7670 C.3   1 <1>  -0.1600 
  9 C        3.5250     2.6870     0.3520 C.3   1 <1>   0.1100 
 10 C        2.3960     0.8260     1.4020 C.3   1 <1>   0.1100 
 11 C       -3.3200    -0.7790     0.8480 C.3   1 <1>  -0.1600 
 12 C       -4.0720     1.4370    -1.0610 C.3   1 <1>  -0.1600 
 13 C        4.4150     1.7240    -0.4580 C.3   1 <1>   0.2090 
 14 C        3.2620    -0.1780     0.6180 C.3   1 <1>   0.2090 
 15 C       -4.1480    -1.0690    -0.4130 C.3   1 <1>  -0.1600 
 16 C       -4.0880    -0.0230    -1.5370 C.3   1 <1>  -0.1600 
 17 N        4.5770     0.4190     0.2480 N.pl3 1 <1>  -0.8380 
 18 C        5.5110    -0.4550    -0.2940 C.ar  1 <1>   0.1000 
 19 C        5.3260    -1.0430    -1.5410 C.ar  1 <1>  -0.1500 
 20 C        6.6620    -0.7560     0.4210 C.ar  1 <1>  -0.1500 
 21 C        6.2690    -1.9120    -2.0590 C.ar  1 <1>  -0.1500 
 22 C        7.6080    -1.6240    -0.0930 C.ar  1 <1>  -0.1500 
 23 C        7.4130    -2.2040    -1.3350 C.ar  1 <1>  -0.1500 
 24 H        0.0100     1.5990    -0.1500 H     1 <1>   0.3700 
 25 H        1.7800     3.1550     2.4460 H     1 <1>   0.0800 
 26 H        1.4010     4.0190     0.9870 H     1 <1>   0.0800 
 27 H       -2.5630     1.7550     1.3620 H     1 <1>   0.0800 
 28 H       -1.3150    -0.3980     1.4230 H     1 <1>   0.0800 
 29 H       -1.5010    -0.5540    -0.3010 H     1 <1>   0.0800 
 30 H       -2.0170     1.7230    -1.6090 H     1 <1>   0.0800 
 31 H       -2.6940     3.0130    -0.6660 H     1 <1>   0.0800 
 32 H        4.0370     2.9380     1.2650 H     1 <1>   0.0800 
 33 H        3.3900     3.5900    -0.2170 H     1 <1>   0.0800 
 34 H        1.4420     0.3720     1.6020 H     1 <1>   0.0800 
 35 H        2.8750     1.0220     2.3460 H     1 <1>   0.0800 
 36 H       -3.8860    -0.1430     1.5090 H     1 <1>   0.0800 
 37 H       -3.1780    -1.7110     1.3680 H     1 <1>   0.0800 
 38 H       -4.4740     2.0450    -1.8530 H     1 <1>   0.0800 
 39 H       -4.7100     1.5680    -0.2040 H     1 <1>   0.0800 
 40 H        5.3840     2.1670    -0.6050 H     1 <1>   0.0800 
 41 H        3.9700     1.5600    -1.4240 H     1 <1>   0.0800 
 42 H        2.7370    -0.4780    -0.2720 H     1 <1>   0.0800 
 43 H        3.4300    -1.0540     1.2200 H     1 <1>   0.0800 
 44 H       -5.1750    -1.1910    -0.1110 H     1 <1>   0.0800 
 45 H       -3.8320    -2.0130    -0.8240 H     1 <1>   0.0800 
 46 H       -3.2240    -0.2090    -2.1520 H     1 <1>   0.0800 
 47 H       -4.9490    -0.1700    -2.1660 H     1 <1>   0.0800 
 48 H        4.4390    -0.8160    -2.1010 H     1 <1>   0.1500 
 49 H        6.8010    -0.3000     1.3830 H     1 <1>   0.1500 
 50 H        6.1150    -2.3610    -3.0250 H     1 <1>   0.1500 
 51 H        8.4950    -1.8480     0.4730 H     1 <1>   0.1500 
 52 H        8.1480    -2.8790    -1.7360 H     1 <1>   0.1500 
@<TRIPOS>BOND
  1   1   2  2   
  2   2   3  am  
  3   2   4  1   
  4   3   5  1   
  5   3  24  1   
  6   4   6  1   
  7   4  25  1   
  8   4  26  1   
  9   5   7  1   
 10   5   8  1   
 11   5  27  1   
 12   6   9  1   
 13   6  10  1   
 14   7  11  1   
 15   7  28  1   
 16   7  29  1   
 17   8  12  1   
 18   8  30  1   
 19   8  31  1   
 20   9  13  1   
 21   9  32  1   
 22   9  33  1   
 23  10  14  1   
 24  10  34  1   
 25  10  35  1   
 26  11  15  1   
 27  11  36  1   
 28  11  37  1   
 29  12  16  1   
 30  12  38  1   
 31  12  39  1   
 32  13  17  1   
 33  13  40  1   
 34  13  41  1   
 35  14  17  1   
 36  14  42  1   
 37  14  43  1   
 38  15  16  1   
 39  15  44  1   
 40  15  45  1   
 41  16  46  1   
 42  16  47  1   
 43  17  18  1   
 44  18  19  ar  
 45  18  20  ar  
 46  19  21  ar  
 47  19  48  1   
 48  20  22  ar  
 49  20  49  1   
 50  21  23  ar  
 51  21  50  1   
 52  22  23  ar  
 53  22  51  1   
 54  23  52  1   
@<TRIPOS>SUBSTRUCTURE
  1 ****  10 GROUP 4 **** **** 0

# MOE 2024.06 (io_trps.svl 2023.06)
