@<TRIPOS>MOLECULE
NONAME
42 45 1 0 0 
SMALL
USER_CHARGES


@<TRIPOS>ATOM
  1 O        0.3560     0.4360    -1.8150 O.co2 1 <1>  -0.9000 
  2 C        1.1640    -0.4130    -1.4110 C.2   1 <1>   0.9060 
  3 O        1.9910    -0.9370    -2.1690 O.co2 1 <1>  -0.9000 
  4 C        1.2070    -0.7240     0.0820 C.3   1 <1>   0.0140 
  5 O        0.6840    -2.0020     0.4570 O.3   1 <1>  -0.3630 
  6 C       -0.6480    -2.2410     0.5610 C.ar  1 <1>   0.0820 
  7 C       -1.0210    -3.4560     1.1100 C.ar  1 <1>  -0.1500 
  8 C       -1.6370    -1.3510     0.1590 C.ar  1 <1>  -0.1500 
  9 C       -2.3580    -3.7780     1.2670 C.ar  1 <1>  -0.1500 
 10 C       -2.9740    -1.6760     0.3160 C.ar  1 <1>  -0.1500 
 11 C       -3.3510    -2.8920     0.8740 C.ar  1 <1>  -0.1440 
 12 C       -4.8220    -3.3020     1.0670 C.3   1 <1>   0.0640 
 13 C       -5.3140    -4.7550     0.1240 C.3   1 <1>  -0.0800 
 14 C       -5.9610    -1.9770     0.7190 C.3   1 <1>  -0.0800 
 15 C       -4.9390    -4.2310    -1.1840 C.3   1 <1>  -0.1600 
 16 C       -7.0010    -5.0920    -0.2570 C.3   1 <1>  -0.1600 
 17 C       -6.5090    -2.9410     0.9590 C.3   1 <1>  -0.1600 
 18 C       -7.6560    -2.0810     0.0990 C.3   1 <1>  -0.1600 
 19 C       -5.8960    -3.0720    -0.9630 C.3   1 <1>  -0.0800 
 20 C       -7.8980    -3.6580    -0.7290 C.3   1 <1>  -0.0800 
 21 C       -7.0880    -3.2920    -1.8850 C.3   1 <1>  -0.1600 
 22 H        0.6790     0.0370     0.6220 H     1 <1>   0.0800 
 23 H        2.2360    -0.7070     0.3820 H     1 <1>   0.0800 
 24 H       -0.2530    -4.1430     1.4110 H     1 <1>   0.1500 
 25 H       -1.3840    -0.4070    -0.2870 H     1 <1>   0.1500 
 26 H       -2.6210    -4.7280     1.6950 H     1 <1>   0.1500 
 27 H       -3.7060    -0.9630    -0.0140 H     1 <1>   0.1500 
 28 H       -4.7930    -3.5910     2.1250 H     1 <1>   0.0800 
 29 H       -4.7470    -5.6330     0.3740 H     1 <1>   0.0800 
 30 H       -5.7970    -1.1120     1.3680 H     1 <1>   0.0800 
 31 H       -5.1620    -4.9060    -1.9910 H     1 <1>   0.0800 
 32 H       -3.9090    -3.9340    -1.2680 H     1 <1>   0.0800 
 33 H       -7.0520    -5.8220    -1.0480 H     1 <1>   0.0800 
 34 H       -7.4820    -5.5600     0.5850 H     1 <1>   0.0800 
 35 H       -6.7570    -2.4870     1.9560 H     1 <1>   0.0800 
 36 H       -6.8730    -3.8050     1.5500 H     1 <1>   0.0800 
 37 H       -7.8090    -1.2590    -0.5850 H     1 <1>   0.0800 
 38 H       -8.4600    -1.9210     0.8250 H     1 <1>   0.0800 
 39 H       -5.3800    -2.2140    -1.3960 H     1 <1>   0.0800 
 40 H       -8.9200    -3.8520    -1.0040 H     1 <1>   0.0800 
 41 H       -7.4240    -2.3920    -2.3710 H     1 <1>   0.0800 
 42 H       -7.0050    -4.0770    -2.6160 H     1 <1>   0.0800 
@<TRIPOS>BOND
  1   1   2  ar  
  2   2   3  ar  
  3   2   4  1   
  4   4   5  1   
  5   4  22  1   
  6   4  23  1   
  7   5   6  1   
  8   6   7  ar  
  9   6   8  ar  
 10   7   9  ar  
 11   7  24  1   
 12   8  10  ar  
 13   8  25  1   
 14   9  11  ar  
 15   9  26  1   
 16  10  11  ar  
 17  10  27  1   
 18  11  12  1   
 19  12  13  1   
 20  12  14  1   
 21  12  28  1   
 22  13  15  1   
 23  13  16  1   
 24  13  29  1   
 25  14  17  1   
 26  14  18  1   
 27  14  30  1   
 28  15  19  1   
 29  15  31  1   
 30  15  32  1   
 31  16  20  1   
 32  16  33  1   
 33  16  34  1   
 34  17  19  1   
 35  17  35  1   
 36  17  36  1   
 37  18  20  1   
 38  18  37  1   
 39  18  38  1   
 40  19  21  1   
 41  19  39  1   
 42  20  21  1   
 43  20  40  1   
 44  21  41  1   
 45  21  42  1   
@<TRIPOS>SUBSTRUCTURE
  1 ****  10 GROUP 4 **** **** 0

# MOE 2024.06 (io_trps.svl 2023.06)
