@<TRIPOS>MOLECULE
NONAME
49 51 1 0 0 
SMALL
USER_CHARGES


@<TRIPOS>ATOM
  1 F        0.7650    -0.0750    -1.4000 F     1 <1>  -0.1900 
  2 C        1.8820    -0.6850    -1.1200 C.ar  1 <1>   0.1900 
  3 C        2.1740    -0.9720     0.2000 C.ar  1 <1>  -0.1500 
  4 C        2.7360    -1.0250    -2.1510 C.ar  1 <1>  -0.1500 
  5 C        3.3640    -1.6180     0.4890 C.ar  1 <1>  -0.1500 
  6 C        3.9220    -1.6690    -1.8430 C.ar  1 <1>  -0.1500 
  7 C        4.2630    -1.9710    -0.5220 C.ar  1 <1>   0.0860 
  8 C        5.5130    -2.6410    -0.2180 C.2   1 <1>   0.5440 
  9 O        5.7260    -3.7320    -0.7120 O.2   1 <1>  -0.5700 
 10 N        6.4670    -2.0770     0.6080 N.am  1 <1>  -0.6600 
 11 C        7.6780    -2.8360     1.0280 C.3   1 <1>   0.1400 
 12 C        6.4680    -0.6430     1.0100 C.3   1 <1>   0.1400 
 13 C        8.9310    -2.1620     0.4630 C.3   1 <1>  -0.1600 
 14 C        7.7150     0.0470     0.4530 C.3   1 <1>  -0.1600 
 15 C        9.0100    -0.6800     0.8700 C.3   1 <1>  -0.0190 
 16 C       10.2630    -0.0220     0.2920 C.2   1 <1>   0.5690 
 17 O       10.2310     0.4850    -0.8030 O.2   1 <1>  -0.5700 
 18 N       11.4020    -0.0410     1.0340 N.am  1 <1>  -0.7300 
 19 C       12.6890     0.5560     0.6030 C.3   1 <1>   0.1400 
 20 C       13.5550    -0.5030    -0.0780 C.3   1 <1>  -0.0170 
 21 C       14.8860     0.0990    -0.4980 C.ar  1 <1>  -0.1430 
 22 C       14.9800     0.8080    -1.6850 C.ar  1 <1>  -0.1500 
 23 C       16.0110    -0.0490     0.2990 C.ar  1 <1>  -0.1500 
 24 C       16.1870     1.3650    -2.0730 C.ar  1 <1>  -0.1500 
 25 C       17.2190     0.5070    -0.0890 C.ar  1 <1>  -0.1500 
 26 C       17.3070     1.2140    -1.2750 C.ar  1 <1>  -0.1500 
 27 H        1.4810    -0.6990     0.9760 H     1 <1>   0.1500 
 28 H        2.4750    -0.7910    -3.1670 H     1 <1>   0.1500 
 29 H        3.6090    -1.8590     1.5090 H     1 <1>   0.1500 
 30 H        4.6020    -1.9520    -2.6290 H     1 <1>   0.1500 
 31 H        7.6320    -3.8560     0.6840 H     1 <1>   0.0800 
 32 H        7.7220    -2.8550     2.1040 H     1 <1>   0.0800 
 33 H        6.4620    -0.5800     2.0850 H     1 <1>   0.0800 
 34 H        5.5950    -0.1350     0.6400 H     1 <1>   0.0800 
 35 H        8.9120    -2.2430    -0.6110 H     1 <1>   0.0800 
 36 H        9.8030    -2.6850     0.8130 H     1 <1>   0.0800 
 37 H        7.7460     1.0650     0.7970 H     1 <1>   0.0800 
 38 H        7.6420     0.0710    -0.6220 H     1 <1>   0.0800 
 39 H        9.0810    -0.6290     1.9410 H     1 <1>   0.0800 
 40 H       11.4110    -0.5100     1.9390 H     1 <1>   0.3700 
 41 H       13.2030     0.9610     1.4580 H     1 <1>   0.0800 
 42 H       12.5010     1.3620    -0.0870 H     1 <1>   0.0800 
 43 H       13.0420    -0.8750    -0.9480 H     1 <1>   0.0800 
 44 H       13.7230    -1.3250     0.5940 H     1 <1>   0.0800 
 45 H       14.1130     0.9310    -2.3110 H     1 <1>   0.1500 
 46 H       15.9560    -0.5960     1.2230 H     1 <1>   0.1500 
 47 H       16.2530     1.9140    -2.9960 H     1 <1>   0.1500 
 48 H       18.0890     0.3890     0.5330 H     1 <1>   0.1500 
 49 H       18.2450     1.6460    -1.5760 H     1 <1>   0.1500 
@<TRIPOS>BOND
  1   1   2  1   
  2   2   3  ar  
  3   2   4  ar  
  4   3   5  ar  
  5   3  27  1   
  6   4   6  ar  
  7   4  28  1   
  8   5   7  ar  
  9   5  29  1   
 10   6   7  ar  
 11   6  30  1   
 12   7   8  1   
 13   8   9  2   
 14   8  10  am  
 15  10  11  1   
 16  10  12  1   
 17  11  13  1   
 18  11  31  1   
 19  11  32  1   
 20  12  14  1   
 21  12  33  1   
 22  12  34  1   
 23  13  15  1   
 24  13  35  1   
 25  13  36  1   
 26  14  15  1   
 27  14  37  1   
 28  14  38  1   
 29  15  16  1   
 30  15  39  1   
 31  16  17  2   
 32  16  18  am  
 33  18  19  1   
 34  18  40  1   
 35  19  20  1   
 36  19  41  1   
 37  19  42  1   
 38  20  21  1   
 39  20  43  1   
 40  20  44  1   
 41  21  22  ar  
 42  21  23  ar  
 43  22  24  ar  
 44  22  45  1   
 45  23  25  ar  
 46  23  46  1   
 47  24  26  ar  
 48  24  47  1   
 49  25  26  ar  
 50  25  48  1   
 51  26  49  1   
@<TRIPOS>SUBSTRUCTURE
  1 ****  15 GROUP 4 **** **** 0

# MOE 2024.06 (io_trps.svl 2023.06)
