@<TRIPOS>MOLECULE
NONAME
38 39 1 0 0 
SMALL
USER_CHARGES


@<TRIPOS>ATOM
  1 O        0.0290     0.6410    -1.4150 O.2   1 <1>  -0.5700 
  2 C        0.3420     1.6670    -0.8560 C.2   1 <1>   0.5690 
  3 N       -0.5050     2.5950    -0.3170 N.am  1 <1>  -0.4770 
  4 C        1.7800     2.0640    -0.6700 C.3   1 <1>  -0.0990 
  5 C       -1.9150     2.5820    -0.2660 C.ar  1 <1>   0.1170 
  6 C        0.2690     3.7140     0.2690 C.3   1 <1>   0.1400 
  7 C        1.7010     3.1900     0.3760 C.3   1 <1>  -0.1860 
  8 C       -2.6430     3.7660    -0.3480 C.ar  1 <1>  -0.1500 
  9 C       -2.6190     1.3900    -0.1220 C.ar  1 <1>  -0.1500 
 10 C        2.7170     4.2980     0.2070 C.2   1 <1>   0.9060 
 11 C       -4.0250     3.7570    -0.2840 C.ar  1 <1>  -0.1500 
 12 C       -4.0010     1.3730    -0.0600 C.ar  1 <1>  -0.1500 
 13 O        3.8230     4.0270    -0.2650 O.co2 1 <1>  -0.9000 
 14 O        2.4040     5.4400     0.5590 O.co2 1 <1>  -0.9000 
 15 C       -4.7140     2.5650    -0.1400 C.ar  1 <1>   0.0820 
 16 O       -6.0700     2.6450    -0.0870 O.3   1 <1>  -0.3630 
 17 C       -6.8600     1.4790     0.0020 C.3   1 <1>   0.1200 
 18 C       -8.3480     1.8650     0.0050 C.3   1 <1>  -0.0800 
 19 C       -9.2180     0.6160     0.1900 C.3   1 <1>  -0.2400 
 20 C       -8.7510     2.5890    -1.2880 C.3   1 <1>  -0.2400 
 21 H        2.1660     2.4310    -1.6040 H     1 <1>   0.0800 
 22 H        2.3800     1.2430    -0.3250 H     1 <1>   0.0800 
 23 H       -0.1140     3.9950     1.2350 H     1 <1>   0.0800 
 24 H        0.2270     4.5600    -0.3960 H     1 <1>   0.0800 
 25 H        1.8400     2.7750     1.3560 H     1 <1>   0.0800 
 26 H       -2.1300     4.7020    -0.4680 H     1 <1>   0.1500 
 27 H       -2.0750     0.4650    -0.0580 H     1 <1>   0.1500 
 28 H       -4.5780     4.6770    -0.3480 H     1 <1>   0.1500 
 29 H       -4.4960     0.4280     0.0500 H     1 <1>   0.1500 
 30 H       -6.6040     0.9710     0.9150 H     1 <1>   0.0800 
 31 H       -6.6350     0.8520    -0.8440 H     1 <1>   0.0800 
 32 H       -8.5200     2.5220     0.8410 H     1 <1>   0.0800 
 33 H       -9.0750    -0.0710    -0.6260 H     1 <1>   0.0800 
 34 H      -10.2580     0.8890     0.2290 H     1 <1>   0.0800 
 35 H       -8.9670     0.1180     1.1100 H     1 <1>   0.0800 
 36 H       -8.5700     1.9650    -2.1450 H     1 <1>   0.0800 
 37 H       -8.1820     3.4960    -1.4010 H     1 <1>   0.0800 
 38 H       -9.7940     2.8500    -1.2630 H     1 <1>   0.0800 
@<TRIPOS>BOND
  1   1   2  2   
  2   2   3  am  
  3   2   4  1   
  4   3   5  1   
  5   3   6  1   
  6   4   7  1   
  7   4  21  1   
  8   4  22  1   
  9   5   8  ar  
 10   5   9  ar  
 11   6   7  1   
 12   6  23  1   
 13   6  24  1   
 14   7  10  1   
 15   7  25  1   
 16   8  11  ar  
 17   8  26  1   
 18   9  12  ar  
 19   9  27  1   
 20  10  13  ar  
 21  10  14  ar  
 22  11  15  ar  
 23  11  28  1   
 24  12  15  ar  
 25  12  29  1   
 26  15  16  1   
 27  16  17  1   
 28  17  18  1   
 29  17  30  1   
 30  17  31  1   
 31  18  19  1   
 32  18  20  1   
 33  18  32  1   
 34  19  33  1   
 35  19  34  1   
 36  19  35  1   
 37  20  36  1   
 38  20  37  1   
 39  20  38  1   
@<TRIPOS>SUBSTRUCTURE
  1 ****   5 GROUP 4 **** **** 0

# MOE 2024.06 (io_trps.svl 2023.06)
