@<TRIPOS>MOLECULE
NONAME
43 45 1 0 0 
SMALL
USER_CHARGES


@<TRIPOS>ATOM
  1 S        0.2360    -0.4130    -1.4590 S.o2  1 <1>   1.4470 
  2 O        0.7530    -0.9430    -2.7030 O.2   1 <1>  -0.6500 
  3 O        0.0840     1.0210    -1.3290 O.2   1 <1>  -0.6500 
  4 N        1.3260    -0.8970    -0.2550 N.am  1 <1>  -0.8490 
  5 C       -1.3140    -1.2620    -1.0110 C.ar  1 <1>  -0.0090 
  6 C        1.6430    -2.3390    -0.3300 C.3   1 <1>   0.1960 
  7 C        2.5740    -0.1100    -0.3230 C.3   1 <1>   0.1960 
  8 C       -2.0230    -1.0040     0.1660 C.ar  1 <1>  -0.1440 
  9 C       -1.8210    -2.2340    -1.8690 C.ar  1 <1>  -0.1500 
 10 C        2.5950    -2.7760     0.7980 C.3   1 <1>   0.2090 
 11 C        3.5760    -0.4940     0.7840 C.3   1 <1>   0.2090 
 12 C       -3.1870    -1.7040     0.4500 C.ar  1 <1>  -0.1500 
 13 C       -1.5560     0.0440     1.1690 C.3   1 <1>  -0.0960 
 14 C       -2.9800    -2.9300    -1.5820 C.ar  1 <1>  -0.1500 
 15 N        3.8510    -1.9650     0.7660 N.pl3 1 <1>  -0.8380 
 16 C       -3.6720    -2.6660    -0.4170 C.ar  1 <1>  -0.1440 
 17 C        5.0600    -2.4750     0.3410 C.ar  1 <1>   0.7200 
 18 C       -4.9480    -3.4210    -0.0870 C.3   1 <1>  -0.0970 
 19 N        6.1290    -1.6950     0.4890 N.ar  1 <1>  -0.6200 
 20 N        5.0550    -3.7000    -0.1850 N.ar  1 <1>  -0.6200 
 21 C        7.2740    -2.1910     0.0870 C.ar  1 <1>   0.1600 
 22 C        6.2130    -4.1690    -0.5810 C.ar  1 <1>   0.1600 
 23 C        7.3730    -3.4440    -0.4640 C.ar  1 <1>  -0.1500 
 24 H        2.1050    -2.5710    -1.2760 H     1 <1>   0.0800 
 25 H        0.7360    -2.9130    -0.2520 H     1 <1>   0.0800 
 26 H        2.3450     0.9370    -0.2240 H     1 <1>   0.0800 
 27 H        3.0450    -0.2550    -1.2820 H     1 <1>   0.0800 
 28 H       -1.2990    -2.4540    -2.7860 H     1 <1>   0.1500 
 29 H        2.8030    -3.8270     0.7070 H     1 <1>   0.0800 
 30 H        2.1080    -2.6280     1.7460 H     1 <1>   0.0800 
 31 H        3.1630    -0.2270     1.7410 H     1 <1>   0.0800 
 32 H        4.4770     0.0760     0.6500 H     1 <1>   0.0800 
 33 H       -3.7290    -1.5000     1.3580 H     1 <1>   0.1500 
 34 H       -1.5470     1.0180     0.7130 H     1 <1>   0.0800 
 35 H       -0.5670    -0.1860     1.5230 H     1 <1>   0.0800 
 36 H       -2.2090     0.0840     2.0220 H     1 <1>   0.0800 
 37 H       -3.3400    -3.6740    -2.2710 H     1 <1>   0.1500 
 38 H       -5.6550    -2.7670     0.3920 H     1 <1>   0.0800 
 39 H       -4.7270    -4.2390     0.5740 H     1 <1>   0.0800 
 40 H       -5.4000    -3.8110    -0.9810 H     1 <1>   0.0800 
 41 H        8.1550    -1.5820     0.2010 H     1 <1>   0.1500 
 42 H        6.2370    -5.1570    -1.0080 H     1 <1>   0.1500 
 43 H        8.3160    -3.8400    -0.7900 H     1 <1>   0.1500 
@<TRIPOS>BOND
  1   1   2  2   
  2   1   3  2   
  3   1   4  am  
  4   1   5  1   
  5   4   6  1   
  6   4   7  1   
  7   5   8  ar  
  8   5   9  ar  
  9   6  10  1   
 10   6  24  1   
 11   6  25  1   
 12   7  11  1   
 13   7  26  1   
 14   7  27  1   
 15   8  12  ar  
 16   8  13  1   
 17   9  14  ar  
 18   9  28  1   
 19  10  15  1   
 20  10  29  1   
 21  10  30  1   
 22  11  15  1   
 23  11  31  1   
 24  11  32  1   
 25  12  16  ar  
 26  12  33  1   
 27  13  34  1   
 28  13  35  1   
 29  13  36  1   
 30  14  16  ar  
 31  14  37  1   
 32  15  17  1   
 33  16  18  1   
 34  17  19  ar  
 35  17  20  ar  
 36  18  38  1   
 37  18  39  1   
 38  18  40  1   
 39  19  21  ar  
 40  20  22  ar  
 41  21  23  ar  
 42  21  41  1   
 43  22  23  ar  
 44  22  42  1   
 45  23  43  1   
@<TRIPOS>SUBSTRUCTURE
  1 ****   6 GROUP 4 **** **** 0

# MOE 2024.06 (io_trps.svl 2023.06)
