@<TRIPOS>MOLECULE
NONAME
50 53 1 0 0 
SMALL
USER_CHARGES


@<TRIPOS>ATOM
  1 O      -10.2030     2.0130     0.9650 O.2   1 <1>  -0.5700 
  2 C      -11.0200     1.8580     0.0870 C.2   1 <1>   0.5690 
  3 N      -10.7130     2.2410    -1.1830 N.am  1 <1>  -0.7300 
  4 C      -12.3860     1.2000     0.3750 C.3   1 <1>   0.0610 
  5 C       -9.5480     3.0890    -1.5740 C.3   1 <1>   0.1400 
  6 C      -12.5330    -0.1110    -0.4410 C.3   1 <1>  -0.1600 
  7 C      -13.5410     2.1570    -0.0170 C.3   1 <1>  -0.1600 
  8 C      -12.5450     0.8480     1.8780 C.3   1 <1>  -0.1600 
  9 C       -8.2520     2.2680    -1.7460 C.3   1 <1>   0.3430 
 10 C      -13.9000    -0.7710    -0.1790 C.3   1 <1>  -0.0800 
 11 C      -14.9100     1.5030     0.2470 C.3   1 <1>  -0.0800 
 12 C      -13.9100     0.1900     2.1530 C.3   1 <1>  -0.0800 
 13 N       -7.8750     1.5460    -0.4950 N.4   1 <1>  -0.9590 
 14 C      -15.0200     0.2080    -0.5780 C.3   1 <1>  -0.1600 
 15 C      -14.0250    -1.0990     1.3200 C.3   1 <1>  -0.1600 
 16 C      -15.0300     1.1630     1.7430 C.3   1 <1>  -0.1600 
 17 C       -7.2140     2.3940     0.5470 C.3   1 <1>   0.3430 
 18 C       -7.1280     0.2650    -0.7320 C.3   1 <1>   0.3430 
 19 C       -7.0390     1.6060     1.8680 C.3   1 <1>   0.1200 
 20 C       -6.4240    -0.2550     0.5410 C.3   1 <1>   0.1200 
 21 O       -7.0770     0.2120     1.6850 O.3   1 <1>  -0.5600 
 22 H      -11.4420     2.1250    -1.8940 H     1 <1>   0.3700 
 23 H       -9.3960     3.8510    -0.8280 H     1 <1>   0.0800 
 24 H       -9.7760     3.5850    -2.5020 H     1 <1>   0.0800 
 25 H      -11.7490    -0.7960    -0.1680 H     1 <1>   0.0800 
 26 H      -12.4400     0.0900    -1.4930 H     1 <1>   0.0800 
 27 H      -13.4750     2.4190    -1.0570 H     1 <1>   0.0800 
 28 H      -13.4630     3.0670     0.5530 H     1 <1>   0.0800 
 29 H      -12.4530     1.7400     2.4730 H     1 <1>   0.0800 
 30 H      -11.7590     0.1770     2.1820 H     1 <1>   0.0800 
 31 H       -7.4480     2.9190    -2.0480 H     1 <1>   0.0800 
 32 H       -8.4140     1.5560    -2.5380 H     1 <1>   0.0800 
 33 H      -13.9860    -1.6760    -0.7550 H     1 <1>   0.0800 
 34 H      -15.6990     2.1810    -0.0340 H     1 <1>   0.0800 
 35 H      -13.9970    -0.0440     3.2000 H     1 <1>   0.0800 
 36 H       -8.7700     1.2880    -0.0230 H     1 <1>   0.4500 
 37 H      -15.9790    -0.2500    -0.4070 H     1 <1>   0.0800 
 38 H      -14.9530     0.4340    -1.6280 H     1 <1>   0.0800 
 39 H      -13.2540    -1.7910     1.6100 H     1 <1>   0.0800 
 40 H      -14.9740    -1.5710     1.5110 H     1 <1>   0.0800 
 41 H      -15.9890     0.7160     1.9390 H     1 <1>   0.0800 
 42 H      -14.9640     2.0630     2.3300 H     1 <1>   0.0800 
 43 H       -7.8060     3.2720     0.7450 H     1 <1>   0.0800 
 44 H       -6.2470     2.7150     0.1980 H     1 <1>   0.0800 
 45 H       -6.3860     0.4020    -1.5010 H     1 <1>   0.0800 
 46 H       -7.8170    -0.4890    -1.0770 H     1 <1>   0.0800 
 47 H       -7.8370     1.8560     2.5460 H     1 <1>   0.0800 
 48 H       -6.1060     1.8640     2.3390 H     1 <1>   0.0800 
 49 H       -5.3990     0.0720     0.5760 H     1 <1>   0.0800 
 50 H       -6.4380    -1.3310     0.5630 H     1 <1>   0.0800 
@<TRIPOS>BOND
  1   1   2  2   
  2   2   3  am  
  3   2   4  1   
  4   3   5  1   
  5   3  22  1   
  6   4   6  1   
  7   4   7  1   
  8   4   8  1   
  9   5   9  1   
 10   5  23  1   
 11   5  24  1   
 12   6  10  1   
 13   6  25  1   
 14   6  26  1   
 15   7  11  1   
 16   7  27  1   
 17   7  28  1   
 18   8  12  1   
 19   8  29  1   
 20   8  30  1   
 21   9  13  1   
 22   9  31  1   
 23   9  32  1   
 24  10  14  1   
 25  10  15  1   
 26  10  33  1   
 27  11  14  1   
 28  11  16  1   
 29  11  34  1   
 30  12  15  1   
 31  12  16  1   
 32  12  35  1   
 33  13  17  1   
 34  13  18  1   
 35  13  36  1   
 36  14  37  1   
 37  14  38  1   
 38  15  39  1   
 39  15  40  1   
 40  16  41  1   
 41  16  42  1   
 42  17  19  1   
 43  17  43  1   
 44  17  44  1   
 45  18  20  1   
 46  18  45  1   
 47  18  46  1   
 48  19  21  1   
 49  19  47  1   
 50  19  48  1   
 51  20  21  1   
 52  20  49  1   
 53  20  50  1   
@<TRIPOS>SUBSTRUCTURE
  1 ****   2 GROUP 4 **** **** 0

# MOE 2024.06 (io_trps.svl 2023.06)
