@<TRIPOS>MOLECULE
Structure1897
41 42 1 0 0 
SMALL
USER_CHARGES


@<TRIPOS>ATOM
  1 BR       1.3380     0.7230    -0.1440 Br    1 <1>  -0.1110 
  2 C        1.4420    -1.1630     0.2450 C.ar  1 <1>   0.1110 
  3 C        2.5600    -1.8620    -0.1370 C.ar  1 <1>  -0.1500 
  4 C        0.3620    -1.7520     0.9090 C.ar  1 <1>  -0.1500 
  5 C        2.6100    -3.2280     0.1590 C.ar  1 <1>   0.0000 
  6 C        0.4090    -3.0970     1.2000 C.ar  1 <1>  -0.1500 
  7 C        1.5400    -3.8290     0.8200 C.ar  1 <1>  -0.1520 
  8 C        3.5680    -4.2420    -0.0690 C.2   1 <1>  -0.1810 
  9 N        1.8370    -5.1590     0.9840 N.pl3 1 <1>   0.0330 
 10 C        3.0660    -5.3910     0.4430 C.2   1 <1>  -0.3020 
 11 C        4.8950    -3.9950    -0.7750 C.3   1 <1>   0.0210 
 12 C        5.8990    -5.1560    -0.7040 C.3   1 <1>   0.1140 
 13 N        7.2560    -4.6140    -1.0580 N.am  1 <1>  -0.7300 
 14 C        5.5130    -6.3130    -1.6450 C.2   1 <1>   0.9060 
 15 C        8.2380    -4.2730    -0.2040 C.2   1 <1>   0.7800 
 16 O        5.0430    -7.3630    -1.1870 O.co2 1 <1>  -0.9000 
 17 O        5.7590    -6.1820    -2.8560 O.co2 1 <1>  -0.9000 
 18 O        8.0470    -4.1110     0.9850 O.2   1 <1>  -0.5700 
 19 O        9.4410    -4.1100    -0.7520 O.3   1 <1>  -0.4300 
 20 C       10.6390    -3.7700    -0.0910 C.3   1 <1>   0.2800 
 21 C       10.5190    -2.3800     0.5450 C.3   1 <1>  -0.2400 
 22 C       11.7030    -3.7320    -1.1890 C.3   1 <1>  -0.2400 
 23 C       11.0060    -4.8530     0.9310 C.3   1 <1>  -0.2400 
 24 H        3.3770    -1.3900    -0.6460 H     1 <1>   0.1500 
 25 H       -0.4840    -1.1480     1.1810 H     1 <1>   0.1500 
 26 H       -0.4030    -3.5860     1.7080 H     1 <1>   0.1500 
 27 H        1.2330    -5.8630     1.4170 H     1 <1>   0.2700 
 28 H        3.5090    -6.3740     0.4480 H     1 <1>   0.1500 
 29 H        5.3450    -3.1360    -0.3140 H     1 <1>   0.0800 
 30 H        4.7030    -3.7630    -1.8080 H     1 <1>   0.0800 
 31 H        5.9290    -5.5390     0.3000 H     1 <1>   0.0800 
 32 H        7.5080    -4.8670    -2.0200 H     1 <1>   0.3700 
 33 H       11.4740    -2.0670     0.9250 H     1 <1>   0.0800 
 34 H        9.8280    -2.3890     1.3670 H     1 <1>   0.0800 
 35 H       10.1890    -1.6640    -0.1860 H     1 <1>   0.0800 
 36 H       11.4470    -2.9960    -1.9290 H     1 <1>   0.0800 
 37 H       11.7800    -4.6940    -1.6640 H     1 <1>   0.0800 
 38 H       12.6610    -3.4800    -0.7740 H     1 <1>   0.0800 
 39 H       11.0060    -5.8210     0.4640 H     1 <1>   0.0800 
 40 H       10.3150    -4.8590     1.7530 H     1 <1>   0.0800 
 41 H       11.9860    -4.6650     1.3300 H     1 <1>   0.0800 
@<TRIPOS>BOND
  1   1   2  1   
  2   2   3  ar  
  3   2   4  ar  
  4   3   5  ar  
  5   3  24  1   
  6   4   6  ar  
  7   4  25  1   
  8   5   7  ar  
  9   5   8  1   
 10   6   7  ar  
 11   6  26  1   
 12   7   9  1   
 13   8  10  2   
 14   8  11  1   
 15   9  10  1   
 16   9  27  1   
 17  10  28  1   
 18  11  12  1   
 19  11  29  1   
 20  11  30  1   
 21  12  13  1   
 22  12  14  1   
 23  12  31  1   
 24  13  15  am  
 25  13  32  1   
 26  14  16  ar  
 27  14  17  ar  
 28  15  18  2   
 29  15  19  1   
 30  19  20  1   
 31  20  21  1   
 32  20  22  1   
 33  20  23  1   
 34  21  33  1   
 35  21  34  1   
 36  21  35  1   
 37  22  36  1   
 38  22  37  1   
 39  22  38  1   
 40  23  39  1   
 41  23  40  1   
 42  23  41  1   
@<TRIPOS>SUBSTRUCTURE
  1 ****  11 GROUP 4 **** **** 0

# MOE 2024.06 (io_trps.svl 2023.06)
