@<TRIPOS>MOLECULE
NONAME
33 34 1 0 0 
SMALL
USER_CHARGES


@<TRIPOS>ATOM
  1 S       -0.7860    -0.4680    -1.1160 S.o2  1 <1>   1.2040 
  2 O       -1.3140     0.2500    -2.2640 O.2   1 <1>  -0.6500 
  3 O       -0.5700    -1.8950    -1.2870 O.2   1 <1>  -0.6500 
  4 C        0.8090     0.2750    -0.7000 C.ar  1 <1>  -0.0090 
  5 C       -1.7530    -0.0930     0.4420 C.3   1 <1>   1.1250 
  6 C        1.0860     1.6030    -1.0080 C.ar  1 <1>  -0.1500 
  7 C        1.7880    -0.4530    -0.0310 C.ar  1 <1>  -0.1500 
  8 F       -1.2250    -0.6230     1.5480 F     1 <1>  -0.3400 
  9 F       -3.0120    -0.5320     0.4290 F     1 <1>  -0.3400 
 10 F       -1.8550     1.2090     0.7150 F     1 <1>  -0.3400 
 11 C        2.2900     2.1840    -0.6530 C.ar  1 <1>  -0.1500 
 12 C        2.9910     0.1270     0.3260 C.ar  1 <1>  -0.1500 
 13 C        3.2570     1.4540     0.0250 C.ar  1 <1>   0.1000 
 14 N        4.4720     2.0130     0.3920 N.pl3 1 <1>  -0.8380 
 15 C        4.4620     3.2560     1.2210 C.3   1 <1>   0.2090 
 16 C        5.5880     1.8490    -0.5830 C.3   1 <1>   0.2090 
 17 C        5.1370     4.4100     0.4710 C.3   1 <1>  -0.1600 
 18 C        6.8390     2.5850    -0.0960 C.3   1 <1>  -0.1600 
 19 C        6.5960     4.0930     0.0960 C.3   1 <1>  -0.1600 
 20 H        0.3570     2.1950    -1.5370 H     1 <1>   0.1500 
 21 H        1.6150    -1.4880     0.2150 H     1 <1>   0.1500 
 22 H        2.4920     3.2090    -0.9030 H     1 <1>   0.1500 
 23 H        3.7420    -0.4400     0.8450 H     1 <1>   0.1500 
 24 H        4.9910     3.0620     2.1390 H     1 <1>   0.0800 
 25 H        3.4500     3.5210     1.4730 H     1 <1>   0.0800 
 26 H        5.2830     2.2380    -1.5400 H     1 <1>   0.0800 
 27 H        5.8020     0.8000    -0.6970 H     1 <1>   0.0800 
 28 H        5.1040     5.3000     1.0740 H     1 <1>   0.0800 
 29 H        4.5700     4.6030    -0.4220 H     1 <1>   0.0800 
 30 H        7.6420     2.4340    -0.7960 H     1 <1>   0.0800 
 31 H        7.1390     2.1450     0.8390 H     1 <1>   0.0800 
 32 H        7.2550     4.4510     0.8680 H     1 <1>   0.0800 
 33 H        6.8400     4.6190    -0.8110 H     1 <1>   0.0800 
@<TRIPOS>BOND
  1   1   2  2   
  2   1   3  2   
  3   1   4  1   
  4   1   5  1   
  5   4   6  ar  
  6   4   7  ar  
  7   5   8  1   
  8   5   9  1   
  9   5  10  1   
 10   6  11  ar  
 11   6  20  1   
 12   7  12  ar  
 13   7  21  1   
 14  11  13  ar  
 15  11  22  1   
 16  12  13  ar  
 17  12  23  1   
 18  13  14  1   
 19  14  15  1   
 20  14  16  1   
 21  15  17  1   
 22  15  24  1   
 23  15  25  1   
 24  16  18  1   
 25  16  26  1   
 26  16  27  1   
 27  17  19  1   
 28  17  28  1   
 29  17  29  1   
 30  18  19  1   
 31  18  30  1   
 32  18  31  1   
 33  19  32  1   
 34  19  33  1   
@<TRIPOS>SUBSTRUCTURE
  1 ****   6 GROUP 4 **** **** 0

# MOE 2024.06 (io_trps.svl 2023.06)
