@<TRIPOS>MOLECULE
NONAME
37 38 1 0 0 
SMALL
USER_CHARGES


@<TRIPOS>ATOM
  1 O        0.1950     0.0720    -0.7540 O.2   1 <1>  -0.5700 
  2 C        0.6220     1.1670    -0.4440 C.2   1 <1>   0.6900 
  3 N        1.9690     1.3620    -0.2960 N.am  1 <1>  -0.6600 
  4 N       -0.2160     2.2320    -0.2580 N.am  1 <1>  -0.5470 
  5 C        2.9410     0.2570    -0.4510 C.3   1 <1>   0.1400 
  6 C        2.6240     2.5700     0.2540 C.3   1 <1>   0.1400 
  7 C       -1.6090     2.3320    -0.2350 C.ar  1 <1>   0.1170 
  8 C        4.1870     0.7270     0.2900 C.3   1 <1>  -0.1600 
  9 C        4.1150     2.2510     0.2350 C.3   1 <1>  -0.1600 
 10 C       -2.1990     3.5730    -0.4420 C.ar  1 <1>  -0.1500 
 11 C       -2.4510     1.2490     0.0030 C.ar  1 <1>  -0.1500 
 12 C       -3.5720     3.7240    -0.4180 C.ar  1 <1>  -0.1500 
 13 C       -3.8230     1.4020     0.0250 C.ar  1 <1>  -0.1500 
 14 C       -4.4290     2.6450    -0.1850 C.ar  1 <1>   0.0860 
 15 C       -5.8670     2.8220    -0.1640 C.2   1 <1>   0.6340 
 16 O       -6.4090     3.8950    -0.3420 O.2   1 <1>  -0.5700 
 17 O       -6.6320     1.7480     0.0630 O.3   1 <1>  -0.4300 
 18 C       -8.0390     1.8370     0.0970 C.3   1 <1>   0.1200 
 19 C       -8.5940     0.4440     0.3760 C.3   1 <1>  -0.2400 
 20 H        0.2900     3.1070    -0.1980 H     1 <1>   0.3700 
 21 H        3.1480     0.1200    -1.4980 H     1 <1>   0.0800 
 22 H        2.5550    -0.6600    -0.0370 H     1 <1>   0.0800 
 23 H        2.2880     2.7240     1.2660 H     1 <1>   0.0800 
 24 H        2.4060     3.4370    -0.3460 H     1 <1>   0.0800 
 25 H        5.0860     0.3400    -0.1560 H     1 <1>   0.0800 
 26 H        4.1310     0.3940     1.3110 H     1 <1>   0.0800 
 27 H        4.6350     2.7150     1.0540 H     1 <1>   0.0800 
 28 H        4.5360     2.6010    -0.6920 H     1 <1>   0.0800 
 29 H       -1.5780     4.4300    -0.6280 H     1 <1>   0.1500 
 30 H       -2.0300     0.2750     0.1750 H     1 <1>   0.1500 
 31 H       -3.9990     4.6990    -0.5840 H     1 <1>   0.1500 
 32 H       -4.4380     0.5380     0.2090 H     1 <1>   0.1500 
 33 H       -8.3800     2.2070    -0.8550 H     1 <1>   0.0800 
 34 H       -8.3180     2.5280     0.8750 H     1 <1>   0.0800 
 35 H       -8.2980    -0.2350    -0.4040 H     1 <1>   0.0800 
 36 H       -9.6680     0.4820     0.4080 H     1 <1>   0.0800 
 37 H       -8.2350     0.0850     1.3230 H     1 <1>   0.0800 
@<TRIPOS>BOND
  1   1   2  2   
  2   2   3  am  
  3   2   4  am  
  4   3   5  1   
  5   3   6  1   
  6   4   7  1   
  7   4  20  1   
  8   5   8  1   
  9   5  21  1   
 10   5  22  1   
 11   6   9  1   
 12   6  23  1   
 13   6  24  1   
 14   7  10  ar  
 15   7  11  ar  
 16   8   9  1   
 17   8  25  1   
 18   8  26  1   
 19   9  27  1   
 20   9  28  1   
 21  10  12  ar  
 22  10  29  1   
 23  11  13  ar  
 24  11  30  1   
 25  12  14  ar  
 26  12  31  1   
 27  13  14  ar  
 28  13  32  1   
 29  14  15  1   
 30  15  16  2   
 31  15  17  1   
 32  17  18  1   
 33  18  19  1   
 34  18  33  1   
 35  18  34  1   
 36  19  35  1   
 37  19  36  1   
 38  19  37  1   
@<TRIPOS>SUBSTRUCTURE
  1 ****   7 GROUP 4 **** **** 0

# MOE 2024.06 (io_trps.svl 2023.06)
