@<TRIPOS>MOLECULE
NONAME
39 40 1 0 0 
SMALL
USER_CHARGES


@<TRIPOS>ATOM
  1 CL       0.8950     0.0810     1.1020 Cl    1 <1>  -0.1770 
  2 C        0.5730    -1.6350     1.0660 C.ar  1 <1>   0.1770 
  3 C        1.6260    -2.5200     0.9340 C.ar  1 <1>  -0.1500 
  4 C       -0.7290    -2.0810     1.1720 C.ar  1 <1>  -0.1500 
  5 C        1.3810    -3.8850     0.9070 C.ar  1 <1>  -0.1440 
  6 C       -0.9840    -3.4410     1.1410 C.ar  1 <1>  -0.1500 
  7 C        0.0680    -4.3480     1.0030 C.ar  1 <1>   0.0830 
  8 C        2.5590    -4.8420     0.7640 C.3   1 <1>   0.1220 
  9 O       -0.1310    -5.6920     0.9530 O.3   1 <1>  -0.3620 
 10 C        2.7800    -5.1900    -0.6990 C.2   1 <1>  -0.2880 
 11 C       -1.4110    -6.2470     0.7810 C.3   1 <1>   0.1200 
 12 C        3.9180    -5.0000    -1.3740 C.2   1 <1>  -0.3000 
 13 C       -1.2280    -7.7560     0.5940 C.3   1 <1>   0.3430 
 14 N       -2.5250    -8.4770     0.3800 N.4   1 <1>  -0.9590 
 15 C       -2.3470    -9.9500     0.3510 C.3   1 <1>   0.3430 
 16 C       -3.2130    -8.1350    -0.8930 C.3   1 <1>   0.3430 
 17 C       -3.6090   -10.4710    -0.3210 C.3   1 <1>  -0.1600 
 18 C       -4.1660    -9.2980    -1.1330 C.3   1 <1>  -0.1600 
 19 H        2.6260    -2.1340     0.8510 H     1 <1>   0.1500 
 20 H       -1.5270    -1.3680     1.2780 H     1 <1>   0.1500 
 21 H       -2.0030    -3.7640     1.2300 H     1 <1>   0.1500 
 22 H        2.3800    -5.7410     1.3250 H     1 <1>   0.0800 
 23 H        3.4470    -4.3890     1.1680 H     1 <1>   0.0800 
 24 H        1.9030    -5.6150    -1.1550 H     1 <1>   0.1500 
 25 H       -1.8520    -5.7970    -0.0910 H     1 <1>   0.0800 
 26 H       -1.9890    -6.0350     1.6630 H     1 <1>   0.0800 
 27 H        4.0490    -5.2520    -2.4120 H     1 <1>   0.1500 
 28 H        4.8120    -4.5760    -0.9510 H     1 <1>   0.1500 
 29 H       -0.7440    -8.1470     1.4730 H     1 <1>   0.0800 
 30 H       -0.5800    -7.9240    -0.2520 H     1 <1>   0.0800 
 31 H       -3.1720    -8.2700     1.1540 H     1 <1>   0.4500 
 32 H       -2.2220   -10.3600     1.3420 H     1 <1>   0.0800 
 33 H       -1.4890   -10.2040    -0.2520 H     1 <1>   0.0800 
 34 H       -2.4940    -8.0900    -1.6960 H     1 <1>   0.0800 
 35 H       -3.7390    -7.1960    -0.8280 H     1 <1>   0.0800 
 36 H       -4.3200   -10.7820     0.4260 H     1 <1>   0.0800 
 37 H       -3.3800   -11.3180    -0.9460 H     1 <1>   0.0800 
 38 H       -4.2180    -9.5280    -2.1840 H     1 <1>   0.0800 
 39 H       -5.1530    -9.0390    -0.7920 H     1 <1>   0.0800 
@<TRIPOS>BOND
  1   1   2  1   
  2   2   3  ar  
  3   2   4  ar  
  4   3   5  ar  
  5   3  19  1   
  6   4   6  ar  
  7   4  20  1   
  8   5   7  ar  
  9   5   8  1   
 10   6   7  ar  
 11   6  21  1   
 12   7   9  1   
 13   8  10  1   
 14   8  22  1   
 15   8  23  1   
 16   9  11  1   
 17  10  12  2   
 18  10  24  1   
 19  11  13  1   
 20  11  25  1   
 21  11  26  1   
 22  12  27  1   
 23  12  28  1   
 24  13  14  1   
 25  13  29  1   
 26  13  30  1   
 27  14  15  1   
 28  14  16  1   
 29  14  31  1   
 30  15  17  1   
 31  15  32  1   
 32  15  33  1   
 33  16  18  1   
 34  16  34  1   
 35  16  35  1   
 36  17  18  1   
 37  17  36  1   
 38  17  37  1   
 39  18  38  1   
 40  18  39  1   
@<TRIPOS>SUBSTRUCTURE
  1 ****   9 GROUP 4 **** **** 0

# MOE 2024.06 (io_trps.svl 2023.06)
