@<TRIPOS>MOLECULE
NONAME
52 53 1 0 0 
SMALL
USER_CHARGES


@<TRIPOS>ATOM
  1 O        0.5430     0.5530    -0.7910 O.2   1 <1>  -0.5700 
  2 C        0.4660     1.6690    -0.3470 C.2   1 <1>   0.6590 
  3 O       -0.6170     2.1200     0.2650 O.3   1 <1>  -0.4300 
  4 C        1.6150     2.6550    -0.4700 C.3   1 <1>  -0.0190 
  5 C       -1.7570     1.3090     0.4460 C.3   1 <1>   0.1200 
  6 C        2.6840     2.0790    -1.4180 C.3   1 <1>   0.3430 
  7 C        2.2150     3.0290     0.9010 C.3   1 <1>  -0.1600 
  8 C       -2.8070     2.1300     1.1870 C.3   1 <1>  -0.2400 
  9 N        4.0640     2.5660    -1.0960 N.4   1 <1>  -0.9590 
 10 C        3.3670     4.0430     0.7470 C.3   1 <1>  -0.1600 
 11 C        4.1060     3.9660    -0.5960 C.3   1 <1>   0.3430 
 12 C        5.0350     2.2930    -2.1850 C.3   1 <1>   0.4860 
 13 C        6.4370     2.4960    -1.6390 C.ar  1 <1>  -0.1430 
 14 C        6.8910     1.7280    -0.5670 C.ar  1 <1>   0.0830 
 15 C        7.2560     3.4540    -2.2140 C.ar  1 <1>  -0.1500 
 16 O        5.9960     0.8100    -0.0830 O.3   1 <1>  -0.3630 
 17 C        8.1820     1.9440    -0.0570 C.ar  1 <1>   0.0830 
 18 C        8.5230     3.6720    -1.7110 C.ar  1 <1>  -0.1500 
 19 C        6.4090    -0.3960     0.5310 C.3   1 <1>   0.0400 
 20 O        8.6430     1.2170     1.0010 O.3   1 <1>  -0.3630 
 21 C        8.9800     2.9420    -0.6290 C.ar  1 <1>   0.0830 
 22 C        9.7930     0.4210     0.7870 C.3   1 <1>   0.0400 
 23 O       10.2150     3.2520    -0.1660 O.3   1 <1>  -0.3630 
 24 C       10.2660     3.9380     1.0670 C.3   1 <1>   0.0400 
 25 H        1.2120     3.5430    -0.9210 H     1 <1>   0.0800 
 26 H       -1.4730     0.4400     1.0160 H     1 <1>   0.0800 
 27 H       -2.1170     1.0030    -0.5220 H     1 <1>   0.0800 
 28 H        2.4220     2.3400    -2.4300 H     1 <1>   0.0800 
 29 H        2.6810     1.0020    -1.3480 H     1 <1>   0.0800 
 30 H        2.5870     2.1350     1.3750 H     1 <1>   0.0800 
 31 H        1.4540     3.4400     1.5450 H     1 <1>   0.0800 
 32 H       -2.4320     2.4350     2.1470 H     1 <1>   0.0800 
 33 H       -3.6890     1.5340     1.3390 H     1 <1>   0.0800 
 34 H       -3.0770     2.9970     0.6120 H     1 <1>   0.0800 
 35 H        4.4290     1.9830    -0.3200 H     1 <1>   0.4500 
 36 H        4.0740     3.8990     1.5470 H     1 <1>   0.0800 
 37 H        2.9820     5.0430     0.8530 H     1 <1>   0.0800 
 38 H        3.6300     4.6160    -1.3120 H     1 <1>   0.0800 
 39 H        5.1260     4.2940    -0.4640 H     1 <1>   0.0800 
 40 H        4.8570     2.9490    -3.0200 H     1 <1>   0.0800 
 41 H        4.9360     1.2720    -2.5170 H     1 <1>   0.0800 
 42 H        6.9250     4.0410    -3.0550 H     1 <1>   0.1500 
 43 H        9.1680     4.4160    -2.1490 H     1 <1>   0.1500 
 44 H        5.5750    -1.0740     0.5420 H     1 <1>   0.0800 
 45 H        6.7160    -0.1890     1.5410 H     1 <1>   0.0800 
 46 H        7.2190    -0.8220    -0.0350 H     1 <1>   0.0800 
 47 H        9.8590    -0.2950     1.5860 H     1 <1>   0.0800 
 48 H       10.6680     1.0450     0.7900 H     1 <1>   0.0800 
 49 H        9.7010    -0.0870    -0.1570 H     1 <1>   0.0800 
 50 H       11.2970     4.1460     1.2930 H     1 <1>   0.0800 
 51 H        9.8400     3.3200     1.8360 H     1 <1>   0.0800 
 52 H        9.7160     4.8580     0.9760 H     1 <1>   0.0800 
@<TRIPOS>BOND
  1   1   2  2   
  2   2   3  1   
  3   2   4  1   
  4   3   5  1   
  5   4   6  1   
  6   4   7  1   
  7   4  25  1   
  8   5   8  1   
  9   5  26  1   
 10   5  27  1   
 11   6   9  1   
 12   6  28  1   
 13   6  29  1   
 14   7  10  1   
 15   7  30  1   
 16   7  31  1   
 17   8  32  1   
 18   8  33  1   
 19   8  34  1   
 20   9  11  1   
 21   9  12  1   
 22   9  35  1   
 23  10  11  1   
 24  10  36  1   
 25  10  37  1   
 26  11  38  1   
 27  11  39  1   
 28  12  13  1   
 29  12  40  1   
 30  12  41  1   
 31  13  14  ar  
 32  13  15  ar  
 33  14  16  1   
 34  14  17  ar  
 35  15  18  ar  
 36  15  42  1   
 37  16  19  1   
 38  17  20  1   
 39  17  21  ar  
 40  18  21  ar  
 41  18  43  1   
 42  19  44  1   
 43  19  45  1   
 44  19  46  1   
 45  20  22  1   
 46  21  23  1   
 47  22  47  1   
 48  22  48  1   
 49  22  49  1   
 50  23  24  1   
 51  24  50  1   
 52  24  51  1   
 53  24  52  1   
@<TRIPOS>SUBSTRUCTURE
  1 ****   9 GROUP 4 **** **** 0

# MOE 2024.06 (io_trps.svl 2023.06)
