@<TRIPOS>MOLECULE
NONAME
45 46 1 0 0 
SMALL
USER_CHARGES


@<TRIPOS>ATOM
  1 CL       2.8210    -0.0700    -0.8920 Cl    1 <1>  -0.1770 
  2 C        1.7240    -1.3940    -0.5460 C.ar  1 <1>   0.1770 
  3 C        2.0520    -2.3660     0.3960 C.ar  1 <1>   0.0830 
  4 C        0.5250    -1.4420    -1.2320 C.ar  1 <1>  -0.1500 
  5 O        3.2280    -2.3230     1.0700 O.3   1 <1>  -0.3630 
  6 C        1.1480    -3.3890     0.6650 C.ar  1 <1>  -0.1440 
  7 C       -0.3710    -2.4670    -0.9750 C.ar  1 <1>  -0.1430 
  8 C        4.3950    -2.6340     0.3480 C.3   1 <1>   0.1200 
  9 C       -0.0530    -3.4300    -0.0290 C.ar  1 <1>  -0.1500 
 10 C        1.4630    -4.4530     1.7050 C.3   1 <1>  -0.0960 
 11 C       -1.6930    -2.5400    -1.7180 C.3   1 <1>  -0.0970 
 12 C        5.5270    -1.7780     0.9190 C.3   1 <1>  -0.1600 
 13 C        6.8240    -1.9360     0.1140 C.3   1 <1>  -0.1600 
 14 C        7.9080    -1.0110     0.6720 C.3   1 <1>   0.3430 
 15 N        9.1210    -1.0460    -0.1900 N.4   1 <1>  -0.9590 
 16 C        9.8580    -2.3580    -0.1030 C.3   1 <1>   0.3430 
 17 C       10.0490     0.0890     0.1540 C.3   1 <1>   0.3430 
 18 C       11.1770    -2.3220    -0.8990 C.3   1 <1>   0.1200 
 19 C       11.3590     0.0160    -0.6550 C.3   1 <1>   0.1200 
 20 O       11.9580    -1.2360    -0.4920 O.3   1 <1>  -0.5600 
 21 H        0.3020    -0.6800    -1.9560 H     1 <1>   0.1500 
 22 H        4.2370    -2.4190    -0.6950 H     1 <1>   0.0800 
 23 H        4.5900    -3.6850     0.4700 H     1 <1>   0.0800 
 24 H       -0.7540    -4.2220     0.1690 H     1 <1>   0.1500 
 25 H        1.7220    -3.9860     2.6380 H     1 <1>   0.0800 
 26 H        2.2930    -5.0520     1.3760 H     1 <1>   0.0800 
 27 H        0.6180    -5.0970     1.8700 H     1 <1>   0.0800 
 28 H       -1.9340    -1.5910    -2.1620 H     1 <1>   0.0800 
 29 H       -2.4840    -2.8080    -1.0420 H     1 <1>   0.0800 
 30 H       -1.6330    -3.2800    -2.4950 H     1 <1>   0.0800 
 31 H        5.6900    -2.0610     1.9450 H     1 <1>   0.0800 
 32 H        5.2130    -0.7470     0.8950 H     1 <1>   0.0800 
 33 H        6.6250    -1.6800    -0.9130 H     1 <1>   0.0800 
 34 H        7.1410    -2.9620     0.1670 H     1 <1>   0.0800 
 35 H        8.1580    -1.3040     1.6800 H     1 <1>   0.0800 
 36 H        7.5180    -0.0060     0.7030 H     1 <1>   0.0800 
 37 H        8.8250    -0.9150    -1.1670 H     1 <1>   0.4500 
 38 H        9.2400    -3.1560    -0.4810 H     1 <1>   0.0800 
 39 H       10.0900    -2.5780     0.9260 H     1 <1>   0.0800 
 40 H       10.2980     0.0510     1.2020 H     1 <1>   0.0800 
 41 H        9.5660     1.0330    -0.0380 H     1 <1>   0.0800 
 42 H       10.9940    -2.2430    -1.9560 H     1 <1>   0.0800 
 43 H       11.7450    -3.2180    -0.7160 H     1 <1>   0.0800 
 44 H       12.0540     0.7580    -0.3030 H     1 <1>   0.0800 
 45 H       11.1810     0.1830    -1.7040 H     1 <1>   0.0800 
@<TRIPOS>BOND
  1   1   2  1   
  2   2   3  ar  
  3   2   4  ar  
  4   3   5  1   
  5   3   6  ar  
  6   4   7  ar  
  7   4  21  1   
  8   5   8  1   
  9   6   9  ar  
 10   6  10  1   
 11   7   9  ar  
 12   7  11  1   
 13   8  12  1   
 14   8  22  1   
 15   8  23  1   
 16   9  24  1   
 17  10  25  1   
 18  10  26  1   
 19  10  27  1   
 20  11  28  1   
 21  11  29  1   
 22  11  30  1   
 23  12  13  1   
 24  12  31  1   
 25  12  32  1   
 26  13  14  1   
 27  13  33  1   
 28  13  34  1   
 29  14  15  1   
 30  14  35  1   
 31  14  36  1   
 32  15  16  1   
 33  15  17  1   
 34  15  37  1   
 35  16  18  1   
 36  16  38  1   
 37  16  39  1   
 38  17  19  1   
 39  17  40  1   
 40  17  41  1   
 41  18  20  1   
 42  18  42  1   
 43  18  43  1   
 44  19  20  1   
 45  19  44  1   
 46  19  45  1   
@<TRIPOS>SUBSTRUCTURE
  1 ****   8 GROUP 4 **** **** 0

# MOE 2024.06 (io_trps.svl 2023.06)
