@<TRIPOS>MOLECULE
NONAME
45 46 1 0 0 
SMALL
USER_CHARGES


@<TRIPOS>ATOM
  1 O       -0.4740     1.1480     0.6750 O.2   1 <1>  -0.5700 
  2 C       -0.9990     0.4800    -0.1850 C.2   1 <1>   0.5690 
  3 N       -0.6890    -0.8330    -0.4070 N.am  1 <1>  -0.5470 
  4 C       -2.0660     1.1330    -1.0740 C.3   1 <1>   0.2610 
  5 C        0.2180    -1.6580     0.2730 C.ar  1 <1>   0.1170 
  6 O       -3.0060     0.1720    -1.5400 O.3   1 <1>  -0.3630 
  7 C       -1.4500     1.7870    -2.3150 C.3   1 <1>  -0.2400 
  8 C        1.6010    -1.5050     0.1220 C.ar  1 <1>  -0.1440 
  9 C       -0.2760    -2.6780     1.0900 C.ar  1 <1>  -0.1430 
 10 C       -3.8570    -0.4700    -0.6990 C.ar  1 <1>   0.0820 
 11 C        2.4600    -2.3650     0.7870 C.ar  1 <1>  -0.1500 
 12 C        2.2140    -0.4250    -0.7670 C.3   1 <1>  -0.0170 
 13 C        0.6020    -3.5250     1.7450 C.ar  1 <1>  -0.1500 
 14 C       -1.7740    -2.8750     1.2920 C.3   1 <1>  -0.0970 
 15 C       -4.0370    -0.1290     0.6390 C.ar  1 <1>  -0.1500 
 16 C       -4.5650    -1.5360    -1.2290 C.ar  1 <1>  -0.1500 
 17 C        1.9660    -3.3710     1.5950 C.ar  1 <1>  -0.1500 
 18 C        2.2000    -0.8510    -2.2380 C.3   1 <1>  -0.2400 
 19 C       -4.9100    -0.8580     1.4270 C.ar  1 <1>  -0.1500 
 20 C       -5.4360    -2.2630    -0.4380 C.ar  1 <1>  -0.1500 
 21 C       -5.6120    -1.9280     0.8950 C.ar  1 <1>  -0.1430 
 22 C       -6.5660    -2.7260     1.7660 C.3   1 <1>  -0.0970 
 23 H       -1.3440    -1.3180    -1.0210 H     1 <1>   0.3700 
 24 H       -2.5980     1.8790    -0.5130 H     1 <1>   0.0800 
 25 H       -0.9280     1.0540    -2.9040 H     1 <1>   0.0800 
 26 H       -0.7500     2.5450    -2.0130 H     1 <1>   0.0800 
 27 H       -2.2180     2.2480    -2.9100 H     1 <1>   0.0800 
 28 H        3.5240    -2.2580     0.6770 H     1 <1>   0.1500 
 29 H        3.2300    -0.2420    -0.4640 H     1 <1>   0.0800 
 30 H        1.6870     0.5030    -0.6490 H     1 <1>   0.0800 
 31 H        0.2300    -4.3100     2.3800 H     1 <1>   0.1500 
 32 H       -2.1870    -2.0120     1.7810 H     1 <1>   0.0800 
 33 H       -1.9750    -3.7360     1.9010 H     1 <1>   0.0800 
 34 H       -2.2670    -3.0090     0.3460 H     1 <1>   0.0800 
 35 H       -3.5110     0.6920     1.0910 H     1 <1>   0.1500 
 36 H       -4.4320    -1.7940    -2.2640 H     1 <1>   0.1500 
 37 H        2.6430    -4.0310     2.1080 H     1 <1>   0.1500 
 38 H        2.7480    -1.7690    -2.3610 H     1 <1>   0.0800 
 39 H        2.6530    -0.0900    -2.8470 H     1 <1>   0.0800 
 40 H        1.1900    -1.0060    -2.5710 H     1 <1>   0.0800 
 41 H       -5.0400    -0.5890     2.4600 H     1 <1>   0.1500 
 42 H       -5.9760    -3.0900    -0.8640 H     1 <1>   0.1500 
 43 H       -6.9930    -2.1000     2.5280 H     1 <1>   0.0800 
 44 H       -6.0370    -3.5360     2.2360 H     1 <1>   0.0800 
 45 H       -7.3670    -3.1310     1.1740 H     1 <1>   0.0800 
@<TRIPOS>BOND
  1   1   2  2   
  2   2   3  am  
  3   2   4  1   
  4   3   5  1   
  5   3  23  1   
  6   4   6  1   
  7   4   7  1   
  8   4  24  1   
  9   5   8  ar  
 10   5   9  ar  
 11   6  10  1   
 12   7  25  1   
 13   7  26  1   
 14   7  27  1   
 15   8  11  ar  
 16   8  12  1   
 17   9  13  ar  
 18   9  14  1   
 19  10  15  ar  
 20  10  16  ar  
 21  11  17  ar  
 22  11  28  1   
 23  12  18  1   
 24  12  29  1   
 25  12  30  1   
 26  13  17  ar  
 27  13  31  1   
 28  14  32  1   
 29  14  33  1   
 30  14  34  1   
 31  15  19  ar  
 32  15  35  1   
 33  16  20  ar  
 34  16  36  1   
 35  17  37  1   
 36  18  38  1   
 37  18  39  1   
 38  18  40  1   
 39  19  21  ar  
 40  19  41  1   
 41  20  21  ar  
 42  20  42  1   
 43  21  22  1   
 44  22  43  1   
 45  22  44  1   
 46  22  45  1   
@<TRIPOS>SUBSTRUCTURE
  1 ****   3 GROUP 4 **** **** 0

# MOE 2024.06 (io_trps.svl 2023.06)
