@<TRIPOS>MOLECULE
NONAME
35 38 1 0 0 
SMALL
USER_CHARGES


@<TRIPOS>ATOM
  1 O       -1.4740    -2.3110    -2.4700 O.co2 1 <1>  -0.9000 
  2 C       -0.6480    -1.9220    -1.6370 C.2   1 <1>   0.9060 
  3 O        0.3860    -1.3360    -1.9680 O.co2 1 <1>  -0.9000 
  4 C       -0.9450    -2.0540    -0.1650 C.3   1 <1>  -0.1860 
  5 C        0.2560    -2.7010     0.5240 C.3   1 <1>   0.3380 
  6 C       -2.0950    -3.0370     0.2240 C.3   1 <1>  -0.0190 
  7 O       -0.1210    -4.0400     0.5150 O.3   1 <1>  -0.5600 
  8 C        0.1230    -2.4460     2.0080 C.2   1 <1>  -0.2880 
  9 C       -3.3570    -2.4340     0.8500 C.2   1 <1>   0.5690 
 10 C       -1.3360    -3.9730     1.1770 C.3   1 <1>   0.3380 
 11 C       -0.8670    -3.2290     2.4140 C.2   1 <1>  -0.2880 
 12 O       -3.7570    -2.9140     1.8880 O.2   1 <1>  -0.5700 
 13 N       -4.0510    -1.4190     0.2160 N.am  1 <1>  -0.4770 
 14 C       -5.1590    -0.6970     0.6830 C.ar  1 <1>   0.1170 
 15 C       -3.8440    -1.0730    -1.2200 C.3   1 <1>   0.1400 
 16 C       -5.7580     0.0280    -0.3250 C.ar  1 <1>  -0.1440 
 17 C       -5.6800    -0.6240     1.9700 C.ar  1 <1>  -0.1500 
 18 C       -5.0310    -0.1890    -1.6270 C.3   1 <1>  -0.0170 
 19 C       -6.8670     0.8190    -0.0920 C.ar  1 <1>  -0.1500 
 20 C       -6.7920     0.1630     2.2190 C.ar  1 <1>  -0.1500 
 21 C       -7.3860     0.8830     1.1920 C.ar  1 <1>  -0.1500 
 22 H       -1.1020    -1.0690     0.2300 H     1 <1>   0.0800 
 23 H        1.2320    -2.5610     0.0890 H     1 <1>   0.0800 
 24 H       -2.3980    -3.6290    -0.6190 H     1 <1>   0.0800 
 25 H        0.7470    -1.7290     2.5070 H     1 <1>   0.1500 
 26 H       -1.7470    -4.9550     1.3330 H     1 <1>   0.0800 
 27 H       -1.3450    -3.3800     3.3640 H     1 <1>   0.1500 
 28 H       -3.8130    -1.9640    -1.8230 H     1 <1>   0.0800 
 29 H       -2.9290    -0.5210    -1.3350 H     1 <1>   0.0800 
 30 H       -5.2200    -1.1770     2.7680 H     1 <1>   0.1500 
 31 H       -5.6570    -0.7040    -2.3330 H     1 <1>   0.0800 
 32 H       -4.6880     0.7370    -2.0490 H     1 <1>   0.0800 
 33 H       -7.3200     1.3750    -0.8930 H     1 <1>   0.1500 
 34 H       -7.1960     0.2150     3.2150 H     1 <1>   0.1500 
 35 H       -8.2500     1.4920     1.3930 H     1 <1>   0.1500 
@<TRIPOS>BOND
  1   1   2  ar  
  2   2   3  ar  
  3   2   4  1   
  4   4   5  1   
  5   4   6  1   
  6   4  22  1   
  7   5   7  1   
  8   5   8  1   
  9   5  23  1   
 10   6   9  1   
 11   6  10  1   
 12   6  24  1   
 13   7  10  1   
 14   8  11  2   
 15   8  25  1   
 16   9  12  2   
 17   9  13  am  
 18  10  11  1   
 19  10  26  1   
 20  11  27  1   
 21  13  14  1   
 22  13  15  1   
 23  14  16  ar  
 24  14  17  ar  
 25  15  18  1   
 26  15  28  1   
 27  15  29  1   
 28  16  18  1   
 29  16  19  ar  
 30  17  20  ar  
 31  17  30  1   
 32  18  31  1   
 33  18  32  1   
 34  19  21  ar  
 35  19  33  1   
 36  20  21  ar  
 37  20  34  1   
 38  21  35  1   
@<TRIPOS>SUBSTRUCTURE
  1 ****   9 GROUP 4 **** **** 0

# MOE 2024.06 (io_trps.svl 2023.06)
