@<TRIPOS>MOLECULE
NONAME
38 39 1 0 0 
SMALL
USER_CHARGES


@<TRIPOS>ATOM
  1 CL       0.1670    -0.5030    -0.4180 Cl    1 <1>  -0.1770 
  2 C       -1.1960     0.5500    -0.1070 C.ar  1 <1>   0.1770 
  3 C       -0.9740     1.8740     0.2590 C.ar  1 <1>   0.1170 
  4 C       -2.4710     0.0400    -0.2360 C.ar  1 <1>  -0.1500 
  5 N        0.3420     2.3490     0.3850 N.am  1 <1>  -0.5470 
  6 C       -2.0850     2.6750     0.4990 C.ar  1 <1>  -0.1500 
  7 C       -3.5580     0.8600     0.0050 C.ar  1 <1>  -0.1500 
  8 C        0.8870     3.5920     0.2570 C.2   1 <1>   0.5690 
  9 C       -3.3940     2.1980     0.3810 C.ar  1 <1>   0.0860 
 10 O        0.2460     4.5900     0.0330 O.2   1 <1>  -0.5700 
 11 C        2.4080     3.6850     0.3930 C.3   1 <1>   0.1710 
 12 C       -4.5320     3.0620     0.6440 C.2   1 <1>   0.6340 
 13 N        3.1090     2.3860     0.1540 N.3   1 <1>  -0.8100 
 14 O       -4.4300     4.1870     1.0850 O.2   1 <1>  -0.5700 
 15 O       -5.7550     2.5830     0.3890 O.3   1 <1>  -0.4300 
 16 C        4.4910     2.4270     0.6710 C.3   1 <1>   0.1100 
 17 C        3.1420     2.0460    -1.2880 C.3   1 <1>   0.1100 
 18 C       -6.9190     3.3550     0.6120 C.3   1 <1>   0.0400 
 19 C        5.2320     1.1110     0.3710 C.3   1 <1>   0.1200 
 20 C        3.9210     0.7410    -1.5300 C.3   1 <1>   0.1200 
 21 O        5.2120     0.8400    -1.0010 O.3   1 <1>  -0.5600 
 22 H       -2.6090    -0.9880    -0.5230 H     1 <1>   0.1500 
 23 H        1.0770     1.6330     0.4570 H     1 <1>   0.3700 
 24 H       -1.9380     3.7020     0.7890 H     1 <1>   0.1500 
 25 H       -4.5510     0.4550    -0.0980 H     1 <1>   0.1500 
 26 H        2.6120     4.0190     1.3940 H     1 <1>   0.0800 
 27 H        2.7750     4.4340    -0.2860 H     1 <1>   0.0800 
 28 H        4.4720     2.5820     1.7350 H     1 <1>   0.0800 
 29 H        5.0330     3.2420     0.2200 H     1 <1>   0.0800 
 30 H        3.6140     2.8380    -1.8450 H     1 <1>   0.0800 
 31 H        2.1390     1.9280    -1.6620 H     1 <1>   0.0800 
 32 H       -7.7760     2.7690     0.3350 H     1 <1>   0.0800 
 33 H       -6.8660     4.2450     0.0080 H     1 <1>   0.0800 
 34 H       -6.9680     3.6170     1.6540 H     1 <1>   0.0800 
 35 H        4.7710     0.2900     0.8910 H     1 <1>   0.0800 
 36 H        6.2610     1.1830     0.6760 H     1 <1>   0.0800 
 37 H        4.0110     0.5490    -2.5840 H     1 <1>   0.0800 
 38 H        3.4200    -0.0910    -1.0670 H     1 <1>   0.0800 
@<TRIPOS>BOND
  1   1   2  1   
  2   2   3  ar  
  3   2   4  ar  
  4   3   5  1   
  5   3   6  ar  
  6   4   7  ar  
  7   4  22  1   
  8   5   8  am  
  9   5  23  1   
 10   6   9  ar  
 11   6  24  1   
 12   7   9  ar  
 13   7  25  1   
 14   8  10  2   
 15   8  11  1   
 16   9  12  1   
 17  11  13  1   
 18  11  26  1   
 19  11  27  1   
 20  12  14  2   
 21  12  15  1   
 22  13  16  1   
 23  13  17  1   
 24  15  18  1   
 25  16  19  1   
 26  16  28  1   
 27  16  29  1   
 28  17  20  1   
 29  17  30  1   
 30  17  31  1   
 31  18  32  1   
 32  18  33  1   
 33  18  34  1   
 34  19  21  1   
 35  19  35  1   
 36  19  36  1   
 37  20  21  1   
 38  20  37  1   
 39  20  38  1   
@<TRIPOS>SUBSTRUCTURE
  1 ****   5 GROUP 4 **** **** 0

# MOE 2024.06 (io_trps.svl 2023.06)
