@<TRIPOS>MOLECULE
NONAME
32 32 1 0 0 
SMALL
USER_CHARGES


@<TRIPOS>ATOM
  1 F       -1.0670    -0.4140    -1.3400 F     1 <1>  -0.3400 
  2 C       -1.4590    -1.6270    -1.7250 C.3   1 <1>   1.0200 
  3 F       -2.7720    -1.5100    -1.8900 F     1 <1>  -0.3400 
  4 F       -0.9580    -1.7850    -2.9470 F     1 <1>  -0.3400 
  5 C       -1.0320    -2.7270    -0.6990 C.3   1 <1>   0.4440 
  6 N       -1.6810    -2.4870     0.6680 N.am  1 <1>  -0.7300 
  7 C        0.4900    -2.7240    -0.3550 C.ar  1 <1>  -0.1440 
  8 C       -1.3610    -4.0870    -1.4090 C.3   1 <1>   1.0200 
  9 C       -2.9350    -2.7380     1.0840 C.2   1 <1>   0.7800 
 10 C        1.4460    -1.9680    -1.0360 C.ar  1 <1>  -0.1500 
 11 C        0.9390    -3.5330     0.6900 C.ar  1 <1>  -0.1500 
 12 F       -0.4440    -4.4300    -2.3090 F     1 <1>  -0.3400 
 13 F       -2.5160    -4.1470    -2.0620 F     1 <1>  -0.3400 
 14 F       -1.3950    -5.1050    -0.5510 F     1 <1>  -0.3400 
 15 O       -3.2710    -2.4820     2.2170 O.2   1 <1>  -0.5700 
 16 O       -3.7840    -3.2680     0.2190 O.3   1 <1>  -0.4300 
 17 C        2.7820    -2.0130    -0.6780 C.ar  1 <1>  -0.1500 
 18 C        2.2740    -3.5790     1.0470 C.ar  1 <1>  -0.1500 
 19 C       -5.1140    -3.5500     0.5860 C.3   1 <1>   0.1200 
 20 C        3.1990    -2.8160     0.3640 C.ar  1 <1>  -0.1500 
 21 C       -5.8170    -4.1480    -0.6290 C.3   1 <1>  -0.2400 
 22 H       -1.0730    -2.0450     1.3600 H     1 <1>   0.3700 
 23 H        1.1990    -1.3240    -1.8600 H     1 <1>   0.1500 
 24 H        0.2550    -4.1510     1.2490 H     1 <1>   0.1500 
 25 H        3.5020    -1.4200    -1.2160 H     1 <1>   0.1500 
 26 H        2.5940    -4.2110     1.8580 H     1 <1>   0.1500 
 27 H       -5.5860    -2.6310     0.8930 H     1 <1>   0.0800 
 28 H       -5.1030    -4.2450     1.4090 H     1 <1>   0.0800 
 29 H        4.2400    -2.8500     0.6400 H     1 <1>   0.1500 
 30 H       -5.8050    -3.4470    -1.4450 H     1 <1>   0.0800 
 31 H       -6.8390    -4.3730    -0.3830 H     1 <1>   0.0800 
 32 H       -5.3270    -5.0570    -0.9290 H     1 <1>   0.0800 
@<TRIPOS>BOND
  1   1   2  1   
  2   2   3  1   
  3   2   4  1   
  4   2   5  1   
  5   5   6  1   
  6   5   7  1   
  7   5   8  1   
  8   6   9  am  
  9   6  22  1   
 10   7  10  ar  
 11   7  11  ar  
 12   8  12  1   
 13   8  13  1   
 14   8  14  1   
 15   9  15  2   
 16   9  16  1   
 17  10  17  ar  
 18  10  23  1   
 19  11  18  ar  
 20  11  24  1   
 21  16  19  1   
 22  17  20  ar  
 23  17  25  1   
 24  18  20  ar  
 25  18  26  1   
 26  19  21  1   
 27  19  27  1   
 28  19  28  1   
 29  20  29  1   
 30  21  30  1   
 31  21  31  1   
 32  21  32  1   
@<TRIPOS>SUBSTRUCTURE
  1 ****   5 GROUP 4 **** **** 0

# MOE 2024.06 (io_trps.svl 2023.06)
