@<TRIPOS>MOLECULE
NONAME
46 47 1 0 0 
SMALL
USER_CHARGES


@<TRIPOS>ATOM
  1 S       -0.3510     0.3570     0.7120 S.o2  1 <1>   1.3330 
  2 O       -0.5840     1.1280     1.9080 O.2   1 <1>  -0.6500 
  3 O       -0.5410    -1.0730     0.7010 O.2   1 <1>  -0.6500 
  4 N        1.2750     0.6490     0.2050 N.am  1 <1>  -0.6930 
  5 C       -1.2990     1.0380    -0.6330 C.3   1 <1>  -0.1350 
  6 C        1.6600     1.9120    -0.2300 C.ar  1 <1>   0.1990 
  7 C        2.2810    -0.3140     0.7620 C.3   1 <1>   0.3370 
  8 C        2.1250     2.0840    -1.5280 C.ar  1 <1>  -0.1500 
  9 C        1.5840     3.0220     0.6020 C.ar  1 <1>  -0.1500 
 10 C        3.4450     0.2980     1.5780 C.2   1 <1>   0.5690 
 11 C        2.8020    -1.1770    -0.3930 C.3   1 <1>  -0.2400 
 12 C        2.5030     3.3330    -1.9840 C.ar  1 <1>  -0.1500 
 13 C        1.9590     4.2720     0.1470 C.ar  1 <1>  -0.1500 
 14 O        3.6300    -0.1030     2.7040 O.2   1 <1>  -0.5700 
 15 N        4.2750     1.2260     1.0230 N.am  1 <1>  -0.7300 
 16 C        2.4220     4.4350    -1.1490 C.ar  1 <1>  -0.1430 
 17 C        5.4540     1.8210     1.6710 C.3   1 <1>   0.2200 
 18 C        2.8340     5.8100    -1.6420 C.3   1 <1>  -0.0970 
 19 C        5.3690     3.3370     1.5550 C.3   1 <1>  -0.1600 
 20 C        6.6900     1.4740     0.8530 C.3   1 <1>  -0.1600 
 21 C        5.9010     3.6860     0.1600 C.3   1 <1>  -0.1600 
 22 C        6.7090     2.4710    -0.3110 C.3   1 <1>  -0.1600 
 23 H       -2.3460     0.8850    -0.4560 H     1 <1>   0.0800 
 24 H       -1.0310     0.5590    -1.5530 H     1 <1>   0.0800 
 25 H       -1.1170     2.0910    -0.7210 H     1 <1>   0.0800 
 26 H        1.7760    -0.9740     1.4460 H     1 <1>   0.0800 
 27 H        2.1810     1.2340    -2.1830 H     1 <1>   0.1500 
 28 H        1.2360     2.9040     1.6140 H     1 <1>   0.1500 
 29 H        3.3670    -0.5850    -1.0880 H     1 <1>   0.0800 
 30 H        1.9810    -1.6510    -0.9000 H     1 <1>   0.0800 
 31 H        3.4460    -1.9440    -0.0010 H     1 <1>   0.0800 
 32 H        2.8580     3.4460    -2.9950 H     1 <1>   0.1500 
 33 H        1.8900     5.1190     0.8080 H     1 <1>   0.1500 
 34 H        4.0340     1.6430     0.1210 H     1 <1>   0.3700 
 35 H        5.5340     1.4920     2.6950 H     1 <1>   0.0800 
 36 H        3.5240     5.7290    -2.4630 H     1 <1>   0.0800 
 37 H        3.3110     6.3620    -0.8530 H     1 <1>   0.0800 
 38 H        1.9670     6.3540    -1.9710 H     1 <1>   0.0800 
 39 H        6.0210     3.7690     2.2940 H     1 <1>   0.0800 
 40 H        4.3710     3.7030     1.7260 H     1 <1>   0.0800 
 41 H        6.6860     0.4490     0.5250 H     1 <1>   0.0800 
 42 H        7.5590     1.6350     1.4660 H     1 <1>   0.0800 
 43 H        6.5100     4.5720     0.1960 H     1 <1>   0.0800 
 44 H        5.0820     3.8570    -0.5160 H     1 <1>   0.0800 
 45 H        6.2330     2.0330    -1.1710 H     1 <1>   0.0800 
 46 H        7.7180     2.7420    -0.5710 H     1 <1>   0.0800 
@<TRIPOS>BOND
  1   1   2  2   
  2   1   3  2   
  3   1   4  am  
  4   1   5  1   
  5   4   6  1   
  6   4   7  1   
  7   5  23  1   
  8   5  24  1   
  9   5  25  1   
 10   6   8  ar  
 11   6   9  ar  
 12   7  10  1   
 13   7  11  1   
 14   7  26  1   
 15   8  12  ar  
 16   8  27  1   
 17   9  13  ar  
 18   9  28  1   
 19  10  14  2   
 20  10  15  am  
 21  11  29  1   
 22  11  30  1   
 23  11  31  1   
 24  12  16  ar  
 25  12  32  1   
 26  13  16  ar  
 27  13  33  1   
 28  15  17  1   
 29  15  34  1   
 30  16  18  1   
 31  17  19  1   
 32  17  20  1   
 33  17  35  1   
 34  18  36  1   
 35  18  37  1   
 36  18  38  1   
 37  19  21  1   
 38  19  39  1   
 39  19  40  1   
 40  20  22  1   
 41  20  41  1   
 42  20  42  1   
 43  21  22  1   
 44  21  43  1   
 45  21  44  1   
 46  22  45  1   
 47  22  46  1   
@<TRIPOS>SUBSTRUCTURE
  1 ****   6 GROUP 4 **** **** 0

# MOE 2024.06 (io_trps.svl 2023.06)
