@<TRIPOS>MOLECULE
NONAME
28 28 1 0 0 
SMALL
USER_CHARGES


@<TRIPOS>ATOM
  1 O        0.2580     0.3140     0.6150 O.2   1 <1>  -0.5700 
  2 C        1.2810     0.8270     0.2050 C.2   1 <1>   0.6900 
  3 N        1.3420     2.1830    -0.0010 N.am  1 <1>  -0.4200 
  4 N        2.3870     0.0580    -0.0750 N.am  1 <1>  -0.4200 
  5 C        2.5150     2.7690    -0.4350 C.2   1 <1>   0.6160 
  6 C        0.1020     3.0060     0.1310 C.3   1 <1>   0.0600 
  7 C        3.6070     0.6470    -0.3670 C.2   1 <1>   0.6160 
  8 C        2.2860    -1.4350    -0.0240 C.3   1 <1>   0.0600 
  9 O        2.4340     3.8670    -0.9620 O.2   1 <1>  -0.5700 
 10 C        3.7630     2.0770    -0.2970 C.2   1 <1>   0.0290 
 11 O        4.5260    -0.1020    -0.6680 O.2   1 <1>  -0.5700 
 12 C        4.9880     2.7000    -0.1060 C.2   1 <1>  -0.0380 
 13 N        6.1670     2.0170    -0.1100 N.pl3 1 <1>  -0.8690 
 14 C        5.1240     4.2010     0.1450 C.3   1 <1>  -0.1020 
 15 C        7.5640     2.5110     0.0060 C.3   1 <1>   0.1290 
 16 H        0.3510     4.0270     0.3620 H     1 <1>   0.0800 
 17 H       -0.5220     2.6240     0.9200 H     1 <1>   0.0800 
 18 H       -0.4450     2.9800    -0.7950 H     1 <1>   0.0800 
 19 H        2.7850    -1.8660    -0.8750 H     1 <1>   0.0800 
 20 H        1.2600    -1.7580    -0.0380 H     1 <1>   0.0800 
 21 H        2.7550    -1.7940     0.8750 H     1 <1>   0.0800 
 22 H        6.1100     0.9930    -0.2820 H     1 <1>   0.4000 
 23 H        5.8620     4.3900     0.9020 H     1 <1>   0.0800 
 24 H        4.2120     4.6420     0.5000 H     1 <1>   0.0800 
 25 H        5.4180     4.6950    -0.7630 H     1 <1>   0.0800 
 26 H        7.6410     3.5240    -0.3460 H     1 <1>   0.0800 
 27 H        8.2130     1.8940    -0.5890 H     1 <1>   0.0800 
 28 H        7.8800     2.4650     1.0340 H     1 <1>   0.0800 
@<TRIPOS>BOND
  1   1   2  2   
  2   2   3  am  
  3   2   4  am  
  4   3   5  am  
  5   3   6  1   
  6   4   7  am  
  7   4   8  1   
  8   5   9  2   
  9   5  10  1   
 10   6  16  1   
 11   6  17  1   
 12   6  18  1   
 13   7  10  1   
 14   7  11  2   
 15   8  19  1   
 16   8  20  1   
 17   8  21  1   
 18  10  12  2   
 19  12  13  1   
 20  12  14  1   
 21  13  15  1   
 22  13  22  1   
 23  14  23  1   
 24  14  24  1   
 25  14  25  1   
 26  15  26  1   
 27  15  27  1   
 28  15  28  1   
@<TRIPOS>SUBSTRUCTURE
  1 ****  10 GROUP 4 **** **** 0

# MOE 2024.06 (io_trps.svl 2023.06)
