@<TRIPOS>MOLECULE
NONAME
47 49 1 0 0 
SMALL
USER_CHARGES


@<TRIPOS>ATOM
  1 CL       0.0230    -0.0730    -2.0850 Cl    1 <1>  -0.1770 
  2 C        0.6990    -1.5980    -1.5770 C.ar  1 <1>   0.1770 
  3 C        0.1360    -2.3200    -0.5350 C.ar  1 <1>  -0.0090 
  4 C        1.8230    -2.0420    -2.2470 C.ar  1 <1>  -0.1500 
  5 S       -1.3440    -1.7130     0.3080 S.o2  1 <1>   1.4470 
  6 C        0.7780    -3.4950    -0.1590 C.ar  1 <1>  -0.1500 
  7 C        2.4220    -3.2280    -1.8680 C.ar  1 <1>  -0.1500 
  8 O       -0.9570    -0.8420     1.3900 O.2   1 <1>  -0.6500 
  9 O       -2.3840    -1.3170    -0.6080 O.2   1 <1>  -0.6500 
 10 N       -1.9550    -3.0800     1.1440 N.am  1 <1>  -0.7570 
 11 C        1.9150    -3.9750    -0.8060 C.ar  1 <1>   0.0860 
 12 C       -2.8890    -3.9460     0.5950 C.ar  1 <1>   0.1990 
 13 C        2.5250    -5.2230    -0.3870 C.2   1 <1>   0.5440 
 14 C       -4.2500    -3.8000     0.8750 C.ar  1 <1>  -0.1440 
 15 C       -2.4760    -4.9830    -0.2330 C.ar  1 <1>  -0.1500 
 16 O        1.8180    -6.2060    -0.2700 O.2   1 <1>  -0.5700 
 17 N        3.8720    -5.3260    -0.1090 N.am  1 <1>  -0.6600 
 18 C       -5.1620    -4.6860     0.3240 C.ar  1 <1>  -0.1500 
 19 C       -4.7570    -2.6700     1.7630 C.3   1 <1>  -0.0970 
 20 C       -3.3920    -5.8620    -0.7790 C.ar  1 <1>  -0.1500 
 21 C        4.7390    -4.1350     0.1470 C.3   1 <1>   0.1400 
 22 C        4.4780    -6.6720     0.1270 C.3   1 <1>   0.1400 
 23 C       -4.7380    -5.7140    -0.5000 C.ar  1 <1>  -0.1500 
 24 C        5.7730    -4.4470     1.2340 C.3   1 <1>  -0.1600 
 25 C        5.9950    -6.6310    -0.0840 C.3   1 <1>  -0.1600 
 26 C        6.6880    -5.6230     0.8490 C.3   1 <1>  -0.1600 
 27 H        2.2220    -1.4600    -3.0600 H     1 <1>   0.1500 
 28 H        0.3940    -4.0760     0.6640 H     1 <1>   0.1500 
 29 H        3.2880    -3.5870    -2.3960 H     1 <1>   0.1500 
 30 H       -2.1750    -2.7630     2.0810 H     1 <1>   0.4200 
 31 H       -1.4330    -5.1150    -0.4500 H     1 <1>   0.1500 
 32 H       -6.2130    -4.5820     0.5290 H     1 <1>   0.1500 
 33 H       -4.3480    -2.7620     2.7530 H     1 <1>   0.0800 
 34 H       -5.8290    -2.6890     1.8370 H     1 <1>   0.0800 
 35 H       -4.4680    -1.7200     1.3490 H     1 <1>   0.0800 
 36 H       -3.0580    -6.6620    -1.4180 H     1 <1>   0.1500 
 37 H        4.1370    -3.3010     0.4630 H     1 <1>   0.0800 
 38 H        5.2460    -3.8670    -0.7640 H     1 <1>   0.0800 
 39 H        4.0380    -7.3870    -0.5480 H     1 <1>   0.0800 
 40 H        4.2550    -6.9820     1.1340 H     1 <1>   0.0800 
 41 H       -5.4550    -6.3970    -0.9230 H     1 <1>   0.1500 
 42 H        5.2440    -4.6840     2.1410 H     1 <1>   0.0800 
 43 H        6.3700    -3.5740     1.4290 H     1 <1>   0.0800 
 44 H        6.1820    -6.3640    -1.1100 H     1 <1>   0.0800 
 45 H        6.4070    -7.6120     0.0730 H     1 <1>   0.0800 
 46 H        7.0030    -6.1210     1.7500 H     1 <1>   0.0800 
 47 H        7.5710    -5.2510     0.3590 H     1 <1>   0.0800 
@<TRIPOS>BOND
  1   1   2  1   
  2   2   3  ar  
  3   2   4  ar  
  4   3   5  1   
  5   3   6  ar  
  6   4   7  ar  
  7   4  27  1   
  8   5   8  2   
  9   5   9  2   
 10   5  10  am  
 11   6  11  ar  
 12   6  28  1   
 13   7  11  ar  
 14   7  29  1   
 15  10  12  1   
 16  10  30  1   
 17  11  13  1   
 18  12  14  ar  
 19  12  15  ar  
 20  13  16  2   
 21  13  17  am  
 22  14  18  ar  
 23  14  19  1   
 24  15  20  ar  
 25  15  31  1   
 26  17  21  1   
 27  17  22  1   
 28  18  23  ar  
 29  18  32  1   
 30  19  33  1   
 31  19  34  1   
 32  19  35  1   
 33  20  23  ar  
 34  20  36  1   
 35  21  24  1   
 36  21  37  1   
 37  21  38  1   
 38  22  25  1   
 39  22  39  1   
 40  22  40  1   
 41  23  41  1   
 42  24  26  1   
 43  24  42  1   
 44  24  43  1   
 45  25  26  1   
 46  25  44  1   
 47  25  45  1   
 48  26  46  1   
 49  26  47  1   
@<TRIPOS>SUBSTRUCTURE
  1 ****   6 GROUP 4 **** **** 0

# MOE 2024.06 (io_trps.svl 2023.06)
