@<TRIPOS>MOLECULE
NONAME
40 42 1 0 0 
SMALL
USER_CHARGES


@<TRIPOS>ATOM
  1 S       -0.5510    -0.2310    -0.0140 S.3   1 <1>  -0.3710 
  2 C        0.8520     0.8650     0.0690 C.2   1 <1>   0.5300 
  3 C        0.2340    -1.8600    -0.3800 C.3   1 <1>   0.2140 
  4 N        2.0330     0.4870    -0.0990 N.2   1 <1>  -0.6960 
  5 C        0.6100     2.3360     0.3520 C.3   1 <1>   0.3370 
  6 C       -0.8630    -2.9060    -0.4770 C.ar  1 <1>  -0.1440 
  7 C        2.9330     1.6130     0.0280 C.3   1 <1>   0.2460 
  8 C       -0.1180     2.5730     1.6830 C.2   1 <1>  -0.2880 
  9 C       -0.1380     3.0260    -0.7970 C.2   1 <1>  -0.2880 
 10 C        2.0600     2.8270     0.4260 C.3   1 <1>  -0.1600 
 11 C       -1.2750    -3.5940     0.6540 C.ar  1 <1>  -0.1500 
 12 C       -1.4620    -3.1810    -1.6960 C.ar  1 <1>  -0.1500 
 13 C        3.9640     1.2750     1.1020 C.3   1 <1>  -0.2400 
 14 C        3.6130     1.8210    -1.3240 C.3   1 <1>  -0.2400 
 15 C       -1.2410     3.3110     1.7870 C.2   1 <1>  -0.1360 
 16 C       -1.2610     3.7500    -0.6160 C.2   1 <1>  -0.1360 
 17 C       -2.2710    -4.5510     0.5660 C.ar  1 <1>  -0.1500 
 18 C       -2.4580    -4.1380    -1.7860 C.ar  1 <1>  -0.1500 
 19 C       -1.8770     3.9520     0.6680 C.2   1 <1>   0.5410 
 20 C       -2.8620    -4.8240    -0.6540 C.ar  1 <1>  -0.1500 
 21 O       -2.8690     4.6290     0.7990 O.2   1 <1>  -0.5700 
 22 H        0.9210    -2.0730     0.4200 H     1 <1>   0.0800 
 23 H        0.7720    -1.7570    -1.3050 H     1 <1>   0.0800 
 24 H        0.3480     2.0890     2.5250 H     1 <1>   0.1500 
 25 H        0.3140     2.8730    -1.7620 H     1 <1>   0.1500 
 26 H        2.2990     3.1470     1.4240 H     1 <1>   0.0800 
 27 H        2.2280     3.6640    -0.2270 H     1 <1>   0.0800 
 28 H       -0.8230    -3.3850     1.6080 H     1 <1>   0.1500 
 29 H       -1.1570    -2.6490    -2.5800 H     1 <1>   0.1500 
 30 H        3.4810     1.0810     2.0430 H     1 <1>   0.0800 
 31 H        4.6500     2.0930     1.2310 H     1 <1>   0.0800 
 32 H        4.5260     0.4040     0.8160 H     1 <1>   0.0800 
 33 H        4.1650     0.9400    -1.6010 H     1 <1>   0.0800 
 34 H        2.8840     2.0260    -2.0880 H     1 <1>   0.0800 
 35 H        4.2980     2.6480    -1.2730 H     1 <1>   0.0800 
 36 H       -1.7410     3.4660     2.7260 H     1 <1>   0.1500 
 37 H       -1.7740     4.2260    -1.4310 H     1 <1>   0.1500 
 38 H       -2.5860    -5.0820     1.4470 H     1 <1>   0.1500 
 39 H       -2.9190    -4.3470    -2.7350 H     1 <1>   0.1500 
 40 H       -3.6370    -5.5680    -0.7230 H     1 <1>   0.1500 
@<TRIPOS>BOND
  1   1   2  1   
  2   1   3  1   
  3   2   4  2   
  4   2   5  1   
  5   3   6  1   
  6   3  22  1   
  7   3  23  1   
  8   4   7  1   
  9   5   8  1   
 10   5   9  1   
 11   5  10  1   
 12   6  11  ar  
 13   6  12  ar  
 14   7  10  1   
 15   7  13  1   
 16   7  14  1   
 17   8  15  2   
 18   8  24  1   
 19   9  16  2   
 20   9  25  1   
 21  10  26  1   
 22  10  27  1   
 23  11  17  ar  
 24  11  28  1   
 25  12  18  ar  
 26  12  29  1   
 27  13  30  1   
 28  13  31  1   
 29  13  32  1   
 30  14  33  1   
 31  14  34  1   
 32  14  35  1   
 33  15  19  1   
 34  15  36  1   
 35  16  19  1   
 36  16  37  1   
 37  17  20  ar  
 38  17  38  1   
 39  18  20  ar  
 40  18  39  1   
 41  19  21  2   
 42  20  40  1   
@<TRIPOS>SUBSTRUCTURE
  1 ****   1 GROUP 4 **** **** 0

# MOE 2024.06 (io_trps.svl 2023.06)
