@<TRIPOS>MOLECULE
NONAME
39 40 1 0 0 
SMALL
USER_CHARGES


@<TRIPOS>ATOM
  1 CL       0.0130    -0.1170    -0.4340 Cl    1 <1>  -0.1770 
  2 C        1.5960     0.5970    -0.2530 C.ar  1 <1>   0.1770 
  3 C        2.7120    -0.1240    -0.6330 C.ar  1 <1>  -0.1500 
  4 C        1.7080     1.8730     0.2690 C.ar  1 <1>  -0.1500 
  5 C        3.9690     0.4410    -0.4910 C.ar  1 <1>  -0.1500 
  6 C        2.9650     2.4350     0.4100 C.ar  1 <1>  -0.1500 
  7 C        4.0990     1.7270     0.0340 C.ar  1 <1>   0.0830 
  8 O        5.2880     2.3540     0.2080 O.3   1 <1>  -0.3630 
  9 C        6.5050     1.7350    -0.1310 C.3   1 <1>   0.1200 
 10 C        7.6280     2.7220     0.1950 C.3   1 <1>  -0.1600 
 11 C        9.0140     2.1430    -0.1260 C.3   1 <1>  -0.1600 
 12 C       10.1060     3.1640     0.2020 C.3   1 <1>   0.3430 
 13 N       11.4430     2.6490    -0.2000 N.4   1 <1>  -0.9590 
 14 C       11.9330     1.4850     0.6190 C.3   1 <1>   0.3430 
 15 C       12.4860     3.7290    -0.2350 C.3   1 <1>   0.3430 
 16 C       13.3580     1.0540     0.2010 C.3   1 <1>   0.1200 
 17 C       13.8580     3.1750    -0.6890 C.3   1 <1>   0.1200 
 18 O       13.8050     1.7900    -0.9050 O.3   1 <1>  -0.5600 
 19 H        2.5930    -1.1140    -1.0360 H     1 <1>   0.1500 
 20 H        0.8250     2.4140     0.5570 H     1 <1>   0.1500 
 21 H        4.8260    -0.1320    -0.7910 H     1 <1>   0.1500 
 22 H        3.0760     3.4250     0.8130 H     1 <1>   0.1500 
 23 H        6.4850     1.5030    -1.1830 H     1 <1>   0.0800 
 24 H        6.5980     0.8340     0.4510 H     1 <1>   0.0800 
 25 H        7.5710     2.9690     1.2420 H     1 <1>   0.0800 
 26 H        7.4670     3.6200    -0.3780 H     1 <1>   0.0800 
 27 H        9.0540     1.8940    -1.1730 H     1 <1>   0.0800 
 28 H        9.1550     1.2480     0.4530 H     1 <1>   0.0800 
 29 H       10.0960     3.3870     1.2570 H     1 <1>   0.0800 
 30 H        9.8970     4.0760    -0.3350 H     1 <1>   0.0800 
 31 H       11.3990     2.2960    -1.1690 H     1 <1>   0.4500 
 32 H       11.2690     0.6450     0.4990 H     1 <1>   0.0800 
 33 H       11.9400     1.7450     1.6640 H     1 <1>   0.0800 
 34 H       12.5940     4.1680     0.7430 H     1 <1>   0.0800 
 35 H       12.1860     4.5140    -0.9110 H     1 <1>   0.0800 
 36 H       13.3660     0.0130    -0.0730 H     1 <1>   0.0800 
 37 H       14.0530     1.1930     1.0110 H     1 <1>   0.0800 
 38 H       14.6150     3.3810     0.0490 H     1 <1>   0.0800 
 39 H       14.1580     3.6380    -1.6130 H     1 <1>   0.0800 
@<TRIPOS>BOND
  1   1   2  1   
  2   2   3  ar  
  3   2   4  ar  
  4   3   5  ar  
  5   3  19  1   
  6   4   6  ar  
  7   4  20  1   
  8   5   7  ar  
  9   5  21  1   
 10   6   7  ar  
 11   6  22  1   
 12   7   8  1   
 13   8   9  1   
 14   9  10  1   
 15   9  23  1   
 16   9  24  1   
 17  10  11  1   
 18  10  25  1   
 19  10  26  1   
 20  11  12  1   
 21  11  27  1   
 22  11  28  1   
 23  12  13  1   
 24  12  29  1   
 25  12  30  1   
 26  13  14  1   
 27  13  15  1   
 28  13  31  1   
 29  14  16  1   
 30  14  32  1   
 31  14  33  1   
 32  15  17  1   
 33  15  34  1   
 34  15  35  1   
 35  16  18  1   
 36  16  36  1   
 37  16  37  1   
 38  17  18  1   
 39  17  38  1   
 40  17  39  1   
@<TRIPOS>SUBSTRUCTURE
  1 ****   9 GROUP 4 **** **** 0

# MOE 2024.06 (io_trps.svl 2023.06)
