@<TRIPOS>MOLECULE
NONAME
30 30 1 0 0 
SMALL
USER_CHARGES


@<TRIPOS>ATOM
  1 CL      -0.1600    -0.4050    -0.3400 Cl    1 <1>  -0.1770 
  2 C       -1.5980     0.5920    -0.3480 C.ar  1 <1>   0.1770 
  3 C       -2.8490     0.0560    -0.0650 C.ar  1 <1>  -0.1440 
  4 C       -1.4250     1.9320    -0.6410 C.ar  1 <1>  -0.1500 
  5 C       -3.9570     0.9100    -0.0640 C.ar  1 <1>   0.1170 
  6 C       -3.0190    -1.4350     0.2380 C.3   1 <1>  -0.0970 
  7 C       -2.5230     2.7710    -0.6500 C.ar  1 <1>  -0.1500 
  8 N       -5.2300     0.4160     0.2620 N.am  1 <1>  -0.5470 
  9 C       -3.7730     2.2590    -0.3610 C.ar  1 <1>  -0.1500 
 10 C       -6.4660     0.7960    -0.1680 C.2   1 <1>   0.6900 
 11 O       -6.6070     1.6070    -1.0600 O.2   1 <1>  -0.5700 
 12 N       -7.5310     0.2140     0.4430 N.am  1 <1>  -0.7300 
 13 C       -8.9660     0.4030     0.1530 C.3   1 <1>   0.2200 
 14 C       -9.2800    -0.0060    -1.2850 C.3   1 <1>  -0.2400 
 15 C       -9.3780     1.8430     0.4460 C.3   1 <1>  -0.2400 
 16 H       -0.4430     2.3100    -0.8590 H     1 <1>   0.1500 
 17 H       -2.1850    -2.0130    -0.1110 H     1 <1>   0.0800 
 18 H       -3.8930    -1.8220    -0.2550 H     1 <1>   0.0800 
 19 H       -3.1150    -1.5830     1.2980 H     1 <1>   0.0800 
 20 H       -2.4070     3.8170    -0.8790 H     1 <1>   0.1500 
 21 H       -5.2280    -0.4510     0.7850 H     1 <1>   0.3700 
 22 H       -4.6210     2.9210    -0.3630 H     1 <1>   0.1500 
 23 H       -7.3550    -0.2710     1.3180 H     1 <1>   0.3700 
 24 H       -9.5220    -0.2450     0.8100 H     1 <1>   0.0800 
 25 H       -8.7990     0.6530    -1.9850 H     1 <1>   0.0800 
 26 H      -10.3400     0.0410    -1.4540 H     1 <1>   0.0800 
 27 H       -8.9500    -1.0130    -1.4650 H     1 <1>   0.0800 
 28 H       -8.8840     2.5250    -0.2220 H     1 <1>   0.0800 
 29 H       -9.1330     2.1020     1.4600 H     1 <1>   0.0800 
 30 H      -10.4390     1.9540     0.3130 H     1 <1>   0.0800 
@<TRIPOS>BOND
  1   1   2  1   
  2   2   3  ar  
  3   2   4  ar  
  4   3   5  ar  
  5   3   6  1   
  6   4   7  ar  
  7   4  16  1   
  8   5   8  1   
  9   5   9  ar  
 10   6  17  1   
 11   6  18  1   
 12   6  19  1   
 13   7   9  ar  
 14   7  20  1   
 15   8  10  am  
 16   8  21  1   
 17   9  22  1   
 18  10  11  2   
 19  10  12  am  
 20  12  13  1   
 21  12  23  1   
 22  13  14  1   
 23  13  15  1   
 24  13  24  1   
 25  14  25  1   
 26  14  26  1   
 27  14  27  1   
 28  15  28  1   
 29  15  29  1   
 30  15  30  1   
@<TRIPOS>SUBSTRUCTURE
  1 ****   8 GROUP 4 **** **** 0

# MOE 2024.06 (io_trps.svl 2023.06)
