@<TRIPOS>MOLECULE
NONAME
39 39 1 0 0 
SMALL
USER_CHARGES


@<TRIPOS>ATOM
  1 O        0.3430    -0.2930     0.7420 O.3   1 <1>  -0.5600 
  2 C        1.1800    -0.5650    -0.3300 C.3   1 <1>   0.4800 
  3 C       -0.8390    -0.9770     0.5400 C.3   1 <1>   0.1200 
  4 O        0.8770    -1.8690    -0.6830 O.3   1 <1>  -0.5600 
  5 C        2.6540    -0.4760     0.0740 C.3   1 <1>  -0.1600 
  6 C       -0.4680    -2.0710    -0.4460 C.3   1 <1>   0.1200 
  7 C        3.2400     0.9540     0.1010 C.3   1 <1>  -0.0800 
  8 C        4.7680     0.8630     0.2930 C.3   1 <1>  -0.1600 
  9 C        2.5890     1.8180     1.1950 C.3   1 <1>  -0.2400 
 10 C        5.4970     2.2060     0.1190 C.3   1 <1>  -0.1600 
 11 C        7.0260     2.0070     0.1620 C.3   1 <1>  -0.1600 
 12 C        7.8730     3.2860     0.0260 C.3   1 <1>   0.2800 
 13 O        7.5300     4.1400     1.0400 O.3   1 <1>  -0.6800 
 14 C        7.6330     4.0330    -1.2850 C.3   1 <1>  -0.2400 
 15 C        9.3570     2.9770     0.2040 C.3   1 <1>  -0.2400 
 16 H        0.9380     0.0870    -1.1520 H     1 <1>   0.0800 
 17 H       -1.5710    -0.3040     0.1310 H     1 <1>   0.0800 
 18 H       -1.1780    -1.3760     1.4800 H     1 <1>   0.0800 
 19 H        3.2050    -1.0450    -0.6520 H     1 <1>   0.0800 
 20 H        2.7820    -0.9510     1.0300 H     1 <1>   0.0800 
 21 H       -1.0090    -1.9710    -1.3710 H     1 <1>   0.0800 
 22 H       -0.6080    -3.0540    -0.0340 H     1 <1>   0.0800 
 23 H        3.0480     1.4120    -0.8550 H     1 <1>   0.0800 
 24 H        5.1650     0.1730    -0.4320 H     1 <1>   0.0800 
 25 H        4.9830     0.4630     1.2700 H     1 <1>   0.0800 
 26 H        2.7440     1.3770     2.1640 H     1 <1>   0.0800 
 27 H        1.5310     1.9090     1.0300 H     1 <1>   0.0800 
 28 H        2.9930     2.8120     1.1990 H     1 <1>   0.0800 
 29 H        5.2050     2.8750     0.9080 H     1 <1>   0.0800 
 30 H        5.2090     2.6380    -0.8220 H     1 <1>   0.0800 
 31 H        7.3070     1.3350    -0.6300 H     1 <1>   0.0800 
 32 H        7.2870     1.5250     1.0880 H     1 <1>   0.0800 
 33 H        6.5720     4.3100     0.9960 H     1 <1>   0.4000 
 34 H        7.8560     3.3910    -2.1170 H     1 <1>   0.0800 
 35 H        8.2760     4.8940    -1.3440 H     1 <1>   0.0800 
 36 H        6.6140     4.3600    -1.3700 H     1 <1>   0.0800 
 37 H        9.6940     2.3160    -0.5730 H     1 <1>   0.0800 
 38 H        9.5300     2.5030     1.1530 H     1 <1>   0.0800 
 39 H        9.9360     3.8820     0.1570 H     1 <1>   0.0800 
@<TRIPOS>BOND
  1   1   2  1   
  2   1   3  1   
  3   2   4  1   
  4   2   5  1   
  5   2  16  1   
  6   3   6  1   
  7   3  17  1   
  8   3  18  1   
  9   4   6  1   
 10   5   7  1   
 11   5  19  1   
 12   5  20  1   
 13   6  21  1   
 14   6  22  1   
 15   7   8  1   
 16   7   9  1   
 17   7  23  1   
 18   8  10  1   
 19   8  24  1   
 20   8  25  1   
 21   9  26  1   
 22   9  27  1   
 23   9  28  1   
 24  10  11  1   
 25  10  29  1   
 26  10  30  1   
 27  11  12  1   
 28  11  31  1   
 29  11  32  1   
 30  12  13  1   
 31  12  14  1   
 32  12  15  1   
 33  13  33  1   
 34  14  34  1   
 35  14  35  1   
 36  14  36  1   
 37  15  37  1   
 38  15  38  1   
 39  15  39  1   
@<TRIPOS>SUBSTRUCTURE
  1 ****   7 GROUP 4 **** **** 0

# MOE 2024.06 (io_trps.svl 2023.06)
