@<TRIPOS>MOLECULE
NONAME
46 48 1 0 0 
SMALL
USER_CHARGES


@<TRIPOS>ATOM
  1 O       -2.7960    -5.5410     0.1060 O.3   1 <1>  -0.3630 
  2 C       -1.5630    -6.0930    -0.0270 C.ar  1 <1>   0.0830 
  3 C       -3.9480    -6.2100    -0.3590 C.3   1 <1>   0.2640 
  4 C       -1.3180    -7.3150    -0.6490 C.ar  1 <1>  -0.1500 
  5 C       -0.5030    -5.3720     0.4980 C.ar  1 <1>  -0.1500 
  6 C       -5.1700    -5.3550    -0.0640 C.ar  1 <1>  -0.1440 
  7 C       -0.0240    -7.7970    -0.7360 C.ar  1 <1>  -0.1500 
  8 C        0.7920    -5.8530     0.4120 C.ar  1 <1>  -0.1500 
  9 C       -5.3650    -4.1630    -0.7450 C.ar  1 <1>  -0.1500 
 10 C       -6.1020    -5.7570     0.8820 C.ar  1 <1>  -0.1500 
 11 C        1.0360    -7.0750    -0.2100 C.ar  1 <1>   0.0830 
 12 C       -6.4810    -3.3850    -0.4900 C.ar  1 <1>  -0.1500 
 13 C       -7.2190    -4.9800     1.1380 C.ar  1 <1>  -0.1500 
 14 O        2.2720    -7.6250    -0.3430 O.3   1 <1>  -0.3630 
 15 C       -7.4090    -3.7940     0.4510 C.ar  1 <1>  -0.1500 
 16 C        3.4180    -6.9620     0.1320 C.3   1 <1>   0.1200 
 17 C        4.6230    -7.8530    -0.1870 C.3   1 <1>   0.3430 
 18 N        5.9210    -7.2560     0.2690 N.4   1 <1>  -0.9590 
 19 C        6.3100    -6.0170    -0.4540 C.3   1 <1>   0.3430 
 20 C        7.0590    -8.1920     0.0940 C.3   1 <1>   0.3430 
 21 C        7.8080    -5.8950    -0.2170 C.3   1 <1>  -0.1600 
 22 C        8.2920    -7.3020     0.1450 C.3   1 <1>  -0.1600 
 23 H       -4.0140    -7.1590     0.1440 H     1 <1>   0.0800 
 24 H       -3.8490    -6.3600    -1.4190 H     1 <1>   0.0800 
 25 H       -2.1130    -7.9020    -1.0680 H     1 <1>   0.1500 
 26 H       -0.7050    -4.4300     0.9770 H     1 <1>   0.1500 
 27 H        0.1680    -8.7400    -1.2150 H     1 <1>   0.1500 
 28 H        1.5800    -5.2610     0.8340 H     1 <1>   0.1500 
 29 H       -4.6420    -3.8370    -1.4730 H     1 <1>   0.1500 
 30 H       -5.9630    -6.6750     1.4250 H     1 <1>   0.1500 
 31 H       -6.6240    -2.4610    -1.0220 H     1 <1>   0.1500 
 32 H       -7.9380    -5.2970     1.8720 H     1 <1>   0.1500 
 33 H       -8.2770    -3.1890     0.6500 H     1 <1>   0.1500 
 34 H        3.3090    -6.8260     1.1930 H     1 <1>   0.0800 
 35 H        3.4860    -6.0160    -0.3760 H     1 <1>   0.0800 
 36 H        4.6570    -8.0220    -1.2500 H     1 <1>   0.0800 
 37 H        4.4760    -8.8030     0.3020 H     1 <1>   0.0800 
 38 H        5.8670    -7.0330     1.2730 H     1 <1>   0.4500 
 39 H        5.7760    -5.1530    -0.0890 H     1 <1>   0.0800 
 40 H        6.1220    -6.1360    -1.5100 H     1 <1>   0.0800 
 41 H        6.9980    -8.6660    -0.8730 H     1 <1>   0.0800 
 42 H        7.0790    -8.9490     0.8640 H     1 <1>   0.0800 
 43 H        7.9970    -5.2120     0.5940 H     1 <1>   0.0800 
 44 H        8.2980    -5.5180    -1.0990 H     1 <1>   0.0800 
 45 H        9.0410    -7.6570    -0.5430 H     1 <1>   0.0800 
 46 H        8.7100    -7.3120     1.1370 H     1 <1>   0.0800 
@<TRIPOS>BOND
  1   1   2  1   
  2   1   3  1   
  3   2   4  ar  
  4   2   5  ar  
  5   3   6  1   
  6   3  23  1   
  7   3  24  1   
  8   4   7  ar  
  9   4  25  1   
 10   5   8  ar  
 11   5  26  1   
 12   6   9  ar  
 13   6  10  ar  
 14   7  11  ar  
 15   7  27  1   
 16   8  11  ar  
 17   8  28  1   
 18   9  12  ar  
 19   9  29  1   
 20  10  13  ar  
 21  10  30  1   
 22  11  14  1   
 23  12  15  ar  
 24  12  31  1   
 25  13  15  ar  
 26  13  32  1   
 27  14  16  1   
 28  15  33  1   
 29  16  17  1   
 30  16  34  1   
 31  16  35  1   
 32  17  18  1   
 33  17  36  1   
 34  17  37  1   
 35  18  19  1   
 36  18  20  1   
 37  18  38  1   
 38  19  21  1   
 39  19  39  1   
 40  19  40  1   
 41  20  22  1   
 42  20  41  1   
 43  20  42  1   
 44  21  22  1   
 45  21  43  1   
 46  21  44  1   
 47  22  45  1   
 48  22  46  1   
@<TRIPOS>SUBSTRUCTURE
  1 ****   8 GROUP 4 **** **** 0

# MOE 2024.06 (io_trps.svl 2023.06)
