@<TRIPOS>MOLECULE
NONAME
41 43 1 0 0 
SMALL
USER_CHARGES


@<TRIPOS>ATOM
  1 CL       0.9040     1.7360     2.2610 Cl    1 <1>  -0.1770 
  2 C        1.9820     1.5750     0.8970 C.ar  1 <1>   0.1770 
  3 C        3.1740     0.8980     1.0550 C.ar  1 <1>  -0.1500 
  4 C        1.6220     2.1280    -0.3170 C.ar  1 <1>  -0.1500 
  5 C        4.0380     0.7630    -0.0230 C.ar  1 <1>   0.1000 
  6 C        2.4800     1.9980    -1.3970 C.ar  1 <1>  -0.1500 
  7 N        5.2360     0.0800     0.1420 N.pl3 1 <1>  -0.8380 
  8 C        3.6780     1.3200    -1.2480 C.ar  1 <1>  -0.1500 
  9 C        6.4830     0.8970     0.0800 C.3   1 <1>   0.2090 
 10 C        5.3350    -1.2540    -0.5180 C.3   1 <1>   0.2090 
 11 C        7.6860     0.0950     0.6200 C.3   1 <1>   0.3430 
 12 C        6.5450    -2.0430     0.0270 C.3   1 <1>   0.3430 
 13 N        7.8300    -1.2560    -0.0460 N.4   1 <1>  -0.9590 
 14 C        8.9830    -2.0150     0.5060 C.3   1 <1>   0.4860 
 15 C       10.2460    -1.2350     0.2070 C.ar  1 <1>  -0.1430 
 16 C       10.6930    -1.1120    -1.1000 C.ar  1 <1>  -0.1500 
 17 C       10.9610    -0.6260     1.2310 C.ar  1 <1>  -0.1500 
 18 C       11.8270    -0.3730    -1.3770 C.ar  1 <1>   0.0830 
 19 C       12.1020     0.1080     0.9480 C.ar  1 <1>  -0.1500 
 20 O       12.2250    -0.2610    -2.6510 O.3   1 <1>  -0.5330 
 21 C       12.5380     0.2390    -0.3590 C.ar  1 <1>  -0.1500 
 22 H        3.4320     0.4770     2.0070 H     1 <1>   0.1500 
 23 H        0.6870     2.6510    -0.4120 H     1 <1>   0.1500 
 24 H        2.2120     2.4250    -2.3490 H     1 <1>   0.1500 
 25 H        4.3390     1.2230    -2.0880 H     1 <1>   0.1500 
 26 H        6.3530     1.7870     0.6720 H     1 <1>   0.0800 
 27 H        6.6710     1.2000    -0.9350 H     1 <1>   0.0800 
 28 H        5.4280    -1.1260    -1.5820 H     1 <1>   0.0800 
 29 H        4.4320    -1.8090    -0.3290 H     1 <1>   0.0800 
 30 H        7.5480    -0.0390     1.6800 H     1 <1>   0.0800 
 31 H        8.5840     0.6740     0.4750 H     1 <1>   0.0800 
 32 H        6.6430    -2.9610    -0.5290 H     1 <1>   0.0800 
 33 H        6.3380    -2.2980     1.0530 H     1 <1>   0.0800 
 34 H        8.0460    -1.0720    -1.0340 H     1 <1>   0.4500 
 35 H        9.0480    -2.9870     0.0420 H     1 <1>   0.0800 
 36 H        8.8710    -2.1480     1.5690 H     1 <1>   0.0800 
 37 H       10.1830    -1.5820    -1.9230 H     1 <1>   0.1500 
 38 H       10.6450    -0.7140     2.2570 H     1 <1>   0.1500 
 39 H       12.6550     0.5770     1.7450 H     1 <1>   0.1500 
 40 H       13.0580     0.2370    -2.7560 H     1 <1>   0.4500 
 41 H       13.4230     0.8100    -0.5740 H     1 <1>   0.1500 
@<TRIPOS>BOND
  1   1   2  1   
  2   2   3  ar  
  3   2   4  ar  
  4   3   5  ar  
  5   3  22  1   
  6   4   6  ar  
  7   4  23  1   
  8   5   7  1   
  9   5   8  ar  
 10   6   8  ar  
 11   6  24  1   
 12   7   9  1   
 13   7  10  1   
 14   8  25  1   
 15   9  11  1   
 16   9  26  1   
 17   9  27  1   
 18  10  12  1   
 19  10  28  1   
 20  10  29  1   
 21  11  13  1   
 22  11  30  1   
 23  11  31  1   
 24  12  13  1   
 25  12  32  1   
 26  12  33  1   
 27  13  14  1   
 28  13  34  1   
 29  14  15  1   
 30  14  35  1   
 31  14  36  1   
 32  15  16  ar  
 33  15  17  ar  
 34  16  18  ar  
 35  16  37  1   
 36  17  19  ar  
 37  17  38  1   
 38  18  20  1   
 39  18  21  ar  
 40  19  21  ar  
 41  19  39  1   
 42  20  40  1   
 43  21  41  1   
@<TRIPOS>SUBSTRUCTURE
  1 ****   9 GROUP 4 **** **** 0

# MOE 2024.06 (io_trps.svl 2023.06)
