@<TRIPOS>MOLECULE
NONAME
33 34 1 0 0 
SMALL
USER_CHARGES


@<TRIPOS>ATOM
  1 S       -0.0010    -0.2300     0.1970 S.3   1 <1>  -0.0800 
  2 C       -0.8060     1.2600    -0.1690 C.2   1 <1>   0.4420 
  3 C        1.4970     0.6210     0.0270 C.2   1 <1>   0.1980 
  4 N        0.0200     2.2200    -0.3780 N.2   1 <1>  -0.3380 
  5 N       -2.1830     1.2440    -0.1930 N.am  1 <1>  -0.4940 
  6 N        1.3300     1.8480    -0.2640 N.2   1 <1>  -0.3380 
  7 C        2.7760    -0.1720     0.2390 C.3   1 <1>   0.0200 
  8 C       -3.0870     2.2260    -0.4420 C.2   1 <1>   0.5690 
  9 C        4.0440     0.6800     0.0650 C.3   1 <1>  -0.1600 
 10 O       -4.2590     1.9640    -0.4040 O.2   1 <1>  -0.5700 
 11 C       -2.6640     3.6400    -0.7650 C.3   1 <1>  -0.1790 
 12 C        5.3190    -0.1450     0.2840 C.3   1 <1>  -0.0170 
 13 C        6.5530     0.7230     0.1050 C.ar  1 <1>  -0.1440 
 14 C        7.0970     1.3990     1.1870 C.ar  1 <1>  -0.1500 
 15 C        7.1460     0.8490    -1.1410 C.ar  1 <1>  -0.1500 
 16 C        8.2220     2.1890     1.0250 C.ar  1 <1>  -0.1500 
 17 C        8.2720     1.6380    -1.3050 C.ar  1 <1>  -0.1500 
 18 C        8.8110     2.3080    -0.2210 C.ar  1 <1>  -0.1500 
 19 H       -2.6270     0.3520     0.0070 H     1 <1>   0.3700 
 20 H        2.7930    -0.9850    -0.4650 H     1 <1>   0.0800 
 21 H        2.7590    -0.5870     1.2310 H     1 <1>   0.0800 
 22 H        4.0250     1.4980     0.7650 H     1 <1>   0.0800 
 23 H        4.0590     1.1000    -0.9270 H     1 <1>   0.0800 
 24 H       -2.0640     3.6480    -1.6550 H     1 <1>   0.0800 
 25 H       -2.0980     4.0490     0.0510 H     1 <1>   0.0800 
 26 H       -3.5320     4.2520    -0.9260 H     1 <1>   0.0800 
 27 H        5.3530    -0.9610    -0.4160 H     1 <1>   0.0800 
 28 H        5.3190    -0.5630     1.2760 H     1 <1>   0.0800 
 29 H        6.6460     1.3150     2.1600 H     1 <1>   0.1500 
 30 H        6.7340     0.3350    -1.9910 H     1 <1>   0.1500 
 31 H        8.6390     2.7100     1.8690 H     1 <1>   0.1500 
 32 H        8.7270     1.7310    -2.2750 H     1 <1>   0.1500 
 33 H        9.6860     2.9220    -0.3470 H     1 <1>   0.1500 
@<TRIPOS>BOND
  1   1   2  1   
  2   1   3  1   
  3   2   4  2   
  4   2   5  1   
  5   3   6  2   
  6   3   7  1   
  7   4   6  1   
  8   5   8  am  
  9   5  19  1   
 10   7   9  1   
 11   7  20  1   
 12   7  21  1   
 13   8  10  2   
 14   8  11  1   
 15   9  12  1   
 16   9  22  1   
 17   9  23  1   
 18  11  24  1   
 19  11  25  1   
 20  11  26  1   
 21  12  13  1   
 22  12  27  1   
 23  12  28  1   
 24  13  14  ar  
 25  13  15  ar  
 26  14  16  ar  
 27  14  29  1   
 28  15  17  ar  
 29  15  30  1   
 30  16  18  ar  
 31  16  31  1   
 32  17  18  ar  
 33  17  32  1   
 34  18  33  1   
@<TRIPOS>SUBSTRUCTURE
  1 ****   3 GROUP 4 **** **** 0

# MOE 2024.06 (io_trps.svl 2023.06)
