@<TRIPOS>MOLECULE
NONAME
30 30 1 0 0 
SMALL
USER_CHARGES


@<TRIPOS>ATOM
  1 P        0.5100    -0.4160     0.6920 P.3   1 <1>   0.8390 
  2 O        0.7210    -0.8420     2.0700 O.2   1 <1>  -0.7000 
  3 C        1.7600     0.6960     0.0690 C.ar  1 <1>  -0.1390 
  4 C       -1.0270     0.4520     0.4660 C.3   1 <1>  -0.1600 
  5 C        0.4720    -1.7780    -0.4530 C.3   1 <1>  -0.1600 
  6 C        2.8070     1.1060     0.8840 C.ar  1 <1>  -0.1500 
  7 C        1.7440     1.1910    -1.2310 C.ar  1 <1>  -0.1500 
  8 C       -2.2870    -0.3230     0.8850 C.3   1 <1>  -0.2400 
  9 C        1.7820    -2.5780    -0.5400 C.3   1 <1>  -0.2400 
 10 C        3.7980     1.9660     0.4400 C.ar  1 <1>  -0.1430 
 11 C        2.7230     2.0520    -1.6930 C.ar  1 <1>  -0.1500 
 12 C        3.7520     2.4410    -0.8570 C.ar  1 <1>  -0.1500 
 13 C        4.9200     2.3820     1.3740 C.3   1 <1>  -0.0970 
 14 H       -1.1510     0.7500    -0.5580 H     1 <1>   0.0800 
 15 H       -1.0060     1.3580     1.0430 H     1 <1>   0.0800 
 16 H        0.2320    -1.4380    -1.4430 H     1 <1>   0.0800 
 17 H       -0.3020    -2.4670    -0.1680 H     1 <1>   0.0800 
 18 H        2.8440     0.7380     1.8970 H     1 <1>   0.1500 
 19 H        0.9570     0.9050    -1.9060 H     1 <1>   0.1500 
 20 H       -2.4110    -1.2070     0.2850 H     1 <1>   0.0800 
 21 H       -3.1600     0.2950     0.7690 H     1 <1>   0.0800 
 22 H       -2.2110    -0.6170     1.9180 H     1 <1>   0.0800 
 23 H        2.5870    -1.9480    -0.8770 H     1 <1>   0.0800 
 24 H        1.6750    -3.3990    -1.2260 H     1 <1>   0.0800 
 25 H        2.0390    -2.9700     0.4300 H     1 <1>   0.0800 
 26 H        2.6870     2.4200    -2.7040 H     1 <1>   0.1500 
 27 H        4.5110     3.1120    -1.2190 H     1 <1>   0.1500 
 28 H        5.1670     1.5770     2.0420 H     1 <1>   0.0800 
 29 H        4.6110     3.2330     1.9550 H     1 <1>   0.0800 
 30 H        5.8010     2.6430     0.8160 H     1 <1>   0.0800 
@<TRIPOS>BOND
  1   1   2  2   
  2   1   3  1   
  3   1   4  1   
  4   1   5  1   
  5   3   6  ar  
  6   3   7  ar  
  7   4   8  1   
  8   4  14  1   
  9   4  15  1   
 10   5   9  1   
 11   5  16  1   
 12   5  17  1   
 13   6  10  ar  
 14   6  18  1   
 15   7  11  ar  
 16   7  19  1   
 17   8  20  1   
 18   8  21  1   
 19   8  22  1   
 20   9  23  1   
 21   9  24  1   
 22   9  25  1   
 23  10  12  ar  
 24  10  13  1   
 25  11  12  ar  
 26  11  26  1   
 27  12  27  1   
 28  13  28  1   
 29  13  29  1   
 30  13  30  1   
@<TRIPOS>SUBSTRUCTURE
  1 ****   3 GROUP 4 **** **** 0

# MOE 2024.06 (io_trps.svl 2023.06)
