@<TRIPOS>MOLECULE
NONAME
40 42 1 0 0 
SMALL
USER_CHARGES


@<TRIPOS>ATOM
  1 I        1.4860     0.0750    -1.6230 I     1 <1>  -0.0810 
  2 C        0.6010    -1.7320    -0.9020 C.ar  1 <1>   0.0810 
  3 C        1.1940    -2.4530     0.1240 C.ar  1 <1>   0.0820 
  4 C       -0.5780    -2.1380    -1.4990 C.ar  1 <1>  -0.1500 
  5 O        2.3400    -2.0550     0.7130 O.3   1 <1>  -0.5330 
  6 C        0.5860    -3.6270     0.5610 C.ar  1 <1>   0.0830 
  7 C       -1.1940    -3.3000    -1.0520 C.ar  1 <1>  -0.1430 
  8 O        1.2060    -4.3110     1.5640 O.3   1 <1>  -0.3630 
  9 C       -0.6060    -4.0430    -0.0320 C.ar  1 <1>  -0.1500 
 10 C       -2.5060    -3.7420    -1.6730 C.3   1 <1>   0.4860 
 11 C        0.7940    -5.6050     1.9480 C.3   1 <1>   0.0400 
 12 N       -3.6070    -3.4310    -0.7260 N.4   1 <1>  -0.9590 
 13 C       -4.9060    -4.0040    -1.1690 C.3   1 <1>   0.4860 
 14 C       -3.7580    -1.9680    -0.4570 C.3   1 <1>   0.3430 
 15 C       -5.9730    -3.7350    -0.1230 C.ar  1 <1>  -0.1430 
 16 C       -4.6540    -1.7510     0.7640 C.3   1 <1>  -0.0170 
 17 C       -5.8640    -2.6750     0.7740 C.ar  1 <1>  -0.1430 
 18 C       -7.0850    -4.5630    -0.0710 C.ar  1 <1>  -0.1500 
 19 C       -6.8650    -2.4590     1.7070 C.ar  1 <1>  -0.1500 
 20 C       -8.0800    -4.3400     0.8640 C.ar  1 <1>  -0.1500 
 21 C       -7.9700    -3.2880     1.7520 C.ar  1 <1>  -0.1500 
 22 H       -0.9940    -1.5450    -2.2960 H     1 <1>   0.1500 
 23 H        2.6060    -2.6990     1.4010 H     1 <1>   0.4500 
 24 H       -1.0790    -4.9480     0.3020 H     1 <1>   0.1500 
 25 H       -2.4670    -4.8030    -1.8650 H     1 <1>   0.0800 
 26 H       -2.6610    -3.2310    -2.6090 H     1 <1>   0.0800 
 27 H        1.4810    -5.9670     2.6930 H     1 <1>   0.0800 
 28 H        0.8200    -6.2520     1.0890 H     1 <1>   0.0800 
 29 H       -0.1950    -5.5510     2.3660 H     1 <1>   0.0800 
 30 H       -3.3870    -3.8700     0.1760 H     1 <1>   0.4500 
 31 H       -4.8120    -5.0690    -1.3110 H     1 <1>   0.0800 
 32 H       -5.2090    -3.5600    -2.1040 H     1 <1>   0.0800 
 33 H       -4.2000    -1.4860    -1.3140 H     1 <1>   0.0800 
 34 H       -2.7980    -1.5140    -0.2700 H     1 <1>   0.0800 
 35 H       -4.9800    -0.7260     0.7800 H     1 <1>   0.0800 
 36 H       -4.0780    -1.9190     1.6570 H     1 <1>   0.0800 
 37 H       -7.1970    -5.3880    -0.7530 H     1 <1>   0.1500 
 38 H       -6.7940    -1.6440     2.4080 H     1 <1>   0.1500 
 39 H       -8.9430    -4.9850     0.9020 H     1 <1>   0.1500 
 40 H       -8.7450    -3.1140     2.4800 H     1 <1>   0.1500 
@<TRIPOS>BOND
  1   1   2  1   
  2   2   3  ar  
  3   2   4  ar  
  4   3   5  1   
  5   3   6  ar  
  6   4   7  ar  
  7   4  22  1   
  8   5  23  1   
  9   6   8  1   
 10   6   9  ar  
 11   7   9  ar  
 12   7  10  1   
 13   8  11  1   
 14   9  24  1   
 15  10  12  1   
 16  10  25  1   
 17  10  26  1   
 18  11  27  1   
 19  11  28  1   
 20  11  29  1   
 21  12  13  1   
 22  12  14  1   
 23  12  30  1   
 24  13  15  1   
 25  13  31  1   
 26  13  32  1   
 27  14  16  1   
 28  14  33  1   
 29  14  34  1   
 30  15  17  ar  
 31  15  18  ar  
 32  16  17  1   
 33  16  35  1   
 34  16  36  1   
 35  17  19  ar  
 36  18  20  ar  
 37  18  37  1   
 38  19  21  ar  
 39  19  38  1   
 40  20  21  ar  
 41  20  39  1   
 42  21  40  1   
@<TRIPOS>SUBSTRUCTURE
  1 ****  12 GROUP 4 **** **** 0

# MOE 2024.06 (io_trps.svl 2023.06)
