@<TRIPOS>MOLECULE
NONAME
40 41 1 0 0 
SMALL
USER_CHARGES


@<TRIPOS>ATOM
  1 S       -0.1940     0.0020     0.3030 S.o2  1 <1>   1.4470 
  2 O       -0.7630    -0.0870     1.6290 O.2   1 <1>  -0.6500 
  3 O       -0.6610    -0.8670    -0.7530 O.2   1 <1>  -0.6500 
  4 N       -0.5320     1.5380    -0.2790 N.am  1 <1>  -0.9140 
  5 C        1.6160    -0.0100     0.3930 C.ar  1 <1>  -0.0090 
  6 C       -1.8740     1.9770     0.0370 C.3   1 <1>   0.1960 
  7 C        2.3760    -0.8670    -0.3940 C.ar  1 <1>  -0.1500 
  8 C        2.2900     0.8510     1.2510 C.ar  1 <1>  -0.1500 
  9 C       -2.1180     3.3000    -0.6750 C.3   1 <1>  -0.2400 
 10 C        3.7580    -0.8630    -0.3290 C.ar  1 <1>  -0.1500 
 11 C        3.6720     0.8610     1.3210 C.ar  1 <1>  -0.1500 
 12 C        4.4150     0.0030     0.5280 C.ar  1 <1>  -0.1430 
 13 C        5.9330     0.0110     0.5890 C.3   1 <1>  -0.0170 
 14 C        6.5020     0.9370    -0.4910 C.3   1 <1>  -0.0990 
 15 C        8.0140     0.9350    -0.4660 C.2   1 <1>   0.5690 
 16 O        8.5920    -0.0510    -0.8530 O.2   1 <1>  -0.5700 
 17 N        8.6620     2.0350    -0.0010 N.am  1 <1>  -0.5790 
 18 C       10.1200     2.1840     0.0960 C.3   1 <1>   0.0490 
 19 C       10.6710     2.9700     1.2380 C.3   1 <1>  -0.2000 
 20 C       10.7050     3.5350    -0.1510 C.3   1 <1>  -0.2000 
 21 H       -0.4940     1.4180    -1.2880 H     1 <1>   0.4200 
 22 H       -1.9730     2.1110     1.1030 H     1 <1>   0.0800 
 23 H       -2.5940     1.2410    -0.2870 H     1 <1>   0.0800 
 24 H        1.8810    -1.5480    -1.0670 H     1 <1>   0.1500 
 25 H        1.7210     1.5230     1.8710 H     1 <1>   0.1500 
 26 H       -1.4000     4.0330    -0.3520 H     1 <1>   0.0800 
 27 H       -3.1020     3.6610    -0.4360 H     1 <1>   0.0800 
 28 H       -2.0510     3.1750    -1.7410 H     1 <1>   0.0800 
 29 H        4.3220    -1.5380    -0.9520 H     1 <1>   0.1500 
 30 H        4.1630     1.5400     1.9960 H     1 <1>   0.1500 
 31 H        6.3050    -0.9890     0.4400 H     1 <1>   0.0800 
 32 H        6.2610     0.3370     1.5600 H     1 <1>   0.0800 
 33 H        6.1310     1.9350    -0.3490 H     1 <1>   0.0800 
 34 H        6.1820     0.5980    -1.4590 H     1 <1>   0.0800 
 35 H        8.1290     2.8480     0.3060 H     1 <1>   0.3700 
 36 H       10.6620     1.3150    -0.2450 H     1 <1>   0.1000 
 37 H       11.5990     2.6530     1.6800 H     1 <1>   0.1000 
 38 H        9.9920     3.3900     1.9590 H     1 <1>   0.1000 
 39 H       10.0500     4.3490    -0.4030 H     1 <1>   0.1000 
 40 H       11.6560     3.5990    -0.6500 H     1 <1>   0.1000 
@<TRIPOS>BOND
  1   1   2  2   
  2   1   3  2   
  3   1   4  am  
  4   1   5  1   
  5   4   6  1   
  6   4  21  1   
  7   5   7  ar  
  8   5   8  ar  
  9   6   9  1   
 10   6  22  1   
 11   6  23  1   
 12   7  10  ar  
 13   7  24  1   
 14   8  11  ar  
 15   8  25  1   
 16   9  26  1   
 17   9  27  1   
 18   9  28  1   
 19  10  12  ar  
 20  10  29  1   
 21  11  12  ar  
 22  11  30  1   
 23  12  13  1   
 24  13  14  1   
 25  13  31  1   
 26  13  32  1   
 27  14  15  1   
 28  14  33  1   
 29  14  34  1   
 30  15  16  2   
 31  15  17  am  
 32  17  18  1   
 33  17  35  1   
 34  18  19  1   
 35  18  20  1   
 36  18  36  1   
 37  19  20  1   
 38  19  37  1   
 39  19  38  1   
 40  20  39  1   
 41  20  40  1   
@<TRIPOS>SUBSTRUCTURE
  1 ****  12 GROUP 4 **** **** 0

# MOE 2024.06 (io_trps.svl 2023.06)
