@<TRIPOS>MOLECULE
NONAME
38 39 1 0 0 
SMALL
USER_CHARGES


@<TRIPOS>ATOM
  1 CL      -0.1060     2.7500    -1.7940 Cl    1 <1>  -0.1770 
  2 C        1.1750     2.1850    -0.7420 C.ar  1 <1>   0.1770 
  3 C        2.0820     1.2700    -1.2570 C.ar  1 <1>   0.1770 
  4 C        1.2890     2.6290     0.5740 C.ar  1 <1>  -0.1440 
  5 CL       1.9470     0.7080    -2.9080 Cl    1 <1>  -0.1770 
  6 C        3.1140     0.7790    -0.4820 C.ar  1 <1>  -0.1500 
  7 C        2.3350     2.1260     1.3440 C.ar  1 <1>  -0.1500 
  8 C        0.3330     3.6340     1.2270 C.3   1 <1>   0.5020 
  9 C        3.2380     1.2120     0.8250 C.ar  1 <1>  -0.1500 
 10 N       -0.9150     2.9250     1.5000 N.am  1 <1>  -0.7300 
 11 C        0.1220     4.9430     0.4590 C.2   1 <1>  -0.1240 
 12 C       -2.0990     3.2430     0.9600 C.2   1 <1>   0.6900 
 13 C       -1.1180     5.2320    -0.0440 C.2   1 <1>  -0.0290 
 14 C        1.3310     5.7210     0.4230 C.2   1 <1>   0.7060 
 15 O       -3.0190     2.4670     1.1270 O.2   1 <1>  -0.5700 
 16 N       -2.2280     4.4190     0.2400 N.am  1 <1>  -0.4690 
 17 C       -1.3950     6.4360    -0.9520 C.3   1 <1>  -0.1020 
 18 O        2.4110     5.2950     0.7890 O.2   1 <1>  -0.5700 
 19 O        1.2830     7.0010     0.0430 O.3   1 <1>  -0.4300 
 20 C       -3.6110     4.7880    -0.2000 C.3   1 <1>   0.0600 
 21 C        2.4300     7.8230     0.0240 C.3   1 <1>   0.1200 
 22 C        2.0130     9.2010    -0.4800 C.3   1 <1>  -0.2400 
 23 H        3.8080     0.0710    -0.8990 H     1 <1>   0.1500 
 24 H        2.4620     2.4510     2.3640 H     1 <1>   0.1500 
 25 H        0.7380     3.9060     2.1870 H     1 <1>   0.0800 
 26 H        4.0400     0.8410     1.4410 H     1 <1>   0.1500 
 27 H       -0.8400     1.9880     1.8860 H     1 <1>   0.3700 
 28 H       -2.0740     6.1740    -1.7410 H     1 <1>   0.0800 
 29 H       -0.5130     6.7800    -1.4520 H     1 <1>   0.0800 
 30 H       -1.8110     7.2450    -0.3790 H     1 <1>   0.0800 
 31 H       -4.3540     4.2690     0.3800 H     1 <1>   0.0800 
 32 H       -3.7390     4.5260    -1.2350 H     1 <1>   0.0800 
 33 H       -3.7780     5.8420    -0.0680 H     1 <1>   0.0800 
 34 H        3.1600     7.3770    -0.6300 H     1 <1>   0.0800 
 35 H        2.8260     7.8810     1.0240 H     1 <1>   0.0800 
 36 H        1.6120     9.1260    -1.4750 H     1 <1>   0.0800 
 37 H        2.8680     9.8520    -0.5040 H     1 <1>   0.0800 
 38 H        1.2760     9.6290     0.1760 H     1 <1>   0.0800 
@<TRIPOS>BOND
  1   1   2  1   
  2   2   3  ar  
  3   2   4  ar  
  4   3   5  1   
  5   3   6  ar  
  6   4   7  ar  
  7   4   8  1   
  8   6   9  ar  
  9   6  23  1   
 10   7   9  ar  
 11   7  24  1   
 12   8  10  1   
 13   8  11  1   
 14   8  25  1   
 15   9  26  1   
 16  10  12  am  
 17  10  27  1   
 18  11  13  2   
 19  11  14  1   
 20  12  15  2   
 21  12  16  am  
 22  13  16  1   
 23  13  17  1   
 24  14  18  2   
 25  14  19  1   
 26  16  20  1   
 27  17  28  1   
 28  17  29  1   
 29  17  30  1   
 30  19  21  1   
 31  20  31  1   
 32  20  32  1   
 33  20  33  1   
 34  21  22  1   
 35  21  34  1   
 36  21  35  1   
 37  22  36  1   
 38  22  37  1   
 39  22  38  1   
@<TRIPOS>SUBSTRUCTURE
  1 ****  11 GROUP 4 **** **** 0

# MOE 2024.06 (io_trps.svl 2023.06)
