@<TRIPOS>MOLECULE
NONAME
43 46 1 0 0 
SMALL
USER_CHARGES


@<TRIPOS>ATOM
  1 O        0.5720    -0.3220     1.1600 O.2   1 <1>  -0.5700 
  2 C        0.7250    -1.2490     0.4010 C.2   1 <1>   0.4950 
  3 C       -0.1690    -2.3460     0.3010 C.2   1 <1>  -0.1240 
  4 C        1.9690    -1.2660    -0.4690 C.3   1 <1>  -0.0990 
  5 C        0.1260    -3.4890    -0.3800 C.2   1 <1>  -0.0380 
  6 C       -1.5150    -2.1810     1.0260 C.3   1 <1>   0.4570 
  7 C        2.5390    -2.6910    -0.6430 C.3   1 <1>   0.0000 
  8 N       -0.7410    -4.5560    -0.4060 N.pl3 1 <1>  -0.5840 
  9 C        1.4330    -3.6480    -1.1470 C.3   1 <1>  -0.0220 
 10 N       -2.2970    -3.4450     0.9930 N.pl3 1 <1>   0.3140 
 11 C       -2.3440    -1.0280     0.4440 C.ar  1 <1>  -0.1440 
 12 C        3.0980    -3.1980     0.7000 C.3   1 <1>  -0.2400 
 13 C        3.6920    -2.6570    -1.6580 C.3   1 <1>  -0.2400 
 14 C       -1.9280    -4.5170     0.3160 C.2   1 <1>   0.2700 
 15 N       -3.4440    -3.7240     1.5930 N.2   1 <1>  -0.4180 
 16 C       -2.8520    -1.0670    -0.8520 C.ar  1 <1>   0.0830 
 17 C       -2.6030     0.0880     1.2280 C.ar  1 <1>  -0.1500 
 18 N       -2.7990    -5.4460     0.4510 N.2   1 <1>  -0.3380 
 19 N       -3.7340    -4.9300     1.2520 N.2   1 <1>   0.0000 
 20 O       -2.6020    -2.1370    -1.6370 O.3   1 <1>  -0.3630 
 21 C       -3.6010    -0.0090    -1.3480 C.ar  1 <1>  -0.1500 
 22 C       -3.3550     1.1400     0.7360 C.ar  1 <1>  -0.1500 
 23 C       -3.7140    -2.8580    -2.1230 C.3   1 <1>   0.0400 
 24 C       -3.8560     1.0930    -0.5520 C.ar  1 <1>  -0.1500 
 25 H        2.7110    -0.6220    -0.0330 H     1 <1>   0.0800 
 26 H        1.7020    -0.8560    -1.4260 H     1 <1>   0.0800 
 27 H       -1.3130    -1.9750     2.0600 H     1 <1>   0.0800 
 28 H       -0.5460    -5.4190    -0.9230 H     1 <1>   0.4000 
 29 H        1.2270    -3.4540    -2.1850 H     1 <1>   0.0800 
 30 H        1.7800    -4.6640    -1.0690 H     1 <1>   0.0800 
 31 H        3.5380    -4.1720     0.5830 H     1 <1>   0.0800 
 32 H        2.3260    -3.2700     1.4460 H     1 <1>   0.0800 
 33 H        3.8580    -2.5310     1.0690 H     1 <1>   0.0800 
 34 H        3.3500    -2.2990    -2.6140 H     1 <1>   0.0800 
 35 H        4.1060    -3.6410    -1.7950 H     1 <1>   0.0800 
 36 H        4.4770    -2.0050    -1.3170 H     1 <1>   0.0800 
 37 H       -2.2150     0.1520     2.2310 H     1 <1>   0.1500 
 38 H       -3.9770    -0.0410    -2.3530 H     1 <1>   0.1500 
 39 H       -3.5470     1.9990     1.3560 H     1 <1>   0.1500 
 40 H       -3.3560    -3.7730    -2.5580 H     1 <1>   0.0800 
 41 H       -4.2220    -2.2710    -2.8660 H     1 <1>   0.0800 
 42 H       -4.3720    -3.0800    -1.3000 H     1 <1>   0.0800 
 43 H       -4.4380     1.9130    -0.9350 H     1 <1>   0.1500 
@<TRIPOS>BOND
  1   1   2  2   
  2   2   3  1   
  3   2   4  1   
  4   3   5  2   
  5   3   6  1   
  6   4   7  1   
  7   4  25  1   
  8   4  26  1   
  9   5   8  1   
 10   5   9  1   
 11   6  10  1   
 12   6  11  1   
 13   6  27  1   
 14   7   9  1   
 15   7  12  1   
 16   7  13  1   
 17   8  14  1   
 18   8  28  1   
 19   9  29  1   
 20   9  30  1   
 21  10  14  1   
 22  10  15  1   
 23  11  16  ar  
 24  11  17  ar  
 25  12  31  1   
 26  12  32  1   
 27  12  33  1   
 28  13  34  1   
 29  13  35  1   
 30  13  36  1   
 31  14  18  2   
 32  15  19  2   
 33  16  20  1   
 34  16  21  ar  
 35  17  22  ar  
 36  17  37  1   
 37  18  19  1   
 38  20  23  1   
 39  21  24  ar  
 40  21  38  1   
 41  22  24  ar  
 42  22  39  1   
 43  23  40  1   
 44  23  41  1   
 45  23  42  1   
 46  24  43  1   
@<TRIPOS>SUBSTRUCTURE
  1 ****   3 GROUP 4 **** **** 0

# MOE 2024.06 (io_trps.svl 2023.06)
