@<TRIPOS>MOLECULE
NONAME
36 36 1 0 0 
SMALL
USER_CHARGES


@<TRIPOS>ATOM
  1 F       -1.2990     0.2250     0.3940 F     1 <1>  -0.3400 
  2 C        0.0250     0.2370     0.5140 C.3   1 <1>   1.0200 
  3 F        0.2980    -0.3260     1.6850 F     1 <1>  -0.3400 
  4 F        0.4620    -0.6450    -0.3830 F     1 <1>  -0.3400 
  5 C        0.6840     1.6370     0.2940 C.3   1 <1>   0.3000 
  6 N        2.1810     1.4510    -0.0260 N.am  1 <1>  -0.7300 
  7 C        0.3860     2.4180     1.6250 C.3   1 <1>   1.0200 
  8 C        0.0430     2.3800    -0.9290 C.3   1 <1>  -0.1600 
  9 C        3.1290     2.4120    -0.1010 C.2   1 <1>   0.6900 
 10 F       -0.8530     2.2540     2.0770 F     1 <1>  -0.3400 
 11 F        0.5150     3.7340     1.5190 F     1 <1>  -0.3400 
 12 F        1.1840     2.0630     2.6280 F     1 <1>  -0.3400 
 13 C        0.2180     1.7210    -2.3110 C.3   1 <1>  -0.2400 
 14 O        2.8220     3.5760     0.0160 O.2   1 <1>  -0.5700 
 15 N        4.4110     2.0080    -0.3120 N.am  1 <1>  -0.5470 
 16 C        5.5710     2.7490    -0.5800 C.ar  1 <1>   0.1170 
 17 C        6.8060     2.1870    -0.2760 C.ar  1 <1>  -0.1500 
 18 C        5.5450     4.0150    -1.1560 C.ar  1 <1>  -0.1500 
 19 C        7.9870     2.8640    -0.5330 C.ar  1 <1>  -0.1440 
 20 C        6.7180     4.6990    -1.4140 C.ar  1 <1>  -0.1500 
 21 C        7.9380     4.1250    -1.1030 C.ar  1 <1>  -0.1500 
 22 C        9.3290     2.2410    -0.1920 C.3   1 <1>  -0.0970 
 23 H        2.4180     0.5350    -0.4110 H     1 <1>   0.3700 
 24 H        0.4580     3.3720    -0.9910 H     1 <1>   0.0800 
 25 H       -1.0120     2.5130    -0.7520 H     1 <1>   0.0800 
 26 H        1.2580     1.5840    -2.5480 H     1 <1>   0.0800 
 27 H       -0.2080     2.3580    -3.0670 H     1 <1>   0.0800 
 28 H       -0.2850     0.7710    -2.3640 H     1 <1>   0.0800 
 29 H        4.5760     1.0280    -0.1160 H     1 <1>   0.3700 
 30 H        6.8440     1.2120     0.1710 H     1 <1>   0.1500 
 31 H        4.6050     4.4730    -1.4070 H     1 <1>   0.1500 
 32 H        6.6810     5.6790    -1.8560 H     1 <1>   0.1500 
 33 H        8.8460     4.6650    -1.3050 H     1 <1>   0.1500 
 34 H        9.2370     1.1770    -0.0690 H     1 <1>   0.0800 
 35 H        9.7030     2.6640     0.7230 H     1 <1>   0.0800 
 36 H       10.0370     2.4310    -0.9780 H     1 <1>   0.0800 
@<TRIPOS>BOND
  1   1   2  1   
  2   2   3  1   
  3   2   4  1   
  4   2   5  1   
  5   5   6  1   
  6   5   7  1   
  7   5   8  1   
  8   6   9  am  
  9   6  23  1   
 10   7  10  1   
 11   7  11  1   
 12   7  12  1   
 13   8  13  1   
 14   8  24  1   
 15   8  25  1   
 16   9  14  2   
 17   9  15  am  
 18  13  26  1   
 19  13  27  1   
 20  13  28  1   
 21  15  16  1   
 22  15  29  1   
 23  16  17  ar  
 24  16  18  ar  
 25  17  19  ar  
 26  17  30  1   
 27  18  20  ar  
 28  18  31  1   
 29  19  21  ar  
 30  19  22  1   
 31  20  21  ar  
 32  20  32  1   
 33  21  33  1   
 34  22  34  1   
 35  22  35  1   
 36  22  36  1   
@<TRIPOS>SUBSTRUCTURE
  1 ****   9 GROUP 4 **** **** 0

# MOE 2024.06 (io_trps.svl 2023.06)
