@<TRIPOS>MOLECULE
NONAME
45 45 1 0 0 
SMALL
USER_CHARGES


@<TRIPOS>ATOM
  1 S        0.4130    -0.2690     0.2440 S.o2  1 <1>   1.4470 
  2 O        0.1240    -1.5260     0.8960 O.2   1 <1>  -0.6500 
  3 O        1.2800    -0.2700    -0.9130 O.2   1 <1>  -0.6500 
  4 N        1.2160     0.5540     1.4710 N.am  1 <1>  -0.9140 
  5 C       -1.0840     0.7430    -0.0850 C.ar  1 <1>  -0.0090 
  6 C        2.6030     0.1330     1.6670 C.3   1 <1>   0.1960 
  7 C       -0.9780     2.1170    -0.3530 C.ar  1 <1>  -0.1430 
  8 C       -2.3730     0.1850    -0.0990 C.ar  1 <1>  -0.1430 
  9 C        3.5550     0.9120     0.7570 C.3   1 <1>   0.0700 
 10 C       -2.1080     2.8900    -0.5700 C.ar  1 <1>  -0.1500 
 11 C        0.3610     2.8460    -0.4310 C.3   1 <1>  -0.0970 
 12 C       -3.4890     0.9780    -0.3190 C.ar  1 <1>  -0.1500 
 13 C       -2.6380    -1.3020     0.1120 C.3   1 <1>  -0.0970 
 14 S        5.2570     0.5340     1.2740 S.3   1 <1>  -0.4600 
 15 C       -3.3670     2.3310    -0.5480 C.ar  1 <1>  -0.1430 
 16 C        6.3360     1.1880    -0.0300 C.3   1 <1>   0.2300 
 17 C       -4.5980     3.1880    -0.7860 C.3   1 <1>  -0.0970 
 18 C        6.1410     0.3310    -1.2820 C.3   1 <1>  -0.2400 
 19 C        5.9830     2.6560    -0.2720 C.3   1 <1>  -0.2400 
 20 C        7.7600     1.0510     0.5070 C.3   1 <1>  -0.2400 
 21 H        0.7080     0.2430     2.2970 H     1 <1>   0.4200 
 22 H        2.7090    -0.9260     1.4940 H     1 <1>   0.0800 
 23 H        2.8790     0.3360     2.6870 H     1 <1>   0.0800 
 24 H        3.4150     1.9710     0.8680 H     1 <1>   0.0800 
 25 H        3.4540     0.6170    -0.2700 H     1 <1>   0.0800 
 26 H       -2.0100     3.9450    -0.7620 H     1 <1>   0.1500 
 27 H        1.0740     2.2870    -1.0080 H     1 <1>   0.0800 
 28 H        0.7530     3.0100     0.5570 H     1 <1>   0.0800 
 29 H        0.2510     3.8040    -0.9060 H     1 <1>   0.0800 
 30 H       -4.4710     0.5390    -0.3170 H     1 <1>   0.1500 
 31 H       -2.0140    -1.8920    -0.5360 H     1 <1>   0.0800 
 32 H       -3.6590    -1.5540    -0.1090 H     1 <1>   0.0800 
 33 H       -2.4440    -1.5740     1.1350 H     1 <1>   0.0800 
 34 H       -4.4270     4.1950    -0.4480 H     1 <1>   0.0800 
 35 H       -5.4420     2.7910    -0.2520 H     1 <1>   0.0800 
 36 H       -4.8280     3.2090    -1.8360 H     1 <1>   0.0800 
 37 H        5.1480     0.4390    -1.6760 H     1 <1>   0.0800 
 38 H        6.3100    -0.7060    -1.0530 H     1 <1>   0.0800 
 39 H        6.8370     0.6300    -2.0450 H     1 <1>   0.0800 
 40 H        5.0030     2.7520    -0.7020 H     1 <1>   0.0800 
 41 H        6.6880     3.0950    -0.9540 H     1 <1>   0.0800 
 42 H        6.0160     3.2040     0.6520 H     1 <1>   0.0800 
 43 H        7.9810     0.0200     0.7170 H     1 <1>   0.0800 
 44 H        7.8720     1.6170     1.4140 H     1 <1>   0.0800 
 45 H        8.4700     1.4140    -0.2140 H     1 <1>   0.0800 
@<TRIPOS>BOND
  1   1   2  2   
  2   1   3  2   
  3   1   4  am  
  4   1   5  1   
  5   4   6  1   
  6   4  21  1   
  7   5   7  ar  
  8   5   8  ar  
  9   6   9  1   
 10   6  22  1   
 11   6  23  1   
 12   7  10  ar  
 13   7  11  1   
 14   8  12  ar  
 15   8  13  1   
 16   9  14  1   
 17   9  24  1   
 18   9  25  1   
 19  10  15  ar  
 20  10  26  1   
 21  11  27  1   
 22  11  28  1   
 23  11  29  1   
 24  12  15  ar  
 25  12  30  1   
 26  13  31  1   
 27  13  32  1   
 28  13  33  1   
 29  14  16  1   
 30  15  17  1   
 31  16  18  1   
 32  16  19  1   
 33  16  20  1   
 34  17  34  1   
 35  17  35  1   
 36  17  36  1   
 37  18  37  1   
 38  18  38  1   
 39  18  39  1   
 40  19  40  1   
 41  19  41  1   
 42  19  42  1   
 43  20  43  1   
 44  20  44  1   
 45  20  45  1   
@<TRIPOS>SUBSTRUCTURE
  1 ****   1 GROUP 4 **** **** 0

# MOE 2024.06 (io_trps.svl 2023.06)
