@<TRIPOS>MOLECULE
NONAME
44 47 1 0 0 
SMALL
USER_CHARGES


@<TRIPOS>ATOM
  1 S       -0.3630    -1.3970     1.2800 S.3   1 <1>  -0.0800 
  2 C        0.8840    -1.2220     0.0530 C.2   1 <1>  -0.1400 
  3 C       -1.6120    -1.5620     0.0590 C.2   1 <1>  -0.1100 
  4 C        0.3370    -1.2970    -1.1780 C.2   1 <1>  -0.1500 
  5 C        2.3130    -1.0380     0.5660 C.3   1 <1>   0.4000 
  6 C       -1.0810    -1.4880    -1.1740 C.2   1 <1>  -0.1500 
  7 N        3.1390    -0.0990    -0.2470 N.am  1 <1>  -0.4770 
  8 C        2.9690    -2.4180     0.6270 C.3   1 <1>  -0.0800 
  9 C        4.5460    -0.1050    -0.0350 C.ar  1 <1>   0.1170 
 10 C        2.5070     0.8550    -1.0100 C.2   1 <1>   0.5690 
 11 C        4.3870    -2.3490     1.1560 C.3   1 <1>   0.3440 
 12 C        3.1210    -3.1500    -0.7100 C.3   1 <1>  -0.1600 
 13 C        5.1900    -1.1350     0.6690 C.ar  1 <1>  -0.1440 
 14 C        5.3240     0.9580    -0.4970 C.ar  1 <1>  -0.1500 
 15 O        2.7540     1.0180    -2.1790 O.2   1 <1>  -0.5700 
 16 C        1.4860     1.7770    -0.3760 C.3   1 <1>  -0.1790 
 17 O        4.9540    -3.5240     0.6660 O.3   1 <1>  -0.5600 
 18 C        4.5180    -3.7540    -0.6340 C.3   1 <1>   0.1200 
 19 C        6.5580    -1.0510     0.9340 C.ar  1 <1>  -0.1430 
 20 C        6.6810     1.0300    -0.2590 C.ar  1 <1>  -0.1430 
 21 C        7.2900     0.0260     0.4650 C.ar  1 <1>  -0.1500 
 22 C        7.3120    -2.1120     1.7290 C.3   1 <1>  -0.0970 
 23 C        7.4970     2.2000    -0.7780 C.3   1 <1>  -0.0970 
 24 H       -2.6240    -1.7000     0.3980 H     1 <1>   0.1500 
 25 H        0.8780    -1.2250    -2.1080 H     1 <1>   0.1500 
 26 H        2.2660    -0.6350     1.5630 H     1 <1>   0.0800 
 27 H       -1.6290    -1.5600    -2.0980 H     1 <1>   0.1500 
 28 H        2.4030    -3.0390     1.2980 H     1 <1>   0.0800 
 29 H        4.4010    -2.3890     2.2310 H     1 <1>   0.0800 
 30 H        3.0740    -2.4830    -1.5530 H     1 <1>   0.0800 
 31 H        2.3730    -3.9140    -0.8270 H     1 <1>   0.0800 
 32 H        4.8720     1.7560    -1.0550 H     1 <1>   0.1500 
 33 H        0.5020     1.5170    -0.7160 H     1 <1>   0.0800 
 34 H        1.6960     2.7880    -0.6730 H     1 <1>   0.0800 
 35 H        1.5250     1.7170     0.6940 H     1 <1>   0.0800 
 36 H        5.1960    -3.2530    -1.3060 H     1 <1>   0.0800 
 37 H        4.5230    -4.8140    -0.8210 H     1 <1>   0.0800 
 38 H        8.3460     0.0860     0.6600 H     1 <1>   0.1500 
 39 H        6.7490    -2.4140     2.5930 H     1 <1>   0.0800 
 40 H        8.2610    -1.7390     2.0690 H     1 <1>   0.0800 
 41 H        7.4880    -2.9730     1.1100 H     1 <1>   0.0800 
 42 H        7.0090     2.6570    -1.6210 H     1 <1>   0.0800 
 43 H        8.4690     1.8660    -1.0920 H     1 <1>   0.0800 
 44 H        7.6130     2.9360    -0.0030 H     1 <1>   0.0800 
@<TRIPOS>BOND
  1   1   2  1   
  2   1   3  1   
  3   2   4  2   
  4   2   5  1   
  5   3   6  2   
  6   3  24  1   
  7   4   6  1   
  8   4  25  1   
  9   5   7  1   
 10   5   8  1   
 11   5  26  1   
 12   6  27  1   
 13   7   9  1   
 14   7  10  am  
 15   8  11  1   
 16   8  12  1   
 17   8  28  1   
 18   9  13  ar  
 19   9  14  ar  
 20  10  15  2   
 21  10  16  1   
 22  11  13  1   
 23  11  17  1   
 24  11  29  1   
 25  12  18  1   
 26  12  30  1   
 27  12  31  1   
 28  13  19  ar  
 29  14  20  ar  
 30  14  32  1   
 31  16  33  1   
 32  16  34  1   
 33  16  35  1   
 34  17  18  1   
 35  18  36  1   
 36  18  37  1   
 37  19  21  ar  
 38  19  22  1   
 39  20  21  ar  
 40  20  23  1   
 41  21  38  1   
 42  22  39  1   
 43  22  40  1   
 44  22  41  1   
 45  23  42  1   
 46  23  43  1   
 47  23  44  1   
@<TRIPOS>SUBSTRUCTURE
  1 ****   7 GROUP 4 **** **** 0

# MOE 2024.06 (io_trps.svl 2023.06)
