@<TRIPOS>MOLECULE
NONAME
52 54 1 0 0 
SMALL
USER_CHARGES


@<TRIPOS>ATOM
  1 O        0.5770    -2.3570     2.4590 O.2   1 <1>  -0.5700 
  2 C        0.6190    -2.0400     1.2920 C.2   1 <1>   0.5690 
  3 N        1.2040    -0.8750     0.9000 N.am  1 <1>  -0.7300 
  4 C        0.0030    -2.9590     0.2150 C.3   1 <1>   0.0610 
  5 C        1.8330     0.1060     1.7880 C.3   1 <1>   0.2200 
  6 C       -0.6160    -4.2340     0.8440 C.3   1 <1>  -0.1600 
  7 C       -1.1170    -2.2150    -0.5530 C.3   1 <1>  -0.1600 
  8 C        1.0860    -3.4050    -0.7980 C.3   1 <1>  -0.1600 
  9 C        1.0930     1.4300     1.6320 C.3   1 <1>  -0.2400 
 10 C        3.2980     0.2380     1.3880 C.3   1 <1>  -0.2400 
 11 C       -1.2410    -5.1730    -0.2220 C.3   1 <1>   0.0610 
 12 C       -1.7280    -3.1170    -1.6400 C.3   1 <1>  -0.0800 
 13 C        0.4810    -4.3100    -1.8850 C.3   1 <1>  -0.0800 
 14 C       -1.8620    -6.4490     0.3900 C.2   1 <1>   0.5690 
 15 C       -2.3270    -4.3720    -0.9810 C.3   1 <1>  -0.1600 
 16 C       -0.1270    -5.5600    -1.2250 C.3   1 <1>  -0.1600 
 17 C       -0.6270    -3.5410    -2.6270 C.3   1 <1>  -0.1600 
 18 O       -2.3790    -7.2520    -0.3530 O.2   1 <1>  -0.5700 
 19 N       -1.8170    -6.6430     1.7410 N.am  1 <1>  -0.7300 
 20 C       -2.3400    -7.7730     2.5300 C.3   1 <1>   0.2200 
 21 C       -1.6360    -9.0670     2.1280 C.3   1 <1>  -0.2400 
 22 C       -3.8560    -7.8690     2.3740 C.3   1 <1>  -0.2400 
 23 H        1.2240    -0.6360    -0.0890 H     1 <1>   0.3700 
 24 H        1.7660    -0.2270     2.8120 H     1 <1>   0.0800 
 25 H        0.1520    -4.7620     1.3830 H     1 <1>   0.0800 
 26 H       -1.3710    -3.9390     1.5520 H     1 <1>   0.0800 
 27 H       -0.7250    -1.3260    -1.0150 H     1 <1>   0.0800 
 28 H       -1.8850    -1.9080     0.1370 H     1 <1>   0.0800 
 29 H        1.8680    -3.9340    -0.2800 H     1 <1>   0.0800 
 30 H        1.5350    -2.5470    -1.2660 H     1 <1>   0.0800 
 31 H        1.1490     1.7860     0.6200 H     1 <1>   0.0800 
 32 H        1.5280     2.1680     2.2810 H     1 <1>   0.0800 
 33 H        0.0610     1.3050     1.9110 H     1 <1>   0.0800 
 34 H        3.3910     0.5760     0.3710 H     1 <1>   0.0800 
 35 H        3.7930    -0.7100     1.4970 H     1 <1>   0.0800 
 36 H        3.7880     0.9480     2.0300 H     1 <1>   0.0800 
 37 H       -2.5010    -2.5820    -2.1660 H     1 <1>   0.0800 
 38 H        1.2470    -4.6060    -2.5820 H     1 <1>   0.0800 
 39 H       -3.1100    -4.0890    -0.2990 H     1 <1>   0.0800 
 40 H       -2.7710    -4.9960    -1.7380 H     1 <1>   0.0800 
 41 H       -0.5360    -6.2030    -1.9860 H     1 <1>   0.0800 
 42 H        0.6410    -6.1150    -0.7160 H     1 <1>   0.0800 
 43 H       -0.2110    -2.6720    -3.1070 H     1 <1>   0.0800 
 44 H       -1.0490    -4.1660    -3.3960 H     1 <1>   0.0800 
 45 H       -1.3650    -5.9210     2.3020 H     1 <1>   0.3700 
 46 H       -2.1200    -7.5800     3.5670 H     1 <1>   0.0800 
 47 H       -1.8680    -9.3270     1.1100 H     1 <1>   0.0800 
 48 H       -1.9600    -9.8720     2.7620 H     1 <1>   0.0800 
 49 H       -0.5720    -8.9580     2.2310 H     1 <1>   0.0800 
 50 H       -4.1200    -8.1110     1.3610 H     1 <1>   0.0800 
 51 H       -4.3150    -6.9360     2.6470 H     1 <1>   0.0800 
 52 H       -4.2410    -8.6400     3.0160 H     1 <1>   0.0800 
@<TRIPOS>BOND
  1   1   2  2   
  2   2   3  am  
  3   2   4  1   
  4   3   5  1   
  5   3  23  1   
  6   4   6  1   
  7   4   7  1   
  8   4   8  1   
  9   5   9  1   
 10   5  10  1   
 11   5  24  1   
 12   6  11  1   
 13   6  25  1   
 14   6  26  1   
 15   7  12  1   
 16   7  27  1   
 17   7  28  1   
 18   8  13  1   
 19   8  29  1   
 20   8  30  1   
 21   9  31  1   
 22   9  32  1   
 23   9  33  1   
 24  10  34  1   
 25  10  35  1   
 26  10  36  1   
 27  11  14  1   
 28  11  15  1   
 29  11  16  1   
 30  12  15  1   
 31  12  17  1   
 32  12  37  1   
 33  13  16  1   
 34  13  17  1   
 35  13  38  1   
 36  14  18  2   
 37  14  19  am  
 38  15  39  1   
 39  15  40  1   
 40  16  41  1   
 41  16  42  1   
 42  17  43  1   
 43  17  44  1   
 44  19  20  1   
 45  19  45  1   
 46  20  21  1   
 47  20  22  1   
 48  20  46  1   
 49  21  47  1   
 50  21  48  1   
 51  21  49  1   
 52  22  50  1   
 53  22  51  1   
 54  22  52  1   
@<TRIPOS>SUBSTRUCTURE
  1 ****   6 GROUP 4 **** **** 0

# MOE 2024.06 (io_trps.svl 2023.06)
