@<TRIPOS>MOLECULE
NONAME
38 40 1 0 0 
SMALL
USER_CHARGES


@<TRIPOS>ATOM
  1 CL       0.2320    -0.5710     2.2110 Cl    1 <1>  -0.1770 
  2 C        1.6280    -0.3220     1.1830 C.ar  1 <1>   0.1770 
  3 C        2.2360     0.9250     1.0980 C.ar  1 <1>   0.0830 
  4 C        2.1090    -1.4020     0.4680 C.ar  1 <1>  -0.1500 
  5 O        1.7750     1.9800     1.8270 O.3   1 <1>  -0.3630 
  6 C        3.3600     1.1000     0.2840 C.ar  1 <1>   0.1170 
  7 C        3.2210    -1.2370    -0.3390 C.ar  1 <1>  -0.1500 
  8 C        0.6080     2.6410     1.3660 C.3   1 <1>   0.1200 
  9 N        3.9430     2.3800     0.2250 N.am  1 <1>  -0.5470 
 10 C        3.8380     0.0000    -0.4250 C.ar  1 <1>  -0.1500 
 11 C        0.9200     3.5510     0.1670 C.3   1 <1>   0.2000 
 12 C        4.9700     2.9360    -0.4930 C.2   1 <1>   0.7150 
 13 O        1.9570     4.4310     0.4690 O.3   1 <1>  -0.5600 
 14 C       -0.2300     4.4600    -0.2400 C.3   1 <1>  -0.1600 
 15 O        5.5170     2.2990    -1.3740 O.2   1 <1>  -0.5700 
 16 C        5.3650     4.2890    -0.1900 C.2   1 <1>  -0.0450 
 17 C        1.9250     5.5180    -0.4020 C.3   1 <1>   0.1200 
 18 C        0.4830     5.6350    -0.8910 C.3   1 <1>  -0.1600 
 19 S        6.4680     5.1300    -1.2860 S.3   1 <1>  -0.0800 
 20 C        5.0500     5.1310     0.8300 C.2   1 <1>  -0.1500 
 21 C        6.4500     6.5830    -0.3130 C.2   1 <1>  -0.1100 
 22 C        5.6580     6.4180     0.7610 C.2   1 <1>  -0.1500 
 23 H        1.6220    -2.3580     0.5480 H     1 <1>   0.1500 
 24 H        3.6100    -2.0700    -0.8990 H     1 <1>   0.1500 
 25 H        0.2320     3.2310     2.1820 H     1 <1>   0.0800 
 26 H       -0.1310     1.9080     1.1020 H     1 <1>   0.0800 
 27 H        3.3950     3.0800     0.7440 H     1 <1>   0.3700 
 28 H        4.7040     0.0950    -1.0550 H     1 <1>   0.1500 
 29 H        1.2290     2.9580    -0.6790 H     1 <1>   0.0800 
 30 H       -0.7630     4.7920     0.6340 H     1 <1>   0.0800 
 31 H       -0.9130     3.9680    -0.9090 H     1 <1>   0.0800 
 32 H        2.6000     5.3180    -1.2180 H     1 <1>   0.0800 
 33 H        2.2460     6.3950     0.1330 H     1 <1>   0.0800 
 34 H        0.0480     6.5750    -0.5990 H     1 <1>   0.0800 
 35 H        0.4590     5.5570    -1.9640 H     1 <1>   0.0800 
 36 H        4.3940     4.8840     1.6480 H     1 <1>   0.1500 
 37 H        7.0410     7.4160    -0.6500 H     1 <1>   0.1500 
 38 H        5.4760     7.1600     1.5200 H     1 <1>   0.1500 
@<TRIPOS>BOND
  1   1   2  1   
  2   2   3  ar  
  3   2   4  ar  
  4   3   5  1   
  5   3   6  ar  
  6   4   7  ar  
  7   4  23  1   
  8   5   8  1   
  9   6   9  1   
 10   6  10  ar  
 11   7  10  ar  
 12   7  24  1   
 13   8  11  1   
 14   8  25  1   
 15   8  26  1   
 16   9  12  am  
 17   9  27  1   
 18  10  28  1   
 19  11  13  1   
 20  11  14  1   
 21  11  29  1   
 22  12  15  2   
 23  12  16  1   
 24  13  17  1   
 25  14  18  1   
 26  14  30  1   
 27  14  31  1   
 28  16  19  1   
 29  16  20  2   
 30  17  18  1   
 31  17  32  1   
 32  17  33  1   
 33  18  34  1   
 34  18  35  1   
 35  19  21  1   
 36  20  22  1   
 37  20  36  1   
 38  21  22  2   
 39  21  37  1   
 40  22  38  1   
@<TRIPOS>SUBSTRUCTURE
  1 ****   9 GROUP 4 **** **** 0

# MOE 2024.06 (io_trps.svl 2023.06)
