@<TRIPOS>MOLECULE
NONAME
36 37 1 0 0 
SMALL
USER_CHARGES


@<TRIPOS>ATOM
  1 O        0.4160     0.3610     0.5420 O.2   1 <1>  -0.5700 
  2 C        1.4030     0.2410    -0.1380 C.2   1 <1>   0.5690 
  3 N        1.6480    -0.9140    -0.7870 N.am  1 <1>  -0.8000 
  4 C        2.3910     1.4050    -0.2780 C.3   1 <1>   0.1710 
  5 N        3.8040     0.9930    -0.5260 N.3   1 <1>  -0.8100 
  6 C        4.6200     2.1630    -0.9350 C.3   1 <1>   0.1100 
  7 C        4.3940     0.3830     0.6960 C.3   1 <1>   0.1100 
  8 C        6.0980     1.7970    -1.1790 C.3   1 <1>   0.2090 
  9 C        5.8640    -0.0340     0.4940 C.3   1 <1>   0.2090 
 10 N        6.6680     1.1230     0.0180 N.pl3 1 <1>  -0.8380 
 11 C        8.0390     1.1850     0.2560 C.ar  1 <1>   0.1000 
 12 C        8.9680     0.3010    -0.3060 C.ar  1 <1>  -0.1430 
 13 C        8.4960     2.1890     1.0990 C.ar  1 <1>  -0.1500 
 14 C       10.3140     0.4420    -0.0060 C.ar  1 <1>  -0.1500 
 15 C        8.5500    -0.8220    -1.2450 C.3   1 <1>  -0.0970 
 16 C        9.8390     2.3260     1.3920 C.ar  1 <1>  -0.1500 
 17 C       10.7520     1.4480     0.8380 C.ar  1 <1>  -0.1500 
 18 H        1.0120    -1.7070    -0.7130 H     1 <1>   0.3700 
 19 H        2.5160    -1.0300    -1.3140 H     1 <1>   0.3700 
 20 H        2.3370     2.0090     0.6100 H     1 <1>   0.0800 
 21 H        2.0500     2.0040    -1.1030 H     1 <1>   0.0800 
 22 H        4.5800     2.9210    -0.1710 H     1 <1>   0.0800 
 23 H        4.2170     2.5800    -1.8410 H     1 <1>   0.0800 
 24 H        3.8270    -0.4870     0.9780 H     1 <1>   0.0800 
 25 H        4.3510     1.0850     1.5110 H     1 <1>   0.0800 
 26 H        6.6640     2.6870    -1.3920 H     1 <1>   0.0800 
 27 H        6.1640     1.1420    -2.0290 H     1 <1>   0.0800 
 28 H        5.9060    -0.8270    -0.2300 H     1 <1>   0.0800 
 29 H        6.2730    -0.3950     1.4220 H     1 <1>   0.0800 
 30 H        7.7780     2.8640     1.5260 H     1 <1>   0.1500 
 31 H       11.0360    -0.2330    -0.4290 H     1 <1>   0.1500 
 32 H        7.8250    -0.4670    -1.9530 H     1 <1>   0.0800 
 33 H        8.1230    -1.6280    -0.6780 H     1 <1>   0.0800 
 34 H        9.3950    -1.1980    -1.7930 H     1 <1>   0.0800 
 35 H       10.1710     3.1100     2.0480 H     1 <1>   0.1500 
 36 H       11.7990     1.5470     1.0620 H     1 <1>   0.1500 
@<TRIPOS>BOND
  1   1   2  2   
  2   2   3  am  
  3   2   4  1   
  4   3  18  1   
  5   3  19  1   
  6   4   5  1   
  7   4  20  1   
  8   4  21  1   
  9   5   6  1   
 10   5   7  1   
 11   6   8  1   
 12   6  22  1   
 13   6  23  1   
 14   7   9  1   
 15   7  24  1   
 16   7  25  1   
 17   8  10  1   
 18   8  26  1   
 19   8  27  1   
 20   9  10  1   
 21   9  28  1   
 22   9  29  1   
 23  10  11  1   
 24  11  12  ar  
 25  11  13  ar  
 26  12  14  ar  
 27  12  15  1   
 28  13  16  ar  
 29  13  30  1   
 30  14  17  ar  
 31  14  31  1   
 32  15  32  1   
 33  15  33  1   
 34  15  34  1   
 35  16  17  ar  
 36  16  35  1   
 37  17  36  1   
@<TRIPOS>SUBSTRUCTURE
  1 ****  10 GROUP 4 **** **** 0

# MOE 2024.06 (io_trps.svl 2023.06)
