@<TRIPOS>MOLECULE
NONAME
38 40 1 0 0 
SMALL
USER_CHARGES


@<TRIPOS>ATOM
  1 F       -1.4500     0.9770     1.5900 F     1 <1>  -0.1900 
  2 C       -0.8380     1.9510     0.9680 C.ar  1 <1>   0.1900 
  3 C       -1.3590     2.4380    -0.2210 C.ar  1 <1>  -0.1440 
  4 C        0.3260     2.4420     1.5350 C.ar  1 <1>  -0.1500 
  5 C       -0.6360     3.4520    -0.8320 C.ar  1 <1>   0.1900 
  6 C       -2.6440     1.8820    -0.8180 C.3   1 <1>   0.2540 
  7 C        1.0160     3.4610     0.8970 C.ar  1 <1>  -0.1500 
  8 F       -1.0610     3.9540    -1.9630 F     1 <1>  -0.1900 
  9 C        0.5320     3.9700    -0.2990 C.ar  1 <1>  -0.1500 
 10 N       -3.8280     2.4540    -0.1570 N.3   1 <1>  -0.8100 
 11 C       -3.9860     3.9000    -0.4480 C.3   1 <1>   0.1100 
 12 C       -5.0520     1.7230    -0.5570 C.3   1 <1>   0.1100 
 13 C       -5.2440     4.4980     0.2110 C.3   1 <1>   0.2090 
 14 C       -6.3220     2.2930     0.1030 C.3   1 <1>   0.2090 
 15 N       -6.4670     3.7490    -0.1920 N.pl3 1 <1>  -0.8380 
 16 C       -7.6860     4.3550     0.0480 C.ar  1 <1>   0.4100 
 17 N       -8.4640     3.8250     0.9870 N.ar  1 <1>  -0.6200 
 18 C       -8.0450     5.4820    -0.6880 C.ar  1 <1>  -0.1500 
 19 C       -9.6160     4.4380     1.1980 C.ar  1 <1>   0.1600 
 20 C       -9.2460     6.1100    -0.4590 C.ar  1 <1>  -0.1500 
 21 C      -10.0510     5.5630     0.5200 C.ar  1 <1>  -0.1500 
 22 H        0.6830     2.0290     2.4620 H     1 <1>   0.1500 
 23 H       -2.6480     0.8140    -0.6830 H     1 <1>   0.0800 
 24 H       -2.6870     2.0760    -1.8770 H     1 <1>   0.0800 
 25 H        1.9220     3.8540     1.3270 H     1 <1>   0.1500 
 26 H        1.0530     4.7580    -0.8130 H     1 <1>   0.1500 
 27 H       -4.0470     4.0550    -1.5110 H     1 <1>   0.0800 
 28 H       -3.1300     4.4360    -0.0790 H     1 <1>   0.0800 
 29 H       -4.9560     0.6890    -0.2730 H     1 <1>   0.0800 
 30 H       -5.1740     1.7690    -1.6250 H     1 <1>   0.0800 
 31 H       -5.3380     5.5310    -0.0710 H     1 <1>   0.0800 
 32 H       -5.1380     4.4520     1.2810 H     1 <1>   0.0800 
 33 H       -6.2680     2.1470     1.1680 H     1 <1>   0.0800 
 34 H       -7.1860     1.7670    -0.2640 H     1 <1>   0.0800 
 35 H       -7.3690     5.8420    -1.4390 H     1 <1>   0.1500 
 36 H      -10.2520     4.0180     1.9580 H     1 <1>   0.1500 
 37 H       -9.5460     6.9820    -1.0140 H     1 <1>   0.1500 
 38 H      -11.0040     6.0020     0.7530 H     1 <1>   0.1500 
@<TRIPOS>BOND
  1   1   2  1   
  2   2   3  ar  
  3   2   4  ar  
  4   3   5  ar  
  5   3   6  1   
  6   4   7  ar  
  7   4  22  1   
  8   5   8  1   
  9   5   9  ar  
 10   6  10  1   
 11   6  23  1   
 12   6  24  1   
 13   7   9  ar  
 14   7  25  1   
 15   9  26  1   
 16  10  11  1   
 17  10  12  1   
 18  11  13  1   
 19  11  27  1   
 20  11  28  1   
 21  12  14  1   
 22  12  29  1   
 23  12  30  1   
 24  13  15  1   
 25  13  31  1   
 26  13  32  1   
 27  14  15  1   
 28  14  33  1   
 29  14  34  1   
 30  15  16  1   
 31  16  17  ar  
 32  16  18  ar  
 33  17  19  ar  
 34  18  20  ar  
 35  18  35  1   
 36  19  21  ar  
 37  19  36  1   
 38  20  21  ar  
 39  20  37  1   
 40  21  38  1   
@<TRIPOS>SUBSTRUCTURE
  1 ****  11 GROUP 4 **** **** 0

# MOE 2024.06 (io_trps.svl 2023.06)
