@<TRIPOS>MOLECULE
NONAME
49 51 1 0 0 
SMALL
USER_CHARGES


@<TRIPOS>ATOM
  1 S       -1.2410     0.5000     1.3780 S.3   1 <1>  -0.0800 
  2 C       -0.0830    -0.5080     0.5350 C.2   1 <1>   0.1040 
  3 C       -2.4060     0.3670     0.0780 C.2   1 <1>  -0.1400 
  4 N        1.1410    -0.7820     1.1290 N.am  1 <1>  -0.4940 
  5 C       -0.5830    -0.9240    -0.6720 C.2   1 <1>  -0.0860 
  6 C       -1.9180    -0.4010    -0.9170 C.2   1 <1>  -0.1810 
  7 C       -3.7030     1.1200     0.3110 C.3   1 <1>  -0.0600 
  8 C        1.7550    -0.3770     2.2850 C.2   1 <1>   0.5690 
  9 C        0.1760    -1.7780    -1.5540 C.2   1 <1>   0.8060 
 10 C       -2.6880    -0.6900    -2.2000 C.3   1 <1>  -0.0590 
 11 O        1.2880     0.4020     3.0790 O.2   1 <1>  -0.5700 
 12 C        3.1350    -0.9750     2.5670 C.3   1 <1>   0.1710 
 13 O        1.3740    -1.9620    -1.4270 O.2   1 <1>  -0.5700 
 14 O       -0.4420    -2.4210    -2.5540 O.3   1 <1>  -0.4300 
 15 N        3.7900    -1.5880     1.3730 N.3   1 <1>  -0.8100 
 16 C        0.2510    -3.2890    -3.4310 C.3   1 <1>   0.0400 
 17 C        4.3150    -0.5500     0.4650 C.3   1 <1>   0.1100 
 18 C        4.8580    -2.5120     1.7860 C.3   1 <1>   0.1100 
 19 C        4.8480    -1.2000    -0.8120 C.3   1 <1>  -0.1600 
 20 C        5.4100    -3.2400     0.5610 C.3   1 <1>  -0.1600 
 21 C        5.9150    -2.2400    -0.4690 C.3   1 <1>   0.5600 
 22 O        7.0600    -1.6170     0.0210 O.3   1 <1>  -0.5600 
 23 O        6.3270    -2.9190    -1.6060 O.3   1 <1>  -0.5600 
 24 C        7.9440    -1.4070    -1.0210 C.3   1 <1>   0.1200 
 25 C        7.4040    -2.2550    -2.1580 C.3   1 <1>   0.1200 
 26 H        1.7720    -1.3870     0.5800 H     1 <1>   0.3700 
 27 H       -3.4950     2.1700     0.4160 H     1 <1>   0.0800 
 28 H       -4.1660     0.7690     1.2150 H     1 <1>   0.0800 
 29 H       -4.3910     0.9850    -0.5010 H     1 <1>   0.0800 
 30 H       -3.6060    -0.1360    -2.2440 H     1 <1>   0.0800 
 31 H       -2.9290    -1.7370    -2.2580 H     1 <1>   0.0800 
 32 H       -2.0980    -0.4160    -3.0560 H     1 <1>   0.0800 
 33 H        2.9930    -1.7290     3.3210 H     1 <1>   0.0800 
 34 H        3.7680    -0.2110     2.9830 H     1 <1>   0.0800 
 35 H       -0.4500    -3.6870    -4.1430 H     1 <1>   0.0800 
 36 H        0.6890    -4.0880    -2.8570 H     1 <1>   0.0800 
 37 H        1.0190    -2.7320    -3.9390 H     1 <1>   0.0800 
 38 H        5.1050    -0.0010     0.9510 H     1 <1>   0.0800 
 39 H        3.5340     0.1440     0.2010 H     1 <1>   0.0800 
 40 H        4.4630    -3.2400     2.4740 H     1 <1>   0.0800 
 41 H        5.6490    -1.9680     2.2770 H     1 <1>   0.0800 
 42 H        5.2510    -0.4490    -1.4620 H     1 <1>   0.0800 
 43 H        4.0340    -1.6870    -1.3160 H     1 <1>   0.0800 
 44 H        4.6240    -3.8300     0.1260 H     1 <1>   0.0800 
 45 H        6.2120    -3.8940     0.8490 H     1 <1>   0.0800 
 46 H        8.9240    -1.7250    -0.7140 H     1 <1>   0.0800 
 47 H        7.9510    -0.3620    -1.2740 H     1 <1>   0.0800 
 48 H        7.0580    -1.6460    -2.9740 H     1 <1>   0.0800 
 49 H        8.1220    -2.9750    -2.5060 H     1 <1>   0.0800 
@<TRIPOS>BOND
  1   1   2  1   
  2   1   3  1   
  3   2   4  1   
  4   2   5  2   
  5   3   6  2   
  6   3   7  1   
  7   4   8  am  
  8   4  26  1   
  9   5   6  1   
 10   5   9  1   
 11   6  10  1   
 12   7  27  1   
 13   7  28  1   
 14   7  29  1   
 15   8  11  2   
 16   8  12  1   
 17   9  13  2   
 18   9  14  1   
 19  10  30  1   
 20  10  31  1   
 21  10  32  1   
 22  12  15  1   
 23  12  33  1   
 24  12  34  1   
 25  14  16  1   
 26  15  17  1   
 27  15  18  1   
 28  16  35  1   
 29  16  36  1   
 30  16  37  1   
 31  17  19  1   
 32  17  38  1   
 33  17  39  1   
 34  18  20  1   
 35  18  40  1   
 36  18  41  1   
 37  19  21  1   
 38  19  42  1   
 39  19  43  1   
 40  20  21  1   
 41  20  44  1   
 42  20  45  1   
 43  21  22  1   
 44  21  23  1   
 45  22  24  1   
 46  23  25  1   
 47  24  25  1   
 48  24  46  1   
 49  24  47  1   
 50  25  48  1   
 51  25  49  1   
@<TRIPOS>SUBSTRUCTURE
  1 ****  13 GROUP 4 **** **** 0

# MOE 2024.06 (io_trps.svl 2023.06)
