@<TRIPOS>MOLECULE
NONAME
54 55 1 0 0 
SMALL
USER_CHARGES


@<TRIPOS>ATOM
  1 O        2.6050     2.0690    -0.9840 O.3   1 <1>  -0.5600 
  2 C        1.5650     1.2360    -0.5500 C.3   1 <1>   0.2000 
  3 C        3.0800     3.0540    -0.1000 C.3   1 <1>   0.2000 
  4 C        0.3070     2.0710    -0.1860 C.3   1 <1>   0.3430 
  5 C        2.0650     0.3430     0.5930 C.3   1 <1>  -0.2400 
  6 C        1.9450     3.6720     0.7600 C.3   1 <1>   0.3430 
  7 C        3.7590     4.1070    -0.9740 C.3   1 <1>  -0.2400 
  8 N        0.6170     3.5150     0.0930 N.4   1 <1>  -0.9590 
  9 C       -0.5050     4.2730     0.7260 C.3   1 <1>   0.3430 
 10 C       -1.6070     4.5630    -0.3110 C.3   1 <1>   0.2000 
 11 O       -1.0140     4.8470    -1.5420 O.3   1 <1>  -0.6800 
 12 C       -2.4990     5.7410     0.0970 C.3   1 <1>   0.1200 
 13 O       -3.4020     6.0060    -0.9580 O.3   1 <1>  -0.3630 
 14 C       -4.7370     5.9360    -0.7130 C.ar  1 <1>   0.0830 
 15 C       -5.3620     4.8290    -0.1230 C.ar  1 <1>   0.0830 
 16 C       -5.4890     7.0310    -1.0990 C.ar  1 <1>  -0.1500 
 17 O       -4.6170     3.7310     0.2080 O.3   1 <1>  -0.3630 
 18 C       -6.7380     4.8750     0.0950 C.ar  1 <1>  -0.1500 
 19 C       -6.8550     7.0560    -0.8860 C.ar  1 <1>  -0.1500 
 20 C       -5.2440     2.4880     0.4540 C.3   1 <1>   0.0400 
 21 C       -7.4860     5.9800    -0.2830 C.ar  1 <1>  -0.1430 
 22 C       -8.9880     5.9990    -0.0360 C.3   1 <1>   0.1220 
 23 C       -9.6630     4.8470    -0.7610 C.2   1 <1>  -0.2880 
 24 C      -10.3980     3.8930    -0.1820 C.2   1 <1>  -0.3000 
 25 H        1.3170     0.5990    -1.3820 H     1 <1>   0.0800 
 26 H        3.8170     2.6010     0.5420 H     1 <1>   0.0800 
 27 H       -0.1640     1.6200     0.6710 H     1 <1>   0.0800 
 28 H       -0.3910     2.0120    -1.0040 H     1 <1>   0.0800 
 29 H        2.2680     0.9030     1.4870 H     1 <1>   0.0800 
 30 H        2.9590    -0.1710     0.2850 H     1 <1>   0.0800 
 31 H        1.3230    -0.3990     0.8250 H     1 <1>   0.0800 
 32 H        2.1610     4.7130     0.9320 H     1 <1>   0.0800 
 33 H        1.9280     3.1790     1.7170 H     1 <1>   0.0800 
 34 H        3.0530     4.5550    -1.6490 H     1 <1>   0.0800 
 35 H        4.5480     3.6500    -1.5460 H     1 <1>   0.0800 
 36 H        4.1930     4.8790    -0.3640 H     1 <1>   0.0800 
 37 H        0.7070     3.9460    -0.8500 H     1 <1>   0.4500 
 38 H       -0.1340     5.2170     1.0890 H     1 <1>   0.0800 
 39 H       -0.9130     3.7300     1.5620 H     1 <1>   0.0800 
 40 H       -2.2160     3.6860    -0.4390 H     1 <1>   0.0800 
 41 H       -1.7090     5.2180    -2.1370 H     1 <1>   0.4000 
 42 H       -1.9120     6.6290     0.2530 H     1 <1>   0.0800 
 43 H       -3.0460     5.5280     0.9990 H     1 <1>   0.0800 
 44 H       -5.0020     7.8670    -1.5670 H     1 <1>   0.1500 
 45 H       -7.2550     4.0560     0.5570 H     1 <1>   0.1500 
 46 H       -7.4210     7.9190    -1.1930 H     1 <1>   0.1500 
 47 H       -4.4820     1.7350     0.5360 H     1 <1>   0.0800 
 48 H       -5.8970     2.2570    -0.3700 H     1 <1>   0.0800 
 49 H       -5.7960     2.5490     1.3740 H     1 <1>   0.0800 
 50 H       -9.4110     6.9260    -0.3820 H     1 <1>   0.0800 
 51 H       -9.1740     5.9290     1.0210 H     1 <1>   0.0800 
 52 H       -9.4830     4.8750    -1.8230 H     1 <1>   0.1500 
 53 H      -10.8640     3.0860    -0.7230 H     1 <1>   0.1500 
 54 H      -10.5980     3.8340     0.8740 H     1 <1>   0.1500 
@<TRIPOS>BOND
  1   1   2  1   
  2   1   3  1   
  3   2   4  1   
  4   2   5  1   
  5   2  25  1   
  6   3   6  1   
  7   3   7  1   
  8   3  26  1   
  9   4   8  1   
 10   4  27  1   
 11   4  28  1   
 12   5  29  1   
 13   5  30  1   
 14   5  31  1   
 15   6   8  1   
 16   6  32  1   
 17   6  33  1   
 18   7  34  1   
 19   7  35  1   
 20   7  36  1   
 21   8   9  1   
 22   8  37  1   
 23   9  10  1   
 24   9  38  1   
 25   9  39  1   
 26  10  11  1   
 27  10  12  1   
 28  10  40  1   
 29  11  41  1   
 30  12  13  1   
 31  12  42  1   
 32  12  43  1   
 33  13  14  1   
 34  14  15  ar  
 35  14  16  ar  
 36  15  17  1   
 37  15  18  ar  
 38  16  19  ar  
 39  16  44  1   
 40  17  20  1   
 41  18  21  ar  
 42  18  45  1   
 43  19  21  ar  
 44  19  46  1   
 45  20  47  1   
 46  20  48  1   
 47  20  49  1   
 48  21  22  1   
 49  22  23  1   
 50  22  50  1   
 51  22  51  1   
 52  23  24  2   
 53  23  52  1   
 54  24  53  1   
 55  24  54  1   
@<TRIPOS>SUBSTRUCTURE
  1 ****  10 GROUP 4 **** **** 0

# MOE 2024.06 (io_trps.svl 2023.06)
