@<TRIPOS>MOLECULE
NONAME
65 68 1 0 0 
SMALL
USER_CHARGES


@<TRIPOS>ATOM
  1 O       -0.2500    -0.0300    -0.3880 O.3   1 <1>  -0.6800 
  2 C        0.0720    -1.3760    -0.1800 C.3   1 <1>   0.2800 
  3 C       -1.4410    -1.6500     0.3500 C.3   1 <1>   0.0000 
  4 C        0.4950    -2.8880    -0.0180 C.3   1 <1>  -0.1600 
  5 C        1.5430    -1.0270    -0.6580 C.3   1 <1>   0.3430 
  6 C       -1.5850    -3.0490     1.0030 C.3   1 <1>  -0.0800 
  7 C       -2.4240    -1.5410    -0.8750 C.3   1 <1>  -0.1600 
  8 C       -1.8690    -0.6640     1.4980 C.3   1 <1>  -0.2400 
  9 C       -0.6510    -3.8540     0.1570 C.3   1 <1>  -0.1600 
 10 N        2.2090     0.0240     0.1890 N.4   1 <1>  -0.9060 
 11 C       -3.0290    -3.6260     1.2180 C.3   1 <1>  -0.0800 
 12 C       -3.6010    -2.5340    -0.9460 C.3   1 <1>  -0.1600 
 13 C        3.4530     0.5690    -0.4220 C.3   1 <1>   0.3430 
 14 C       -4.1370    -2.8320     0.4610 C.3   1 <1>  -0.0800 
 15 C       -3.0930    -5.1590     0.9620 C.3   1 <1>  -0.1600 
 16 C        4.0330     1.7210     0.4080 C.3   1 <1>   0.1200 
 17 C       -5.5540    -3.4870     0.5540 C.3   1 <1>   0.0000 
 18 C       -4.4980    -5.7690     1.0260 C.3   1 <1>  -0.1600 
 19 O        5.2010     2.1330    -0.2070 O.3   1 <1>  -0.6800 
 20 C       -5.4410    -4.9730     0.1150 C.3   1 <1>  -0.0800 
 21 C       -6.6260    -2.7370    -0.3000 C.3   1 <1>  -0.1600 
 22 C       -6.0420    -3.3570     2.0240 C.3   1 <1>  -0.2400 
 23 C       -6.8140    -5.6430    -0.0550 C.3   1 <1>  -0.1600 
 24 C       -7.1310    -3.5320    -1.5130 C.3   1 <1>  -0.1600 
 25 C       -7.7010    -4.8940    -1.0730 C.3   1 <1>  -0.1600 
 26 H       -1.2270     0.0510    -0.3020 H     1 <1>   0.4000 
 27 H        1.0210    -3.2830    -0.8750 H     1 <1>   0.0800 
 28 H        1.1320    -2.9870     0.8470 H     1 <1>   0.0800 
 29 H        1.4680    -0.6650    -1.6710 H     1 <1>   0.0800 
 30 H        2.2110    -1.8710    -0.6950 H     1 <1>   0.0800 
 31 H       -1.1300    -3.0150     1.9810 H     1 <1>   0.0800 
 32 H       -2.8420    -0.5500    -0.9120 H     1 <1>   0.0800 
 33 H       -1.8720    -1.6680    -1.7900 H     1 <1>   0.0800 
 34 H       -2.6820    -1.0410     2.0880 H     1 <1>   0.0800 
 35 H       -2.1780     0.3010     1.1360 H     1 <1>   0.0800 
 36 H       -1.0480    -0.5190     2.1780 H     1 <1>   0.0800 
 37 H       -0.3370    -4.7650     0.6390 H     1 <1>   0.0800 
 38 H       -1.0850    -4.0790    -0.8020 H     1 <1>   0.0800 
 39 H        1.4790     0.7540     0.2520 H     1 <1>   0.4500 
 40 H        2.3650    -0.3290     1.1390 H     1 <1>   0.4500 
 41 H       -3.2390    -3.4960     2.2640 H     1 <1>   0.0800 
 42 H       -3.2800    -3.4500    -1.4090 H     1 <1>   0.0800 
 43 H       -4.3550    -2.1140    -1.5840 H     1 <1>   0.0800 
 44 H        4.1940    -0.2110    -0.4950 H     1 <1>   0.0800 
 45 H        3.2400     0.9340    -1.4140 H     1 <1>   0.0800 
 46 H       -4.2570    -1.8750     0.9300 H     1 <1>   0.0800 
 47 H       -2.7250    -5.3810    -0.0230 H     1 <1>   0.0800 
 48 H       -2.4590    -5.6670     1.6670 H     1 <1>   0.0800 
 49 H        4.2790     1.3990     1.4050 H     1 <1>   0.0800 
 50 H        3.3570     2.5580     0.4360 H     1 <1>   0.0800 
 51 H       -4.8570    -5.7970     2.0380 H     1 <1>   0.0800 
 52 H       -4.4460    -6.7880     0.6820 H     1 <1>   0.0800 
 53 H        5.6190     2.8830     0.2680 H     1 <1>   0.4000 
 54 H       -4.9870    -4.9950    -0.8610 H     1 <1>   0.0800 
 55 H       -7.4970    -2.5300     0.2990 H     1 <1>   0.0800 
 56 H       -6.2670    -1.7740    -0.6140 H     1 <1>   0.0800 
 57 H       -7.0010    -3.8250     2.1530 H     1 <1>   0.0800 
 58 H       -6.1480    -2.3200     2.2890 H     1 <1>   0.0800 
 59 H       -5.3700    -3.7980     2.7320 H     1 <1>   0.0800 
 60 H       -6.6800    -6.6570    -0.3900 H     1 <1>   0.0800 
 61 H       -7.3170    -5.6870     0.8940 H     1 <1>   0.0800 
 62 H       -7.8960    -2.9720    -2.0220 H     1 <1>   0.0800 
 63 H       -6.3240    -3.6810    -2.2080 H     1 <1>   0.0800 
 64 H       -7.8370    -5.5070    -1.9470 H     1 <1>   0.0800 
 65 H       -8.6720    -4.7430    -0.6350 H     1 <1>   0.0800 
@<TRIPOS>BOND
  1   1   2  1   
  2   1  26  1   
  3   2   3  1   
  4   2   4  1   
  5   2   5  1   
  6   3   6  1   
  7   3   7  1   
  8   3   8  1   
  9   4   9  1   
 10   4  27  1   
 11   4  28  1   
 12   5  10  1   
 13   5  29  1   
 14   5  30  1   
 15   6   9  1   
 16   6  11  1   
 17   6  31  1   
 18   7  12  1   
 19   7  32  1   
 20   7  33  1   
 21   8  34  1   
 22   8  35  1   
 23   8  36  1   
 24   9  37  1   
 25   9  38  1   
 26  10  13  1   
 27  10  39  1   
 28  10  40  1   
 29  11  14  1   
 30  11  15  1   
 31  11  41  1   
 32  12  14  1   
 33  12  42  1   
 34  12  43  1   
 35  13  16  1   
 36  13  44  1   
 37  13  45  1   
 38  14  17  1   
 39  14  46  1   
 40  15  18  1   
 41  15  47  1   
 42  15  48  1   
 43  16  19  1   
 44  16  49  1   
 45  16  50  1   
 46  17  20  1   
 47  17  21  1   
 48  17  22  1   
 49  18  20  1   
 50  18  51  1   
 51  18  52  1   
 52  19  53  1   
 53  20  23  1   
 54  20  54  1   
 55  21  24  1   
 56  21  55  1   
 57  21  56  1   
 58  22  57  1   
 59  22  58  1   
 60  22  59  1   
 61  23  25  1   
 62  23  60  1   
 63  23  61  1   
 64  24  25  1   
 65  24  62  1   
 66  24  63  1   
 67  25  64  1   
 68  25  65  1   
@<TRIPOS>SUBSTRUCTURE
  1 ****   3 GROUP 4 **** **** 0

# MOE 2024.06 (io_trps.svl 2023.06)
