@<TRIPOS>MOLECULE
NONAME
52 54 1 0 0 
SMALL
USER_CHARGES


@<TRIPOS>ATOM
  1 O        1.0860    -0.0330     0.5260 O.2   1 <1>  -0.5700 
  2 C        2.1430    -0.6270     0.4750 C.2   1 <1>   0.5690 
  3 N        3.1790    -0.1320    -0.2870 N.am  1 <1>  -0.6600 
  4 C        2.2980    -1.9120     1.3280 C.3   1 <1>   0.2610 
  5 C        3.0050     1.0460    -1.1860 C.3   1 <1>   0.1400 
  6 C        4.5540    -0.7080    -0.3670 C.3   1 <1>   0.1400 
  7 O        2.8220    -3.0080     0.6080 O.3   1 <1>  -0.5600 
  8 C        1.0130    -2.4390     1.9720 C.3   1 <1>  -0.1600 
  9 C        4.0880     2.1010    -0.9140 C.3   1 <1>   0.1100 
 10 C        5.6210     0.3760    -0.1310 C.3   1 <1>   0.1100 
 11 C        2.1840    -4.2050     0.9310 C.3   1 <1>   0.1200 
 12 C        1.3040    -3.9150     2.1360 C.3   1 <1>  -0.1600 
 13 N        5.4520     1.5400    -1.0300 N.3   1 <1>  -0.8100 
 14 C        6.4730     2.6110    -0.8400 C.3   1 <1>   0.1710 
 15 C        7.9390     2.2130    -1.0650 C.2   1 <1>   0.5690 
 16 O        8.4680     2.5120    -2.1080 O.2   1 <1>  -0.5700 
 17 N        8.5960     1.5850    -0.0360 N.am  1 <1>  -0.5470 
 18 C        9.8990     1.0750     0.0630 C.ar  1 <1>   0.1170 
 19 C       10.4290     0.8500     1.3280 C.ar  1 <1>  -0.1500 
 20 C       10.6810     0.7640    -1.0450 C.ar  1 <1>  -0.1500 
 21 C       11.7030     0.3340     1.4910 C.ar  1 <1>  -0.1440 
 22 C       11.9570     0.2490    -0.8980 C.ar  1 <1>  -0.1440 
 23 C       12.4630     0.0340     0.3730 C.ar  1 <1>  -0.1500 
 24 C       12.2750     0.0920     2.8770 C.3   1 <1>  -0.0970 
 25 C       12.7990    -0.0830    -2.1160 C.3   1 <1>  -0.0970 
 26 H        3.0050    -1.7010     2.1090 H     1 <1>   0.0800 
 27 H        2.0350     1.4920    -1.0480 H     1 <1>   0.0800 
 28 H        3.0760     0.7220    -2.2090 H     1 <1>   0.0800 
 29 H        4.6970    -1.1380    -1.3430 H     1 <1>   0.0800 
 30 H        4.6930    -1.4860     0.3590 H     1 <1>   0.0800 
 31 H        0.1850    -2.3010     1.2980 H     1 <1>   0.0800 
 32 H        0.7970    -1.9430     2.9020 H     1 <1>   0.0800 
 33 H        3.9390     2.5050     0.0730 H     1 <1>   0.0800 
 34 H        3.9710     2.9000    -1.6250 H     1 <1>   0.0800 
 35 H        6.5830    -0.0730    -0.3030 H     1 <1>   0.0800 
 36 H        5.5700     0.6960     0.8950 H     1 <1>   0.0800 
 37 H        2.9250    -4.9590     1.1330 H     1 <1>   0.0800 
 38 H        1.5880    -4.4940     0.0810 H     1 <1>   0.0800 
 39 H        0.4120    -4.5160     2.1400 H     1 <1>   0.0800 
 40 H        1.8610    -4.0940     3.0390 H     1 <1>   0.0800 
 41 H        6.3790     3.0210     0.1490 H     1 <1>   0.0800 
 42 H        6.2610     3.4040    -1.5360 H     1 <1>   0.0800 
 43 H        8.0430     1.4700     0.8080 H     1 <1>   0.3700 
 44 H        9.8400     1.0850     2.1940 H     1 <1>   0.1500 
 45 H       10.2880     0.9210    -2.0320 H     1 <1>   0.1500 
 46 H       13.4530    -0.3690     0.4910 H     1 <1>   0.1500 
 47 H       11.6860     0.5870     3.6280 H     1 <1>   0.0800 
 48 H       13.2800     0.4710     2.9310 H     1 <1>   0.0800 
 49 H       12.2890    -0.9620     3.0860 H     1 <1>   0.0800 
 50 H       12.4070     0.4020    -2.9930 H     1 <1>   0.0800 
 51 H       12.8000    -1.1450    -2.2800 H     1 <1>   0.0800 
 52 H       13.8100     0.2500    -1.9690 H     1 <1>   0.0800 
@<TRIPOS>BOND
  1   1   2  2   
  2   2   3  am  
  3   2   4  1   
  4   3   5  1   
  5   3   6  1   
  6   4   7  1   
  7   4   8  1   
  8   4  26  1   
  9   5   9  1   
 10   5  27  1   
 11   5  28  1   
 12   6  10  1   
 13   6  29  1   
 14   6  30  1   
 15   7  11  1   
 16   8  12  1   
 17   8  31  1   
 18   8  32  1   
 19   9  13  1   
 20   9  33  1   
 21   9  34  1   
 22  10  13  1   
 23  10  35  1   
 24  10  36  1   
 25  11  12  1   
 26  11  37  1   
 27  11  38  1   
 28  12  39  1   
 29  12  40  1   
 30  13  14  1   
 31  14  15  1   
 32  14  41  1   
 33  14  42  1   
 34  15  16  2   
 35  15  17  am  
 36  17  18  1   
 37  17  43  1   
 38  18  19  ar  
 39  18  20  ar  
 40  19  21  ar  
 41  19  44  1   
 42  20  22  ar  
 43  20  45  1   
 44  21  23  ar  
 45  21  24  1   
 46  22  23  ar  
 47  22  25  1   
 48  23  46  1   
 49  24  47  1   
 50  24  48  1   
 51  24  49  1   
 52  25  50  1   
 53  25  51  1   
 54  25  52  1   
@<TRIPOS>SUBSTRUCTURE
  1 ****  10 GROUP 4 **** **** 0

# MOE 2024.06 (io_trps.svl 2023.06)
