@<TRIPOS>MOLECULE
NONAME
42 44 1 0 0 
SMALL
USER_CHARGES


@<TRIPOS>ATOM
  1 S       -0.4350    -0.1310    -1.5510 S.o2  1 <1>   1.4470 
  2 O        0.3320    -0.5290    -2.7120 O.2   1 <1>  -0.6500 
  3 O       -0.8940     1.2370    -1.4480 O.2   1 <1>  -0.6500 
  4 N        0.5340    -0.4460    -0.1960 N.am  1 <1>  -0.8490 
  5 C       -1.8490    -1.2500    -1.3370 C.ar  1 <1>  -0.0090 
  6 C        1.5480     0.5960    -0.0120 C.3   1 <1>   0.1960 
  7 C        1.1520    -1.7750    -0.2570 C.3   1 <1>   0.1960 
  8 C       -2.4390    -1.4340    -0.0940 C.ar  1 <1>  -0.1500 
  9 C       -2.3800    -1.9440    -2.4170 C.ar  1 <1>  -0.1500 
 10 C        2.3010     0.3770     1.3050 C.3   1 <1>  -0.1600 
 11 C        1.8730    -2.0810     1.0590 C.3   1 <1>  -0.1600 
 12 C       -3.5250    -2.2850     0.1050 C.ar  1 <1>   0.0860 
 13 C       -3.4550    -2.7990    -2.2560 C.ar  1 <1>  -0.1500 
 14 C        2.9340    -1.0180     1.3700 C.3   1 <1>  -0.1600 
 15 C       -4.0920    -2.4640     1.4290 C.2   1 <1>   0.5440 
 16 C       -4.0180    -2.9680    -1.0060 C.ar  1 <1>  -0.1500 
 17 O       -3.3670    -2.7060     2.3700 O.2   1 <1>  -0.5700 
 18 N       -5.4240    -2.4130     1.7090 N.am  1 <1>  -0.5470 
 19 C       -6.4930    -1.8810     1.0580 C.ar  1 <1>   0.7370 
 20 N       -7.6640    -2.1890     1.5970 N.ar  1 <1>  -0.6200 
 21 N       -6.2840    -1.1120    -0.0050 N.ar  1 <1>  -0.6200 
 22 C       -8.7200    -1.6790     1.0070 C.ar  1 <1>   0.1600 
 23 C       -7.3550    -0.6140    -0.5750 C.ar  1 <1>   0.1600 
 24 C       -8.6180    -0.8720    -0.1010 C.ar  1 <1>  -0.1500 
 25 H        1.0750     1.5640     0.0210 H     1 <1>   0.0800 
 26 H        2.2360     0.5860    -0.8410 H     1 <1>   0.0800 
 27 H        1.8510    -1.8200    -1.0760 H     1 <1>   0.0800 
 28 H        0.3950    -2.5240    -0.4180 H     1 <1>   0.0800 
 29 H       -2.0430    -0.9040     0.7570 H     1 <1>   0.1500 
 30 H       -1.9450    -1.8150    -3.3950 H     1 <1>   0.1500 
 31 H        1.6090     0.4990     2.1200 H     1 <1>   0.0800 
 32 H        3.0640     1.1270     1.4080 H     1 <1>   0.0800 
 33 H        2.3380    -3.0490     0.9960 H     1 <1>   0.0800 
 34 H        1.1460    -2.1150     1.8530 H     1 <1>   0.0800 
 35 H       -3.8530    -3.3310    -3.1040 H     1 <1>   0.1500 
 36 H        3.3520    -1.1890     2.3470 H     1 <1>   0.0800 
 37 H        3.7290    -1.0840     0.6470 H     1 <1>   0.0800 
 38 H       -4.8540    -3.6340    -0.8840 H     1 <1>   0.1500 
 39 H       -5.6580    -2.7340     2.6410 H     1 <1>   0.3700 
 40 H       -9.6900    -1.9100     1.4160 H     1 <1>   0.1500 
 41 H       -7.2210     0.0150    -1.4400 H     1 <1>   0.1500 
 42 H       -9.4880    -0.4600    -0.5750 H     1 <1>   0.1500 
@<TRIPOS>BOND
  1   1   2  2   
  2   1   3  2   
  3   1   4  am  
  4   1   5  1   
  5   4   6  1   
  6   4   7  1   
  7   5   8  ar  
  8   5   9  ar  
  9   6  10  1   
 10   6  25  1   
 11   6  26  1   
 12   7  11  1   
 13   7  27  1   
 14   7  28  1   
 15   8  12  ar  
 16   8  29  1   
 17   9  13  ar  
 18   9  30  1   
 19  10  14  1   
 20  10  31  1   
 21  10  32  1   
 22  11  14  1   
 23  11  33  1   
 24  11  34  1   
 25  12  15  1   
 26  12  16  ar  
 27  13  16  ar  
 28  13  35  1   
 29  14  36  1   
 30  14  37  1   
 31  15  17  2   
 32  15  18  am  
 33  16  38  1   
 34  18  19  1   
 35  18  39  1   
 36  19  20  ar  
 37  19  21  ar  
 38  20  22  ar  
 39  21  23  ar  
 40  22  24  ar  
 41  22  40  1   
 42  23  24  ar  
 43  23  41  1   
 44  24  42  1   
@<TRIPOS>SUBSTRUCTURE
  1 ****   8 GROUP 4 **** **** 0

# MOE 2024.06 (io_trps.svl 2023.06)
