@<TRIPOS>MOLECULE
NONAME
48 49 1 0 0 
SMALL
USER_CHARGES


@<TRIPOS>ATOM
  1 CL      -0.6500     0.4910     0.4430 Cl    1 <1>  -0.1770 
  2 C       -2.1210    -0.4520     0.3170 C.ar  1 <1>   0.1770 
  3 C       -2.0690    -1.8420     0.3100 C.ar  1 <1>   0.0820 
  4 C       -3.3220     0.2250     0.2260 C.ar  1 <1>  -0.1500 
  5 O       -0.8470    -2.4410     0.3960 O.3   1 <1>  -0.3630 
  6 C       -3.2610    -2.5560     0.2150 C.ar  1 <1>  -0.1500 
  7 C       -4.5000    -0.4950     0.1220 C.ar  1 <1>   0.0830 
  8 C       -0.6960    -3.8310     0.2090 C.3   1 <1>   0.0400 
  9 C       -4.4790    -1.8960     0.1230 C.ar  1 <1>   0.1170 
 10 O       -5.6820     0.1710     0.0400 O.3   1 <1>  -0.3630 
 11 N       -5.6610    -2.6510     0.0480 N.am  1 <1>  -0.5470 
 12 C       -5.8810     0.8950    -1.1560 C.3   1 <1>   0.0400 
 13 C       -6.5340    -2.6940    -1.0030 C.2   1 <1>   0.5690 
 14 O       -6.2550    -2.2620    -2.0960 O.2   1 <1>  -0.5700 
 15 C       -7.9200    -3.3150    -0.7790 C.3   1 <1>   0.1710 
 16 N       -8.9910    -2.3370    -0.4200 N.3   1 <1>  -0.8100 
 17 C      -10.3380    -2.9500    -0.3830 C.3   1 <1>   0.1100 
 18 C       -8.7190    -1.5650     0.8180 C.3   1 <1>   0.1100 
 19 C      -11.4450    -1.9100    -0.0710 C.3   1 <1>   0.3430 
 20 C       -9.7950    -0.4820     1.0780 C.3   1 <1>   0.3430 
 21 N      -10.8760    -0.5250     0.0340 N.4   1 <1>  -0.9590 
 22 C      -11.9150     0.5230     0.1680 C.3   1 <1>   0.3430 
 23 C      -11.3080     1.8900    -0.1250 C.3   1 <1>  -0.2400 
 24 H       -3.3310     1.2980     0.2420 H     1 <1>   0.1500 
 25 H       -3.2640    -3.6280     0.2070 H     1 <1>   0.1500 
 26 H        0.3550    -4.0580     0.2450 H     1 <1>   0.0800 
 27 H       -1.0940    -4.1000    -0.7540 H     1 <1>   0.0800 
 28 H       -1.2080    -4.3490     1.0000 H     1 <1>   0.0800 
 29 H       -5.9280    -3.1310     0.9040 H     1 <1>   0.3700 
 30 H       -6.8960     1.2460    -1.1760 H     1 <1>   0.0800 
 31 H       -5.7030     0.2440    -1.9950 H     1 <1>   0.0800 
 32 H       -5.2030     1.7300    -1.1820 H     1 <1>   0.0800 
 33 H       -7.8480    -4.0690    -0.0170 H     1 <1>   0.0800 
 34 H       -8.1950    -3.8050    -1.6980 H     1 <1>   0.0800 
 35 H      -10.3680    -3.7320     0.3580 H     1 <1>   0.0800 
 36 H      -10.5490    -3.4000    -1.3380 H     1 <1>   0.0800 
 37 H       -7.7670    -1.0700     0.7390 H     1 <1>   0.0800 
 38 H       -8.6700    -2.2290     1.6640 H     1 <1>   0.0800 
 39 H      -11.9320    -2.1770     0.8530 H     1 <1>   0.0800 
 40 H      -12.1850    -1.9450    -0.8540 H     1 <1>   0.0800 
 41 H       -9.3160     0.4820     1.0710 H     1 <1>   0.0800 
 42 H      -10.2190    -0.6300     2.0570 H     1 <1>   0.0800 
 43 H      -10.3640    -0.4030    -0.8550 H     1 <1>   0.4500 
 44 H      -12.3350     0.5080     1.1620 H     1 <1>   0.0800 
 45 H      -12.7090     0.3370    -0.5380 H     1 <1>   0.0800 
 46 H      -10.5800     2.1650     0.6160 H     1 <1>   0.0800 
 47 H      -12.0860     2.6320    -0.1080 H     1 <1>   0.0800 
 48 H      -10.8570     1.9060    -1.1020 H     1 <1>   0.0800 
@<TRIPOS>BOND
  1   1   2  1   
  2   2   3  ar  
  3   2   4  ar  
  4   3   5  1   
  5   3   6  ar  
  6   4   7  ar  
  7   4  24  1   
  8   5   8  1   
  9   6   9  ar  
 10   6  25  1   
 11   7   9  ar  
 12   7  10  1   
 13   8  26  1   
 14   8  27  1   
 15   8  28  1   
 16   9  11  1   
 17  10  12  1   
 18  11  13  am  
 19  11  29  1   
 20  12  30  1   
 21  12  31  1   
 22  12  32  1   
 23  13  14  2   
 24  13  15  1   
 25  15  16  1   
 26  15  33  1   
 27  15  34  1   
 28  16  17  1   
 29  16  18  1   
 30  17  19  1   
 31  17  35  1   
 32  17  36  1   
 33  18  20  1   
 34  18  37  1   
 35  18  38  1   
 36  19  21  1   
 37  19  39  1   
 38  19  40  1   
 39  20  21  1   
 40  20  41  1   
 41  20  42  1   
 42  21  22  1   
 43  21  43  1   
 44  22  23  1   
 45  22  44  1   
 46  22  45  1   
 47  23  46  1   
 48  23  47  1   
 49  23  48  1   
@<TRIPOS>SUBSTRUCTURE
  1 ****  11 GROUP 4 **** **** 0

# MOE 2024.06 (io_trps.svl 2023.06)
