@<TRIPOS>MOLECULE
NONAME
35 35 1 0 0 
SMALL
USER_CHARGES


@<TRIPOS>ATOM
  1 O       -0.5910     0.7320    -1.1770 O.2   1 <1>  -0.5700 
  2 C       -0.9740     1.8140    -0.8190 C.2   1 <1>   0.6590 
  3 O       -2.0710     2.3200    -1.3750 O.3   1 <1>  -0.4300 
  4 C       -0.1710     2.6370     0.2050 C.3   1 <1>   0.1220 
  5 C       -2.8970     3.3060    -0.8040 C.3   1 <1>   0.2000 
  6 C       -1.0350     3.7870     0.7350 C.2   1 <1>   0.4480 
  7 C        1.0890     3.2220    -0.4710 C.3   1 <1>  -0.2400 
  8 C        0.2940     1.7260     1.3700 C.3   1 <1>  -0.2400 
  9 C       -2.0060     4.4250    -0.2500 C.3   1 <1>  -0.0190 
 10 C       -3.8310     2.6400     0.2290 C.3   1 <1>  -0.1600 
 11 O       -0.9520     4.1730     1.8660 O.2   1 <1>  -0.5700 
 12 C       -2.7910     5.6140     0.3580 C.3   1 <1>  -0.1600 
 13 C       -4.6430     1.4780    -0.3650 C.3   1 <1>  -0.1600 
 14 C       -3.7460     6.2890    -0.6350 C.3   1 <1>  -0.2400 
 15 C       -5.6090     0.8970     0.6720 C.3   1 <1>  -0.2400 
 16 H       -3.4970     3.6950    -1.6090 H     1 <1>   0.0800 
 17 H        0.8210     3.8400    -1.3100 H     1 <1>   0.0800 
 18 H        1.7220     2.4280    -0.8290 H     1 <1>   0.0800 
 19 H        1.6490     3.8170     0.2290 H     1 <1>   0.0800 
 20 H       -0.5580     1.3050     1.8740 H     1 <1>   0.0800 
 21 H        0.8690     2.2860     2.0860 H     1 <1>   0.0800 
 22 H        0.9030     0.9180     1.0020 H     1 <1>   0.0800 
 23 H       -1.4320     4.8190    -1.0690 H     1 <1>   0.0800 
 24 H       -4.5210     3.3790     0.5970 H     1 <1>   0.0800 
 25 H       -3.2650     2.2850     1.0730 H     1 <1>   0.0800 
 26 H       -2.0810     6.3500     0.6990 H     1 <1>   0.0800 
 27 H       -3.3430     5.2920     1.2250 H     1 <1>   0.0800 
 28 H       -3.9790     0.6980    -0.6990 H     1 <1>   0.0800 
 29 H       -5.2030     1.8240    -1.2170 H     1 <1>   0.0800 
 30 H       -3.2180     6.5990    -1.5200 H     1 <1>   0.0800 
 31 H       -4.1820     7.1620    -0.1810 H     1 <1>   0.0800 
 32 H       -4.5460     5.6280    -0.9170 H     1 <1>   0.0800 
 33 H       -5.0670     0.5240     1.5230 H     1 <1>   0.0800 
 34 H       -6.1650     0.0840     0.2390 H     1 <1>   0.0800 
 35 H       -6.3050     1.6480     1.0030 H     1 <1>   0.0800 
@<TRIPOS>BOND
  1   1   2  2   
  2   2   3  1   
  3   2   4  1   
  4   3   5  1   
  5   4   6  1   
  6   4   7  1   
  7   4   8  1   
  8   5   9  1   
  9   5  10  1   
 10   5  16  1   
 11   6   9  1   
 12   6  11  2   
 13   7  17  1   
 14   7  18  1   
 15   7  19  1   
 16   8  20  1   
 17   8  21  1   
 18   8  22  1   
 19   9  12  1   
 20   9  23  1   
 21  10  13  1   
 22  10  24  1   
 23  10  25  1   
 24  12  14  1   
 25  12  26  1   
 26  12  27  1   
 27  13  15  1   
 28  13  28  1   
 29  13  29  1   
 30  14  30  1   
 31  14  31  1   
 32  14  32  1   
 33  15  33  1   
 34  15  34  1   
 35  15  35  1   
@<TRIPOS>SUBSTRUCTURE
  1 ****   5 GROUP 4 **** **** 0

# MOE 2024.06 (io_trps.svl 2023.06)
