@<TRIPOS>MOLECULE
NONAME
39 39 1 0 0 
SMALL
USER_CHARGES


@<TRIPOS>ATOM
  1 S        0.2440     0.1080    -0.1710 S.o2  1 <1>   1.3330 
  2 O        0.6760     1.4600     0.0970 O.2   1 <1>  -0.6500 
  3 O        0.1990    -0.3430    -1.5430 O.2   1 <1>  -0.6500 
  4 N       -1.3010    -0.0850     0.5180 N.am  1 <1>  -0.8490 
  5 C        1.3460    -0.9400     0.7580 C.3   1 <1>  -0.1350 
  6 C       -2.0530    -1.2450    -0.0810 C.3   1 <1>   0.4190 
  7 C       -2.0740     1.1700     0.4300 C.3   1 <1>   0.1160 
  8 P       -3.8620    -1.3730     0.1090 P.3   1 <1>   0.9710 
  9 C       -1.3670    -2.5290     0.3980 C.ar  1 <1>  -0.1440 
 10 O       -4.6230    -0.2320    -0.3990 O.2   1 <1>  -0.7000 
 11 O       -4.2840    -2.7280    -0.6350 O.3   1 <1>  -0.5510 
 12 C       -4.2240    -1.6970     1.8140 C.3   1 <1>  -0.2400 
 13 C       -1.1040    -2.7520     1.7450 C.ar  1 <1>  -0.1500 
 14 C       -1.0020    -3.4990    -0.5260 C.ar  1 <1>  -0.1500 
 15 C       -5.6130    -3.0030    -0.9000 C.3   1 <1>   0.1200 
 16 C       -0.4910    -3.9210     2.1600 C.ar  1 <1>  -0.1500 
 17 C       -0.3870    -4.6680    -0.1120 C.ar  1 <1>  -0.1500 
 18 C       -5.6740    -4.3580    -1.5940 C.3   1 <1>  -0.2400 
 19 C       -0.1320    -4.8800     1.2310 C.ar  1 <1>  -0.1500 
 20 H        2.3610    -0.7110     0.5010 H     1 <1>   0.0800 
 21 H        1.1750    -1.9730     0.5350 H     1 <1>   0.0800 
 22 H        1.2140    -0.7770     1.8090 H     1 <1>   0.0800 
 23 H       -1.9110    -1.1910    -1.1440 H     1 <1>   0.0800 
 24 H       -1.5180     1.9880     0.8580 H     1 <1>   0.0800 
 25 H       -2.9910     1.1010     0.9870 H     1 <1>   0.0800 
 26 H       -2.2970     1.4070    -0.5980 H     1 <1>   0.0800 
 27 H       -3.8380    -0.9220     2.4490 H     1 <1>   0.0800 
 28 H       -3.8100    -2.6320     2.1390 H     1 <1>   0.0800 
 29 H       -5.2830    -1.7460     1.9770 H     1 <1>   0.0800 
 30 H       -1.3690    -2.0090     2.4790 H     1 <1>   0.1500 
 31 H       -1.1940    -3.3520    -1.5760 H     1 <1>   0.1500 
 32 H       -6.0040    -2.2260    -1.5360 H     1 <1>   0.0800 
 33 H       -6.1580    -3.0220     0.0280 H     1 <1>   0.0800 
 34 H       -0.2930    -4.0850     3.2050 H     1 <1>   0.1500 
 35 H       -0.1090    -5.4140    -0.8370 H     1 <1>   0.1500 
 36 H       -5.1210    -4.3260    -2.5150 H     1 <1>   0.0800 
 37 H       -6.6960    -4.6070    -1.8160 H     1 <1>   0.0800 
 38 H       -5.2650    -5.1210    -0.9550 H     1 <1>   0.0800 
 39 H        0.3440    -5.7910     1.5510 H     1 <1>   0.1500 
@<TRIPOS>BOND
  1   1   2  2   
  2   1   3  2   
  3   1   4  am  
  4   1   5  1   
  5   4   6  1   
  6   4   7  1   
  7   5  20  1   
  8   5  21  1   
  9   5  22  1   
 10   6   8  1   
 11   6   9  1   
 12   6  23  1   
 13   7  24  1   
 14   7  25  1   
 15   7  26  1   
 16   8  10  2   
 17   8  11  1   
 18   8  12  1   
 19   9  13  ar  
 20   9  14  ar  
 21  11  15  1   
 22  12  27  1   
 23  12  28  1   
 24  12  29  1   
 25  13  16  ar  
 26  13  30  1   
 27  14  17  ar  
 28  14  31  1   
 29  15  18  1   
 30  15  32  1   
 31  15  33  1   
 32  16  19  ar  
 33  16  34  1   
 34  17  19  ar  
 35  17  35  1   
 36  18  36  1   
 37  18  37  1   
 38  18  38  1   
 39  19  39  1   
@<TRIPOS>SUBSTRUCTURE
  1 ****   6 GROUP 4 **** **** 0

# MOE 2024.06 (io_trps.svl 2023.06)
