@<TRIPOS>MOLECULE
NONAME
31 32 1 0 0 
SMALL
USER_CHARGES


@<TRIPOS>ATOM
  1 BR      -0.1520     0.2310    -0.3810 Br    1 <1>  -0.0580 
  2 C        0.6060     1.9690    -0.0620 C.2   1 <1>   0.1980 
  3 O        1.7480     2.2430    -0.6710 O.3   1 <1>  -0.2800 
  4 C        0.1320     2.9690     0.7000 C.2   1 <1>  -0.1810 
  5 C        2.0560     3.4880    -0.2950 C.ar  1 <1>   0.1400 
  6 C        1.0880     3.9990     0.5610 C.ar  1 <1>   0.0000 
  7 C       -1.1350     3.0490     1.5400 C.3   1 <1>   0.0820 
  8 C        3.1680     4.2280    -0.6710 C.ar  1 <1>  -0.1500 
  9 C        1.2360     5.2950     1.0560 C.ar  1 <1>  -0.1500 
 10 C       -2.0080     4.2490     1.1880 C.2   1 <1>   0.5690 
 11 C        3.3100     5.5110    -0.1750 C.ar  1 <1>  -0.1440 
 12 C        2.3400     6.0350     0.6850 C.ar  1 <1>  -0.1500 
 13 O       -2.1740     5.0760     2.0560 O.2   1 <1>  -0.5700 
 14 N       -2.5820     4.3820    -0.0570 N.am  1 <1>  -0.6600 
 15 C        4.5070     6.3640    -0.5530 C.3   1 <1>  -0.0970 
 16 C       -3.3600     5.5990    -0.4260 C.3   1 <1>   0.0600 
 17 C       -2.4050     3.4140    -1.1750 C.3   1 <1>   0.0600 
 18 H       -0.8540     3.1240     2.5750 H     1 <1>   0.0800 
 19 H       -1.7160     2.1540     1.4300 H     1 <1>   0.0800 
 20 H        3.8900     3.7890    -1.3340 H     1 <1>   0.1500 
 21 H        0.4900     5.7030     1.7170 H     1 <1>   0.1500 
 22 H        2.4580     7.0360     1.0650 H     1 <1>   0.1500 
 23 H        5.1630     5.8320    -1.2180 H     1 <1>   0.0800 
 24 H        5.0570     6.6330     0.3300 H     1 <1>   0.0800 
 25 H        4.1760     7.2610    -1.0440 H     1 <1>   0.0800 
 26 H       -3.4130     6.2890     0.3990 H     1 <1>   0.0800 
 27 H       -4.3610     5.3200    -0.7030 H     1 <1>   0.0800 
 28 H       -2.8860     6.0950    -1.2540 H     1 <1>   0.0800 
 29 H       -3.2590     3.4450    -1.8300 H     1 <1>   0.0800 
 30 H       -2.3060     2.4110    -0.8020 H     1 <1>   0.0800 
 31 H       -1.5230     3.6700    -1.7380 H     1 <1>   0.0800 
@<TRIPOS>BOND
  1   1   2  1   
  2   2   3  1   
  3   2   4  2   
  4   3   5  1   
  5   4   6  1   
  6   4   7  1   
  7   5   6  ar  
  8   5   8  ar  
  9   6   9  ar  
 10   7  10  1   
 11   7  18  1   
 12   7  19  1   
 13   8  11  ar  
 14   8  20  1   
 15   9  12  ar  
 16   9  21  1   
 17  10  13  2   
 18  10  14  am  
 19  11  12  ar  
 20  11  15  1   
 21  12  22  1   
 22  14  16  1   
 23  14  17  1   
 24  15  23  1   
 25  15  24  1   
 26  15  25  1   
 27  16  26  1   
 28  16  27  1   
 29  16  28  1   
 30  17  29  1   
 31  17  30  1   
 32  17  31  1   
@<TRIPOS>SUBSTRUCTURE
  1 ****   6 GROUP 4 **** **** 0

# MOE 2024.06 (io_trps.svl 2023.06)
