@<TRIPOS>MOLECULE
NONAME
40 40 1 0 0 
SMALL
USER_CHARGES


@<TRIPOS>ATOM
  1 CL       3.5970     0.0270    -0.8780 Cl    1 <1>  -0.1770 
  2 C        2.3240    -1.1400    -0.5680 C.ar  1 <1>   0.1770 
  3 C        2.5480    -2.2630     0.2330 C.ar  1 <1>   0.0820 
  4 C        1.0880    -0.9040    -1.1370 C.ar  1 <1>  -0.1500 
  5 O        3.7550    -2.5070     0.8030 O.3   1 <1>  -0.3630 
  6 C        1.5030    -3.1520     0.4800 C.ar  1 <1>  -0.1440 
  7 C        0.0690    -1.8030    -0.8920 C.ar  1 <1>   0.1770 
  8 C        4.8470    -2.7850    -0.0410 C.3   1 <1>   0.1200 
  9 C        0.2620    -2.9160    -0.0930 C.ar  1 <1>  -0.1500 
 10 C        1.7080    -4.3720     1.3670 C.3   1 <1>  -0.0960 
 11 CL      -1.5000    -1.5250    -1.6060 Cl    1 <1>  -0.1770 
 12 C        6.0370    -1.9740     0.4750 C.3   1 <1>  -0.1600 
 13 C        7.1320    -1.8930    -0.5840 C.3   1 <1>   0.3430 
 14 N        8.2460    -1.0160    -0.1230 N.4   1 <1>  -0.9590 
 15 C        7.8510     0.4210    -0.1140 C.3   1 <1>   0.3430 
 16 C        9.4580    -1.2550    -0.9540 C.3   1 <1>   0.3430 
 17 C        7.9600     0.9440     1.3120 C.3   1 <1>  -0.2400 
 18 C       10.6890    -0.6850    -0.2590 C.3   1 <1>  -0.2400 
 19 H        0.9180    -0.0410    -1.7540 H     1 <1>   0.1500 
 20 H        4.5920    -2.5120    -1.0510 H     1 <1>   0.0800 
 21 H        5.0390    -3.8430     0.0010 H     1 <1>   0.0800 
 22 H       -0.5630    -3.5860     0.0750 H     1 <1>   0.1500 
 23 H        2.4370    -5.0290     0.9270 H     1 <1>   0.0800 
 24 H        0.7900    -4.9170     1.4960 H     1 <1>   0.0800 
 25 H        2.0600    -4.0650     2.3360 H     1 <1>   0.0800 
 26 H        6.4150    -2.4410     1.3670 H     1 <1>   0.0800 
 27 H        5.6860    -0.9870     0.7160 H     1 <1>   0.0800 
 28 H        6.7220    -1.5060    -1.5040 H     1 <1>   0.0800 
 29 H        7.5050    -2.8870    -0.7740 H     1 <1>   0.0800 
 30 H        8.4760    -1.2780     0.8450 H     1 <1>   0.4500 
 31 H        6.8360     0.5360    -0.4640 H     1 <1>   0.0800 
 32 H        8.4960     0.9940    -0.7620 H     1 <1>   0.0800 
 33 H        9.3380    -0.8050    -1.9270 H     1 <1>   0.0800 
 34 H        9.6000    -2.3160    -1.0890 H     1 <1>   0.0800 
 35 H        7.3000     0.4090     1.9720 H     1 <1>   0.0800 
 36 H        7.6740     1.9810     1.3300 H     1 <1>   0.0800 
 37 H        8.9700     0.8740     1.6740 H     1 <1>   0.0800 
 38 H       10.6400     0.3870    -0.1880 H     1 <1>   0.0800 
 39 H       11.5630    -0.9320    -0.8360 H     1 <1>   0.0800 
 40 H       10.8090    -1.1100     0.7210 H     1 <1>   0.0800 
@<TRIPOS>BOND
  1   1   2  1   
  2   2   3  ar  
  3   2   4  ar  
  4   3   5  1   
  5   3   6  ar  
  6   4   7  ar  
  7   4  19  1   
  8   5   8  1   
  9   6   9  ar  
 10   6  10  1   
 11   7   9  ar  
 12   7  11  1   
 13   8  12  1   
 14   8  20  1   
 15   8  21  1   
 16   9  22  1   
 17  10  23  1   
 18  10  24  1   
 19  10  25  1   
 20  12  13  1   
 21  12  26  1   
 22  12  27  1   
 23  13  14  1   
 24  13  28  1   
 25  13  29  1   
 26  14  15  1   
 27  14  16  1   
 28  14  30  1   
 29  15  17  1   
 30  15  31  1   
 31  15  32  1   
 32  16  18  1   
 33  16  33  1   
 34  16  34  1   
 35  17  35  1   
 36  17  36  1   
 37  17  37  1   
 38  18  38  1   
 39  18  39  1   
 40  18  40  1   
@<TRIPOS>SUBSTRUCTURE
  1 ****   8 GROUP 4 **** **** 0

# MOE 2024.06 (io_trps.svl 2023.06)
