@<TRIPOS>MOLECULE
NONAME
33 33 1 0 0 
SMALL
USER_CHARGES


@<TRIPOS>ATOM
  1 CL      -2.3580     4.4420     3.3970 Cl    1 <1>  -0.1770 
  2 C       -3.2760     3.4730     2.2710 C.ar  1 <1>   0.1770 
  3 C       -3.5990     3.9970     1.0330 C.ar  1 <1>  -0.1500 
  4 C       -3.6650     2.1970     2.6350 C.ar  1 <1>  -0.1500 
  5 C       -4.3280     3.2320     0.1380 C.ar  1 <1>  -0.1500 
  6 C       -4.3940     1.4350     1.7390 C.ar  1 <1>  -0.1500 
  7 C       -4.7320     1.9430     0.4920 C.ar  1 <1>   0.0830 
  8 O       -5.4570     1.1260    -0.3140 O.3   1 <1>  -0.3630 
  9 C       -5.9280     1.5380    -1.5940 C.3   1 <1>   0.2610 
 10 C       -7.0090     2.6210    -1.4640 C.2   1 <1>   0.5690 
 11 C       -6.4620     0.2950    -2.3290 C.3   1 <1>  -0.1600 
 12 O       -7.1120     3.4500    -2.3380 O.2   1 <1>  -0.5700 
 13 N       -7.8150     2.6370    -0.3710 N.am  1 <1>  -0.7300 
 14 C       -5.3990    -0.7970    -2.5250 C.3   1 <1>  -0.2400 
 15 C       -8.8000     3.6750    -0.0490 C.3   1 <1>   0.2780 
 16 C       -8.5950     4.0410     1.4040 C.2   1 <1>  -0.2880 
 17 C       -9.4880     3.8630     2.3840 C.2   1 <1>  -0.3000 
 18 H       -3.2830     4.9920     0.7770 H     1 <1>   0.1500 
 19 H       -3.4000     1.8120     3.6020 H     1 <1>   0.1500 
 20 H       -4.5690     3.6590    -0.8180 H     1 <1>   0.1500 
 21 H       -4.7060     0.4390     2.0020 H     1 <1>   0.1500 
 22 H       -5.0930     1.9340    -2.1420 H     1 <1>   0.0800 
 23 H       -6.8230     0.6040    -3.2950 H     1 <1>   0.0800 
 24 H       -7.2990    -0.1050    -1.7850 H     1 <1>   0.0800 
 25 H       -7.6240     1.9790     0.3880 H     1 <1>   0.3700 
 26 H       -4.5580    -0.4100    -3.0740 H     1 <1>   0.0800 
 27 H       -5.8160    -1.6220    -3.0740 H     1 <1>   0.0800 
 28 H       -5.0510    -1.1620    -1.5740 H     1 <1>   0.0800 
 29 H       -9.7920     3.2870    -0.2070 H     1 <1>   0.0800 
 30 H       -8.6590     4.5380    -0.6780 H     1 <1>   0.0800 
 31 H       -7.6240     4.4730     1.5770 H     1 <1>   0.1500 
 32 H       -9.3120     4.1340     3.4110 H     1 <1>   0.1500 
 33 H      -10.4660     3.4330     2.2460 H     1 <1>   0.1500 
@<TRIPOS>BOND
  1   1   2  1   
  2   2   3  ar  
  3   2   4  ar  
  4   3   5  ar  
  5   3  18  1   
  6   4   6  ar  
  7   4  19  1   
  8   5   7  ar  
  9   5  20  1   
 10   6   7  ar  
 11   6  21  1   
 12   7   8  1   
 13   8   9  1   
 14   9  10  1   
 15   9  11  1   
 16   9  22  1   
 17  10  12  2   
 18  10  13  am  
 19  11  14  1   
 20  11  23  1   
 21  11  24  1   
 22  13  15  1   
 23  13  25  1   
 24  14  26  1   
 25  14  27  1   
 26  14  28  1   
 27  15  16  1   
 28  15  29  1   
 29  15  30  1   
 30  16  17  2   
 31  16  31  1   
 32  17  32  1   
 33  17  33  1   
@<TRIPOS>SUBSTRUCTURE
  1 ****   7 GROUP 4 **** **** 0

# MOE 2024.06 (io_trps.svl 2023.06)
