@<TRIPOS>MOLECULE
NONAME
40 41 1 0 0 
SMALL
USER_CHARGES


@<TRIPOS>ATOM
  1 S       -0.4250    -0.0660    -0.4610 S.o2  1 <1>   1.3330 
  2 O       -0.7840     1.3130    -0.2130 O.2   1 <1>  -0.6500 
  3 O       -0.1840    -0.5100    -1.8160 O.2   1 <1>  -0.6500 
  4 N       -1.6490    -1.0460     0.1780 N.am  1 <1>  -0.8490 
  5 C        0.9870    -0.4780     0.5740 C.3   1 <1>  -0.0550 
  6 C       -2.9680    -0.3800     0.1400 C.3   1 <1>   0.1960 
  7 C       -1.6760    -2.3930    -0.3920 C.3   1 <1>   0.1960 
  8 C        2.2810     0.2740     0.2160 C.3   1 <1>  -0.2400 
  9 C       -4.1580    -1.3530     0.2660 C.3   1 <1>  -0.0190 
 10 C       -2.5650    -3.3100     0.4660 C.3   1 <1>  -0.1600 
 11 C       -5.3670    -0.6240     0.8340 C.2   1 <1>   0.5690 
 12 C       -3.7730    -2.5900     1.0960 C.3   1 <1>  -0.1600 
 13 O       -5.3310    -0.1930     1.9600 O.2   1 <1>  -0.5700 
 14 N       -6.4630    -0.4680     0.0520 N.am  1 <1>  -0.7300 
 15 C       -7.7080     0.1930     0.4890 C.3   1 <1>   0.3200 
 16 C       -8.9010    -0.5420    -0.0910 C.2   1 <1>  -0.1400 
 17 S      -10.4430     0.2970    -0.0160 S.3   1 <1>  -0.0800 
 18 C       -9.0540    -1.7490    -0.6740 C.2   1 <1>  -0.1500 
 19 C      -11.2640    -1.0400    -0.7990 C.2   1 <1>  -0.1100 
 20 C      -10.3980    -2.0310    -1.0780 C.2   1 <1>  -0.1500 
 21 H        1.1750    -1.5320     0.5030 H     1 <1>   0.0800 
 22 H        0.7370    -0.2630     1.5950 H     1 <1>   0.0800 
 23 H       -3.0760     0.1730    -0.7790 H     1 <1>   0.0800 
 24 H       -2.9970     0.3330     0.9490 H     1 <1>   0.0800 
 25 H       -0.6810    -2.8030    -0.4330 H     1 <1>   0.0800 
 26 H       -2.0550    -2.3450    -1.4000 H     1 <1>   0.0800 
 27 H        2.5680     0.0560    -0.7980 H     1 <1>   0.0800 
 28 H        3.0790    -0.0200     0.8750 H     1 <1>   0.0800 
 29 H        2.1270     1.3360     0.3090 H     1 <1>   0.0800 
 30 H       -4.4110    -1.6860    -0.7230 H     1 <1>   0.0800 
 31 H       -1.9700    -3.7430     1.2510 H     1 <1>   0.0800 
 32 H       -2.9080    -4.1200    -0.1540 H     1 <1>   0.0800 
 33 H       -4.6070    -3.2640     1.1840 H     1 <1>   0.0800 
 34 H       -3.5070    -2.2630     2.0880 H     1 <1>   0.0800 
 35 H       -6.4860    -0.8150    -0.9060 H     1 <1>   0.3700 
 36 H       -7.7040     1.2100     0.1380 H     1 <1>   0.0800 
 37 H       -7.7730     0.2020     1.5640 H     1 <1>   0.0800 
 38 H       -8.2740    -2.4710    -0.8370 H     1 <1>   0.1500 
 39 H      -12.3220    -0.9410    -0.9690 H     1 <1>   0.1500 
 40 H      -10.6490    -2.9620    -1.5560 H     1 <1>   0.1500 
@<TRIPOS>BOND
  1   1   2  2   
  2   1   3  2   
  3   1   4  am  
  4   1   5  1   
  5   4   6  1   
  6   4   7  1   
  7   5   8  1   
  8   5  21  1   
  9   5  22  1   
 10   6   9  1   
 11   6  23  1   
 12   6  24  1   
 13   7  10  1   
 14   7  25  1   
 15   7  26  1   
 16   8  27  1   
 17   8  28  1   
 18   8  29  1   
 19   9  11  1   
 20   9  12  1   
 21   9  30  1   
 22  10  12  1   
 23  10  31  1   
 24  10  32  1   
 25  11  13  2   
 26  11  14  am  
 27  12  33  1   
 28  12  34  1   
 29  14  15  1   
 30  14  35  1   
 31  15  16  1   
 32  15  36  1   
 33  15  37  1   
 34  16  17  1   
 35  16  18  2   
 36  17  19  1   
 37  18  20  1   
 38  18  38  1   
 39  19  20  2   
 40  19  39  1   
 41  20  40  1   
@<TRIPOS>SUBSTRUCTURE
  1 ****   9 GROUP 4 **** **** 0

# MOE 2024.06 (io_trps.svl 2023.06)
