@<TRIPOS>MOLECULE
NONAME
49 52 1 0 0 
SMALL
USER_CHARGES


@<TRIPOS>ATOM
  1 O        0.1780    -2.9820     0.7930 O.2   1 <1>  -0.5700 
  2 C       -0.2240    -2.4560    -0.2160 C.2   1 <1>   0.5690 
  3 N        0.4900    -1.5300    -0.9110 N.am  1 <1>  -0.7300 
  4 C       -1.5840    -2.8600    -0.7550 C.3   1 <1>  -0.0990 
  5 C        1.7950    -0.9300    -0.5590 C.3   1 <1>   0.2200 
  6 C       -2.7660    -1.9920    -0.2650 C.3   1 <1>   0.0000 
  7 C        2.9010    -1.9920    -0.5240 C.3   1 <1>  -0.1600 
  8 C        1.7020    -0.1630     0.7650 C.3   1 <1>  -0.1600 
  9 C       -4.0770    -2.5460    -0.8730 C.3   1 <1>  -0.1600 
 10 C       -2.8900    -2.0350     1.2770 C.3   1 <1>  -0.1600 
 11 C       -2.6150    -0.5140    -0.7010 C.3   1 <1>  -0.1600 
 12 C        4.2550    -1.3610    -0.1610 C.3   1 <1>  -0.1600 
 13 C        3.0550     0.4680     1.1290 C.3   1 <1>  -0.1600 
 14 C       -5.2920    -1.7220    -0.4090 C.3   1 <1>  -0.0800 
 15 C       -4.0990    -1.2070     1.7530 C.3   1 <1>  -0.0800 
 16 C       -3.8240     0.3200    -0.2370 C.3   1 <1>  -0.0800 
 17 C        4.1670    -0.5900     1.1640 C.3   1 <1>  -0.1600 
 18 C       -5.3840    -1.7800     1.1270 C.3   1 <1>  -0.1600 
 19 C       -5.1100    -0.2590    -0.8530 C.3   1 <1>  -0.1600 
 20 C       -3.9220     0.2530     1.2990 C.3   1 <1>  -0.1600 
 21 H        0.0610    -1.1290    -1.7430 H     1 <1>   0.3700 
 22 H       -1.7550    -3.8800    -0.4630 H     1 <1>   0.0800 
 23 H       -1.5450    -2.8420    -1.8280 H     1 <1>   0.0800 
 24 H        2.0460    -0.2230    -1.3310 H     1 <1>   0.0800 
 25 H        2.9730    -2.4710    -1.4840 H     1 <1>   0.0800 
 26 H        2.6630    -2.7400     0.2120 H     1 <1>   0.0800 
 27 H        1.4140    -0.8370     1.5530 H     1 <1>   0.0800 
 28 H        0.9560     0.6070     0.6860 H     1 <1>   0.0800 
 29 H       -4.0220    -2.5220    -1.9470 H     1 <1>   0.0800 
 30 H       -4.2120    -3.5710    -0.5760 H     1 <1>   0.0800 
 31 H       -1.9970    -1.6420     1.7330 H     1 <1>   0.0800 
 32 H       -2.9980    -3.0530     1.6080 H     1 <1>   0.0800 
 33 H       -2.5290    -0.4530    -1.7720 H     1 <1>   0.0800 
 34 H       -1.7240    -0.0900    -0.2720 H     1 <1>   0.0800 
 35 H        4.5600    -0.6900    -0.9460 H     1 <1>   0.0800 
 36 H        5.0000    -2.1340    -0.0790 H     1 <1>   0.0800 
 37 H        2.9810     0.9430     2.0920 H     1 <1>   0.0800 
 38 H        3.3040     1.2250     0.4060 H     1 <1>   0.0800 
 39 H       -6.1920    -2.1240    -0.8420 H     1 <1>   0.0800 
 40 H       -4.1670    -1.2490     2.8260 H     1 <1>   0.0800 
 41 H       -3.7010     1.3440    -0.5480 H     1 <1>   0.0800 
 42 H        5.1110    -0.1150     1.3680 H     1 <1>   0.0800 
 43 H        3.9690    -1.2840     1.9630 H     1 <1>   0.0800 
 44 H       -5.5210    -2.7990     1.4460 H     1 <1>   0.0800 
 45 H       -6.2360    -1.2150     1.4630 H     1 <1>   0.0800 
 46 H       -5.9580     0.3240    -0.5400 H     1 <1>   0.0800 
 47 H       -5.0560    -0.2080    -1.9270 H     1 <1>   0.0800 
 48 H       -3.0310     0.6650     1.7400 H     1 <1>   0.0800 
 49 H       -4.7560     0.8430     1.6360 H     1 <1>   0.0800 
@<TRIPOS>BOND
  1   1   2  2   
  2   2   3  am  
  3   2   4  1   
  4   3   5  1   
  5   3  21  1   
  6   4   6  1   
  7   4  22  1   
  8   4  23  1   
  9   5   7  1   
 10   5   8  1   
 11   5  24  1   
 12   6   9  1   
 13   6  10  1   
 14   6  11  1   
 15   7  12  1   
 16   7  25  1   
 17   7  26  1   
 18   8  13  1   
 19   8  27  1   
 20   8  28  1   
 21   9  14  1   
 22   9  29  1   
 23   9  30  1   
 24  10  15  1   
 25  10  31  1   
 26  10  32  1   
 27  11  16  1   
 28  11  33  1   
 29  11  34  1   
 30  12  17  1   
 31  12  35  1   
 32  12  36  1   
 33  13  17  1   
 34  13  37  1   
 35  13  38  1   
 36  14  18  1   
 37  14  19  1   
 38  14  39  1   
 39  15  18  1   
 40  15  20  1   
 41  15  40  1   
 42  16  19  1   
 43  16  20  1   
 44  16  41  1   
 45  17  42  1   
 46  17  43  1   
 47  18  44  1   
 48  18  45  1   
 49  19  46  1   
 50  19  47  1   
 51  20  48  1   
 52  20  49  1   
@<TRIPOS>SUBSTRUCTURE
  1 ****   2 GROUP 4 **** **** 0

# MOE 2024.06 (io_trps.svl 2023.06)
