@<TRIPOS>MOLECULE
NONAME
34 34 1 0 0 
SMALL
USER_CHARGES


@<TRIPOS>ATOM
  1 BR       0.1200     0.5360     0.0070 Br    1 <1>  -0.1110 
  2 C        1.6470    -0.6350     0.0030 C.ar  1 <1>   0.1110 
  3 C        2.9110    -0.0800     0.0040 C.ar  1 <1>  -0.1500 
  4 C        1.4370    -2.0000    -0.0010 C.ar  1 <1>  -0.1500 
  5 C        4.0110    -0.9220     0.0010 C.ar  1 <1>   0.0830 
  6 C        2.5390    -2.8380    -0.0040 C.ar  1 <1>  -0.1500 
  7 O        5.2310    -0.3280     0.0030 O.3   1 <1>  -0.3630 
  8 C        3.8200    -2.3050    -0.0030 C.ar  1 <1>  -0.1500 
  9 C        6.4170    -1.0820     0.0000 C.3   1 <1>   0.1200 
 10 C        7.5810    -0.0880     0.0030 C.3   1 <1>   0.3430 
 11 N        8.9070    -0.7790     0.0010 N.4   1 <1>  -0.9060 
 12 C       10.0340     0.1850     0.0040 C.3   1 <1>   0.3430 
 13 C       11.3480    -0.5910     0.0010 C.3   1 <1>  -0.1600 
 14 C       12.5460     0.3670     0.0050 C.3   1 <1>  -0.1600 
 15 C       13.8670    -0.4080     0.0020 C.3   1 <1>  -0.2400 
 16 H        3.0350     0.9870     0.0080 H     1 <1>   0.1500 
 17 H        0.4360    -2.3950    -0.0020 H     1 <1>   0.1500 
 18 H        2.3970    -3.9060    -0.0080 H     1 <1>   0.1500 
 19 H        4.6470    -2.9880    -0.0060 H     1 <1>   0.1500 
 20 H        6.4240    -1.6870    -0.8900 H     1 <1>   0.0800 
 21 H        6.4240    -1.6930     0.8860 H     1 <1>   0.0800 
 22 H        7.4990     0.5340     0.8800 H     1 <1>   0.0800 
 23 H        7.4990     0.5400    -0.8700 H     1 <1>   0.0800 
 24 H        8.9920    -1.3810    -0.8290 H     1 <1>   0.4500 
 25 H        8.9920    -1.3870     0.8260 H     1 <1>   0.4500 
 26 H        9.9860     0.8110     0.8820 H     1 <1>   0.0800 
 27 H        9.9860     0.8170    -0.8690 H     1 <1>   0.0800 
 28 H       11.4050    -1.2110    -0.8770 H     1 <1>   0.0800 
 29 H       11.4050    -1.2170     0.8750 H     1 <1>   0.0800 
 30 H       12.5160     0.9970     0.8790 H     1 <1>   0.0800 
 31 H       12.5150     1.0030    -0.8650 H     1 <1>   0.0800 
 32 H       13.9450    -1.0330     0.8750 H     1 <1>   0.0800 
 33 H       14.6960     0.2790     0.0040 H     1 <1>   0.0800 
 34 H       13.9450    -1.0260    -0.8760 H     1 <1>   0.0800 
@<TRIPOS>BOND
  1   1   2  1   
  2   2   3  ar  
  3   2   4  ar  
  4   3   5  ar  
  5   3  16  1   
  6   4   6  ar  
  7   4  17  1   
  8   5   7  1   
  9   5   8  ar  
 10   6   8  ar  
 11   6  18  1   
 12   7   9  1   
 13   8  19  1   
 14   9  10  1   
 15   9  20  1   
 16   9  21  1   
 17  10  11  1   
 18  10  22  1   
 19  10  23  1   
 20  11  12  1   
 21  11  24  1   
 22  11  25  1   
 23  12  13  1   
 24  12  26  1   
 25  12  27  1   
 26  13  14  1   
 27  13  28  1   
 28  13  29  1   
 29  14  15  1   
 30  14  30  1   
 31  14  31  1   
 32  15  32  1   
 33  15  33  1   
 34  15  34  1   
@<TRIPOS>SUBSTRUCTURE
  1 ****   9 GROUP 4 **** **** 0

# MOE 2024.06 (io_trps.svl 2023.06)
