@<TRIPOS>MOLECULE
NONAME
43 47 1 0 0 
SMALL
USER_CHARGES


@<TRIPOS>ATOM
  1 N       -0.1440     0.2750    -0.0680 N.ar  1 <1>  -0.6200 
  2 C        1.1520    -0.0630     0.1160 C.ar  1 <1>   0.3100 
  3 C       -0.5310     1.4290     0.4060 C.ar  1 <1>   0.1660 
  4 C        2.0460     0.7900     0.7920 C.ar  1 <1>   0.3100 
  5 C        1.6260    -1.2900    -0.3740 C.ar  1 <1>  -0.1500 
  6 C        0.3970     2.2830     1.1000 C.ar  1 <1>   0.1660 
  7 C       -2.0440     1.7650     0.1660 C.3   1 <1>   0.1440 
  8 N        1.6460     1.9810     1.2870 N.ar  1 <1>  -0.6200 
  9 C        3.3800     0.3830     0.9510 C.ar  1 <1>  -0.1500 
 10 C        2.9340    -1.6660    -0.2070 C.ar  1 <1>  -0.1500 
 11 C        0.0680     3.6440     1.6980 C.3   1 <1>  -0.0960 
 12 C       -2.2670     3.1640    -0.4770 C.3   1 <1>  -0.1600 
 13 C       -2.8460     1.6540     1.4900 C.3   1 <1>  -0.1600 
 14 C       -2.7080     0.7450    -0.8170 C.3   1 <1>  -0.1600 
 15 C        3.8220    -0.8200     0.4630 C.ar  1 <1>  -0.1500 
 16 C       -3.7630     3.4680    -0.6800 C.3   1 <1>  -0.0800 
 17 C       -4.3390     1.9750     1.2770 C.3   1 <1>  -0.0800 
 18 C       -4.2040     1.0260    -1.0480 C.3   1 <1>  -0.0800 
 19 C       -4.4820     3.3880     0.6810 C.3   1 <1>  -0.1600 
 20 C       -4.3660     2.4340    -1.6410 C.3   1 <1>  -0.1600 
 21 C       -4.9410     0.9520     0.3000 C.3   1 <1>  -0.1600 
 22 H        0.9250    -1.9240    -0.8860 H     1 <1>   0.1500 
 23 H        4.0440     1.0500     1.4690 H     1 <1>   0.1500 
 24 H        3.2890    -2.6100    -0.5870 H     1 <1>   0.1500 
 25 H       -0.9130     3.6960     2.1160 H     1 <1>   0.0800 
 26 H        0.1820     4.4010     0.9440 H     1 <1>   0.0800 
 27 H        0.7560     3.8730     2.4920 H     1 <1>   0.0800 
 28 H       -1.7560     3.2040    -1.4240 H     1 <1>   0.0800 
 29 H       -1.8760     3.9510     0.1270 H     1 <1>   0.0800 
 30 H       -2.4620     2.3110     2.2410 H     1 <1>   0.0800 
 31 H       -2.7470     0.6540     1.8750 H     1 <1>   0.0800 
 32 H       -2.6130    -0.2540    -0.4280 H     1 <1>   0.0800 
 33 H       -2.1930     0.7700    -1.7620 H     1 <1>   0.0800 
 34 H        4.8470    -1.1240     0.5890 H     1 <1>   0.1500 
 35 H       -3.8790     4.4550    -1.0950 H     1 <1>   0.0800 
 36 H       -4.8590     1.9230     2.2190 H     1 <1>   0.0800 
 37 H       -4.6110     0.2960    -1.7260 H     1 <1>   0.0800 
 38 H       -5.5250     3.6220     0.5520 H     1 <1>   0.0800 
 39 H       -4.0680     4.1150     1.3580 H     1 <1>   0.0800 
 40 H       -3.8710     2.4870    -2.5950 H     1 <1>   0.0800 
 41 H       -5.4090     2.6450    -1.8010 H     1 <1>   0.0800 
 42 H       -5.9880     1.1540     0.1560 H     1 <1>   0.0800 
 43 H       -4.8530    -0.0400     0.7090 H     1 <1>   0.0800 
@<TRIPOS>BOND
  1   1   2  ar  
  2   1   3  ar  
  3   2   4  ar  
  4   2   5  ar  
  5   3   6  ar  
  6   3   7  1   
  7   4   8  ar  
  8   4   9  ar  
  9   5  10  ar  
 10   5  22  1   
 11   6   8  ar  
 12   6  11  1   
 13   7  12  1   
 14   7  13  1   
 15   7  14  1   
 16   9  15  ar  
 17   9  23  1   
 18  10  15  ar  
 19  10  24  1   
 20  11  25  1   
 21  11  26  1   
 22  11  27  1   
 23  12  16  1   
 24  12  28  1   
 25  12  29  1   
 26  13  17  1   
 27  13  30  1   
 28  13  31  1   
 29  14  18  1   
 30  14  32  1   
 31  14  33  1   
 32  15  34  1   
 33  16  19  1   
 34  16  20  1   
 35  16  35  1   
 36  17  19  1   
 37  17  21  1   
 38  17  36  1   
 39  18  20  1   
 40  18  21  1   
 41  18  37  1   
 42  19  38  1   
 43  19  39  1   
 44  20  40  1   
 45  20  41  1   
 46  21  42  1   
 47  21  43  1   
@<TRIPOS>SUBSTRUCTURE
  1 ****   3 GROUP 4 **** **** 0

# MOE 2024.06 (io_trps.svl 2023.06)
