@<TRIPOS>MOLECULE
NONAME
52 53 1 0 0 
SMALL
USER_CHARGES


@<TRIPOS>ATOM
  1 O        1.2100    -0.6000     1.0870 O.2   1 <1>  -0.5700 
  2 C        1.7350    -1.4990     0.4630 C.2   1 <1>   0.7800 
  3 O        2.8730    -1.3200    -0.2020 O.3   1 <1>  -0.4300 
  4 N        1.2260    -2.7480     0.3800 N.am  1 <1>  -0.7300 
  5 C        3.6190    -0.1280    -0.3120 C.3   1 <1>   0.2800 
  6 C       -0.0830    -3.2730     0.8360 C.3   1 <1>   0.3000 
  7 C        4.8170    -0.4880    -1.1910 C.3   1 <1>  -0.2400 
  8 C        4.1190     0.3150     1.0670 C.3   1 <1>  -0.2400 
  9 C        2.7870     0.9540    -1.0110 C.3   1 <1>  -0.2400 
 10 C       -0.2360    -4.7670     0.3880 C.3   1 <1>  -0.0190 
 11 C       -1.2150    -2.3940     0.2170 C.3   1 <1>   0.0000 
 12 C       -0.0800    -3.1810     2.3710 C.3   1 <1>  -0.2400 
 13 C        1.0940    -5.5040     0.2330 C.2   1 <1>   0.5690 
 14 C       -1.1720    -4.9750    -0.8430 C.3   1 <1>  -0.1600 
 15 C       -2.6660    -3.0010     0.0940 C.3   1 <1>   0.0000 
 16 C       -1.1620    -2.5090    -1.3460 C.3   1 <1>   0.0000 
 17 O        1.7870    -5.2830    -0.7330 O.2   1 <1>  -0.5700 
 18 N        1.4730    -6.3930     1.1910 N.am  1 <1>  -0.7300 
 19 C       -2.0730    -3.7550    -1.1470 C.3   1 <1>   0.0000 
 20 C       -3.7510    -1.9480    -0.2440 C.3   1 <1>  -0.2400 
 21 C       -3.2490    -3.8670     1.2320 C.3   1 <1>  -0.2400 
 22 C        2.7410    -7.1660     1.1840 C.3   1 <1>   0.0600 
 23 H        1.7430    -3.3900    -0.2320 H     1 <1>   0.3700 
 24 H        5.3980    -1.2660    -0.7290 H     1 <1>   0.0800 
 25 H        5.4500     0.3690    -1.3330 H     1 <1>   0.0800 
 26 H        4.4830    -0.8280    -2.1550 H     1 <1>   0.0800 
 27 H        4.8000     1.1400     0.9630 H     1 <1>   0.0800 
 28 H        4.6330    -0.4930     1.5550 H     1 <1>   0.0800 
 29 H        3.3050     0.6420     1.6880 H     1 <1>   0.0800 
 30 H        3.4010     1.8110    -1.2190 H     1 <1>   0.0800 
 31 H        1.9740     1.2810    -0.3880 H     1 <1>   0.0800 
 32 H        2.3930     0.5810    -1.9390 H     1 <1>   0.0800 
 33 H       -0.7200    -5.2790     1.1930 H     1 <1>   0.0800 
 34 H       -1.2230    -1.3770     0.5660 H     1 <1>   0.0000 
 35 H       -0.9740    -3.6000     2.7890 H     1 <1>   0.0800 
 36 H       -0.0290    -2.1550     2.6870 H     1 <1>   0.0800 
 37 H        0.7650    -3.7090     2.7750 H     1 <1>   0.0800 
 38 H       -0.5810    -5.1670    -1.7220 H     1 <1>   0.0800 
 39 H       -1.7870    -5.8420    -0.6840 H     1 <1>   0.0800 
 40 H       -1.6230    -1.6980    -1.8780 H     1 <1>   0.0000 
 41 H       -0.2020    -2.7420    -1.7710 H     1 <1>   0.0000 
 42 H        0.8730    -6.5420     2.0050 H     1 <1>   0.3700 
 43 H       -2.7670    -3.9110    -1.9540 H     1 <1>   0.0000 
 44 H       -4.6390    -2.4380    -0.6040 H     1 <1>   0.0800 
 45 H       -3.4550    -1.2310    -0.9850 H     1 <1>   0.0800 
 46 H       -4.0080    -1.3960     0.6430 H     1 <1>   0.0800 
 47 H       -2.6850    -4.7400     1.4670 H     1 <1>   0.0800 
 48 H       -4.2320    -4.2070     0.9560 H     1 <1>   0.0800 
 49 H       -3.3420    -3.2750     2.1250 H     1 <1>   0.0800 
 50 H        3.3070    -6.9520     0.2930 H     1 <1>   0.0800 
 51 H        2.5260    -8.2200     1.2120 H     1 <1>   0.0800 
 52 H        3.3340    -6.9010     2.0420 H     1 <1>   0.0800 
@<TRIPOS>BOND
  1   1   2  2   
  2   2   3  1   
  3   2   4  am  
  4   3   5  1   
  5   4   6  1   
  6   4  23  1   
  7   5   7  1   
  8   5   8  1   
  9   5   9  1   
 10   6  10  1   
 11   6  11  1   
 12   6  12  1   
 13   7  24  1   
 14   7  25  1   
 15   7  26  1   
 16   8  27  1   
 17   8  28  1   
 18   8  29  1   
 19   9  30  1   
 20   9  31  1   
 21   9  32  1   
 22  10  13  1   
 23  10  14  1   
 24  10  33  1   
 25  11  15  1   
 26  11  16  1   
 27  11  34  1   
 28  12  35  1   
 29  12  36  1   
 30  12  37  1   
 31  13  17  2   
 32  13  18  am  
 33  14  19  1   
 34  14  38  1   
 35  14  39  1   
 36  15  19  1   
 37  15  20  1   
 38  15  21  1   
 39  16  19  1   
 40  16  40  1   
 41  16  41  1   
 42  18  22  1   
 43  18  42  1   
 44  19  43  1   
 45  20  44  1   
 46  20  45  1   
 47  20  46  1   
 48  21  47  1   
 49  21  48  1   
 50  21  49  1   
 51  22  50  1   
 52  22  51  1   
 53  22  52  1   
@<TRIPOS>SUBSTRUCTURE
  1 ****   4 GROUP 4 **** **** 0

# MOE 2024.06 (io_trps.svl 2023.06)
