@<TRIPOS>MOLECULE
NONAME
42 43 1 0 0 
SMALL
USER_CHARGES


@<TRIPOS>ATOM
  1 N        0.9930    -0.3190     0.0030 N.ar  1 <1>  -0.6200 
  2 C        1.9210    -1.2370    -0.2190 C.ar  1 <1>   0.1660 
  3 C       -0.2240    -0.7820     0.2510 C.ar  1 <1>   0.1600 
  4 C        1.6850    -2.6040    -0.1980 C.ar  1 <1>  -0.1500 
  5 C        3.3080    -0.7020    -0.5090 C.3   1 <1>  -0.0160 
  6 C       -0.5590    -2.1240     0.2950 C.ar  1 <1>  -0.1500 
  7 C        0.4150    -3.0700     0.0660 C.ar  1 <1>  -0.1500 
  8 C        3.6600     0.3620     0.5350 C.3   1 <1>   0.3430 
  9 N        4.9590     1.0470     0.2340 N.4   1 <1>  -0.9590 
 10 C        6.1400     0.1490     0.4650 C.3   1 <1>   0.3430 
 11 C        5.0610     2.2910     1.0600 C.3   1 <1>   0.2630 
 12 C        7.2210     0.2950    -0.6210 C.3   1 <1>   0.0630 
 13 C        8.3230    -0.7150    -0.3270 C.ar  1 <1>  -0.1430 
 14 C        7.8090     1.7110    -0.7430 C.3   1 <1>  -0.2400 
 15 C        8.5550    -1.7620    -1.2090 C.ar  1 <1>  -0.1500 
 16 C        9.1000    -0.6160     0.8200 C.ar  1 <1>  -0.1500 
 17 C        9.5420    -2.6960    -0.9460 C.ar  1 <1>  -0.1500 
 18 C       10.0860    -1.5500     1.0830 C.ar  1 <1>  -0.1500 
 19 C       10.3070    -2.5920     0.2010 C.ar  1 <1>  -0.1500 
 20 H       -0.9980    -0.0540     0.4280 H     1 <1>   0.1500 
 21 H        2.4760    -3.3060    -0.3890 H     1 <1>   0.1500 
 22 H        3.2940    -0.2630    -1.4900 H     1 <1>   0.0800 
 23 H        4.0190    -1.5070    -0.4900 H     1 <1>   0.0800 
 24 H       -1.5720    -2.4210     0.5030 H     1 <1>   0.1500 
 25 H        0.1930    -4.1240     0.0900 H     1 <1>   0.1500 
 26 H        3.6920    -0.0900     1.5130 H     1 <1>   0.0800 
 27 H        2.8670     1.0940     0.5420 H     1 <1>   0.0800 
 28 H        4.9430     1.3220    -0.7590 H     1 <1>   0.4500 
 29 H        5.8220    -0.8800     0.4710 H     1 <1>   0.0800 
 30 H        6.5750     0.3540     1.4300 H     1 <1>   0.0800 
 31 H        5.0580     2.0460     2.1100 H     1 <1>   0.0800 
 32 H        4.2260     2.9440     0.8580 H     1 <1>   0.0800 
 33 H        5.9720     2.8220     0.8340 H     1 <1>   0.0800 
 34 H        6.7770     0.0370    -1.5660 H     1 <1>   0.0800 
 35 H        8.1910     2.0570     0.2010 H     1 <1>   0.0800 
 36 H        7.0750     2.4080    -1.1020 H     1 <1>   0.0800 
 37 H        8.6250     1.7000    -1.4460 H     1 <1>   0.0800 
 38 H        7.9780    -1.8650    -2.1120 H     1 <1>   0.1500 
 39 H        8.9570     0.1870     1.5210 H     1 <1>   0.1500 
 40 H        9.7180    -3.5050    -1.6340 H     1 <1>   0.1500 
 41 H       10.6880    -1.4680     1.9730 H     1 <1>   0.1500 
 42 H       11.0750    -3.3190     0.4050 H     1 <1>   0.1500 
@<TRIPOS>BOND
  1   1   2  ar  
  2   1   3  ar  
  3   2   4  ar  
  4   2   5  1   
  5   3   6  ar  
  6   3  20  1   
  7   4   7  ar  
  8   4  21  1   
  9   5   8  1   
 10   5  22  1   
 11   5  23  1   
 12   6   7  ar  
 13   6  24  1   
 14   7  25  1   
 15   8   9  1   
 16   8  26  1   
 17   8  27  1   
 18   9  10  1   
 19   9  11  1   
 20   9  28  1   
 21  10  12  1   
 22  10  29  1   
 23  10  30  1   
 24  11  31  1   
 25  11  32  1   
 26  11  33  1   
 27  12  13  1   
 28  12  14  1   
 29  12  34  1   
 30  13  15  ar  
 31  13  16  ar  
 32  14  35  1   
 33  14  36  1   
 34  14  37  1   
 35  15  17  ar  
 36  15  38  1   
 37  16  18  ar  
 38  16  39  1   
 39  17  19  ar  
 40  17  40  1   
 41  18  19  ar  
 42  18  41  1   
 43  19  42  1   
@<TRIPOS>SUBSTRUCTURE
  1 ****  10 GROUP 4 **** **** 0

# MOE 2024.06 (io_trps.svl 2023.06)
