@<TRIPOS>MOLECULE
NONAME
27 27 1 0 0 
SMALL
USER_CHARGES


@<TRIPOS>ATOM
  1 S        0.0340     0.2850    -1.0600 S.3   1 <1>  -0.3320 
  2 C       -1.4470     1.1800    -0.5850 C.ar  1 <1>   0.4120 
  3 C        1.3610     0.7390     0.1450 C.3   1 <1>   0.0700 
  4 N       -2.5200     0.4120    -0.5520 N.ar  1 <1>  -0.6200 
  5 C       -1.4360     2.5430    -0.3050 C.ar  1 <1>   0.0730 
  6 C        2.2680    -0.4780     0.3110 C.3   1 <1>  -0.2400 
  7 C       -3.6560     0.9890    -0.2040 C.ar  1 <1>   0.1660 
  8 C       -0.2590     3.3480    -0.4010 C.1   1 <1>   0.4840 
  9 C       -2.6370     3.1240     0.0600 C.ar  1 <1>  -0.1500 
 10 C       -3.7920     2.3480     0.1220 C.ar  1 <1>   0.0860 
 11 C       -4.8510     0.0480    -0.1910 C.3   1 <1>  -0.0960 
 12 N        0.6640     4.0150    -0.4470 N.1   1 <1>  -0.5570 
 13 C       -5.0510     2.9460     0.5090 C.2   1 <1>   0.4230 
 14 O       -5.8520     2.4150     1.2290 O.2   1 <1>  -0.5700 
 15 C       -5.4030     4.3310     0.0030 C.3   1 <1>  -0.1790 
 16 H        0.8880     1.0060     1.0730 H     1 <1>   0.0800 
 17 H        1.9030     1.5750    -0.2620 H     1 <1>   0.0800 
 18 H        1.7020    -1.3130     0.6850 H     1 <1>   0.0800 
 19 H        3.0570    -0.2560     1.0070 H     1 <1>   0.0800 
 20 H        2.7060    -0.7450    -0.6340 H     1 <1>   0.0800 
 21 H       -2.6730     4.1730     0.3000 H     1 <1>   0.1500 
 22 H       -4.6200    -0.8670    -0.7070 H     1 <1>   0.0800 
 23 H       -5.6980     0.5000    -0.6740 H     1 <1>   0.0800 
 24 H       -5.1130    -0.1910     0.8240 H     1 <1>   0.0800 
 25 H       -4.9550     4.5130    -0.9560 H     1 <1>   0.0800 
 26 H       -5.0660     5.0710     0.7060 H     1 <1>   0.0800 
 27 H       -6.4700     4.4160    -0.0970 H     1 <1>   0.0800 
@<TRIPOS>BOND
  1   1   2  1   
  2   1   3  1   
  3   2   4  ar  
  4   2   5  ar  
  5   3   6  1   
  6   3  16  1   
  7   3  17  1   
  8   4   7  ar  
  9   5   8  1   
 10   5   9  ar  
 11   6  18  1   
 12   6  19  1   
 13   6  20  1   
 14   7  10  ar  
 15   7  11  1   
 16   8  12  3   
 17   9  10  ar  
 18   9  21  1   
 19  10  13  1   
 20  11  22  1   
 21  11  23  1   
 22  11  24  1   
 23  13  14  2   
 24  13  15  1   
 25  15  25  1   
 26  15  26  1   
 27  15  27  1   
@<TRIPOS>SUBSTRUCTURE
  1 ****   5 GROUP 4 **** **** 0

# MOE 2024.06 (io_trps.svl 2023.06)
