@<TRIPOS>MOLECULE
NONAME
30 29 1 0 0 
SMALL
USER_CHARGES


@<TRIPOS>ATOM
  1 O        0.0980    -1.7780     0.7670 O.2   1 <1>  -0.5700 
  2 C       -0.4410    -2.4320    -0.1010 C.2   1 <1>   0.7060 
  3 O        0.3850    -3.0700    -0.9430 O.3   1 <1>  -0.4300 
  4 C       -1.8630    -2.4500    -0.2520 C.2   1 <1>   0.0290 
  5 C        0.1040    -3.3380    -2.3020 C.3   1 <1>   0.0400 
  6 C       -2.4160    -3.6930    -0.6720 C.2   1 <1>   0.7060 
  7 C       -2.6280    -1.3390     0.0140 C.2   1 <1>  -0.1500 
  8 O       -2.1870    -4.7530    -0.1220 O.2   1 <1>  -0.5700 
  9 O       -3.1860    -3.6920    -1.7660 O.3   1 <1>  -0.4300 
 10 C       -4.0430    -1.2740    -0.0010 C.2   1 <1>  -0.1500 
 11 C       -3.7530    -4.8780    -2.2860 C.3   1 <1>   0.0400 
 12 C       -5.4070    -1.2110    -0.0160 C.2   1 <1>  -0.0500 
 13 N       -6.2500    -2.2710     0.1750 N.pl3 1 <1>  -0.8380 
 14 C       -7.7230    -2.1270     0.0430 C.3   1 <1>   0.1290 
 15 C       -5.7850    -3.6200     0.6000 C.3   1 <1>   0.1290 
 16 H        1.0410    -3.4390    -2.8210 H     1 <1>   0.0800 
 17 H       -0.4580    -2.5210    -2.7230 H     1 <1>   0.0800 
 18 H       -0.4450    -4.2600    -2.3740 H     1 <1>   0.0800 
 19 H       -2.0940    -0.4370     0.2820 H     1 <1>   0.1500 
 20 H       -3.9770    -0.2040    -0.0960 H     1 <1>   0.1500 
 21 H       -4.3400    -5.3520    -1.5190 H     1 <1>   0.0800 
 22 H       -4.3790    -4.6180    -3.1210 H     1 <1>   0.0800 
 23 H       -2.9610    -5.5340    -2.6030 H     1 <1>   0.0800 
 24 H       -5.9030    -0.2640    -0.1840 H     1 <1>   0.1500 
 25 H       -8.0950    -2.8370    -0.6750 H     1 <1>   0.0800 
 26 H       -7.9750    -1.1350    -0.2890 H     1 <1>   0.0800 
 27 H       -8.1930    -2.3050     0.9950 H     1 <1>   0.0800 
 28 H       -6.3300    -3.9340     1.4730 H     1 <1>   0.0800 
 29 H       -4.7390    -3.6050     0.8440 H     1 <1>   0.0800 
 30 H       -5.9510    -4.3260    -0.1930 H     1 <1>   0.0800 
@<TRIPOS>BOND
  1   1   2  2   
  2   2   3  1   
  3   2   4  1   
  4   3   5  1   
  5   4   6  1   
  6   4   7  2   
  7   5  16  1   
  8   5  17  1   
  9   5  18  1   
 10   6   8  2   
 11   6   9  1   
 12   7  10  1   
 13   7  19  1   
 14   9  11  1   
 15  10  12  2   
 16  10  20  1   
 17  11  21  1   
 18  11  22  1   
 19  11  23  1   
 20  12  13  1   
 21  12  24  1   
 22  13  14  1   
 23  13  15  1   
 24  14  25  1   
 25  14  26  1   
 26  14  27  1   
 27  15  28  1   
 28  15  29  1   
 29  15  30  1   
@<TRIPOS>SUBSTRUCTURE
  1 ****   6 GROUP 4 **** **** 0

# MOE 2024.06 (io_trps.svl 2023.06)
