@<TRIPOS>MOLECULE
NONAME
32 35 1 0 0 
SMALL
USER_CHARGES


@<TRIPOS>ATOM
  1 N       -0.6590    -0.2860    -1.1820 N.2   1 <1>  -0.7070 
  2 N        0.3520    -1.1210    -0.9390 N.pl3 1 <1>   0.3140 
  3 C       -0.0560     0.7850    -1.5800 C.2   1 <1>   0.3660 
  4 C        1.4930    -0.4720    -1.2150 C.2   1 <1>   0.0360 
  5 C        0.1590    -2.5270    -0.4440 C.3   1 <1>   0.2560 
  6 N        1.2790     0.7270    -1.6200 N.2   1 <1>  -0.5650 
  7 C        1.5140    -3.2570    -0.2520 C.3   1 <1>  -0.1600 
  8 C       -0.5810    -2.5060     0.9150 C.3   1 <1>  -0.1600 
  9 C       -0.6890    -3.3270    -1.4610 C.3   1 <1>  -0.1600 
 10 C        1.2890    -4.6940     0.2550 C.3   1 <1>  -0.0800 
 11 C       -0.8150    -3.9400     1.4270 C.3   1 <1>  -0.0800 
 12 C       -0.9230    -4.7650    -0.9580 C.3   1 <1>  -0.0800 
 13 C        0.5430    -4.6440     1.6010 C.3   1 <1>  -0.1600 
 14 C        0.4360    -5.4640    -0.7700 C.3   1 <1>  -0.1600 
 15 C       -1.6580    -4.7130     0.3950 C.3   1 <1>  -0.1600 
 16 H       -0.5770     1.6840    -1.8670 H     1 <1>   0.1500 
 17 H        2.4660    -0.9120    -1.1060 H     1 <1>   0.1500 
 18 H        2.1200    -2.7280     0.4620 H     1 <1>   0.0800 
 19 H        2.0450    -3.2980    -1.1870 H     1 <1>   0.0800 
 20 H       -1.5310    -2.0120     0.8020 H     1 <1>   0.0800 
 21 H       -0.0050    -1.9540     1.6370 H     1 <1>   0.0800 
 22 H       -0.1880    -3.3550    -2.4120 H     1 <1>   0.0800 
 23 H       -1.6400    -2.8430    -1.6010 H     1 <1>   0.0800 
 24 H        2.2370    -5.1900     0.3830 H     1 <1>   0.0800 
 25 H       -1.3340    -3.9100     2.3700 H     1 <1>   0.0800 
 26 H       -1.5170    -5.3090    -1.6740 H     1 <1>   0.0800 
 27 H        1.1360    -4.1190     2.3300 H     1 <1>   0.0800 
 28 H        0.3880    -5.6440     1.9680 H     1 <1>   0.0800 
 29 H        0.2800    -6.4730    -0.4280 H     1 <1>   0.0800 
 30 H        0.9530    -5.5180    -1.7120 H     1 <1>   0.0800 
 31 H       -2.6140    -4.2340     0.2720 H     1 <1>   0.0800 
 32 H       -1.8390    -5.7130     0.7490 H     1 <1>   0.0800 
@<TRIPOS>BOND
  1   1   2  1   
  2   1   3  2   
  3   2   4  1   
  4   2   5  1   
  5   3   6  1   
  6   3  16  1   
  7   4   6  2   
  8   4  17  1   
  9   5   7  1   
 10   5   8  1   
 11   5   9  1   
 12   7  10  1   
 13   7  18  1   
 14   7  19  1   
 15   8  11  1   
 16   8  20  1   
 17   8  21  1   
 18   9  12  1   
 19   9  22  1   
 20   9  23  1   
 21  10  13  1   
 22  10  14  1   
 23  10  24  1   
 24  11  13  1   
 25  11  15  1   
 26  11  25  1   
 27  12  14  1   
 28  12  15  1   
 29  12  26  1   
 30  13  27  1   
 31  13  28  1   
 32  14  29  1   
 33  14  30  1   
 34  15  31  1   
 35  15  32  1   
@<TRIPOS>SUBSTRUCTURE
  1 ****   5 GROUP 4 **** **** 0

# MOE 2024.06 (io_trps.svl 2023.06)
