@<TRIPOS>MOLECULE
NONAME
46 47 1 0 0 
SMALL
USER_CHARGES


@<TRIPOS>ATOM
  1 S       -0.5820    -2.4680    -1.6120 S.o2  1 <1>   1.3330 
  2 O        0.6350    -2.5490    -2.3900 O.2   1 <1>  -0.6500 
  3 O       -1.6010    -3.4760    -1.7750 O.2   1 <1>  -0.6500 
  4 N       -0.0740    -2.5410    -0.0020 N.am  1 <1>  -0.8490 
  5 C       -1.2610    -0.8440    -1.8960 C.3   1 <1>  -0.1350 
  6 C       -1.1760    -2.5260     0.9720 C.3   1 <1>   0.3390 
  7 C        0.7210    -3.7780     0.2210 C.3   1 <1>   0.2570 
  8 C       -1.7410    -1.1260     1.1490 C.ar  1 <1>  -0.1440 
  9 C        1.7430    -3.6520     1.3590 C.2   1 <1>   0.5690 
 10 C       -0.8990    -0.0580     1.4270 C.ar  1 <1>  -0.1500 
 11 C       -3.1060    -0.9030     1.0430 C.ar  1 <1>  -0.1500 
 12 O        1.5810    -4.3460     2.3340 O.2   1 <1>  -0.5700 
 13 N        2.8160    -2.7880     1.2760 N.am  1 <1>  -0.6600 
 14 C       -1.4120     1.2170     1.5820 C.ar  1 <1>  -0.1500 
 15 C       -3.6200     0.3720     1.1980 C.ar  1 <1>  -0.1500 
 16 C        3.7890    -2.6560     2.4040 C.3   1 <1>   0.1400 
 17 C        3.0900    -1.8890     0.1080 C.3   1 <1>   0.1400 
 18 C       -2.7730     1.4330     1.4660 C.ar  1 <1>  -0.1500 
 19 C        5.2380    -2.7890     1.9000 C.3   1 <1>   0.3430 
 20 C        4.5520    -2.0170    -0.3620 C.3   1 <1>   0.3430 
 21 N        5.5350    -1.8400     0.7670 N.4   1 <1>  -0.9590 
 22 C        6.9400    -2.0040     0.2840 C.3   1 <1>   0.2630 
 23 H       -0.5960    -0.0900    -1.5240 H     1 <1>   0.0800 
 24 H       -2.2130    -0.7370    -1.4180 H     1 <1>   0.0800 
 25 H       -1.4010    -0.6890    -2.9470 H     1 <1>   0.0800 
 26 H       -0.8150    -2.8420     1.9370 H     1 <1>   0.0800 
 27 H       -1.9510    -3.2150     0.6780 H     1 <1>   0.0800 
 28 H        1.2770    -4.0410    -0.6600 H     1 <1>   0.0800 
 29 H        0.0650    -4.6080     0.4230 H     1 <1>   0.0800 
 30 H        0.1600    -0.2220     1.5220 H     1 <1>   0.1500 
 31 H       -3.7790    -1.7190     0.8370 H     1 <1>   0.1500 
 32 H       -0.7550     2.0420     1.7970 H     1 <1>   0.1500 
 33 H       -4.6800     0.5400     1.1130 H     1 <1>   0.1500 
 34 H        3.6120    -3.4140     3.1490 H     1 <1>   0.0800 
 35 H        3.6530    -1.7010     2.8800 H     1 <1>   0.0800 
 36 H        2.8850    -0.8720     0.3910 H     1 <1>   0.0800 
 37 H        2.4510    -2.1240    -0.7220 H     1 <1>   0.0800 
 38 H       -3.1740     2.4250     1.5870 H     1 <1>   0.1500 
 39 H        5.3900    -3.8050     1.5720 H     1 <1>   0.0800 
 40 H        5.9120    -2.6040     2.7210 H     1 <1>   0.0800 
 41 H        4.7370    -1.2840    -1.1300 H     1 <1>   0.0800 
 42 H        4.6800    -2.9920    -0.8030 H     1 <1>   0.0800 
 43 H        5.4200    -0.8820     1.1290 H     1 <1>   0.4500 
 44 H        7.0900    -3.0000    -0.1020 H     1 <1>   0.0800 
 45 H        7.6370    -1.8400     1.0900 H     1 <1>   0.0800 
 46 H        7.1530    -1.2960    -0.5010 H     1 <1>   0.0800 
@<TRIPOS>BOND
  1   1   2  2   
  2   1   3  2   
  3   1   4  am  
  4   1   5  1   
  5   4   6  1   
  6   4   7  1   
  7   5  23  1   
  8   5  24  1   
  9   5  25  1   
 10   6   8  1   
 11   6  26  1   
 12   6  27  1   
 13   7   9  1   
 14   7  28  1   
 15   7  29  1   
 16   8  10  ar  
 17   8  11  ar  
 18   9  12  2   
 19   9  13  am  
 20  10  14  ar  
 21  10  30  1   
 22  11  15  ar  
 23  11  31  1   
 24  13  16  1   
 25  13  17  1   
 26  14  18  ar  
 27  14  32  1   
 28  15  18  ar  
 29  15  33  1   
 30  16  19  1   
 31  16  34  1   
 32  16  35  1   
 33  17  20  1   
 34  17  36  1   
 35  17  37  1   
 36  18  38  1   
 37  19  21  1   
 38  19  39  1   
 39  19  40  1   
 40  20  21  1   
 41  20  41  1   
 42  20  42  1   
 43  21  22  1   
 44  21  43  1   
 45  22  44  1   
 46  22  45  1   
 47  22  46  1   
@<TRIPOS>SUBSTRUCTURE
  1 ****   4 GROUP 4 **** **** 0

# MOE 2024.06 (io_trps.svl 2023.06)
