@<TRIPOS>MOLECULE
NONAME
40 41 1 0 0 
SMALL
USER_CHARGES


@<TRIPOS>ATOM
  1 O      -12.9430     1.0850    -0.6810 O.3   1 <1>  -0.5600 
  2 C      -11.8000     0.2820    -0.6850 C.3   1 <1>   0.1200 
  3 C      -12.9650     2.0750     0.3050 C.3   1 <1>   0.1200 
  4 C      -10.5420     1.1450    -0.9040 C.3   1 <1>   0.3430 
  5 C      -11.7650     3.0260     0.1310 C.3   1 <1>   0.3430 
  6 N      -10.4600     2.2740     0.0950 N.4   1 <1>  -0.9590 
  7 C       -9.3220     3.1970    -0.1770 C.3   1 <1>   0.3430 
  8 C       -7.9900     2.5030     0.1040 C.3   1 <1>  -0.1600 
  9 C       -6.8240     3.4760    -0.0720 C.3   1 <1>   0.1200 
 10 O       -5.6430     2.7620     0.1950 O.3   1 <1>  -0.3630 
 11 C       -4.4180     3.3500     0.1330 C.ar  1 <1>   0.0820 
 12 C       -3.3040     2.5690     0.4330 C.ar  1 <1>  -0.1440 
 13 C       -4.2440     4.6890    -0.2160 C.ar  1 <1>  -0.1500 
 14 C       -2.0380     3.1320     0.3760 C.ar  1 <1>  -0.1500 
 15 C       -3.4340     1.1040     0.8230 C.3   1 <1>   0.2630 
 16 C       -2.9760     5.2380    -0.2670 C.ar  1 <1>  -0.1500 
 17 C       -1.8720     4.4610     0.0290 C.ar  1 <1>  -0.1500 
 18 O       -2.9060     0.3430    -0.2010 O.3   1 <1>  -0.6800 
 19 H      -11.9050    -0.4310    -1.4850 H     1 <1>   0.0800 
 20 H      -11.7490    -0.2560     0.2460 H     1 <1>   0.0800 
 21 H      -12.9550     1.6030     1.2730 H     1 <1>   0.0800 
 22 H      -13.8880     2.6200     0.2000 H     1 <1>   0.0800 
 23 H      -10.5780     1.5450    -1.9040 H     1 <1>   0.0800 
 24 H       -9.6690     0.5190    -0.8300 H     1 <1>   0.0800 
 25 H      -11.7580     3.7400     0.9380 H     1 <1>   0.0800 
 26 H      -11.8980     3.5690    -0.7910 H     1 <1>   0.0800 
 27 H      -10.3210     1.8540     1.0240 H     1 <1>   0.4500 
 28 H       -9.4030     4.0630     0.4610 H     1 <1>   0.0800 
 29 H       -9.3540     3.5310    -1.2020 H     1 <1>   0.0800 
 30 H       -7.8450     1.6840    -0.5760 H     1 <1>   0.0800 
 31 H       -7.9770     2.1390     1.1170 H     1 <1>   0.0800 
 32 H       -6.8870     4.2940     0.6260 H     1 <1>   0.0800 
 33 H       -6.7710     3.8450    -1.0820 H     1 <1>   0.0800 
 34 H       -5.0750     5.3240    -0.4530 H     1 <1>   0.1500 
 35 H       -1.1740     2.5310     0.6020 H     1 <1>   0.1500 
 36 H       -4.4580     0.8090     0.9670 H     1 <1>   0.0800 
 37 H       -2.8790     0.8920     1.7210 H     1 <1>   0.0800 
 38 H       -2.8460     6.2720    -0.5370 H     1 <1>   0.1500 
 39 H       -0.8840     4.8870    -0.0110 H     1 <1>   0.1500 
 40 H       -3.1080     0.7860    -1.0470 H     1 <1>   0.4000 
@<TRIPOS>BOND
  1   1   2  1   
  2   1   3  1   
  3   2   4  1   
  4   2  19  1   
  5   2  20  1   
  6   3   5  1   
  7   3  21  1   
  8   3  22  1   
  9   4   6  1   
 10   4  23  1   
 11   4  24  1   
 12   5   6  1   
 13   5  25  1   
 14   5  26  1   
 15   6   7  1   
 16   6  27  1   
 17   7   8  1   
 18   7  28  1   
 19   7  29  1   
 20   8   9  1   
 21   8  30  1   
 22   8  31  1   
 23   9  10  1   
 24   9  32  1   
 25   9  33  1   
 26  10  11  1   
 27  11  12  ar  
 28  11  13  ar  
 29  12  14  ar  
 30  12  15  1   
 31  13  16  ar  
 32  13  34  1   
 33  14  17  ar  
 34  14  35  1   
 35  15  18  1   
 36  15  36  1   
 37  15  37  1   
 38  16  17  ar  
 39  16  38  1   
 40  17  39  1   
 41  18  40  1   
@<TRIPOS>SUBSTRUCTURE
  1 ****   9 GROUP 4 **** **** 0

# MOE 2024.06 (io_trps.svl 2023.06)
