@<TRIPOS>MOLECULE
NONAME
48 49 1 0 0 
SMALL
USER_CHARGES


@<TRIPOS>ATOM
  1 O        0.1790    -0.0620     0.1040 O.3   1 <1>  -0.3630 
  2 C       -1.0460    -0.6450    -0.0050 C.ar  1 <1>   0.0830 
  3 C        1.3730    -0.8080     0.0280 C.3   1 <1>   0.1200 
  4 C       -2.1740     0.1750     0.0730 C.ar  1 <1>  -0.1440 
  5 C       -1.1970    -2.0160    -0.1940 C.ar  1 <1>  -0.1500 
  6 C        2.5410     0.1600     0.1840 C.3   1 <1>   0.1200 
  7 C       -3.4400    -0.3900    -0.0560 C.ar  1 <1>  -0.1440 
  8 C       -2.0190     1.6810     0.2900 C.3   1 <1>  -0.0960 
  9 C       -2.4560    -2.5750    -0.3130 C.ar  1 <1>  -0.1430 
 10 O        3.7370    -0.5600     0.1140 O.3   1 <1>  -0.5600 
 11 C       -3.5690    -1.7570    -0.2440 C.ar  1 <1>  -0.1500 
 12 C       -4.7090     0.4510    -0.0020 C.3   1 <1>  -0.0970 
 13 C       -2.6190    -4.0710    -0.5160 C.3   1 <1>  -0.0970 
 14 C        4.8790     0.2180     0.2480 C.3   1 <1>   0.1200 
 15 C        6.0860    -0.7240     0.1690 C.3   1 <1>   0.3430 
 16 N        7.3930    -0.0060     0.3230 N.4   1 <1>  -0.9590 
 17 C        7.7130     0.9240    -0.7900 C.3   1 <1>   0.3430 
 18 C        8.5380    -0.9450     0.3990 C.3   1 <1>   0.3430 
 19 C        9.2200     1.1200    -0.7000 C.3   1 <1>  -0.1600 
 20 C        9.7540    -0.0860     0.0790 C.3   1 <1>  -0.1600 
 21 H        1.4090    -1.2920    -0.9320 H     1 <1>   0.0800 
 22 H        1.3720    -1.5300     0.8260 H     1 <1>   0.0800 
 23 H       -0.3470    -2.6660    -0.2500 H     1 <1>   0.1500 
 24 H        2.4840     0.6480     1.1420 H     1 <1>   0.0800 
 25 H        2.5230     0.8850    -0.6110 H     1 <1>   0.0800 
 26 H       -1.0700     1.9250     0.7290 H     1 <1>   0.0800 
 27 H       -2.7760     2.0520     0.9550 H     1 <1>   0.0800 
 28 H       -2.1000     2.1900    -0.6530 H     1 <1>   0.0800 
 29 H       -4.5470    -2.1940    -0.3370 H     1 <1>   0.1500 
 30 H       -4.6300     1.2860    -0.6740 H     1 <1>   0.0800 
 31 H       -4.8640     0.8150     0.9980 H     1 <1>   0.0800 
 32 H       -5.5690    -0.1270    -0.2900 H     1 <1>   0.0800 
 33 H       -1.7670    -4.4770    -1.0310 H     1 <1>   0.0800 
 34 H       -3.4970    -4.2770    -1.1010 H     1 <1>   0.0800 
 35 H       -2.7140    -4.5580     0.4380 H     1 <1>   0.0800 
 36 H        4.8420     0.7130     1.2030 H     1 <1>   0.0800 
 37 H        4.8930     0.9360    -0.5540 H     1 <1>   0.0800 
 38 H        6.0640    -1.2350    -0.7790 H     1 <1>   0.0800 
 39 H        5.9880    -1.4580     0.9510 H     1 <1>   0.0800 
 40 H        7.3900     0.5360     1.1980 H     1 <1>   0.4500 
 41 H        7.1840     1.8600    -0.6990 H     1 <1>   0.0800 
 42 H        7.4680     0.4630    -1.7340 H     1 <1>   0.0800 
 43 H        8.4340    -1.7120    -0.3520 H     1 <1>   0.0800 
 44 H        8.6180    -1.4040     1.3720 H     1 <1>   0.0800 
 45 H        9.4410     2.0340    -0.1750 H     1 <1>   0.0800 
 46 H        9.6500     1.1810    -1.6850 H     1 <1>   0.0800 
 47 H       10.4700    -0.6490    -0.4950 H     1 <1>   0.0800 
 48 H       10.2250     0.2340     0.9920 H     1 <1>   0.0800 
@<TRIPOS>BOND
  1   1   2  1   
  2   1   3  1   
  3   2   4  ar  
  4   2   5  ar  
  5   3   6  1   
  6   3  21  1   
  7   3  22  1   
  8   4   7  ar  
  9   4   8  1   
 10   5   9  ar  
 11   5  23  1   
 12   6  10  1   
 13   6  24  1   
 14   6  25  1   
 15   7  11  ar  
 16   7  12  1   
 17   8  26  1   
 18   8  27  1   
 19   8  28  1   
 20   9  11  ar  
 21   9  13  1   
 22  10  14  1   
 23  11  29  1   
 24  12  30  1   
 25  12  31  1   
 26  12  32  1   
 27  13  33  1   
 28  13  34  1   
 29  13  35  1   
 30  14  15  1   
 31  14  36  1   
 32  14  37  1   
 33  15  16  1   
 34  15  38  1   
 35  15  39  1   
 36  16  17  1   
 37  16  18  1   
 38  16  40  1   
 39  17  19  1   
 40  17  41  1   
 41  17  42  1   
 42  18  20  1   
 43  18  43  1   
 44  18  44  1   
 45  19  20  1   
 46  19  45  1   
 47  19  46  1   
 48  20  47  1   
 49  20  48  1   
@<TRIPOS>SUBSTRUCTURE
  1 ****   3 GROUP 4 **** **** 0

# MOE 2024.06 (io_trps.svl 2023.06)
