@<TRIPOS>MOLECULE
NONAME
45 45 1 0 0 
SMALL
USER_CHARGES


@<TRIPOS>ATOM
  1 O        0.3130    -2.1350    -1.4240 O.2   1 <1>  -0.5700 
  2 C       -0.0380    -2.1580    -0.2590 C.2   1 <1>   0.5440 
  3 N        0.7970    -1.6960     0.7250 N.am  1 <1>  -0.7300 
  4 C       -1.3410    -2.6590     0.1030 C.ar  1 <1>   0.0860 
  5 C        2.1400    -1.0620     0.6270 C.3   1 <1>   0.2200 
  6 C       -2.3460    -1.7860     0.5390 C.ar  1 <1>   0.0830 
  7 C       -1.6320    -4.0270     0.0270 C.ar  1 <1>   0.0830 
  8 C        1.9460     0.4500     0.3060 C.3   1 <1>  -0.0800 
  9 C        3.1240    -1.8960    -0.2520 C.3   1 <1>  -0.0800 
 10 O       -2.0380    -0.4680     0.6430 O.3   1 <1>  -0.3620 
 11 C       -3.6120    -2.2700     0.8560 C.ar  1 <1>  -0.1500 
 12 O       -0.6350    -4.8660    -0.3490 O.3   1 <1>  -0.3620 
 13 C       -2.9030    -4.4970     0.3450 C.ar  1 <1>  -0.1500 
 14 C        1.8970     0.8010    -1.1910 C.3   1 <1>  -0.2400 
 15 C        2.9680     1.3500     1.0230 C.3   1 <1>  -0.2400 
 16 C        3.1520    -3.3780     0.1730 C.3   1 <1>  -0.2400 
 17 C        4.5700    -1.3740    -0.2010 C.3   1 <1>  -0.2400 
 18 C       -3.0150     0.5290     0.8440 C.3   1 <1>   0.0400 
 19 C       -3.8890    -3.6190     0.7540 C.ar  1 <1>  -0.1500 
 20 C       -0.8560    -6.2190    -0.6770 C.3   1 <1>   0.0400 
 21 H        0.3840    -1.6280     1.6540 H     1 <1>   0.3700 
 22 H        2.5420    -1.1080     1.6240 H     1 <1>   0.0800 
 23 H        0.9890     0.7310     0.7140 H     1 <1>   0.0800 
 24 H        2.7990    -1.8520    -1.2760 H     1 <1>   0.0800 
 25 H       -4.3950    -1.6130     1.1860 H     1 <1>   0.1500 
 26 H       -3.1430    -5.5410     0.2850 H     1 <1>   0.1500 
 27 H        2.8300     0.5880    -1.6770 H     1 <1>   0.0800 
 28 H        1.6760     1.8450    -1.3210 H     1 <1>   0.0800 
 29 H        1.1230     0.2390    -1.6800 H     1 <1>   0.0800 
 30 H        3.9590     1.2150     0.6360 H     1 <1>   0.0800 
 31 H        2.9770     1.1390     2.0770 H     1 <1>   0.0800 
 32 H        2.6990     2.3830     0.8930 H     1 <1>   0.0800 
 33 H        3.4310    -3.4720     1.2070 H     1 <1>   0.0800 
 34 H        3.8530    -3.9290    -0.4280 H     1 <1>   0.0800 
 35 H        2.1870    -3.8320     0.0340 H     1 <1>   0.0800 
 36 H        4.9090    -1.2910     0.8160 H     1 <1>   0.0800 
 37 H        4.6470    -0.4160    -0.6790 H     1 <1>   0.0800 
 38 H        5.2270    -2.0430    -0.7280 H     1 <1>   0.0800 
 39 H       -2.5280     1.4860     0.7900 H     1 <1>   0.0800 
 40 H       -3.4550     0.3980     1.8160 H     1 <1>   0.0800 
 41 H       -3.7570     0.4520     0.0690 H     1 <1>   0.0800 
 42 H       -4.8710    -3.9880     0.9980 H     1 <1>   0.1500 
 43 H        0.0720    -6.6290    -1.0340 H     1 <1>   0.0800 
 44 H       -1.6000    -6.2720    -1.4510 H     1 <1>   0.0800 
 45 H       -1.1730    -6.7460     0.2050 H     1 <1>   0.0800 
@<TRIPOS>BOND
  1   1   2  2   
  2   2   3  am  
  3   2   4  1   
  4   3   5  1   
  5   3  21  1   
  6   4   6  ar  
  7   4   7  ar  
  8   5   8  1   
  9   5   9  1   
 10   5  22  1   
 11   6  10  1   
 12   6  11  ar  
 13   7  12  1   
 14   7  13  ar  
 15   8  14  1   
 16   8  15  1   
 17   8  23  1   
 18   9  16  1   
 19   9  17  1   
 20   9  24  1   
 21  10  18  1   
 22  11  19  ar  
 23  11  25  1   
 24  12  20  1   
 25  13  19  ar  
 26  13  26  1   
 27  14  27  1   
 28  14  28  1   
 29  14  29  1   
 30  15  30  1   
 31  15  31  1   
 32  15  32  1   
 33  16  33  1   
 34  16  34  1   
 35  16  35  1   
 36  17  36  1   
 37  17  37  1   
 38  17  38  1   
 39  18  39  1   
 40  18  40  1   
 41  18  41  1   
 42  19  42  1   
 43  20  43  1   
 44  20  44  1   
 45  20  45  1   
@<TRIPOS>SUBSTRUCTURE
  1 ****   2 GROUP 4 **** **** 0

# MOE 2024.06 (io_trps.svl 2023.06)
