@<TRIPOS>MOLECULE
NONAME
54 57 1 0 0 
SMALL
USER_CHARGES


@<TRIPOS>ATOM
  1 N        0.1860    -0.7780    -0.9730 N.3   1 <1>  -0.8100 
  2 C       -0.8740    -0.7610    -2.0090 C.3   1 <1>   0.1100 
  3 C        0.4920    -2.1720    -0.5560 C.3   1 <1>   0.1100 
  4 C        1.3910    -0.0490    -1.4170 C.3   1 <1>   0.2540 
  5 C       -2.1370    -1.5490    -1.5810 C.3   1 <1>   0.3430 
  6 C       -0.7630    -2.9290    -0.0580 C.3   1 <1>   0.3430 
  7 C        2.4250     0.0170    -0.3020 C.ar  1 <1>  -0.1440 
  8 N       -1.9930    -2.0860    -0.1890 N.4   1 <1>  -0.9590 
  9 C        2.1300     0.6720     0.8840 C.ar  1 <1>  -0.1500 
 10 C        3.6690    -0.5780    -0.4570 C.ar  1 <1>  -0.1500 
 11 C       -3.2250    -2.7060     0.3360 C.3   1 <1>   0.4810 
 12 C        3.0640     0.7300     1.9040 C.ar  1 <1>  -0.1500 
 13 C        4.6030    -0.5220     0.5630 C.ar  1 <1>  -0.1500 
 14 C       -4.2650    -1.6310     0.5980 C.2   1 <1>  -0.2540 
 15 C        4.3010     0.1320     1.7440 C.ar  1 <1>  -0.1500 
 16 C       -4.0150    -0.2260     0.6510 C.2   1 <1>  -0.2880 
 17 C       -5.8050    -2.3570     0.8420 C.3   1 <1>   0.1160 
 18 C       -5.4240     0.6900     0.9700 C.3   1 <1>  -0.0220 
 19 C       -7.4100    -1.8180     1.1440 C.3   1 <1>   0.0000 
 20 C       -6.0510    -1.0910     0.9640 C.3   1 <1>   0.0000 
 21 C       -6.9240    -0.1690     1.1520 C.3   1 <1>   0.0000 
 22 C       -8.0120    -2.2790     2.4970 C.3   1 <1>  -0.2400 
 23 C       -8.4040    -2.1920     0.0140 C.3   1 <1>  -0.2400 
 24 H       -0.4970    -1.1780    -2.9280 H     1 <1>   0.0800 
 25 H       -1.1560     0.2590    -2.2090 H     1 <1>   0.0800 
 26 H        1.2140    -2.1630     0.2440 H     1 <1>   0.0800 
 27 H        0.9310    -2.7120    -1.3770 H     1 <1>   0.0800 
 28 H        1.1210     0.9580    -1.6900 H     1 <1>   0.0800 
 29 H        1.8140    -0.5280    -2.2840 H     1 <1>   0.0800 
 30 H       -2.3010    -2.3590    -2.2720 H     1 <1>   0.0800 
 31 H       -2.9930    -0.8960    -1.6360 H     1 <1>   0.0800 
 32 H       -0.6150    -3.2010     0.9740 H     1 <1>   0.0800 
 33 H       -0.8740    -3.8390    -0.6250 H     1 <1>   0.0800 
 34 H       -1.7990    -1.2510     0.3830 H     1 <1>   0.4500 
 35 H        1.1690     1.1380     1.0140 H     1 <1>   0.1500 
 36 H        3.9200    -1.0880    -1.3700 H     1 <1>   0.1500 
 37 H       -3.0190    -3.2250     1.2580 H     1 <1>   0.0800 
 38 H       -3.6060    -3.4170    -0.3790 H     1 <1>   0.0800 
 39 H        2.8280     1.2410     2.8220 H     1 <1>   0.1500 
 40 H        5.5670    -0.9840     0.4380 H     1 <1>   0.1500 
 41 H        5.0280     0.1780     2.5370 H     1 <1>   0.1500 
 42 H       -3.1000     0.3290     0.5280 H     1 <1>   0.1500 
 43 H       -5.6300    -2.9800     1.7060 H     1 <1>   0.0000 
 44 H       -5.5450     1.4110     0.1780 H     1 <1>   0.0800 
 45 H       -5.2580     1.2610     1.8690 H     1 <1>   0.0800 
 46 H       -6.0450    -0.9420    -0.1950 H     1 <1>   0.0000 
 47 H       -5.6660    -1.0570     2.0620 H     1 <1>   0.0000 
 48 H       -7.5150     0.2260     0.3400 H     1 <1>   0.0000 
 49 H       -7.3600    -2.0340     3.3170 H     1 <1>   0.0800 
 50 H       -8.1690    -3.3430     2.4940 H     1 <1>   0.0800 
 51 H       -8.9570    -1.7930     2.6650 H     1 <1>   0.0800 
 52 H       -8.0310    -1.8920    -0.9490 H     1 <1>   0.0800 
 53 H       -9.3490    -1.7040     0.1750 H     1 <1>   0.0800 
 54 H       -8.5670    -3.2550    -0.0020 H     1 <1>   0.0800 
@<TRIPOS>BOND
  1   1   2  1   
  2   1   3  1   
  3   1   4  1   
  4   2   5  1   
  5   2  24  1   
  6   2  25  1   
  7   3   6  1   
  8   3  26  1   
  9   3  27  1   
 10   4   7  1   
 11   4  28  1   
 12   4  29  1   
 13   5   8  1   
 14   5  30  1   
 15   5  31  1   
 16   6   8  1   
 17   6  32  1   
 18   6  33  1   
 19   7   9  ar  
 20   7  10  ar  
 21   8  11  1   
 22   8  34  1   
 23   9  12  ar  
 24   9  35  1   
 25  10  13  ar  
 26  10  36  1   
 27  11  14  1   
 28  11  37  1   
 29  11  38  1   
 30  12  15  ar  
 31  12  39  1   
 32  13  15  ar  
 33  13  40  1   
 34  14  16  2   
 35  14  17  1   
 36  15  41  1   
 37  16  18  1   
 38  16  42  1   
 39  17  19  1   
 40  17  20  1   
 41  17  43  1   
 42  18  21  1   
 43  18  44  1   
 44  18  45  1   
 45  19  21  1   
 46  19  22  1   
 47  19  23  1   
 48  20  21  1   
 49  20  46  1   
 50  20  47  1   
 51  21  48  1   
 52  22  49  1   
 53  22  50  1   
 54  22  51  1   
 55  23  52  1   
 56  23  53  1   
 57  23  54  1   
@<TRIPOS>SUBSTRUCTURE
  1 ****   8 GROUP 4 **** **** 0

# MOE 2024.06 (io_trps.svl 2023.06)
