@<TRIPOS>MOLECULE
NONAME
58 60 1 0 0 
SMALL
USER_CHARGES


@<TRIPOS>ATOM
  1 O        0.5970    -0.8300    -2.6190 O.2   1 <1>  -0.5700 
  2 C       -0.0540    -1.2970    -1.7160 C.2   1 <1>   0.5690 
  3 N        0.4180    -1.4620    -0.4470 N.am  1 <1>  -0.5470 
  4 C       -1.5050    -1.7070    -1.9800 C.3   1 <1>   0.1710 
  5 C        1.5770    -0.9190     0.1270 C.ar  1 <1>   0.1170 
  6 N       -2.4490    -1.3670    -0.8680 N.3   1 <1>  -0.8100 
  7 C        1.7840     0.4620     0.2310 C.ar  1 <1>   0.0830 
  8 C        2.5410    -1.7750     0.6370 C.ar  1 <1>  -0.1500 
  9 C       -3.7940    -1.9210    -1.1220 C.3   1 <1>   0.1100 
 10 C       -2.5090     0.0990    -0.6540 C.3   1 <1>   0.1100 
 11 O        0.8500     1.3310    -0.2400 O.3   1 <1>  -0.3630 
 12 C        2.9280     0.9560     0.8370 C.ar  1 <1>  -0.1500 
 13 C        3.6890    -1.2870     1.2380 C.ar  1 <1>   0.0830 
 14 C       -4.7680    -1.5860     0.0270 C.3   1 <1>   0.3430 
 15 C       -3.4560     0.4660     0.5050 C.3   1 <1>   0.3430 
 16 C        1.2560     2.1100    -1.3460 C.3   1 <1>   0.0400 
 17 C        3.8830     0.0880     1.3380 C.ar  1 <1>  -0.1500 
 18 O        4.5700    -2.2100     1.7060 O.3   1 <1>  -0.3630 
 19 N       -4.8280    -0.1070     0.2970 N.4   1 <1>  -0.9590 
 20 C        5.7870    -1.8180     2.3000 C.3   1 <1>   0.0400 
 21 C       -5.7440     0.2120     1.4240 C.3   1 <1>   0.4860 
 22 C       -7.1460    -0.2120     1.0300 C.ar  1 <1>  -0.1430 
 23 C       -7.9200     0.5340     0.1440 C.ar  1 <1>  -0.1430 
 24 C       -7.6550    -1.3880     1.5670 C.ar  1 <1>  -0.1500 
 25 C       -9.1790     0.0740    -0.2070 C.ar  1 <1>  -0.1500 
 26 C       -7.4480     1.8530    -0.4590 C.3   1 <1>  -0.0970 
 27 C       -8.9130    -1.8340     1.2120 C.ar  1 <1>  -0.1500 
 28 C       -9.6750    -1.1040     0.3210 C.ar  1 <1>  -0.1500 
 29 H       -0.2510    -1.8760     0.2020 H     1 <1>   0.3700 
 30 H       -1.5120    -2.7700    -2.1430 H     1 <1>   0.0800 
 31 H       -1.8270    -1.2340    -2.8920 H     1 <1>   0.0800 
 32 H        2.4070    -2.8380     0.5630 H     1 <1>   0.1500 
 33 H       -3.7260    -2.9920    -1.2150 H     1 <1>   0.0800 
 34 H       -4.1850    -1.5350    -2.0490 H     1 <1>   0.0800 
 35 H       -2.8310     0.5930    -1.5550 H     1 <1>   0.0800 
 36 H       -1.5300     0.4730    -0.4110 H     1 <1>   0.0800 
 37 H        3.0710     2.0180     0.9220 H     1 <1>   0.1500 
 38 H       -4.4390    -2.1040     0.9120 H     1 <1>   0.0800 
 39 H       -5.7500    -1.9530    -0.2270 H     1 <1>   0.0800 
 40 H       -3.5110     1.5390     0.5900 H     1 <1>   0.0800 
 41 H       -3.0340     0.0810     1.4190 H     1 <1>   0.0800 
 42 H        0.3960     2.6250    -1.7320 H     1 <1>   0.0800 
 43 H        1.6630     1.4590    -2.1010 H     1 <1>   0.0800 
 44 H        1.9980     2.8190    -1.0270 H     1 <1>   0.0800 
 45 H        4.7600     0.4980     1.8010 H     1 <1>   0.1500 
 46 H       -5.2440     0.3220    -0.5360 H     1 <1>   0.4500 
 47 H        6.3250    -2.7080     2.5760 H     1 <1>   0.0800 
 48 H        5.5750    -1.2330     3.1770 H     1 <1>   0.0800 
 49 H        6.3590    -1.2530     1.5860 H     1 <1>   0.0800 
 50 H       -5.7330     1.2700     1.6280 H     1 <1>   0.0800 
 51 H       -5.4360    -0.3100     2.3150 H     1 <1>   0.0800 
 52 H       -7.0830    -1.9720     2.2690 H     1 <1>   0.1500 
 53 H       -9.7940     0.6310    -0.8940 H     1 <1>   0.1500 
 54 H       -6.7750     1.6740    -1.2770 H     1 <1>   0.0800 
 55 H       -6.9650     2.4660     0.2800 H     1 <1>   0.0800 
 56 H       -8.2870     2.4120    -0.8370 H     1 <1>   0.0800 
 57 H       -9.3060    -2.7470     1.6300 H     1 <1>   0.1500 
 58 H      -10.6560    -1.4490     0.0410 H     1 <1>   0.1500 
@<TRIPOS>BOND
  1   1   2  2   
  2   2   3  am  
  3   2   4  1   
  4   3   5  1   
  5   3  29  1   
  6   4   6  1   
  7   4  30  1   
  8   4  31  1   
  9   5   7  ar  
 10   5   8  ar  
 11   6   9  1   
 12   6  10  1   
 13   7  11  1   
 14   7  12  ar  
 15   8  13  ar  
 16   8  32  1   
 17   9  14  1   
 18   9  33  1   
 19   9  34  1   
 20  10  15  1   
 21  10  35  1   
 22  10  36  1   
 23  11  16  1   
 24  12  17  ar  
 25  12  37  1   
 26  13  17  ar  
 27  13  18  1   
 28  14  19  1   
 29  14  38  1   
 30  14  39  1   
 31  15  19  1   
 32  15  40  1   
 33  15  41  1   
 34  16  42  1   
 35  16  43  1   
 36  16  44  1   
 37  17  45  1   
 38  18  20  1   
 39  19  21  1   
 40  19  46  1   
 41  20  47  1   
 42  20  48  1   
 43  20  49  1   
 44  21  22  1   
 45  21  50  1   
 46  21  51  1   
 47  22  23  ar  
 48  22  24  ar  
 49  23  25  ar  
 50  23  26  1   
 51  24  27  ar  
 52  24  52  1   
 53  25  28  ar  
 54  25  53  1   
 55  26  54  1   
 56  26  55  1   
 57  26  56  1   
 58  27  28  ar  
 59  27  57  1   
 60  28  58  1   
@<TRIPOS>SUBSTRUCTURE
  1 ****  10 GROUP 4 **** **** 0

# MOE 2024.06 (io_trps.svl 2023.06)
