@<TRIPOS>MOLECULE
NONAME
29 30 1 0 0 
SMALL
USER_CHARGES


@<TRIPOS>ATOM
  1 CL       0.7460     0.2040    -1.1290 Cl    1 <1>  -0.1770 
  2 C        0.3500     1.8420    -0.6730 C.ar  1 <1>   0.1770 
  3 C       -0.9690     2.1880    -0.4590 C.ar  1 <1>  -0.1500 
  4 C        1.3700     2.7630    -0.5310 C.ar  1 <1>  -0.1500 
  5 C       -1.2950     3.4900    -0.0970 C.ar  1 <1>   0.1170 
  6 C        1.0610     4.0620    -0.1650 C.ar  1 <1>  -0.1500 
  7 N       -2.6150     3.9170     0.1400 N.am  1 <1>  -0.5470 
  8 C       -0.2650     4.4290     0.0550 C.ar  1 <1>   0.0830 
  9 C       -3.8360     3.3660    -0.1230 C.2   1 <1>   0.6900 
 10 O       -0.6280     5.6950     0.4250 O.3   1 <1>  -0.3630 
 11 O       -3.9500     2.3090    -0.7120 O.2   1 <1>  -0.5700 
 12 N       -4.9360     4.0480     0.2920 N.am  1 <1>  -0.5790 
 13 C        0.3290     6.7260     0.5500 C.3   1 <1>   0.0400 
 14 C       -6.3310     3.6290     0.0900 C.3   1 <1>   0.0490 
 15 C       -7.3610     4.6920    -0.0990 C.3   1 <1>  -0.2000 
 16 C       -7.3120     3.9110     1.1790 C.3   1 <1>  -0.2000 
 17 H       -1.7250     1.4360    -0.5770 H     1 <1>   0.1500 
 18 H        2.3870     2.4620    -0.7050 H     1 <1>   0.1500 
 19 H        1.8670     4.7640    -0.0560 H     1 <1>   0.1500 
 20 H       -2.6410     4.8770     0.4760 H     1 <1>   0.3700 
 21 H       -4.8160     4.8940     0.8400 H     1 <1>   0.3700 
 22 H       -0.1850     7.6290     0.8250 H     1 <1>   0.0800 
 23 H        0.8230     6.8610    -0.3970 H     1 <1>   0.0800 
 24 H        1.0330     6.4590     1.3190 H     1 <1>   0.0800 
 25 H       -6.4260     2.7110    -0.4680 H     1 <1>   0.1000 
 26 H       -8.1730     4.5040    -0.7790 H     1 <1>   0.1000 
 27 H       -7.0520     5.7230    -0.0980 H     1 <1>   0.1000 
 28 H       -6.9690     4.3930     2.0770 H     1 <1>   0.1000 
 29 H       -8.0900     3.1930     1.3670 H     1 <1>   0.1000 
@<TRIPOS>BOND
  1   1   2  1   
  2   2   3  ar  
  3   2   4  ar  
  4   3   5  ar  
  5   3  17  1   
  6   4   6  ar  
  7   4  18  1   
  8   5   7  1   
  9   5   8  ar  
 10   6   8  ar  
 11   6  19  1   
 12   7   9  am  
 13   7  20  1   
 14   8  10  1   
 15   9  11  2   
 16   9  12  am  
 17  10  13  1   
 18  12  14  1   
 19  12  21  1   
 20  13  22  1   
 21  13  23  1   
 22  13  24  1   
 23  14  15  1   
 24  14  16  1   
 25  14  25  1   
 26  15  16  1   
 27  15  26  1   
 28  15  27  1   
 29  16  28  1   
 30  16  29  1   
@<TRIPOS>SUBSTRUCTURE
  1 ****   7 GROUP 4 **** **** 0

# MOE 2024.06 (io_trps.svl 2023.06)
