@<TRIPOS>MOLECULE
NONAME
40 41 1 0 0 
SMALL
USER_CHARGES


@<TRIPOS>ATOM
  1 O       -0.3960     0.1220     1.2860 O.2   1 <1>  -0.5700 
  2 C       -1.2440    -0.4340     0.6030 C.2   1 <1>   0.7060 
  3 O       -0.8720    -1.5350    -0.0650 O.3   1 <1>  -0.4300 
  4 C       -2.5890     0.0130     0.4700 C.2   1 <1>  -0.1240 
  5 C        0.4120    -2.0970     0.0790 C.3   1 <1>   0.1200 
  6 C       -3.1010     1.1570     1.0090 C.2   1 <1>   0.1770 
  7 C       -3.5150    -0.8980    -0.3300 C.3   1 <1>   0.3400 
  8 C        0.4450    -3.3920    -0.7260 C.3   1 <1>  -0.2400 
  9 O       -4.3700     1.5360     0.8110 O.3   1 <1>  -0.1530 
 10 N       -2.4060     2.0320     1.7850 N.pl3 1 <1>  -0.9000 
 11 C       -4.8740    -0.2690    -0.6270 C.2   1 <1>  -0.1240 
 12 C       -3.7430    -2.2000     0.4400 C.ar  1 <1>  -0.1430 
 13 C       -5.1950     0.9100    -0.0380 C.2   1 <1>  -0.0620 
 14 C       -5.6570    -1.0670    -1.5290 C.2   1 <1>   0.4950 
 15 C       -3.5270    -3.4250    -0.1760 C.ar  1 <1>   0.1600 
 16 C       -4.1670    -2.1860     1.7560 C.ar  1 <1>  -0.1500 
 17 C       -6.4650     1.7220    -0.2390 C.3   1 <1>  -0.1020 
 18 O       -5.1650    -1.6700    -2.4480 O.2   1 <1>  -0.5700 
 19 C       -7.1480    -1.2410    -1.3320 C.3   1 <1>  -0.1790 
 20 N       -3.6850    -4.6050     0.4050 N.ar  1 <1>  -0.6200 
 21 C       -4.3380    -3.4060     2.3740 C.ar  1 <1>  -0.1500 
 22 C       -4.0860    -4.5670     1.6640 C.ar  1 <1>   0.1600 
 23 H        0.5860    -2.2910     1.1240 H     1 <1>   0.0800 
 24 H        1.1380    -1.3900    -0.2860 H     1 <1>   0.0800 
 25 H       -3.0330    -1.1060    -1.2710 H     1 <1>   0.0800 
 26 H       -0.2970    -4.0770    -0.3550 H     1 <1>   0.0800 
 27 H        1.4120    -3.8530    -0.6330 H     1 <1>   0.0800 
 28 H        0.2600    -3.1890    -1.7660 H     1 <1>   0.0800 
 29 H       -1.4140     1.8580     2.0130 H     1 <1>   0.4000 
 30 H       -2.8110     2.8920     2.1640 H     1 <1>   0.4000 
 31 H       -3.2070    -3.4400    -1.2050 H     1 <1>   0.1500 
 32 H       -4.3540    -1.2660     2.2850 H     1 <1>   0.1500 
 33 H       -6.2100     2.7580    -0.3780 H     1 <1>   0.0800 
 34 H       -7.0940     1.6410     0.6290 H     1 <1>   0.0800 
 35 H       -7.0130     1.4090    -1.1060 H     1 <1>   0.0800 
 36 H       -7.4400    -0.9500    -0.3410 H     1 <1>   0.0800 
 37 H       -7.4010    -2.2770    -1.4700 H     1 <1>   0.0800 
 38 H       -7.6810    -0.6590    -2.0600 H     1 <1>   0.0800 
 39 H       -4.6620    -3.4590     3.3970 H     1 <1>   0.1500 
 40 H       -4.2210    -5.5140     2.1580 H     1 <1>   0.1500 
@<TRIPOS>BOND
  1   1   2  2   
  2   2   3  1   
  3   2   4  1   
  4   3   5  1   
  5   4   6  2   
  6   4   7  1   
  7   5   8  1   
  8   5  23  1   
  9   5  24  1   
 10   6   9  1   
 11   6  10  1   
 12   7  11  1   
 13   7  12  1   
 14   7  25  1   
 15   8  26  1   
 16   8  27  1   
 17   8  28  1   
 18   9  13  1   
 19  10  29  1   
 20  10  30  1   
 21  11  13  2   
 22  11  14  1   
 23  12  15  ar  
 24  12  16  ar  
 25  13  17  1   
 26  14  18  2   
 27  14  19  1   
 28  15  20  ar  
 29  15  31  1   
 30  16  21  ar  
 31  16  32  1   
 32  17  33  1   
 33  17  34  1   
 34  17  35  1   
 35  19  36  1   
 36  19  37  1   
 37  19  38  1   
 38  20  22  ar  
 39  21  22  ar  
 40  21  39  1   
 41  22  40  1   
@<TRIPOS>SUBSTRUCTURE
  1 ****   7 GROUP 4 **** **** 0

# MOE 2024.06 (io_trps.svl 2023.06)
