@<TRIPOS>MOLECULE
NONAME
53 55 1 0 0 
SMALL
USER_CHARGES


@<TRIPOS>ATOM
  1 O        1.9440     1.3990    -2.4540 O.2   1 <1>  -0.5700 
  2 C        1.1690     1.5060    -1.5330 C.2   1 <1>   0.5690 
  3 N        1.0430     0.5930    -0.5350 N.am  1 <1>  -0.7300 
  4 C        0.2810     2.7520    -1.4570 C.3   1 <1>   0.1710 
  5 C        1.8260    -0.6120    -0.2040 C.3   1 <1>   0.3640 
  6 N       -0.9510     2.5820    -0.6300 N.3   1 <1>  -0.8100 
  7 C        2.9600    -0.2370     0.7450 C.ar  1 <1>  -0.1440 
  8 C        2.3290    -1.3590    -1.4390 C.3   1 <1>  -0.2400 
  9 C       -1.9500     1.7440    -1.3410 C.3   1 <1>   0.1100 
 10 C       -1.5570     3.8960    -0.3160 C.3   1 <1>   0.1100 
 11 C        3.0170    -0.7930     2.0160 C.ar  1 <1>  -0.1500 
 12 C        3.9460     0.6610     0.3600 C.ar  1 <1>  -0.1500 
 13 C       -3.2420     1.5570    -0.5220 C.3   1 <1>   0.2090 
 14 C       -2.8390     3.7590     0.5280 C.3   1 <1>   0.2090 
 15 C        4.0410    -0.4570     2.8860 C.ar  1 <1>  -0.1500 
 16 C        4.9700     0.9980     1.2270 C.ar  1 <1>  -0.1500 
 17 N       -3.8330     2.8730    -0.1440 N.pl3 1 <1>  -0.8380 
 18 C        5.0180     0.4390     2.4920 C.ar  1 <1>  -0.1500 
 19 C       -5.1010     2.8300     0.4220 C.ar  1 <1>   0.1000 
 20 C       -6.1860     3.3290    -0.2830 C.ar  1 <1>  -0.1500 
 21 C       -5.3160     2.2960     1.6880 C.ar  1 <1>  -0.1500 
 22 C       -7.4620     3.3010     0.2500 C.ar  1 <1>   0.0820 
 23 C       -6.5860     2.2620     2.2340 C.ar  1 <1>  -0.1500 
 24 O       -8.4600     3.8120    -0.5170 O.3   1 <1>  -0.3630 
 25 C       -7.6620     2.7620     1.5200 C.ar  1 <1>  -0.1500 
 26 C       -9.7950     3.8320    -0.0620 C.3   1 <1>   0.0400 
 27 H        0.3800     0.8750     0.1930 H     1 <1>   0.3700 
 28 H        0.0150     3.0500    -2.4560 H     1 <1>   0.0800 
 29 H        0.8850     3.5340    -1.0320 H     1 <1>   0.0800 
 30 H        1.1610    -1.2820     0.3140 H     1 <1>   0.0800 
 31 H        3.0850    -0.7930    -1.9520 H     1 <1>   0.0800 
 32 H        1.5150    -1.5570    -2.1110 H     1 <1>   0.0800 
 33 H        2.7650    -2.2930    -1.1380 H     1 <1>   0.0800 
 34 H       -1.5320     0.7750    -1.5480 H     1 <1>   0.0800 
 35 H       -2.2080     2.2020    -2.2810 H     1 <1>   0.0800 
 36 H       -1.8020     4.4150    -1.2280 H     1 <1>   0.0800 
 37 H       -0.8490     4.4950     0.2300 H     1 <1>   0.0800 
 38 H        2.2660    -1.4920     2.3390 H     1 <1>   0.1500 
 39 H        3.9170     1.1010    -0.6220 H     1 <1>   0.1500 
 40 H       -3.0200     0.9920     0.3660 H     1 <1>   0.0800 
 41 H       -3.9580     1.0030    -1.1040 H     1 <1>   0.0800 
 42 H       -3.2770     4.7300     0.6770 H     1 <1>   0.0800 
 43 H       -2.5860     3.3530     1.4920 H     1 <1>   0.0800 
 44 H        4.0780    -0.8930     3.8690 H     1 <1>   0.1500 
 45 H        5.7290     1.6940     0.9160 H     1 <1>   0.1500 
 46 H        5.8140     0.7010     3.1660 H     1 <1>   0.1500 
 47 H       -6.0260     3.7420    -1.2600 H     1 <1>   0.1500 
 48 H       -4.4820     1.9080     2.2410 H     1 <1>   0.1500 
 49 H       -6.7380     1.8460     3.2140 H     1 <1>   0.1500 
 50 H       -8.6380     2.7250     1.9640 H     1 <1>   0.1500 
 51 H      -10.4020     4.2780    -0.8280 H     1 <1>   0.0800 
 52 H       -9.8480     4.4210     0.8370 H     1 <1>   0.0800 
 53 H      -10.1170     2.8210     0.1180 H     1 <1>   0.0800 
@<TRIPOS>BOND
  1   1   2  2   
  2   2   3  am  
  3   2   4  1   
  4   3   5  1   
  5   3  27  1   
  6   4   6  1   
  7   4  28  1   
  8   4  29  1   
  9   5   7  1   
 10   5   8  1   
 11   5  30  1   
 12   6   9  1   
 13   6  10  1   
 14   7  11  ar  
 15   7  12  ar  
 16   8  31  1   
 17   8  32  1   
 18   8  33  1   
 19   9  13  1   
 20   9  34  1   
 21   9  35  1   
 22  10  14  1   
 23  10  36  1   
 24  10  37  1   
 25  11  15  ar  
 26  11  38  1   
 27  12  16  ar  
 28  12  39  1   
 29  13  17  1   
 30  13  40  1   
 31  13  41  1   
 32  14  17  1   
 33  14  42  1   
 34  14  43  1   
 35  15  18  ar  
 36  15  44  1   
 37  16  18  ar  
 38  16  45  1   
 39  17  19  1   
 40  18  46  1   
 41  19  20  ar  
 42  19  21  ar  
 43  20  22  ar  
 44  20  47  1   
 45  21  23  ar  
 46  21  48  1   
 47  22  24  1   
 48  22  25  ar  
 49  23  25  ar  
 50  23  49  1   
 51  24  26  1   
 52  25  50  1   
 53  26  51  1   
 54  26  52  1   
 55  26  53  1   
@<TRIPOS>SUBSTRUCTURE
  1 ****   6 GROUP 4 **** **** 0

# MOE 2024.06 (io_trps.svl 2023.06)
