@<TRIPOS>MOLECULE
NONAME
36 38 1 0 0 
SMALL
USER_CHARGES


@<TRIPOS>ATOM
  1 O       -0.0840     1.0280     0.1600 O.2   1 <1>  -0.5700 
  2 C       -0.1700    -0.1160    -0.2130 C.2   1 <1>   0.6300 
  3 N        0.8680    -1.0010    -0.2510 N.am  1 <1>  -0.5470 
  4 C       -1.5220    -0.6260    -0.6930 C.3   1 <1>  -0.1000 
  5 C        2.2200    -0.9020     0.1140 C.ar  1 <1>   0.1170 
  6 C       -2.4660    -1.2990     0.2500 C.3   1 <1>  -0.1950 
  7 C       -1.8050    -2.0920    -0.8440 C.3   1 <1>  -0.1950 
  8 C        3.0760    -1.9380    -0.2430 C.ar  1 <1>  -0.1500 
  9 C        2.7470     0.1730     0.8220 C.ar  1 <1>  -0.1500 
 10 C       -3.9020    -1.8100     0.3400 C.3   1 <1>  -0.0650 
 11 C       -1.4840    -3.4600    -0.2410 C.3   1 <1>  -0.0650 
 12 C        4.4200    -1.9110     0.0910 C.ar  1 <1>  -0.1430 
 13 C        4.0870     0.2100     1.1600 C.ar  1 <1>  -0.1500 
 14 C       -3.8270    -3.2680     0.8490 C.3   1 <1>  -0.1600 
 15 C       -2.8370    -4.1530     0.0440 C.3   1 <1>  -0.1600 
 16 C        4.9230    -0.8300     0.7960 C.ar  1 <1>  -0.1500 
 17 C        5.3440    -3.0490    -0.3050 C.3   1 <1>  -0.0970 
 18 H        0.5910    -1.9060    -0.6230 H     1 <1>   0.3700 
 19 H       -1.9600     0.0570    -1.3980 H     1 <1>   0.1000 
 20 H       -2.0550    -1.2940     1.2470 H     1 <1>   0.1000 
 21 H       -2.3170    -2.2610    -1.7780 H     1 <1>   0.1000 
 22 H        2.6850    -2.7760    -0.7890 H     1 <1>   0.1500 
 23 H        2.1150     0.9900     1.1180 H     1 <1>   0.1500 
 24 H       -4.3810    -1.7730    -0.6240 H     1 <1>   0.0800 
 25 H       -4.4700    -1.2020     1.0230 H     1 <1>   0.0800 
 26 H       -0.9240    -3.3540     0.6730 H     1 <1>   0.0800 
 27 H       -0.9060    -4.0490    -0.9310 H     1 <1>   0.0800 
 28 H        4.4780     1.0490     1.7070 H     1 <1>   0.1500 
 29 H       -4.8090    -3.7090     0.8260 H     1 <1>   0.0800 
 30 H       -3.5060    -3.2500     1.8770 H     1 <1>   0.0800 
 31 H       -2.6670    -5.0750     0.5720 H     1 <1>   0.0800 
 32 H       -3.2960    -4.4010    -0.8980 H     1 <1>   0.0800 
 33 H        5.9650    -0.7940     1.0630 H     1 <1>   0.1500 
 34 H        4.8860    -3.6750    -1.0490 H     1 <1>   0.0800 
 35 H        5.5730    -3.6480     0.5580 H     1 <1>   0.0800 
 36 H        6.2600    -2.6570    -0.7090 H     1 <1>   0.0800 
@<TRIPOS>BOND
  1   1   2  2   
  2   2   3  am  
  3   2   4  1   
  4   3   5  1   
  5   3  18  1   
  6   4   6  1   
  7   4   7  1   
  8   4  19  1   
  9   5   8  ar  
 10   5   9  ar  
 11   6   7  1   
 12   6  10  1   
 13   6  20  1   
 14   7  11  1   
 15   7  21  1   
 16   8  12  ar  
 17   8  22  1   
 18   9  13  ar  
 19   9  23  1   
 20  10  14  1   
 21  10  24  1   
 22  10  25  1   
 23  11  15  1   
 24  11  26  1   
 25  11  27  1   
 26  12  16  ar  
 27  12  17  1   
 28  13  16  ar  
 29  13  28  1   
 30  14  15  1   
 31  14  29  1   
 32  14  30  1   
 33  15  31  1   
 34  15  32  1   
 35  16  33  1   
 36  17  34  1   
 37  17  35  1   
 38  17  36  1   
@<TRIPOS>SUBSTRUCTURE
  1 ****   3 GROUP 4 **** **** 0

# MOE 2024.06 (io_trps.svl 2023.06)
