@<TRIPOS>MOLECULE
NONAME
50 51 1 0 0 
SMALL
USER_CHARGES


@<TRIPOS>ATOM
  1 S       -0.7400    -0.6250     0.0490 S.o2  1 <1>   1.4470 
  2 O       -1.6430    -1.7460    -0.0980 O.2   1 <1>  -0.6500 
  3 O       -0.9960     0.5290    -0.7820 O.2   1 <1>  -0.6500 
  4 N       -0.9910    -0.0680     1.6160 N.am  1 <1>  -0.9140 
  5 C        0.9890    -1.1400     0.0070 C.ar  1 <1>  -0.0090 
  6 C       -2.2590     0.6320     1.8390 C.3   1 <1>   0.1960 
  7 C        1.9880    -0.2880     0.4640 C.ar  1 <1>   0.0830 
  8 C        1.3560    -2.3800    -0.4960 C.ar  1 <1>  -0.1500 
  9 C       -3.4770    -0.3210     1.7750 C.3   1 <1>   0.3430 
 10 O        1.6050     0.9210     0.9550 O.3   1 <1>  -0.3630 
 11 C        3.3210    -0.6850     0.4120 C.ar  1 <1>  -0.1500 
 12 C        2.6800    -2.7830    -0.5510 C.ar  1 <1>  -0.1440 
 13 N       -4.5140     0.0470     0.7480 N.4   1 <1>  -0.9590 
 14 C        2.5360     1.9470     1.2170 C.3   1 <1>   0.1200 
 15 C        3.6730    -1.9260    -0.0920 C.ar  1 <1>  -0.1430 
 16 C        3.0140    -4.1580    -1.1140 C.3   1 <1>  -0.0970 
 17 C       -5.6740    -0.9050     0.7860 C.3   1 <1>   0.3430 
 18 C       -4.0010     0.1360    -0.6670 C.3   1 <1>   0.3430 
 19 C        1.7540     3.1950     1.6140 C.3   1 <1>  -0.2400 
 20 C        5.1420    -2.3230    -0.1320 C.3   1 <1>  -0.0970 
 21 C       -6.7340    -0.5610    -0.2870 C.3   1 <1>   0.1200 
 22 C       -5.1330     0.4770    -1.6620 C.3   1 <1>   0.1200 
 23 O       -6.3710     0.5840    -1.0100 O.3   1 <1>  -0.5600 
 24 H       -0.2320     0.6170     1.7250 H     1 <1>   0.4200 
 25 H       -2.3640     1.4450     1.1410 H     1 <1>   0.0800 
 26 H       -2.2260     1.0580     2.8280 H     1 <1>   0.0800 
 27 H        0.5860    -3.0440    -0.8520 H     1 <1>   0.1500 
 28 H       -3.9410    -0.3290     2.7470 H     1 <1>   0.0800 
 29 H       -3.1220    -1.3210     1.5840 H     1 <1>   0.0800 
 30 H        4.0990    -0.0380     0.7670 H     1 <1>   0.1500 
 31 H       -4.9150     0.9760     0.9450 H     1 <1>   0.4500 
 32 H        3.1100     2.1250     0.3230 H     1 <1>   0.0800 
 33 H        3.1810     1.6310     2.0190 H     1 <1>   0.0800 
 34 H        2.1230    -4.6810    -1.4130 H     1 <1>   0.0800 
 35 H        3.5170    -4.7500    -0.3710 H     1 <1>   0.0800 
 36 H        3.6510    -4.0600    -1.9740 H     1 <1>   0.0800 
 37 H       -6.1390    -0.8820     1.7570 H     1 <1>   0.0800 
 38 H       -5.3250    -1.9110     0.6180 H     1 <1>   0.0800 
 39 H       -3.5550    -0.8010    -0.9570 H     1 <1>   0.0800 
 40 H       -3.2400     0.8940    -0.7430 H     1 <1>   0.0800 
 41 H        1.0970     3.4900     0.8150 H     1 <1>   0.0800 
 42 H        2.4370     4.0020     1.8070 H     1 <1>   0.0800 
 43 H        1.1840     3.0110     2.5070 H     1 <1>   0.0800 
 44 H        5.7680    -1.5400     0.2580 H     1 <1>   0.0800 
 45 H        5.4440    -2.5210    -1.1440 H     1 <1>   0.0800 
 46 H        5.3010    -3.2050     0.4610 H     1 <1>   0.0800 
 47 H       -7.6850    -0.3690     0.1780 H     1 <1>   0.0800 
 48 H       -6.8570    -1.3790    -0.9760 H     1 <1>   0.0800 
 49 H       -5.2060    -0.2780    -2.4250 H     1 <1>   0.0800 
 50 H       -4.9310     1.4190    -2.1410 H     1 <1>   0.0800 
@<TRIPOS>BOND
  1   1   2  2   
  2   1   3  2   
  3   1   4  am  
  4   1   5  1   
  5   4   6  1   
  6   4  24  1   
  7   5   7  ar  
  8   5   8  ar  
  9   6   9  1   
 10   6  25  1   
 11   6  26  1   
 12   7  10  1   
 13   7  11  ar  
 14   8  12  ar  
 15   8  27  1   
 16   9  13  1   
 17   9  28  1   
 18   9  29  1   
 19  10  14  1   
 20  11  15  ar  
 21  11  30  1   
 22  12  15  ar  
 23  12  16  1   
 24  13  17  1   
 25  13  18  1   
 26  13  31  1   
 27  14  19  1   
 28  14  32  1   
 29  14  33  1   
 30  15  20  1   
 31  16  34  1   
 32  16  35  1   
 33  16  36  1   
 34  17  21  1   
 35  17  37  1   
 36  17  38  1   
 37  18  22  1   
 38  18  39  1   
 39  18  40  1   
 40  19  41  1   
 41  19  42  1   
 42  19  43  1   
 43  20  44  1   
 44  20  45  1   
 45  20  46  1   
 46  21  23  1   
 47  21  47  1   
 48  21  48  1   
 49  22  23  1   
 50  22  49  1   
 51  22  50  1   
@<TRIPOS>SUBSTRUCTURE
  1 ****   1 GROUP 4 **** **** 0

# MOE 2024.06 (io_trps.svl 2023.06)
