@<TRIPOS>MOLECULE
NONAME
38 38 1 0 0 
SMALL
USER_CHARGES


@<TRIPOS>ATOM
  1 O       -1.3190     2.2030     0.3390 O.3   1 <1>  -0.3630 
  2 C       -1.7510     3.2420    -0.4400 C.ar  1 <1>   0.0830 
  3 C       -2.2160     1.1800     0.7310 C.3   1 <1>   0.0400 
  4 C       -3.0030     3.8640    -0.3080 C.ar  1 <1>   0.0830 
  5 C       -0.8530     3.6950    -1.4030 C.ar  1 <1>  -0.1440 
  6 O       -3.8520     3.4620     0.6810 O.3   1 <1>  -0.3620 
  7 C       -3.3380     4.9000    -1.1760 C.ar  1 <1>  -0.1500 
  8 C       -1.2040     4.7310    -2.2540 C.ar  1 <1>  -0.1500 
  9 C        0.5120     3.0550    -1.5190 C.3   1 <1>   0.4860 
 10 C       -5.1030     4.0800     0.9000 C.3   1 <1>   0.0400 
 11 C       -2.4450     5.3270    -2.1420 C.ar  1 <1>  -0.1500 
 12 N        1.2010     3.2990    -0.2350 N.4   1 <1>  -0.9060 
 13 C        2.4840     2.6500    -0.0050 C.3   1 <1>   0.5030 
 14 C        3.4930     3.1220    -1.0500 C.3   1 <1>  -0.2400 
 15 C        2.9350     3.0760     1.3880 C.3   1 <1>  -0.2400 
 16 C        2.3070     1.1330    -0.0530 C.3   1 <1>  -0.2400 
 17 H       -1.6500     0.2900     0.9370 H     1 <1>   0.0800 
 18 H       -2.9160     0.9950    -0.0650 H     1 <1>   0.0800 
 19 H       -2.7330     1.4910     1.6210 H     1 <1>   0.0800 
 20 H       -4.2890     5.3950    -1.1200 H     1 <1>   0.1500 
 21 H       -0.5240     5.0870    -3.0110 H     1 <1>   0.1500 
 22 H        1.0650     3.4860    -2.3360 H     1 <1>   0.0800 
 23 H        0.3930     1.9970    -1.6880 H     1 <1>   0.0800 
 24 H       -5.5710     3.5980     1.7390 H     1 <1>   0.0800 
 25 H       -5.7140     3.9560     0.0230 H     1 <1>   0.0800 
 26 H       -4.9470     5.1210     1.1200 H     1 <1>   0.0800 
 27 H       -2.7210     6.1290    -2.8070 H     1 <1>   0.1500 
 28 H        0.5300     2.9660     0.4750 H     1 <1>   0.4500 
 29 H        1.2820     4.3060    -0.0900 H     1 <1>   0.4500 
 30 H        3.5840     4.1930    -1.0430 H     1 <1>   0.0800 
 31 H        3.2240     2.7930    -2.0370 H     1 <1>   0.0800 
 32 H        4.4620     2.7090    -0.8290 H     1 <1>   0.0800 
 33 H        2.2290     2.7610     2.1370 H     1 <1>   0.0800 
 34 H        3.0600     4.1430     1.4470 H     1 <1>   0.0800 
 35 H        3.8820     2.6230     1.6220 H     1 <1>   0.0800 
 36 H        1.5490     0.8110     0.6400 H     1 <1>   0.0800 
 37 H        3.2290     0.6510     0.2230 H     1 <1>   0.0800 
 38 H        2.0530     0.7920    -1.0400 H     1 <1>   0.0800 
@<TRIPOS>BOND
  1   1   2  1   
  2   1   3  1   
  3   2   4  ar  
  4   2   5  ar  
  5   3  17  1   
  6   3  18  1   
  7   3  19  1   
  8   4   6  1   
  9   4   7  ar  
 10   5   8  ar  
 11   5   9  1   
 12   6  10  1   
 13   7  11  ar  
 14   7  20  1   
 15   8  11  ar  
 16   8  21  1   
 17   9  12  1   
 18   9  22  1   
 19   9  23  1   
 20  10  24  1   
 21  10  25  1   
 22  10  26  1   
 23  11  27  1   
 24  12  13  1   
 25  12  28  1   
 26  12  29  1   
 27  13  14  1   
 28  13  15  1   
 29  13  16  1   
 30  14  30  1   
 31  14  31  1   
 32  14  32  1   
 33  15  33  1   
 34  15  34  1   
 35  15  35  1   
 36  16  36  1   
 37  16  37  1   
 38  16  38  1   
@<TRIPOS>SUBSTRUCTURE
  1 ****   2 GROUP 4 **** **** 0

# MOE 2024.06 (io_trps.svl 2023.06)
