@<TRIPOS>MOLECULE
NONAME
55 57 1 0 0 
SMALL
USER_CHARGES


@<TRIPOS>ATOM
  1 S        0.1370    -0.3220     2.1800 S.o2  1 <1>   1.4470 
  2 O        0.9640    -1.4050     2.6710 O.2   1 <1>  -0.6500 
  3 O       -0.6040     0.4820     3.1260 O.2   1 <1>  -0.6500 
  4 N        1.1660     0.7180     1.3220 N.am  1 <1>  -0.8490 
  5 C       -0.9970    -0.9390     0.9050 C.ar  1 <1>  -0.0090 
  6 C        2.0760    -0.0150     0.4360 C.3   1 <1>   0.1960 
  7 C        1.8960     1.6110     2.2260 C.3   1 <1>   0.1960 
  8 C       -1.3080    -2.2900     0.8150 C.ar  1 <1>  -0.1500 
  9 C       -1.5850    -0.0740    -0.0080 C.ar  1 <1>  -0.1500 
 10 C        2.8740     0.9620    -0.4290 C.3   1 <1>  -0.1600 
 11 C        2.7020     2.6380     1.4260 C.3   1 <1>  -0.1600 
 12 C       -2.1720    -2.7880    -0.1580 C.ar  1 <1>   0.0830 
 13 C       -2.4480    -0.5450    -0.9790 C.ar  1 <1>  -0.1500 
 14 C        3.6630     1.9560     0.4390 C.3   1 <1>  -0.0190 
 15 O       -2.4380    -4.1250    -0.2420 O.3   1 <1>  -0.3630 
 16 C       -2.7580    -1.8910    -1.0680 C.ar  1 <1>   0.0830 
 17 C        4.4130     2.9820    -0.4090 C.2   1 <1>   0.5690 
 18 C       -1.8470    -5.0750     0.6200 C.3   1 <1>   0.0400 
 19 O       -3.6290    -2.2010    -2.0700 O.3   1 <1>  -0.3620 
 20 O        3.8090     3.6380    -1.2230 O.2   1 <1>  -0.5700 
 21 N        5.7480     3.1290    -0.2170 N.am  1 <1>  -0.7300 
 22 C       -4.3990    -3.3820    -2.0720 C.3   1 <1>   0.0400 
 23 C        6.6120     4.0730    -0.9460 C.3   1 <1>   0.2200 
 24 C        7.7560     3.2960    -1.5850 C.3   1 <1>  -0.1600 
 25 C        7.3180     4.9700     0.0630 C.3   1 <1>  -0.1600 
 26 C        8.7910     3.0830    -0.4740 C.3   1 <1>  -0.1600 
 27 C        8.5110     4.1600     0.5830 C.3   1 <1>  -0.1600 
 28 H        1.5100    -0.6670    -0.2090 H     1 <1>   0.0800 
 29 H        2.7500    -0.6220     1.0200 H     1 <1>   0.0800 
 30 H        2.5490     1.0340     2.8610 H     1 <1>   0.0800 
 31 H        1.1990     2.1410     2.8560 H     1 <1>   0.0800 
 32 H       -0.8480    -2.9450     1.5310 H     1 <1>   0.1500 
 33 H       -1.3620     0.9790     0.0420 H     1 <1>   0.1500 
 34 H        2.1920     1.4940    -1.0700 H     1 <1>   0.0800 
 35 H        3.5520     0.4130    -1.0580 H     1 <1>   0.0800 
 36 H        3.2580     3.2620     2.1030 H     1 <1>   0.0800 
 37 H        2.0170     3.2710     0.8870 H     1 <1>   0.0800 
 38 H       -2.8940     0.1390    -1.6800 H     1 <1>   0.1500 
 39 H        4.3850     1.3990     1.0070 H     1 <1>   0.0800 
 40 H       -2.2060    -6.0480     0.3390 H     1 <1>   0.0800 
 41 H       -2.1380    -4.8580     1.6330 H     1 <1>   0.0800 
 42 H       -0.7780    -5.0350     0.5070 H     1 <1>   0.0800 
 43 H        6.2400     2.5720     0.4790 H     1 <1>   0.3700 
 44 H       -5.1720    -3.2770    -2.8100 H     1 <1>   0.0800 
 45 H       -4.8350    -3.5180    -1.0980 H     1 <1>   0.0800 
 46 H       -3.7630    -4.2110    -2.3270 H     1 <1>   0.0800 
 47 H        6.0440     4.6360    -1.6690 H     1 <1>   0.0800 
 48 H        8.1920     3.9100    -2.3540 H     1 <1>   0.0800 
 49 H        7.4240     2.3750    -2.0310 H     1 <1>   0.0800 
 50 H        6.6590     5.2980     0.8480 H     1 <1>   0.0800 
 51 H        7.6860     5.8370    -0.4570 H     1 <1>   0.0800 
 52 H        9.7920     3.1660    -0.8630 H     1 <1>   0.0800 
 53 H        8.6680     2.1060    -0.0400 H     1 <1>   0.0800 
 54 H        8.2570     3.6920     1.5190 H     1 <1>   0.0800 
 55 H        9.3670     4.7940     0.7350 H     1 <1>   0.0800 
@<TRIPOS>BOND
  1   1   2  2   
  2   1   3  2   
  3   1   4  am  
  4   1   5  1   
  5   4   6  1   
  6   4   7  1   
  7   5   8  ar  
  8   5   9  ar  
  9   6  10  1   
 10   6  28  1   
 11   6  29  1   
 12   7  11  1   
 13   7  30  1   
 14   7  31  1   
 15   8  12  ar  
 16   8  32  1   
 17   9  13  ar  
 18   9  33  1   
 19  10  14  1   
 20  10  34  1   
 21  10  35  1   
 22  11  14  1   
 23  11  36  1   
 24  11  37  1   
 25  12  15  1   
 26  12  16  ar  
 27  13  16  ar  
 28  13  38  1   
 29  14  17  1   
 30  14  39  1   
 31  15  18  1   
 32  16  19  1   
 33  17  20  2   
 34  17  21  am  
 35  18  40  1   
 36  18  41  1   
 37  18  42  1   
 38  19  22  1   
 39  21  23  1   
 40  21  43  1   
 41  22  44  1   
 42  22  45  1   
 43  22  46  1   
 44  23  24  1   
 45  23  25  1   
 46  23  47  1   
 47  24  26  1   
 48  24  48  1   
 49  24  49  1   
 50  25  27  1   
 51  25  50  1   
 52  25  51  1   
 53  26  27  1   
 54  26  52  1   
 55  26  53  1   
 56  27  54  1   
 57  27  55  1   
@<TRIPOS>SUBSTRUCTURE
  1 ****   6 GROUP 4 **** **** 0

# MOE 2024.06 (io_trps.svl 2023.06)
