@<TRIPOS>MOLECULE
NONAME
43 44 1 0 0 
SMALL
USER_CHARGES


@<TRIPOS>ATOM
  1 BR       1.1460     0.6950    -2.7460 Br    1 <1>  -0.1110 
  2 C        2.3480     0.2000    -1.3210 C.ar  1 <1>   0.1110 
  3 C        2.4690    -1.1290    -0.9490 C.ar  1 <1>  -0.1440 
  4 C        3.0640     1.2110    -0.7100 C.ar  1 <1>  -0.1500 
  5 C        3.3490    -1.4260     0.0780 C.ar  1 <1>  -0.1500 
  6 C        1.6740    -2.2300    -1.6340 C.3   1 <1>  -0.0960 
  7 C        3.9460     0.9190     0.3240 C.ar  1 <1>  -0.0090 
  8 C        4.0720    -0.4170     0.7040 C.ar  1 <1>   0.0830 
  9 S        4.9000     2.2440     1.1120 S.o2  1 <1>   1.4470 
 10 O        4.9330    -0.7650     1.6820 O.3   1 <1>  -0.3630 
 11 O        5.1890     1.9950     2.5070 O.2   1 <1>  -0.6500 
 12 O        4.3140     3.5160     0.7550 O.2   1 <1>  -0.6500 
 13 N        6.4120     2.2330     0.3330 N.am  1 <1>  -0.8490 
 14 C        4.3640    -1.1310     2.9220 C.3   1 <1>   0.0400 
 15 C        7.1750     3.4500     0.6870 C.3   1 <1>   0.1960 
 16 C        7.2050     1.0200     0.6470 C.3   1 <1>   0.1960 
 17 C        8.5400     3.5350    -0.0390 C.3   1 <1>   0.3430 
 18 C        8.6530     1.0750     0.0980 C.3   1 <1>   0.3430 
 19 N        8.8700     2.2720    -0.7880 N.4   1 <1>  -0.9590 
 20 C       10.2070     2.3280    -1.4320 C.3   1 <1>   0.3430 
 21 C       10.3240     1.2170    -2.4690 C.3   1 <1>  -0.2400 
 22 H        2.9290     2.2270    -1.0420 H     1 <1>   0.1500 
 23 H        3.4850    -2.4450     0.3970 H     1 <1>   0.1500 
 24 H        1.9110    -2.2570    -2.6830 H     1 <1>   0.0800 
 25 H        0.6200    -2.0480    -1.5220 H     1 <1>   0.0800 
 26 H        1.8990    -3.1920    -1.2100 H     1 <1>   0.0800 
 27 H        5.1620    -1.3410     3.6110 H     1 <1>   0.0800 
 28 H        3.7530    -2.0070     2.7890 H     1 <1>   0.0800 
 29 H        3.7710    -0.3110     3.2890 H     1 <1>   0.0800 
 30 H        7.3370     3.4790     1.7520 H     1 <1>   0.0800 
 31 H        6.6050     4.3280     0.4300 H     1 <1>   0.0800 
 32 H        6.7230     0.1630     0.2110 H     1 <1>   0.0800 
 33 H        7.2460     0.8580     1.7120 H     1 <1>   0.0800 
 34 H        9.3060     3.7450     0.6880 H     1 <1>   0.0800 
 35 H        8.5110     4.3640    -0.7270 H     1 <1>   0.0800 
 36 H        8.8490     0.1660    -0.4460 H     1 <1>   0.0800 
 37 H        9.3390     1.1090     0.9290 H     1 <1>   0.0800 
 38 H        8.1440     2.2010    -1.5170 H     1 <1>   0.4500 
 39 H       10.9840     2.2290    -0.6910 H     1 <1>   0.0800 
 40 H       10.3300     3.2790    -1.9260 H     1 <1>   0.0800 
 41 H       10.3100     0.2450    -2.0110 H     1 <1>   0.0800 
 42 H       11.2620     1.3190    -2.9860 H     1 <1>   0.0800 
 43 H        9.5360     1.2890    -3.1980 H     1 <1>   0.0800 
@<TRIPOS>BOND
  1   1   2  1   
  2   2   3  ar  
  3   2   4  ar  
  4   3   5  ar  
  5   3   6  1   
  6   4   7  ar  
  7   4  22  1   
  8   5   8  ar  
  9   5  23  1   
 10   6  24  1   
 11   6  25  1   
 12   6  26  1   
 13   7   8  ar  
 14   7   9  1   
 15   8  10  1   
 16   9  11  2   
 17   9  12  2   
 18   9  13  am  
 19  10  14  1   
 20  13  15  1   
 21  13  16  1   
 22  14  27  1   
 23  14  28  1   
 24  14  29  1   
 25  15  17  1   
 26  15  30  1   
 27  15  31  1   
 28  16  18  1   
 29  16  32  1   
 30  16  33  1   
 31  17  19  1   
 32  17  34  1   
 33  17  35  1   
 34  18  19  1   
 35  18  36  1   
 36  18  37  1   
 37  19  20  1   
 38  19  38  1   
 39  20  21  1   
 40  20  39  1   
 41  20  40  1   
 42  21  41  1   
 43  21  42  1   
 44  21  43  1   
@<TRIPOS>SUBSTRUCTURE
  1 ****   7 GROUP 4 **** **** 0

# MOE 2024.06 (io_trps.svl 2023.06)
