@<TRIPOS>MOLECULE
NONAME
36 37 1 0 0 
SMALL
USER_CHARGES


@<TRIPOS>ATOM
  1 BR       3.6870    -0.9940     2.3560 Br    1 <1>  -0.1110 
  2 C        2.5250    -1.8320     1.0690 C.ar  1 <1>   0.1110 
  3 C        2.4940    -1.3500    -0.2370 C.ar  1 <1>   0.0860 
  4 C        1.7680    -2.9070     1.4950 C.ar  1 <1>  -0.1500 
  5 C        3.3040    -0.2310    -0.6570 C.2   1 <1>   0.5440 
  6 C        1.6430    -2.0050    -1.1270 C.ar  1 <1>  -0.1500 
  7 C        0.9380    -3.5390     0.5870 C.ar  1 <1>  -0.1500 
  8 O        2.8580     0.8950    -0.5780 O.2   1 <1>  -0.5700 
  9 N        4.5920    -0.3940    -1.1280 N.am  1 <1>  -0.6600 
 10 C        0.8780    -3.0860    -0.7220 C.ar  1 <1>  -0.1500 
 11 C        5.3930     0.7790    -1.5900 C.3   1 <1>   0.1400 
 12 C        5.4170    -1.6110    -0.8770 C.3   1 <1>   0.1400 
 13 C        6.4600     1.1160    -0.5360 C.3   1 <1>   0.3430 
 14 C        6.5310    -1.2940     0.1440 C.3   1 <1>   0.3430 
 15 N        7.3370    -0.0720    -0.2260 N.4   1 <1>  -0.9590 
 16 C        8.3310     0.2680     0.8140 C.3   1 <1>   0.4810 
 17 C        9.4230    -0.7730     0.7430 C.2   1 <1>  -0.2880 
 18 C       10.6320    -0.5860     0.2030 C.2   1 <1>  -0.3000 
 19 H        1.8230    -3.2420     2.5160 H     1 <1>   0.1500 
 20 H        1.5810    -1.6570    -2.1440 H     1 <1>   0.1500 
 21 H        0.3370    -4.3780     0.8960 H     1 <1>   0.1500 
 22 H        0.2260    -3.5770    -1.4260 H     1 <1>   0.1500 
 23 H        4.7620     1.6380    -1.7470 H     1 <1>   0.0800 
 24 H        5.8590     0.5490    -2.5320 H     1 <1>   0.0800 
 25 H        5.8540    -1.9410    -1.8040 H     1 <1>   0.0800 
 26 H        4.8100    -2.4170    -0.5030 H     1 <1>   0.0800 
 27 H        5.9530     1.4400     0.3590 H     1 <1>   0.0800 
 28 H        7.0610     1.9360    -0.8930 H     1 <1>   0.0800 
 29 H        7.1800    -2.1500     0.2280 H     1 <1>   0.0800 
 30 H        6.0700    -1.1390     1.1060 H     1 <1>   0.0800 
 31 H        7.8820    -0.3000    -1.0680 H     1 <1>   0.4500 
 32 H        7.8790     0.2910     1.7940 H     1 <1>   0.0800 
 33 H        8.7570     1.2370     0.6070 H     1 <1>   0.0800 
 34 H        9.1420    -1.7130     1.1900 H     1 <1>   0.1500 
 35 H       11.3980    -1.3450     0.1710 H     1 <1>   0.1500 
 36 H       10.9750     0.3310    -0.2500 H     1 <1>   0.1500 
@<TRIPOS>BOND
  1   1   2  1   
  2   2   3  ar  
  3   2   4  ar  
  4   3   5  1   
  5   3   6  ar  
  6   4   7  ar  
  7   4  19  1   
  8   5   8  2   
  9   5   9  am  
 10   6  10  ar  
 11   6  20  1   
 12   7  10  ar  
 13   7  21  1   
 14   9  11  1   
 15   9  12  1   
 16  10  22  1   
 17  11  13  1   
 18  11  23  1   
 19  11  24  1   
 20  12  14  1   
 21  12  25  1   
 22  12  26  1   
 23  13  15  1   
 24  13  27  1   
 25  13  28  1   
 26  14  15  1   
 27  14  29  1   
 28  14  30  1   
 29  15  16  1   
 30  15  31  1   
 31  16  17  1   
 32  16  32  1   
 33  16  33  1   
 34  17  18  2   
 35  17  34  1   
 36  18  35  1   
 37  18  36  1   
@<TRIPOS>SUBSTRUCTURE
  1 ****   9 GROUP 4 **** **** 0

# MOE 2024.06 (io_trps.svl 2023.06)
