@<TRIPOS>MOLECULE
NONAME
31 31 1 0 0 
SMALL
USER_CHARGES


@<TRIPOS>ATOM
  1 BR      -1.8700     0.4610     3.6000 Br    1 <1>  -0.0580 
  2 C       -2.5870     0.2000     1.8380 C.2   1 <1>   0.0980 
  3 S       -4.0900    -0.6870     1.7470 S.3   1 <1>  -0.0800 
  4 C       -2.1310     0.5860     0.6350 C.2   1 <1>  -0.1500 
  5 C       -4.0880    -0.5140    -0.0090 C.2   1 <1>  -0.1400 
  6 C       -3.0000     0.1710    -0.4260 C.2   1 <1>  -0.1500 
  7 C       -5.2540    -1.1300    -0.7530 C.3   1 <1>   0.5230 
  8 N       -6.5100    -0.5080    -0.2520 N.4   1 <1>  -0.9590 
  9 C       -7.7050    -1.2940    -0.7040 C.3   1 <1>   0.3430 
 10 C       -6.5760     0.9340    -0.6370 C.3   1 <1>   0.3430 
 11 C       -8.6260    -1.6680     0.4660 C.3   1 <1>   0.1200 
 12 C       -7.6740     1.6580     0.1440 C.3   1 <1>  -0.1600 
 13 O       -9.6690    -2.4150    -0.0500 O.3   1 <1>  -0.6800 
 14 C       -7.6310     3.1660    -0.1270 C.3   1 <1>  -0.2400 
 15 H       -1.2250     1.1400     0.4550 H     1 <1>   0.1500 
 16 H       -2.7500     0.4130    -1.4470 H     1 <1>   0.1500 
 17 H       -5.2660    -2.1920    -0.5670 H     1 <1>   0.0800 
 18 H       -5.1490    -0.9660    -1.8130 H     1 <1>   0.0800 
 19 H       -6.4380    -0.5480     0.7730 H     1 <1>   0.4500 
 20 H       -7.3860    -2.2080    -1.1770 H     1 <1>   0.0800 
 21 H       -8.2700    -0.7240    -1.4230 H     1 <1>   0.0800 
 22 H       -6.7560     1.0310    -1.6960 H     1 <1>   0.0800 
 23 H       -5.6340     1.4100    -0.4140 H     1 <1>   0.0800 
 24 H       -9.0430    -0.7950     0.9360 H     1 <1>   0.0800 
 25 H       -8.1090    -2.2750     1.1890 H     1 <1>   0.0800 
 26 H       -7.5390     1.4980     1.2000 H     1 <1>   0.0800 
 27 H       -8.6430     1.2920    -0.1470 H     1 <1>   0.0800 
 28 H      -10.3040    -2.6860     0.6480 H     1 <1>   0.4000 
 29 H       -6.6850     3.5830     0.1740 H     1 <1>   0.0800 
 30 H       -8.4080     3.6620     0.4290 H     1 <1>   0.0800 
 31 H       -7.7830     3.3730    -1.1730 H     1 <1>   0.0800 
@<TRIPOS>BOND
  1   1   2  1   
  2   2   3  1   
  3   2   4  2   
  4   3   5  1   
  5   4   6  1   
  6   4  15  1   
  7   5   6  2   
  8   5   7  1   
  9   6  16  1   
 10   7   8  1   
 11   7  17  1   
 12   7  18  1   
 13   8   9  1   
 14   8  10  1   
 15   8  19  1   
 16   9  11  1   
 17   9  20  1   
 18   9  21  1   
 19  10  12  1   
 20  10  22  1   
 21  10  23  1   
 22  11  13  1   
 23  11  24  1   
 24  11  25  1   
 25  12  14  1   
 26  12  26  1   
 27  12  27  1   
 28  13  28  1   
 29  14  29  1   
 30  14  30  1   
 31  14  31  1   
@<TRIPOS>SUBSTRUCTURE
  1 ****   8 GROUP 4 **** **** 0

# MOE 2024.06 (io_trps.svl 2023.06)
