@<TRIPOS>MOLECULE
NONAME
44 45 1 0 0 
SMALL
USER_CHARGES


@<TRIPOS>ATOM
  1 F        6.0810    -3.4750    -0.2590 F     1 <1>  -0.1900 
  2 C        4.7850    -3.5130    -0.3960 C.ar  1 <1>   0.1900 
  3 C        4.1070    -4.6620    -0.0390 C.ar  1 <1>  -0.1500 
  4 C        4.1310    -2.4050    -0.8970 C.ar  1 <1>  -0.1500 
  5 C        2.7310    -4.6960    -0.1870 C.ar  1 <1>  -0.1500 
  6 C        2.7550    -2.4560    -1.0370 C.ar  1 <1>  -0.1500 
  7 C        2.0220    -3.5940    -0.6820 C.ar  1 <1>   0.0860 
  8 C        0.5760    -3.6150    -0.8280 C.2   1 <1>   0.5440 
  9 O        0.0200    -2.9180    -1.6550 O.2   1 <1>  -0.5700 
 10 N       -0.2110    -4.3970    -0.0260 N.am  1 <1>  -0.7300 
 11 C       -1.6730    -4.4850    -0.1630 C.3   1 <1>   0.2200 
 12 C       -2.3200    -3.3810     0.6660 C.3   1 <1>  -0.1600 
 13 C       -2.1590    -5.8440     0.3260 C.3   1 <1>  -0.1600 
 14 C       -3.8500    -3.4240     0.5820 C.3   1 <1>   0.5030 
 15 C       -3.6870    -5.9680     0.2370 C.3   1 <1>   0.5030 
 16 N       -4.3590    -4.7880     0.8120 N.4   1 <1>  -0.9060 
 17 C       -4.4460    -2.5710     1.7000 C.3   1 <1>  -0.2400 
 18 C       -4.3700    -2.8860    -0.7540 C.3   1 <1>  -0.2400 
 19 C       -4.1650    -6.1930    -1.2000 C.3   1 <1>  -0.2400 
 20 C       -4.1520    -7.1540     1.0810 C.3   1 <1>  -0.2400 
 21 H        4.6530    -5.5080     0.3410 H     1 <1>   0.1500 
 22 H        4.6890    -1.5270    -1.1710 H     1 <1>   0.1500 
 23 H        2.2050    -5.5950     0.0760 H     1 <1>   0.1500 
 24 H        2.2310    -1.6010    -1.4310 H     1 <1>   0.1500 
 25 H        0.2170    -4.8720     0.7700 H     1 <1>   0.3700 
 26 H       -1.9220    -4.3600    -1.2040 H     1 <1>   0.0800 
 27 H       -1.9740    -2.4250     0.3110 H     1 <1>   0.0800 
 28 H       -2.0070    -3.4780     1.6910 H     1 <1>   0.0800 
 29 H       -1.8440    -5.9870     1.3440 H     1 <1>   0.0800 
 30 H       -1.7050    -6.6190    -0.2680 H     1 <1>   0.0800 
 31 H       -5.3370    -4.8090     0.5190 H     1 <1>   0.4500 
 32 H       -4.3620    -4.9230     1.8240 H     1 <1>   0.4500 
 33 H       -4.1340    -2.9190     2.6690 H     1 <1>   0.0800 
 34 H       -5.5210    -2.5640     1.6550 H     1 <1>   0.0800 
 35 H       -4.1100    -1.5530     1.6000 H     1 <1>   0.0800 
 36 H       -3.8900    -3.3420    -1.5970 H     1 <1>   0.0800 
 37 H       -4.1580    -1.8330    -0.8240 H     1 <1>   0.0800 
 38 H       -5.4350    -3.0100    -0.8400 H     1 <1>   0.0800 
 39 H       -3.7680    -5.4700    -1.8840 H     1 <1>   0.0800 
 40 H       -5.2390    -6.1860    -1.2610 H     1 <1>   0.0800 
 41 H       -3.8270    -7.1540    -1.5460 H     1 <1>   0.0800 
 42 H       -3.8670    -7.0390     2.1120 H     1 <1>   0.0800 
 43 H       -3.6970    -8.0600     0.7190 H     1 <1>   0.0800 
 44 H       -5.2190    -7.2800     1.0220 H     1 <1>   0.0800 
@<TRIPOS>BOND
  1   1   2  1   
  2   2   3  ar  
  3   2   4  ar  
  4   3   5  ar  
  5   3  21  1   
  6   4   6  ar  
  7   4  22  1   
  8   5   7  ar  
  9   5  23  1   
 10   6   7  ar  
 11   6  24  1   
 12   7   8  1   
 13   8   9  2   
 14   8  10  am  
 15  10  11  1   
 16  10  25  1   
 17  11  12  1   
 18  11  13  1   
 19  11  26  1   
 20  12  14  1   
 21  12  27  1   
 22  12  28  1   
 23  13  15  1   
 24  13  29  1   
 25  13  30  1   
 26  14  16  1   
 27  14  17  1   
 28  14  18  1   
 29  15  16  1   
 30  15  19  1   
 31  15  20  1   
 32  16  31  1   
 33  16  32  1   
 34  17  33  1   
 35  17  34  1   
 36  17  35  1   
 37  18  36  1   
 38  18  37  1   
 39  18  38  1   
 40  19  39  1   
 41  19  40  1   
 42  19  41  1   
 43  20  42  1   
 44  20  43  1   
 45  20  44  1   
@<TRIPOS>SUBSTRUCTURE
  1 ****  10 GROUP 4 **** **** 0

# MOE 2024.06 (io_trps.svl 2023.06)
