@<TRIPOS>MOLECULE
NONAME
41 44 1 0 0 
SMALL
USER_CHARGES


@<TRIPOS>ATOM
  1 O       -0.1700    -0.7050     1.5980 O.2   1 <1>  -0.5700 
  2 C       -0.8170    -1.3750     0.8360 C.2   1 <1>   0.5690 
  3 N       -0.5410    -2.6430     0.3470 N.am  1 <1>  -0.2370 
  4 C       -2.1070    -0.9460     0.2160 C.3   1 <1>  -0.0190 
  5 C        0.7160    -3.2890     0.3920 C.ar  1 <1>   0.1170 
  6 C       -1.6990    -3.1500    -0.2280 C.2   1 <1>   0.5690 
  7 C       -3.2800     0.0170     0.3510 C.3   1 <1>   0.4180 
  8 C       -2.8350    -2.2830     0.2230 C.3   1 <1>  -0.0190 
  9 C        1.8930    -2.5680     0.2200 C.ar  1 <1>  -0.1500 
 10 C        0.8060    -4.6620     0.6090 C.ar  1 <1>  -0.1500 
 11 O       -1.8260    -4.1260    -0.9210 O.2   1 <1>  -0.5700 
 12 O       -4.0070    -0.5410    -0.6980 O.3   1 <1>  -0.5600 
 13 C       -4.2680    -0.2970     1.4600 C.2   1 <1>  -0.2880 
 14 C       -3.0270     1.4930     0.0800 C.3   1 <1>  -0.2400 
 15 C       -4.2400    -1.8230    -0.2120 C.3   1 <1>   0.4180 
 16 C        3.1280    -3.2000     0.2570 C.ar  1 <1>   0.0820 
 17 C        2.0350    -5.2960     0.6570 C.ar  1 <1>  -0.1500 
 18 C       -4.9070    -1.4020     1.0810 C.2   1 <1>  -0.2880 
 19 C       -5.0460    -2.6580    -1.1930 C.3   1 <1>  -0.2400 
 20 O        4.3010    -2.5320     0.0990 O.3   1 <1>  -0.2320 
 21 C        3.1960    -4.5660     0.4830 C.ar  1 <1>  -0.1500 
 22 C        4.5330    -1.4810    -0.6850 C.2   1 <1>   0.6590 
 23 O        3.7260    -1.0160    -1.4470 O.2   1 <1>  -0.5700 
 24 C        5.9150    -0.8870    -0.5680 C.3   1 <1>  -0.1790 
 25 H       -1.7670    -0.7340    -0.7890 H     1 <1>   0.0800 
 26 H       -2.9610    -2.6330     1.2350 H     1 <1>   0.0800 
 27 H        1.8420    -1.5060     0.0630 H     1 <1>   0.1500 
 28 H       -0.0890    -5.2440     0.7400 H     1 <1>   0.1500 
 29 H       -4.3540     0.3350     2.3260 H     1 <1>   0.1500 
 30 H       -3.9630     2.0200     0.0310 H     1 <1>   0.0800 
 31 H       -2.4970     1.6210    -0.8460 H     1 <1>   0.0800 
 32 H       -2.4380     1.9090     0.8770 H     1 <1>   0.0800 
 33 H        2.0860    -6.3580     0.8270 H     1 <1>   0.1500 
 34 H       -5.6960    -1.9820     1.5250 H     1 <1>   0.1500 
 35 H       -4.4850    -2.7970    -2.1000 H     1 <1>   0.0800 
 36 H       -5.9750    -2.1650    -1.4150 H     1 <1>   0.0800 
 37 H       -5.2550    -3.6210    -0.7670 H     1 <1>   0.0800 
 38 H        4.1540    -5.0530     0.5190 H     1 <1>   0.1500 
 39 H        6.0800    -0.5580     0.4410 H     1 <1>   0.0800 
 40 H        6.0080    -0.0490    -1.2330 H     1 <1>   0.0800 
 41 H        6.6480    -1.6270    -0.8270 H     1 <1>   0.0800 
@<TRIPOS>BOND
  1   1   2  2   
  2   2   3  am  
  3   2   4  1   
  4   3   5  1   
  5   3   6  am  
  6   4   7  1   
  7   4   8  1   
  8   4  25  1   
  9   5   9  ar  
 10   5  10  ar  
 11   6   8  1   
 12   6  11  2   
 13   7  12  1   
 14   7  13  1   
 15   7  14  1   
 16   8  15  1   
 17   8  26  1   
 18   9  16  ar  
 19   9  27  1   
 20  10  17  ar  
 21  10  28  1   
 22  12  15  1   
 23  13  18  2   
 24  13  29  1   
 25  14  30  1   
 26  14  31  1   
 27  14  32  1   
 28  15  18  1   
 29  15  19  1   
 30  16  20  1   
 31  16  21  ar  
 32  17  21  ar  
 33  17  33  1   
 34  18  34  1   
 35  19  35  1   
 36  19  36  1   
 37  19  37  1   
 38  20  22  1   
 39  21  38  1   
 40  22  23  2   
 41  22  24  1   
 42  24  39  1   
 43  24  40  1   
 44  24  41  1   
@<TRIPOS>SUBSTRUCTURE
  1 ****   3 GROUP 4 **** **** 0

# MOE 2024.06 (io_trps.svl 2023.06)
