@<TRIPOS>MOLECULE
NONAME
43 44 1 0 0 
SMALL
USER_CHARGES


@<TRIPOS>ATOM
  1 S        2.4240    -1.7060    -2.2350 S.3   1 <1>  -0.3710 
  2 C        1.1460    -2.7320    -1.5370 C.2   1 <1>   0.6510 
  3 C        3.9400    -2.2930    -1.3310 C.3   1 <1>   0.0700 
  4 N        1.4760    -3.4800    -0.5690 N.2   1 <1>  -0.6210 
  5 N       -0.0900    -2.6270    -2.0580 N.am  1 <1>  -0.4900 
  6 C        3.8400    -1.9060     0.1580 C.3   1 <1>   0.3430 
  7 C        0.5080    -4.2150     0.0440 C.2   1 <1>   0.0210 
  8 C       -1.1000    -3.3740    -1.5260 C.2   1 <1>   0.6160 
  9 N        4.6210    -2.8190     1.0610 N.4   1 <1>  -0.9590 
 10 O        0.9160    -4.8320     1.0280 O.3   1 <1>  -0.8500 
 11 C       -0.8270    -4.2180    -0.4260 C.2   1 <1>  -0.0140 
 12 O       -2.1940    -3.2170    -2.0780 O.2   1 <1>  -0.5700 
 13 C        3.7550    -3.9710     1.4800 C.3   1 <1>   0.3430 
 14 C        5.0900    -2.0760     2.2520 C.3   1 <1>   0.3430 
 15 C       -1.8630    -5.0150     0.1790 C.ar  1 <1>   0.0280 
 16 C        4.2040    -5.2360     0.7630 C.3   1 <1>  -0.2400 
 17 C        6.2140    -2.8540     2.9260 C.3   1 <1>  -0.2400 
 18 C       -2.7970    -5.7250    -0.5840 C.ar  1 <1>  -0.1500 
 19 C       -1.9910    -5.1120     1.5680 C.ar  1 <1>  -0.1500 
 20 C       -3.8050    -6.4690     0.0010 C.ar  1 <1>  -0.1500 
 21 C       -2.9940    -5.8530     2.1630 C.ar  1 <1>  -0.1500 
 22 C       -3.9090    -6.5340     1.3800 C.ar  1 <1>  -0.1500 
 23 H        4.7890    -1.8340    -1.8020 H     1 <1>   0.0800 
 24 H        3.9660    -3.3570    -1.4700 H     1 <1>   0.0800 
 25 H       -0.3060    -2.0190    -2.8360 H     1 <1>   0.3700 
 26 H        2.8070    -1.9160     0.4660 H     1 <1>   0.0800 
 27 H        4.1950    -0.8950     0.2610 H     1 <1>   0.0800 
 28 H        5.4230    -3.2060     0.5570 H     1 <1>   0.4500 
 29 H        2.7220    -3.7610     1.2790 H     1 <1>   0.0800 
 30 H        3.8350    -4.1340     2.5420 H     1 <1>   0.0800 
 31 H        4.2720    -1.9260     2.9390 H     1 <1>   0.0800 
 32 H        5.4650    -1.1100     1.9540 H     1 <1>   0.0800 
 33 H        4.0320    -5.1610    -0.2930 H     1 <1>   0.0800 
 34 H        3.5930    -6.0480     1.1170 H     1 <1>   0.0800 
 35 H        5.2330    -5.4640     0.9690 H     1 <1>   0.0800 
 36 H        5.8690    -3.8050     3.2900 H     1 <1>   0.0800 
 37 H        6.5760    -2.2910     3.7680 H     1 <1>   0.0800 
 38 H        7.0340    -3.0040     2.2470 H     1 <1>   0.0800 
 39 H       -2.7270    -5.6880    -1.6550 H     1 <1>   0.1500 
 40 H       -1.2710    -4.5960     2.1790 H     1 <1>   0.1500 
 41 H       -4.5080    -6.9980    -0.6170 H     1 <1>   0.1500 
 42 H       -3.0540    -5.9030     3.2350 H     1 <1>   0.1500 
 43 H       -4.6910    -7.1120     1.8390 H     1 <1>   0.1500 
@<TRIPOS>BOND
  1   1   2  1   
  2   1   3  1   
  3   2   4  2   
  4   2   5  1   
  5   3   6  1   
  6   3  23  1   
  7   3  24  1   
  8   4   7  1   
  9   5   8  am  
 10   5  25  1   
 11   6   9  1   
 12   6  26  1   
 13   6  27  1   
 14   7  10  1   
 15   7  11  2   
 16   8  11  1   
 17   8  12  2   
 18   9  13  1   
 19   9  14  1   
 20   9  28  1   
 21  11  15  1   
 22  13  16  1   
 23  13  29  1   
 24  13  30  1   
 25  14  17  1   
 26  14  31  1   
 27  14  32  1   
 28  15  18  ar  
 29  15  19  ar  
 30  16  33  1   
 31  16  34  1   
 32  16  35  1   
 33  17  36  1   
 34  17  37  1   
 35  17  38  1   
 36  18  20  ar  
 37  18  39  1   
 38  19  21  ar  
 39  19  40  1   
 40  20  22  ar  
 41  20  41  1   
 42  21  22  ar  
 43  21  42  1   
 44  22  43  1   
@<TRIPOS>SUBSTRUCTURE
  1 ****   7 GROUP 4 **** **** 0

# MOE 2024.06 (io_trps.svl 2023.06)
