@<TRIPOS>MOLECULE
NONAME
39 41 1 0 0 
SMALL
USER_CHARGES


@<TRIPOS>ATOM
  1 O        0.0440    -1.0920    -2.2050 O.2   1 <1>  -0.5700 
  2 C        0.0890    -2.0850    -1.5450 C.2   1 <1>   0.4480 
  3 C        1.4170    -2.6780    -1.0990 C.3   1 <1>  -0.0190 
  4 C       -1.1840    -2.7930    -1.1320 C.3   1 <1>  -0.0990 
  5 C        1.1830    -4.1920    -0.9270 C.3   1 <1>   0.3700 
  6 C        1.9660    -1.8990     0.1280 C.3   1 <1>  -0.1600 
  7 C       -0.9690    -3.5370     0.1840 C.3   1 <1>   0.3700 
  8 N        0.1720    -4.4670     0.1060 N.3   1 <1>  -0.9000 
  9 C        2.4470    -4.9950    -0.6500 C.2   1 <1>  -0.0400 
 10 C        3.4450    -2.1620     0.4490 C.3   1 <1>  -0.1600 
 11 C       -2.2270    -4.2910     0.5880 C.2   1 <1>  -0.0400 
 12 O        3.4670    -4.8720    -1.4820 O.3   1 <1>  -0.2800 
 13 C        2.7520    -5.8740     0.3330 C.2   1 <1>  -0.1500 
 14 C        3.9580    -1.1860     1.5110 C.3   1 <1>  -0.2400 
 15 O       -3.3090    -3.5980     0.8940 O.3   1 <1>  -0.2800 
 16 C       -2.4710    -5.6150     0.7060 C.2   1 <1>  -0.1500 
 17 C        4.4360    -5.6540    -1.0490 C.2   1 <1>  -0.0100 
 18 C        4.0590    -6.3030     0.0720 C.2   1 <1>  -0.1500 
 19 C       -4.2580    -4.4570     1.2090 C.2   1 <1>  -0.0100 
 20 C       -3.8060    -5.7240     1.1130 C.2   1 <1>  -0.1500 
 21 H        2.1070    -2.5410    -1.9130 H     1 <1>   0.0800 
 22 H       -1.4830    -3.4850    -1.8980 H     1 <1>   0.0800 
 23 H       -1.9700    -2.0690    -1.0130 H     1 <1>   0.0800 
 24 H        0.7980    -4.5640    -1.8630 H     1 <1>   0.0800 
 25 H        1.3760    -2.1020     1.0030 H     1 <1>   0.0800 
 26 H        1.8620    -0.8480    -0.0860 H     1 <1>   0.0800 
 27 H       -0.7670    -2.8100     0.9530 H     1 <1>   0.0800 
 28 H        0.6430    -4.4630     1.0160 H     1 <1>   0.3600 
 29 H        4.0380    -2.0550    -0.4440 H     1 <1>   0.0800 
 30 H        3.5770    -3.1620     0.8200 H     1 <1>   0.0800 
 31 H        2.1430    -6.2040     1.1550 H     1 <1>   0.1500 
 32 H        3.8790    -0.1710     1.1600 H     1 <1>   0.0800 
 33 H        4.9910    -1.3910     1.7290 H     1 <1>   0.0800 
 34 H        3.3910    -1.2840     2.4200 H     1 <1>   0.0800 
 35 H       -1.7960    -6.4340     0.5270 H     1 <1>   0.1500 
 36 H        5.3600    -5.6880    -1.6000 H     1 <1>   0.1500 
 37 H        4.6170    -7.0070     0.6630 H     1 <1>   0.1500 
 38 H       -5.2270    -4.0810     1.4890 H     1 <1>   0.1500 
 39 H       -4.3280    -6.6450     1.3010 H     1 <1>   0.1500 
@<TRIPOS>BOND
  1   1   2  2   
  2   2   3  1   
  3   2   4  1   
  4   3   5  1   
  5   3   6  1   
  6   3  21  1   
  7   4   7  1   
  8   4  22  1   
  9   4  23  1   
 10   5   8  1   
 11   5   9  1   
 12   5  24  1   
 13   6  10  1   
 14   6  25  1   
 15   6  26  1   
 16   7   8  1   
 17   7  11  1   
 18   7  27  1   
 19   8  28  1   
 20   9  12  1   
 21   9  13  2   
 22  10  14  1   
 23  10  29  1   
 24  10  30  1   
 25  11  15  1   
 26  11  16  2   
 27  12  17  1   
 28  13  18  1   
 29  13  31  1   
 30  14  32  1   
 31  14  33  1   
 32  14  34  1   
 33  15  19  1   
 34  16  20  1   
 35  16  35  1   
 36  17  18  2   
 37  17  36  1   
 38  18  37  1   
 39  19  20  2   
 40  19  38  1   
 41  20  39  1   
@<TRIPOS>SUBSTRUCTURE
  1 ****   8 GROUP 4 **** **** 0

# MOE 2024.06 (io_trps.svl 2023.06)
