@<TRIPOS>MOLECULE
NONAME
49 51 1 0 0 
SMALL
USER_CHARGES


@<TRIPOS>ATOM
  1 O       -0.3230     0.8190     2.1470 O.2   1 <1>  -0.5700 
  2 C       -0.7400     1.6060     1.3330 C.2   1 <1>   0.5690 
  3 N        0.0030     2.4290     0.5600 N.am  1 <1>  -0.6600 
  4 C       -2.2040     1.7810     1.0490 C.3   1 <1>  -0.0990 
  5 C        1.4770     2.5560     0.6380 C.3   1 <1>   0.2200 
  6 C       -0.8400     3.2680    -0.3180 C.3   1 <1>   0.1400 
  7 C       -2.2110     2.5700    -0.2740 C.3   1 <1>  -0.0190 
  8 C        1.8810     3.9980     0.9750 C.3   1 <1>  -0.1600 
  9 C        2.1220     2.0880    -0.6720 C.3   1 <1>  -0.1600 
 10 C       -3.4080     3.5080    -0.4180 C.2   1 <1>   0.5690 
 11 C        3.4090     4.1390     1.0380 C.3   1 <1>  -0.1600 
 12 C        3.6510     2.2280    -0.6130 C.3   1 <1>  -0.1600 
 13 O       -3.2090     4.6960    -0.3040 O.2   1 <1>  -0.5700 
 14 N       -4.6680     3.0170    -0.6650 N.am  1 <1>  -0.6600 
 15 C        4.0640     3.6660    -0.2670 C.3   1 <1>  -0.1600 
 16 C       -5.8510     3.9280    -0.7140 C.3   1 <1>   0.1400 
 17 C       -5.0320     1.5840    -0.8540 C.3   1 <1>   0.1400 
 18 C       -6.8570     3.5410     0.3820 C.3   1 <1>  -0.0800 
 19 C       -6.0070     1.1590     0.2480 C.3   1 <1>  -0.1600 
 20 C       -7.2520     2.0580     0.2720 C.3   1 <1>  -0.1600 
 21 C       -8.1050     4.4310     0.3140 C.3   1 <1>  -0.2400 
 22 H       -2.6440     2.3530     1.8450 H     1 <1>   0.0800 
 23 H       -2.6910     0.8280     0.9630 H     1 <1>   0.0800 
 24 H        1.8310     1.9170     1.4310 H     1 <1>   0.0800 
 25 H       -0.4540     3.3050    -1.3210 H     1 <1>   0.0800 
 26 H       -0.8830     4.2620     0.0930 H     1 <1>   0.0800 
 27 H       -2.2190     1.8780    -1.0950 H     1 <1>   0.0800 
 28 H        1.4570     4.2720     1.9250 H     1 <1>   0.0800 
 29 H        1.5040     4.6690     0.2240 H     1 <1>   0.0800 
 30 H        1.7530     2.6760    -1.4920 H     1 <1>   0.0800 
 31 H        1.8650     1.0570    -0.8440 H     1 <1>   0.0800 
 32 H        3.7860     3.5530     1.8590 H     1 <1>   0.0800 
 33 H        3.6690     5.1680     1.2210 H     1 <1>   0.0800 
 34 H        4.0760     1.9470    -1.5610 H     1 <1>   0.0800 
 35 H        4.0400     1.5570     0.1350 H     1 <1>   0.0800 
 36 H        5.1350     3.7200    -0.1730 H     1 <1>   0.0800 
 37 H        3.7710     4.3220    -1.0700 H     1 <1>   0.0800 
 38 H       -6.3130     3.8470    -1.6820 H     1 <1>   0.0800 
 39 H       -5.5510     4.9530    -0.5770 H     1 <1>   0.0800 
 40 H       -4.1690     0.9460    -0.8350 H     1 <1>   0.0800 
 41 H       -5.5030     1.4700    -1.8160 H     1 <1>   0.0800 
 42 H       -6.3820     3.7040     1.3350 H     1 <1>   0.0800 
 43 H       -5.5060     1.2070     1.1990 H     1 <1>   0.0800 
 44 H       -6.3050     0.1380     0.0860 H     1 <1>   0.0800 
 45 H       -7.8170     1.9030    -0.6310 H     1 <1>   0.0800 
 46 H       -7.8770     1.7840     1.1050 H     1 <1>   0.0800 
 47 H       -8.6090     4.3100    -0.6290 H     1 <1>   0.0800 
 48 H       -7.8290     5.4650     0.4250 H     1 <1>   0.0800 
 49 H       -8.7880     4.1770     1.1050 H     1 <1>   0.0800 
@<TRIPOS>BOND
  1   1   2  2   
  2   2   3  am  
  3   2   4  1   
  4   3   5  1   
  5   3   6  1   
  6   4   7  1   
  7   4  22  1   
  8   4  23  1   
  9   5   8  1   
 10   5   9  1   
 11   5  24  1   
 12   6   7  1   
 13   6  25  1   
 14   6  26  1   
 15   7  10  1   
 16   7  27  1   
 17   8  11  1   
 18   8  28  1   
 19   8  29  1   
 20   9  12  1   
 21   9  30  1   
 22   9  31  1   
 23  10  13  2   
 24  10  14  am  
 25  11  15  1   
 26  11  32  1   
 27  11  33  1   
 28  12  15  1   
 29  12  34  1   
 30  12  35  1   
 31  14  16  1   
 32  14  17  1   
 33  15  36  1   
 34  15  37  1   
 35  16  18  1   
 36  16  38  1   
 37  16  39  1   
 38  17  19  1   
 39  17  40  1   
 40  17  41  1   
 41  18  20  1   
 42  18  21  1   
 43  18  42  1   
 44  19  20  1   
 45  19  43  1   
 46  19  44  1   
 47  20  45  1   
 48  20  46  1   
 49  21  47  1   
 50  21  48  1   
 51  21  49  1   
@<TRIPOS>SUBSTRUCTURE
  1 ****   7 GROUP 4 **** **** 0

# MOE 2024.06 (io_trps.svl 2023.06)
