@<TRIPOS>MOLECULE
NONAME
44 47 1 0 0 
SMALL
USER_CHARGES


@<TRIPOS>ATOM
  1 CL      -0.2730    -0.0620    -1.3520 Cl    1 <1>  -0.1770 
  2 C       -1.7820     0.7530    -1.0270 C.ar  1 <1>   0.1770 
  3 C       -1.8550     1.6580     0.0150 C.ar  1 <1>  -0.1500 
  4 C       -2.8840     0.4820    -1.8150 C.ar  1 <1>  -0.1500 
  5 C       -3.0540     2.3010     0.2690 C.ar  1 <1>  -0.1500 
  6 C       -4.0790     1.1310    -1.5540 C.ar  1 <1>  -0.1500 
  7 C       -4.1830     2.0490    -0.5090 C.ar  1 <1>   0.1170 
  8 N       -5.4060     2.7100    -0.2450 N.am  1 <1>  -0.2370 
  9 C       -6.6720     2.1540    -0.3620 C.2   1 <1>   0.5690 
 10 C       -5.5440     4.0220     0.1800 C.2   1 <1>   0.5690 
 11 O       -6.9670     0.9960    -0.5000 O.2   1 <1>  -0.5700 
 12 C       -7.6580     3.2840    -0.3430 C.3   1 <1>  -0.0190 
 13 O       -4.7180     4.8960     0.2020 O.2   1 <1>  -0.5700 
 14 C       -6.9490     4.1740     0.6710 C.3   1 <1>  -0.0190 
 15 C       -9.1330     3.5810     0.0070 C.3   1 <1>   0.4180 
 16 C       -8.0400     5.1920     0.9730 C.3   1 <1>   0.3380 
 17 O       -9.0130     4.2300     1.2490 O.3   1 <1>  -0.5600 
 18 C       -9.4310     4.8360    -0.8020 C.2   1 <1>  -0.2880 
 19 C      -10.1270     2.3840    -0.0050 C.3   1 <1>   0.4800 
 20 C       -8.7140     5.8080    -0.2400 C.2   1 <1>  -0.2880 
 21 O      -11.3840     2.7290     0.5320 O.3   1 <1>  -0.4300 
 22 O       -9.6370     1.3490     0.8130 O.3   1 <1>  -0.4300 
 23 C      -12.3290     3.2170    -0.2460 C.2   1 <1>   0.6590 
 24 C       -9.8740     0.0870     0.5080 C.2   1 <1>   0.6590 
 25 O      -12.1710     3.3890    -1.4250 O.2   1 <1>  -0.5700 
 26 C      -13.6280     3.5530     0.4380 C.3   1 <1>  -0.1790 
 27 O      -10.5330    -0.2390    -0.4430 O.2   1 <1>  -0.5700 
 28 C       -9.2510    -0.9330     1.4250 C.3   1 <1>  -0.1790 
 29 H       -0.9840     1.8540     0.6140 H     1 <1>   0.1500 
 30 H       -2.8040    -0.2270    -2.6190 H     1 <1>   0.1500 
 31 H       -3.1050     3.0080     1.0800 H     1 <1>   0.1500 
 32 H       -4.9350     0.9140    -2.1690 H     1 <1>   0.1500 
 33 H       -7.5250     3.6740    -1.3400 H     1 <1>   0.0800 
 34 H       -6.8740     3.6540     1.6160 H     1 <1>   0.0800 
 35 H       -7.8980     5.8320     1.8280 H     1 <1>   0.0800 
 36 H      -10.0750     4.8170    -1.6650 H     1 <1>   0.1500 
 37 H      -10.2490     2.0160    -1.0100 H     1 <1>   0.0800 
 38 H       -8.5750     6.8450    -0.4900 H     1 <1>   0.1500 
 39 H      -14.0400     2.6660     0.8800 H     1 <1>   0.0800 
 40 H      -13.4500     4.2840     1.2040 H     1 <1>   0.0800 
 41 H      -14.3240     3.9500    -0.2770 H     1 <1>   0.0800 
 42 H       -9.5850    -0.7640     2.4310 H     1 <1>   0.0800 
 43 H       -8.1820    -0.8430     1.3820 H     1 <1>   0.0800 
 44 H       -9.5350    -1.9210     1.1160 H     1 <1>   0.0800 
@<TRIPOS>BOND
  1   1   2  1   
  2   2   3  ar  
  3   2   4  ar  
  4   3   5  ar  
  5   3  29  1   
  6   4   6  ar  
  7   4  30  1   
  8   5   7  ar  
  9   5  31  1   
 10   6   7  ar  
 11   6  32  1   
 12   7   8  1   
 13   8   9  am  
 14   8  10  am  
 15   9  11  2   
 16   9  12  1   
 17  10  13  2   
 18  10  14  1   
 19  12  14  1   
 20  12  15  1   
 21  12  33  1   
 22  14  16  1   
 23  14  34  1   
 24  15  17  1   
 25  15  18  1   
 26  15  19  1   
 27  16  17  1   
 28  16  20  1   
 29  16  35  1   
 30  18  20  2   
 31  18  36  1   
 32  19  21  1   
 33  19  22  1   
 34  19  37  1   
 35  20  38  1   
 36  21  23  1   
 37  22  24  1   
 38  23  25  2   
 39  23  26  1   
 40  24  27  2   
 41  24  28  1   
 42  26  39  1   
 43  26  40  1   
 44  26  41  1   
 45  28  42  1   
 46  28  43  1   
 47  28  44  1   
@<TRIPOS>SUBSTRUCTURE
  1 ****   9 GROUP 4 **** **** 0

# MOE 2024.06 (io_trps.svl 2023.06)
