@<TRIPOS>MOLECULE
NONAME
40 43 1 0 0 
SMALL
USER_CHARGES


@<TRIPOS>ATOM
  1 BR      -0.3520    -0.0800     0.9950 Br    1 <1>  -0.1110 
  2 C       -1.0980     1.6310     0.5150 C.ar  1 <1>   0.1110 
  3 C       -2.4630     1.7940     0.5500 C.ar  1 <1>  -0.1500 
  4 C       -0.2180     2.6490     0.1470 C.ar  1 <1>  -0.1500 
  5 C       -2.9790     3.0420     0.1980 C.ar  1 <1>   0.0000 
  6 C       -0.7270     3.8830    -0.2010 C.ar  1 <1>  -0.1500 
  7 C       -4.2970     3.5710     0.1170 C.ar  1 <1>   0.2560 
  8 C       -2.1110     4.0710    -0.1730 C.ar  1 <1>  -0.1520 
  9 N       -5.4890     3.0140     0.3620 N.ar  1 <1>  -0.2560 
 10 C       -4.1820     4.8870    -0.2950 C.ar  1 <1>   0.1050 
 11 N       -2.8640     5.1900    -0.4700 N.pl3 1 <1>   0.0330 
 12 N       -6.5230     3.7850     0.1900 N.ar  1 <1>  -0.3100 
 13 N       -5.2290     5.6910    -0.4780 N.ar  1 <1>  -0.5670 
 14 C       -6.3460     5.0670    -0.2150 C.ar  1 <1>   0.7220 
 15 S       -7.8470     6.0210    -0.4190 S.3   1 <1>  -0.3320 
 16 C       -9.2040     4.8590     0.0430 C.3   1 <1>   0.0700 
 17 C      -10.5270     5.5960    -0.1740 C.3   1 <1>   0.3430 
 18 N      -11.7100     4.7610     0.2050 N.4   1 <1>  -0.9590 
 19 C      -11.8830     3.5110    -0.6180 C.3   1 <1>   0.3430 
 20 C      -12.9870     5.5550     0.2070 C.3   1 <1>   0.3430 
 21 C      -13.1510     2.7290    -0.2030 C.3   1 <1>   0.1200 
 22 C      -14.2000     4.6790     0.6000 C.3   1 <1>   0.1200 
 23 O      -13.8080     3.3590     0.8650 O.3   1 <1>  -0.5600 
 24 H       -3.1200     0.9930     0.8370 H     1 <1>   0.1500 
 25 H        0.8400     2.4580     0.1400 H     1 <1>   0.1500 
 26 H       -0.0720     4.6880    -0.4890 H     1 <1>   0.1500 
 27 H       -2.5130     6.1030    -0.7730 H     1 <1>   0.2700 
 28 H       -9.0540     4.5930     1.0750 H     1 <1>   0.0800 
 29 H       -9.1080     3.9990    -0.5960 H     1 <1>   0.0800 
 30 H      -10.6020     5.8860    -1.2100 H     1 <1>   0.0800 
 31 H      -10.5160     6.4940     0.4230 H     1 <1>   0.0800 
 32 H      -11.6120     4.4290     1.1780 H     1 <1>   0.4500 
 33 H      -11.0260     2.8680    -0.5000 H     1 <1>   0.0800 
 34 H      -11.9560     3.7640    -1.6630 H     1 <1>   0.0800 
 35 H      -13.1620     5.9740    -0.7710 H     1 <1>   0.0800 
 36 H      -12.9100     6.3760     0.9010 H     1 <1>   0.0800 
 37 H      -12.8870     1.7350     0.1150 H     1 <1>   0.0800 
 38 H      -13.8370     2.6460    -1.0290 H     1 <1>   0.0800 
 39 H      -14.9360     4.6700    -0.1860 H     1 <1>   0.0800 
 40 H      -14.6660     5.0670     1.4890 H     1 <1>   0.0800 
@<TRIPOS>BOND
  1   1   2  1   
  2   2   3  ar  
  3   2   4  ar  
  4   3   5  ar  
  5   3  24  1   
  6   4   6  ar  
  7   4  25  1   
  8   5   7  1   
  9   5   8  ar  
 10   6   8  ar  
 11   6  26  1   
 12   7   9  ar  
 13   7  10  ar  
 14   8  11  1   
 15   9  12  ar  
 16  10  11  1   
 17  10  13  ar  
 18  11  27  1   
 19  12  14  ar  
 20  13  14  ar  
 21  14  15  1   
 22  15  16  1   
 23  16  17  1   
 24  16  28  1   
 25  16  29  1   
 26  17  18  1   
 27  17  30  1   
 28  17  31  1   
 29  18  19  1   
 30  18  20  1   
 31  18  32  1   
 32  19  21  1   
 33  19  33  1   
 34  19  34  1   
 35  20  22  1   
 36  20  35  1   
 37  20  36  1   
 38  21  23  1   
 39  21  37  1   
 40  21  38  1   
 41  22  23  1   
 42  22  39  1   
 43  22  40  1   
@<TRIPOS>SUBSTRUCTURE
  1 ****  12 GROUP 4 **** **** 0

# MOE 2024.06 (io_trps.svl 2023.06)
