@<TRIPOS>MOLECULE
NONAME
45 46 1 0 0 
SMALL
USER_CHARGES


@<TRIPOS>ATOM
  1 O       -0.2880    -0.6910    -1.8500 O.2   1 <1>  -0.5700 
  2 C       -0.4310    -1.4590    -0.9300 C.2   1 <1>   0.5690 
  3 N        0.5320    -1.6140     0.0100 N.am  1 <1>  -0.7300 
  4 C       -1.7200    -2.2700    -0.8200 C.3   1 <1>  -0.0190 
  5 C        1.8040    -0.8910     0.0090 C.3   1 <1>   0.2010 
  6 C       -2.4980    -1.9340     0.4680 C.3   1 <1>  -0.1600 
  7 C       -1.4500    -3.7860    -0.9150 C.3   1 <1>  -0.1600 
  8 C        2.7120    -1.2490     1.2020 C.2   1 <1>   0.5690 
  9 C       -3.7950    -2.7480     0.5700 C.3   1 <1>  -0.1600 
 10 C       -2.7490    -4.5960    -0.8100 C.3   1 <1>  -0.1600 
 11 O        2.3500    -2.0780     2.0300 O.2   1 <1>  -0.5700 
 12 N        3.9210    -0.6560     1.3580 N.am  1 <1>  -0.7300 
 13 C       -3.5150    -4.2530     0.4740 C.3   1 <1>  -0.1600 
 14 C        4.5750     0.3580     0.5150 C.3   1 <1>   0.2200 
 15 C        5.9190    -0.1940     0.0320 C.3   1 <1>  -0.1600 
 16 C        4.7620     1.6370     1.3360 C.3   1 <1>  -0.1600 
 17 C        6.6940     0.8620    -0.7720 C.3   1 <1>  -0.1600 
 18 C        5.5330     2.6990     0.5370 C.3   1 <1>  -0.1600 
 19 C        6.8780     2.1520     0.0400 C.3   1 <1>  -0.1600 
 20 H        0.3940    -2.2620     0.7730 H     1 <1>   0.3700 
 21 H       -2.3370    -1.9940    -1.6570 H     1 <1>   0.0800 
 22 H        1.6070     0.1810     0.0360 H     1 <1>   0.0800 
 23 H        2.3430    -1.1130    -0.9120 H     1 <1>   0.0800 
 24 H       -2.7320    -0.8840     0.4790 H     1 <1>   0.0800 
 25 H       -1.8850    -2.1430     1.3280 H     1 <1>   0.0800 
 26 H       -0.7850    -4.0870    -0.1240 H     1 <1>   0.0800 
 27 H       -0.9660    -4.0040    -1.8520 H     1 <1>   0.0800 
 28 H       -4.4610    -2.4580    -0.2250 H     1 <1>   0.0800 
 29 H       -4.2840    -2.5310     1.5040 H     1 <1>   0.0800 
 30 H       -2.5200    -5.6480    -0.8240 H     1 <1>   0.0800 
 31 H       -3.3710    -4.3830    -1.6630 H     1 <1>   0.0800 
 32 H        4.4520    -0.9510     2.1800 H     1 <1>   0.3700 
 33 H       -4.4460    -4.7950     0.4930 H     1 <1>   0.0800 
 34 H       -2.9370    -4.5640     1.3280 H     1 <1>   0.0800 
 35 H        3.9640     0.5820    -0.3430 H     1 <1>   0.0800 
 36 H        5.7510    -1.0580    -0.5870 H     1 <1>   0.0800 
 37 H        6.5130    -0.4910     0.8790 H     1 <1>   0.0800 
 38 H        5.3100     1.4120     2.2350 H     1 <1>   0.0800 
 39 H        3.8000     2.0310     1.6130 H     1 <1>   0.0800 
 40 H        6.1580     1.0860    -1.6790 H     1 <1>   0.0800 
 41 H        7.6570     0.4700    -1.0480 H     1 <1>   0.0800 
 42 H        5.7020     3.5640     1.1560 H     1 <1>   0.0800 
 43 H        4.9420     3.0110    -0.3080 H     1 <1>   0.0800 
 44 H        7.3660     2.8940    -0.5680 H     1 <1>   0.0800 
 45 H        7.5140     1.9520     0.8860 H     1 <1>   0.0800 
@<TRIPOS>BOND
  1   1   2  2   
  2   2   3  am  
  3   2   4  1   
  4   3   5  1   
  5   3  20  1   
  6   4   6  1   
  7   4   7  1   
  8   4  21  1   
  9   5   8  1   
 10   5  22  1   
 11   5  23  1   
 12   6   9  1   
 13   6  24  1   
 14   6  25  1   
 15   7  10  1   
 16   7  26  1   
 17   7  27  1   
 18   8  11  2   
 19   8  12  am  
 20   9  13  1   
 21   9  28  1   
 22   9  29  1   
 23  10  13  1   
 24  10  30  1   
 25  10  31  1   
 26  12  14  1   
 27  12  32  1   
 28  13  33  1   
 29  13  34  1   
 30  14  15  1   
 31  14  16  1   
 32  14  35  1   
 33  15  17  1   
 34  15  36  1   
 35  15  37  1   
 36  16  18  1   
 37  16  38  1   
 38  16  39  1   
 39  17  19  1   
 40  17  40  1   
 41  17  41  1   
 42  18  19  1   
 43  18  42  1   
 44  18  43  1   
 45  19  44  1   
 46  19  45  1   
@<TRIPOS>SUBSTRUCTURE
  1 ****   5 GROUP 4 **** **** 0

# MOE 2024.06 (io_trps.svl 2023.06)
