@<TRIPOS>MOLECULE
NONAME
34 35 1 0 0 
SMALL
USER_CHARGES


@<TRIPOS>ATOM
  1 S        0.0170    -0.3180    -0.2010 S.3   1 <1>  -0.2860 
  2 C       -0.8960     1.2300    -0.1920 C.2   1 <1>   0.2420 
  3 C        1.7800     0.2480    -0.3240 C.3   1 <1>   0.1310 
  4 N       -0.3280     2.3820    -0.2640 N.2   1 <1>  -0.3380 
  5 N       -2.2320     1.2830    -0.1080 N.pl3 1 <1>   0.3260 
  6 C        2.7210    -0.9400    -0.2780 C.2   1 <1>   0.6590 
  7 N       -1.3210     3.2760    -0.2320 N.2   1 <1>  -0.3380 
  8 C       -3.1870     0.2380    -0.0160 C.ar  1 <1>  -0.0230 
  9 C       -2.4280     2.6170    -0.1420 C.2   1 <1>   0.0060 
 10 O        3.3670    -1.2720    -1.2390 O.2   1 <1>  -0.5700 
 11 O        2.8060    -1.5780     0.8840 O.3   1 <1>  -0.4300 
 12 C       -3.8910     0.0250     1.1630 C.ar  1 <1>  -0.1500 
 13 C       -3.4400    -0.5860    -1.1070 C.ar  1 <1>  -0.1500 
 14 C       -3.8000     3.2640    -0.0910 C.3   1 <1>  -0.0600 
 15 C        3.6390    -2.7060     1.0530 C.3   1 <1>   0.0400 
 16 C       -4.8330    -0.9840     1.2470 C.ar  1 <1>  -0.1500 
 17 C       -4.3820    -1.5950    -1.0210 C.ar  1 <1>  -0.1500 
 18 C       -5.0860    -1.7980     0.1550 C.ar  1 <1>  -0.1430 
 19 C       -6.1180    -2.9070     0.2490 C.3   1 <1>  -0.0970 
 20 H        1.9640     0.9090     0.5010 H     1 <1>   0.0800 
 21 H        1.8810     0.7760    -1.2540 H     1 <1>   0.0800 
 22 H       -3.7030     0.6470     2.0220 H     1 <1>   0.1500 
 23 H       -2.8990    -0.4420    -2.0270 H     1 <1>   0.1500 
 24 H       -4.4200     2.8800    -0.8810 H     1 <1>   0.0800 
 25 H       -3.7080     4.3290    -0.2110 H     1 <1>   0.0800 
 26 H       -4.2690     3.0640     0.8550 H     1 <1>   0.0800 
 27 H        3.5400    -3.0540     2.0650 H     1 <1>   0.0800 
 28 H        4.6570    -2.4200     0.8540 H     1 <1>   0.0800 
 29 H        3.3270    -3.4730     0.3650 H     1 <1>   0.0800 
 30 H       -5.3700    -1.1370     2.1680 H     1 <1>   0.1500 
 31 H       -4.5640    -2.2250    -1.8740 H     1 <1>   0.1500 
 32 H       -6.9060    -2.6310     0.9250 H     1 <1>   0.0800 
 33 H       -5.6520    -3.8070     0.6070 H     1 <1>   0.0800 
 34 H       -6.5520    -3.1010    -0.7160 H     1 <1>   0.0800 
@<TRIPOS>BOND
  1   1   2  1   
  2   1   3  1   
  3   2   4  2   
  4   2   5  1   
  5   3   6  1   
  6   3  20  1   
  7   3  21  1   
  8   4   7  1   
  9   5   8  1   
 10   5   9  1   
 11   6  10  2   
 12   6  11  1   
 13   7   9  2   
 14   8  12  ar  
 15   8  13  ar  
 16   9  14  1   
 17  11  15  1   
 18  12  16  ar  
 19  12  22  1   
 20  13  17  ar  
 21  13  23  1   
 22  14  24  1   
 23  14  25  1   
 24  14  26  1   
 25  15  27  1   
 26  15  28  1   
 27  15  29  1   
 28  16  18  ar  
 29  16  30  1   
 30  17  18  ar  
 31  17  31  1   
 32  18  19  1   
 33  19  32  1   
 34  19  33  1   
 35  19  34  1   
@<TRIPOS>SUBSTRUCTURE
  1 ****   2 GROUP 4 **** **** 0

# MOE 2024.06 (io_trps.svl 2023.06)
