@<TRIPOS>MOLECULE
NONAME
44 46 1 0 0 
SMALL
USER_CHARGES


@<TRIPOS>ATOM
  1 CL       1.6210    -0.7810    -2.6900 Cl    1 <1>  -0.1770 
  2 C        2.4060    -1.2240    -1.1930 C.ar  1 <1>   0.1770 
  3 C        1.8430    -2.1610    -0.3430 C.ar  1 <1>   0.1770 
  4 C        3.6090    -0.6200    -0.8740 C.ar  1 <1>  -0.1500 
  5 CL       0.3270    -2.9340    -0.7360 Cl    1 <1>  -0.1770 
  6 C        2.4810    -2.4990     0.8360 C.ar  1 <1>  -0.1500 
  7 C        4.2620    -0.9600     0.3050 C.ar  1 <1>  -0.1440 
  8 C        3.6890    -1.8980     1.1590 C.ar  1 <1>  -0.1500 
  9 C        5.5900    -0.3120     0.6610 C.3   1 <1>   0.4870 
 10 N        6.6550    -0.8860    -0.2040 N.4   1 <1>  -0.9590 
 11 C        6.8430    -2.3610     0.0360 C.3   1 <1>   0.3430 
 12 C        7.9560    -0.1510    -0.0380 C.3   1 <1>   0.3430 
 13 C        7.9730    -2.9430    -0.8380 C.3   1 <1>   0.1100 
 14 C        9.0730    -0.7640    -0.9060 C.3   1 <1>   0.1100 
 15 N        9.2400    -2.2120    -0.6410 N.3   1 <1>  -0.8100 
 16 C       10.3230    -2.7850    -1.5010 C.3   1 <1>   0.1710 
 17 C       11.6940    -2.1300    -1.3100 C.2   1 <1>   0.5690 
 18 O       12.1720    -1.5130    -2.2320 O.2   1 <1>  -0.5700 
 19 N       12.3030    -2.2380    -0.0990 N.am  1 <1>  -0.5790 
 20 C       13.6090    -1.6700     0.2590 C.3   1 <1>   0.0490 
 21 C       14.4520    -2.4150     1.2400 C.3   1 <1>  -0.2000 
 22 C       13.7860    -1.1310     1.6390 C.3   1 <1>  -0.2000 
 23 H        4.0100     0.1100    -1.5560 H     1 <1>   0.1500 
 24 H        2.0300    -3.2250     1.4920 H     1 <1>   0.1500 
 25 H        4.1670    -2.1690     2.0860 H     1 <1>   0.1500 
 26 H        5.8190    -0.4860     1.7000 H     1 <1>   0.0800 
 27 H        5.5180     0.7530     0.5030 H     1 <1>   0.0800 
 28 H        6.3550    -0.7790    -1.1790 H     1 <1>   0.4500 
 29 H        5.9270    -2.8890    -0.1770 H     1 <1>   0.0800 
 30 H        7.0930    -2.5330     1.0700 H     1 <1>   0.0800 
 31 H        8.2710    -0.1950     0.9920 H     1 <1>   0.0800 
 32 H        7.8330     0.8860    -0.3040 H     1 <1>   0.0800 
 33 H        7.6810    -2.9070    -1.8750 H     1 <1>   0.0800 
 34 H        8.1160    -3.9780    -0.5730 H     1 <1>   0.0800 
 35 H        9.9920    -0.2470    -0.6830 H     1 <1>   0.0800 
 36 H        8.8540    -0.6010    -1.9480 H     1 <1>   0.0800 
 37 H       10.0510    -2.6900    -2.5380 H     1 <1>   0.0800 
 38 H       10.4310    -3.8330    -1.2860 H     1 <1>   0.0800 
 39 H       11.8120    -2.7140     0.6580 H     1 <1>   0.3700 
 40 H       14.0970    -1.1670    -0.5620 H     1 <1>   0.1000 
 41 H       15.5190    -2.4120     1.1070 H     1 <1>   0.1000 
 42 H       14.0870    -3.3420     1.6440 H     1 <1>   0.1000 
 43 H       12.9610    -1.1660     2.3280 H     1 <1>   0.1000 
 44 H       14.4060    -0.2630     1.7790 H     1 <1>   0.1000 
@<TRIPOS>BOND
  1   1   2  1   
  2   2   3  ar  
  3   2   4  ar  
  4   3   5  1   
  5   3   6  ar  
  6   4   7  ar  
  7   4  23  1   
  8   6   8  ar  
  9   6  24  1   
 10   7   8  ar  
 11   7   9  1   
 12   8  25  1   
 13   9  10  1   
 14   9  26  1   
 15   9  27  1   
 16  10  11  1   
 17  10  12  1   
 18  10  28  1   
 19  11  13  1   
 20  11  29  1   
 21  11  30  1   
 22  12  14  1   
 23  12  31  1   
 24  12  32  1   
 25  13  15  1   
 26  13  33  1   
 27  13  34  1   
 28  14  15  1   
 29  14  35  1   
 30  14  36  1   
 31  15  16  1   
 32  16  17  1   
 33  16  37  1   
 34  16  38  1   
 35  17  18  2   
 36  17  19  am  
 37  19  20  1   
 38  19  39  1   
 39  20  21  1   
 40  20  22  1   
 41  20  40  1   
 42  21  22  1   
 43  21  41  1   
 44  21  42  1   
 45  22  43  1   
 46  22  44  1   
@<TRIPOS>SUBSTRUCTURE
  1 ****  11 GROUP 4 **** **** 0

# MOE 2024.06 (io_trps.svl 2023.06)
