@<TRIPOS>MOLECULE
NONAME
58 59 1 0 0 
SMALL
USER_CHARGES


@<TRIPOS>ATOM
  1 S       -0.8290     0.7870     1.3570 S.o2  1 <1>   1.3330 
  2 O       -2.0600     0.0880     1.0760 O.2   1 <1>  -0.6500 
  3 O        0.2700     0.0630     1.9480 O.2   1 <1>  -0.6500 
  4 N       -0.2780     1.4370    -0.1540 N.am  1 <1>  -0.6930 
  5 C       -1.1760     2.1930     2.3890 C.3   1 <1>  -0.1350 
  6 C       -1.1520     2.1800    -0.9460 C.ar  1 <1>   0.1990 
  7 C        0.6550     0.5340    -0.8720 C.3   1 <1>   0.3390 
  8 C       -1.0620     3.5790    -1.1030 C.ar  1 <1>   0.0860 
  9 C       -2.1540     1.4900    -1.6310 C.ar  1 <1>  -0.1500 
 10 C        2.0560     1.1190    -0.9920 C.ar  1 <1>  -0.1440 
 11 C       -0.0870     4.4060    -0.4270 C.2   1 <1>   0.5440 
 12 C       -1.9830     4.2060    -1.9490 C.ar  1 <1>  -0.1500 
 13 C       -3.0450     2.1330    -2.4630 C.ar  1 <1>  -0.1500 
 14 C        2.6550     1.2380    -2.2390 C.ar  1 <1>  -0.1500 
 15 C        2.7680     1.4950     0.1370 C.ar  1 <1>  -0.1500 
 16 O        0.1120     4.2820     0.7640 O.2   1 <1>  -0.5700 
 17 N        0.5490     5.3950    -1.1350 N.am  1 <1>  -0.7300 
 18 C       -2.9580     3.5020    -2.6250 C.ar  1 <1>  -0.1500 
 19 C        3.9530     1.7070    -2.3520 C.ar  1 <1>  -0.1500 
 20 C        4.0650     1.9650     0.0250 C.ar  1 <1>  -0.1500 
 21 C        1.4230     6.5350    -0.7230 C.3   1 <1>   0.2200 
 22 C        4.6610     2.0650    -1.2190 C.ar  1 <1>  -0.1500 
 23 C        2.8590     6.1020    -0.2980 C.3   1 <1>  -0.0800 
 24 C        0.6770     7.6320     0.1000 C.3   1 <1>  -0.0800 
 25 C        3.5220     5.2660    -1.4030 C.3   1 <1>  -0.2400 
 26 C        3.0000     5.3610     1.0400 C.3   1 <1>  -0.2400 
 27 C        1.6050     8.7940     0.4940 C.3   1 <1>  -0.2400 
 28 C       -0.1140     7.1900     1.3430 C.3   1 <1>  -0.2400 
 29 H       -1.6170     1.8720     3.3110 H     1 <1>   0.0800 
 30 H       -1.8530     2.8630     1.8970 H     1 <1>   0.0800 
 31 H       -0.2680     2.7180     2.6130 H     1 <1>   0.0800 
 32 H        0.2720     0.3400    -1.8580 H     1 <1>   0.0800 
 33 H        0.7210    -0.4180    -0.3750 H     1 <1>   0.0800 
 34 H       -2.2380     0.4250    -1.5020 H     1 <1>   0.1500 
 35 H       -1.9400     5.2750    -2.0700 H     1 <1>   0.1500 
 36 H       -3.8080     1.5740    -2.9790 H     1 <1>   0.1500 
 37 H        2.1210     0.9590    -3.1290 H     1 <1>   0.1500 
 38 H        2.3170     1.4180     1.1110 H     1 <1>   0.1500 
 39 H        0.5060     5.3000    -2.1480 H     1 <1>   0.3700 
 40 H       -3.6540     4.0130    -3.2700 H     1 <1>   0.1500 
 41 H        4.4130     1.7910    -3.3210 H     1 <1>   0.1500 
 42 H        4.6070     2.2510     0.9090 H     1 <1>   0.1500 
 43 H        1.6130     7.0500    -1.6490 H     1 <1>   0.0800 
 44 H        5.6710     2.4260    -1.3040 H     1 <1>   0.1500 
 45 H        3.4470     6.9970    -0.2120 H     1 <1>   0.0800 
 46 H       -0.0500     8.0510    -0.5740 H     1 <1>   0.0800 
 47 H        3.0020     4.3330    -1.5280 H     1 <1>   0.0800 
 48 H        4.5440     5.0510    -1.1470 H     1 <1>   0.0800 
 49 H        3.5130     5.7940    -2.3390 H     1 <1>   0.0800 
 50 H        2.5430     4.3910     0.9900 H     1 <1>   0.0800 
 51 H        2.5530     5.9180     1.8390 H     1 <1>   0.0800 
 52 H        4.0390     5.2220     1.2750 H     1 <1>   0.0800 
 53 H        2.3060     8.4820     1.2480 H     1 <1>   0.0800 
 54 H        1.0290     9.6120     0.8890 H     1 <1>   0.0800 
 55 H        2.1480     9.1520    -0.3630 H     1 <1>   0.0800 
 56 H        0.5020     6.6420     2.0290 H     1 <1>   0.0800 
 57 H       -0.9430     6.5700     1.0570 H     1 <1>   0.0800 
 58 H       -0.5160     8.0440     1.8580 H     1 <1>   0.0800 
@<TRIPOS>BOND
  1   1   2  2   
  2   1   3  2   
  3   1   4  am  
  4   1   5  1   
  5   4   6  1   
  6   4   7  1   
  7   5  29  1   
  8   5  30  1   
  9   5  31  1   
 10   6   8  ar  
 11   6   9  ar  
 12   7  10  1   
 13   7  32  1   
 14   7  33  1   
 15   8  11  1   
 16   8  12  ar  
 17   9  13  ar  
 18   9  34  1   
 19  10  14  ar  
 20  10  15  ar  
 21  11  16  2   
 22  11  17  am  
 23  12  18  ar  
 24  12  35  1   
 25  13  18  ar  
 26  13  36  1   
 27  14  19  ar  
 28  14  37  1   
 29  15  20  ar  
 30  15  38  1   
 31  17  21  1   
 32  17  39  1   
 33  18  40  1   
 34  19  22  ar  
 35  19  41  1   
 36  20  22  ar  
 37  20  42  1   
 38  21  23  1   
 39  21  24  1   
 40  21  43  1   
 41  22  44  1   
 42  23  25  1   
 43  23  26  1   
 44  23  45  1   
 45  24  27  1   
 46  24  28  1   
 47  24  46  1   
 48  25  47  1   
 49  25  48  1   
 50  25  49  1   
 51  26  50  1   
 52  26  51  1   
 53  26  52  1   
 54  27  53  1   
 55  27  54  1   
 56  27  55  1   
 57  28  56  1   
 58  28  57  1   
 59  28  58  1   
@<TRIPOS>SUBSTRUCTURE
  1 ****  11 GROUP 4 **** **** 0

# MOE 2024.06 (io_trps.svl 2023.06)
