@<TRIPOS>MOLECULE
NONAME
40 41 1 0 0 
SMALL
USER_CHARGES


@<TRIPOS>ATOM
  1 CL       0.2590    -0.2540    -1.4260 Cl    1 <1>  -0.1770 
  2 C        1.7270     0.5000    -0.8520 C.ar  1 <1>   0.1770 
  3 C        2.6720    -0.2660    -0.1950 C.ar  1 <1>  -0.1500 
  4 C        1.9220     1.8520    -1.0630 C.ar  1 <1>  -0.1500 
  5 C        3.8320     0.3380     0.2580 C.ar  1 <1>  -0.1500 
  6 C        3.0860     2.4470    -0.6060 C.ar  1 <1>  -0.1500 
  7 C        4.0530     1.6970     0.0590 C.ar  1 <1>   0.1170 
  8 N        5.2420     2.2450     0.5510 N.am  1 <1>  -0.5470 
  9 C        6.0090     3.2980     0.1280 C.2   1 <1>   0.5690 
 10 O        5.6510     4.0440    -0.7580 O.2   1 <1>  -0.5700 
 11 C        7.3740     3.5720     0.8460 C.3   1 <1>   0.4840 
 12 N        8.0030     4.9330     0.6090 N.4   1 <1>  -0.9590 
 13 C        8.4420     2.5180     0.5690 C.3   1 <1>  -0.2660 
 14 C        7.0920     6.0070     1.0920 C.3   1 <1>   0.3430 
 15 C        8.3770     5.1510    -0.8230 C.3   1 <1>   0.3430 
 16 C        7.9560     1.2390     1.1590 C.2   1 <1>   0.9060 
 17 C        7.8010     7.3600     1.0040 C.3   1 <1>  -0.1600 
 18 C        9.1200     6.4820    -0.9590 C.3   1 <1>  -0.1600 
 19 O        7.2330     1.3140     2.1560 O.co2 1 <1>  -0.9000 
 20 O        8.1870     0.1930     0.5720 O.co2 1 <1>  -0.9000 
 21 C        8.2850     7.6520    -0.4230 C.3   1 <1>  -0.1600 
 22 H        2.5030    -1.3160    -0.0430 H     1 <1>   0.1500 
 23 H        1.1730     2.4270    -1.5770 H     1 <1>   0.1500 
 24 H        4.5810    -0.2490     0.7660 H     1 <1>   0.1500 
 25 H        3.2390     3.4990    -0.7650 H     1 <1>   0.1500 
 26 H        5.7210     1.6420     1.2540 H     1 <1>   0.3700 
 27 H        7.1540     3.5130     1.8990 H     1 <1>   0.0800 
 28 H        8.8610     4.9630     1.1670 H     1 <1>   0.4500 
 29 H        9.3710     2.7550     1.0470 H     1 <1>   0.0800 
 30 H        8.5860     2.3640    -0.4830 H     1 <1>   0.0800 
 31 H        6.8020     5.8160     2.1130 H     1 <1>   0.0800 
 32 H        6.2010     6.0280     0.4840 H     1 <1>   0.0800 
 33 H        7.4910     5.1730    -1.4370 H     1 <1>   0.0800 
 34 H        9.0090     4.3510    -1.1720 H     1 <1>   0.0800 
 35 H        8.6330     7.3730     1.6860 H     1 <1>   0.0800 
 36 H        7.1190     8.1330     1.3130 H     1 <1>   0.0800 
 37 H        9.3440     6.6520    -1.9980 H     1 <1>   0.0800 
 38 H       10.0560     6.4240    -0.4330 H     1 <1>   0.0800 
 39 H        8.8690     8.5580    -0.4360 H     1 <1>   0.0800 
 40 H        7.4310     7.8030    -1.0640 H     1 <1>   0.0800 
@<TRIPOS>BOND
  1   1   2  1   
  2   2   3  ar  
  3   2   4  ar  
  4   3   5  ar  
  5   3  22  1   
  6   4   6  ar  
  7   4  23  1   
  8   5   7  ar  
  9   5  24  1   
 10   6   7  ar  
 11   6  25  1   
 12   7   8  1   
 13   8   9  am  
 14   8  26  1   
 15   9  10  2   
 16   9  11  1   
 17  11  12  1   
 18  11  13  1   
 19  11  27  1   
 20  12  14  1   
 21  12  15  1   
 22  12  28  1   
 23  13  16  1   
 24  13  29  1   
 25  13  30  1   
 26  14  17  1   
 27  14  31  1   
 28  14  32  1   
 29  15  18  1   
 30  15  33  1   
 31  15  34  1   
 32  16  19  ar  
 33  16  20  ar  
 34  17  21  1   
 35  17  35  1   
 36  17  36  1   
 37  18  21  1   
 38  18  37  1   
 39  18  38  1   
 40  21  39  1   
 41  21  40  1   
@<TRIPOS>SUBSTRUCTURE
  1 ****   9 GROUP 4 **** **** 0

# MOE 2024.06 (io_trps.svl 2023.06)
