@<TRIPOS>MOLECULE
NONAME
40 42 1 0 0 
SMALL
USER_CHARGES


@<TRIPOS>ATOM
  1 O        0.4030     0.9570    -0.5570 O.2   1 <1>  -0.5700 
  2 C       -0.3910     1.7110    -0.0400 C.2   1 <1>   0.5690 
  3 N       -0.0860     3.0270     0.1070 N.am  1 <1>  -0.7300 
  4 C       -1.7390     1.1600     0.4730 C.3   1 <1>   0.0610 
  5 C        1.1850     3.6620    -0.3390 C.3   1 <1>   0.2810 
  6 C       -2.5220     0.5150    -0.6990 C.3   1 <1>  -0.1600 
  7 C       -2.6400     2.2580     1.1040 C.3   1 <1>  -0.1600 
  8 C       -1.4880     0.0730     1.5470 C.3   1 <1>  -0.1600 
  9 C        2.3760     3.3240     0.5910 C.2   1 <1>   0.5690 
 10 C        0.9130     5.1630    -0.4850 C.3   1 <1>  -0.2400 
 11 C       -3.8530    -0.0870    -0.2110 C.3   1 <1>  -0.0800 
 12 C       -3.9720     1.6650     1.5990 C.3   1 <1>  -0.0800 
 13 C       -2.8140    -0.5310     2.0460 C.3   1 <1>  -0.0800 
 14 O        2.9930     4.1890     1.1650 O.2   1 <1>  -0.5700 
 15 N        2.7260     2.0330     0.7590 N.am  1 <1>  -0.8000 
 16 C       -4.7150     1.0270     0.4110 C.3   1 <1>  -0.1600 
 17 C       -3.5620    -1.1590     0.8550 C.3   1 <1>  -0.1600 
 18 C       -3.6810     0.5840     2.6570 C.3   1 <1>  -0.1600 
 19 H       -0.7140     3.6350     0.6310 H     1 <1>   0.3700 
 20 H        1.4300     3.2700    -1.3110 H     1 <1>   0.0800 
 21 H       -2.7140     1.2540    -1.4570 H     1 <1>   0.0800 
 22 H       -1.9250    -0.2600    -1.1490 H     1 <1>   0.0800 
 23 H       -2.8480     3.0240     0.3770 H     1 <1>   0.0800 
 24 H       -2.1330     2.7150     1.9360 H     1 <1>   0.0800 
 25 H       -0.9500     0.4990     2.3760 H     1 <1>   0.0800 
 26 H       -0.8750    -0.7100     1.1340 H     1 <1>   0.0800 
 27 H        0.6770     5.5970     0.4700 H     1 <1>   0.0800 
 28 H        0.1070     5.3340    -1.1750 H     1 <1>   0.0800 
 29 H        1.7940     5.6500    -0.8640 H     1 <1>   0.0800 
 30 H       -4.3770    -0.5320    -1.0400 H     1 <1>   0.0800 
 31 H       -4.5800     2.4410     2.0320 H     1 <1>   0.0800 
 32 H       -2.6150    -1.2850     2.7880 H     1 <1>   0.0800 
 33 H        3.4890     1.7690     1.3800 H     1 <1>   0.3700 
 34 H        2.1660     1.2790     0.3360 H     1 <1>   0.3700 
 35 H       -5.6520     0.6160     0.7460 H     1 <1>   0.0800 
 36 H       -4.9340     1.7760    -0.3290 H     1 <1>   0.0800 
 37 H       -4.4850    -1.5960     1.1940 H     1 <1>   0.0800 
 38 H       -2.9670    -1.9470     0.4260 H     1 <1>   0.0800 
 39 H       -4.6070     0.1690     3.0170 H     1 <1>   0.0800 
 40 H       -3.1730     1.0230     3.4980 H     1 <1>   0.0800 
@<TRIPOS>BOND
  1   1   2  2   
  2   2   3  am  
  3   2   4  1   
  4   3   5  1   
  5   3  19  1   
  6   4   6  1   
  7   4   7  1   
  8   4   8  1   
  9   5   9  1   
 10   5  10  1   
 11   5  20  1   
 12   6  11  1   
 13   6  21  1   
 14   6  22  1   
 15   7  12  1   
 16   7  23  1   
 17   7  24  1   
 18   8  13  1   
 19   8  25  1   
 20   8  26  1   
 21   9  14  2   
 22   9  15  am  
 23  10  27  1   
 24  10  28  1   
 25  10  29  1   
 26  11  16  1   
 27  11  17  1   
 28  11  30  1   
 29  12  16  1   
 30  12  18  1   
 31  12  31  1   
 32  13  17  1   
 33  13  18  1   
 34  13  32  1   
 35  15  33  1   
 36  15  34  1   
 37  16  35  1   
 38  16  36  1   
 39  17  37  1   
 40  17  38  1   
 41  18  39  1   
 42  18  40  1   
@<TRIPOS>SUBSTRUCTURE
  1 ****   4 GROUP 4 **** **** 0

# MOE 2024.06 (io_trps.svl 2023.06)
