@<TRIPOS>MOLECULE
NONAME
24 24 1 0 0 
SMALL
USER_CHARGES


@<TRIPOS>ATOM
  1 S        0.4010    -0.9660    -1.5100 S.3   1 <1>  -0.3320 
  2 C       -1.2100    -1.1450    -0.7490 C.ar  1 <1>   0.1020 
  3 C        1.6140    -0.8680    -0.1160 C.3   1 <1>   0.2300 
  4 C       -1.9640    -0.0390    -0.4350 C.ar  1 <1>  -0.1500 
  5 C       -1.7230    -2.3930    -0.4810 C.ar  1 <1>  -0.1500 
  6 C        2.9900    -0.7150    -0.7650 C.3   1 <1>  -0.2400 
  7 C        1.5300    -2.1670     0.6880 C.3   1 <1>  -0.2400 
  8 C        1.2720     0.3540     0.7370 C.3   1 <1>  -0.2400 
  9 C       -3.2010    -0.2380     0.1520 C.ar  1 <1>   0.1600 
 10 C       -2.9720    -2.4720     0.1090 C.ar  1 <1>   0.1600 
 11 N       -3.7190    -1.4260     0.4350 N.ar  1 <1>  -0.6200 
 12 H       -1.5980     0.9480    -0.6430 H     1 <1>   0.1500 
 13 H       -1.1660    -3.2770    -0.7250 H     1 <1>   0.1500 
 14 H        3.1990    -1.5590    -1.3980 H     1 <1>   0.0800 
 15 H        3.7550    -0.6510    -0.0130 H     1 <1>   0.0800 
 16 H        3.0210     0.1780    -1.3640 H     1 <1>   0.0800 
 17 H        0.5720    -2.2570     1.1660 H     1 <1>   0.0800 
 18 H        2.2870    -2.1790     1.4510 H     1 <1>   0.0800 
 19 H        1.6790    -3.0140     0.0430 H     1 <1>   0.0800 
 20 H        0.3170     0.2290     1.2150 H     1 <1>   0.0800 
 21 H        1.2440     1.2380     0.1260 H     1 <1>   0.0800 
 22 H        2.0140     0.4890     1.5030 H     1 <1>   0.0800 
 23 H       -3.7970     0.6230     0.4040 H     1 <1>   0.1500 
 24 H       -3.3810    -3.4450     0.3240 H     1 <1>   0.1500 
@<TRIPOS>BOND
  1   1   2  1   
  2   1   3  1   
  3   2   4  ar  
  4   2   5  ar  
  5   3   6  1   
  6   3   7  1   
  7   3   8  1   
  8   4   9  ar  
  9   4  12  1   
 10   5  10  ar  
 11   5  13  1   
 12   6  14  1   
 13   6  15  1   
 14   6  16  1   
 15   7  17  1   
 16   7  18  1   
 17   7  19  1   
 18   8  20  1   
 19   8  21  1   
 20   8  22  1   
 21   9  11  ar  
 22   9  23  1   
 23  10  11  ar  
 24  10  24  1   
@<TRIPOS>SUBSTRUCTURE
  1 ****   2 GROUP 4 **** **** 0

# MOE 2024.06 (io_trps.svl 2023.06)
