@<TRIPOS>MOLECULE
NONAME
46 48 1 0 0 
SMALL
USER_CHARGES


@<TRIPOS>ATOM
  1 CL      -0.0720    -0.5700    -2.1460 Cl    1 <1>  -0.1770 
  2 C       -0.2330    -1.8880    -1.0080 C.ar  1 <1>   0.1770 
  3 C        0.8990    -2.4600    -0.4440 C.ar  1 <1>  -0.1440 
  4 C       -1.5030    -2.3290    -0.6930 C.ar  1 <1>  -0.1500 
  5 C        0.7290    -3.5000     0.4570 C.ar  1 <1>  -0.1500 
  6 C        2.2930    -1.9670    -0.7990 C.3   1 <1>  -0.0960 
  7 C       -1.6760    -3.3740     0.2080 C.ar  1 <1>   0.1170 
  8 C       -0.5420    -3.9470     0.7760 C.ar  1 <1>  -0.1500 
  9 N       -2.9360    -3.8650     0.5840 N.am  1 <1>  -0.5470 
 10 C       -4.1520    -3.7860    -0.0410 C.2   1 <1>   0.5690 
 11 O       -4.3120    -3.2620    -1.1150 O.2   1 <1>  -0.5700 
 12 C       -5.3480    -4.4210     0.6730 C.3   1 <1>  -0.0190 
 13 C       -5.4850    -5.9090     0.3000 C.3   1 <1>  -0.1600 
 14 C       -6.6730    -3.6870     0.3820 C.3   1 <1>  -0.1600 
 15 C       -6.6750    -6.5600     1.0090 C.3   1 <1>   0.1400 
 16 C       -7.8600    -4.3510     1.0840 C.3   1 <1>   0.1400 
 17 N       -7.9160    -5.7930     0.7130 N.am  1 <1>  -0.6600 
 18 C       -8.9670    -6.3610     0.0170 C.2   1 <1>   0.5440 
 19 O       -8.8210    -7.4610    -0.4820 O.2   1 <1>  -0.5700 
 20 C      -10.2400    -5.6830    -0.1400 C.ar  1 <1>   0.0860 
 21 C      -10.7400    -5.3860    -1.4060 C.ar  1 <1>  -0.1500 
 22 C      -11.0070    -5.3080     0.9630 C.ar  1 <1>  -0.1500 
 23 C      -11.9460    -4.7280    -1.5680 C.ar  1 <1>  -0.1500 
 24 C      -12.2140    -4.6500     0.8100 C.ar  1 <1>  -0.1500 
 25 C      -12.6840    -4.3570    -0.4580 C.ar  1 <1>  -0.1500 
 26 H       -2.3460    -1.8500    -1.1520 H     1 <1>   0.1500 
 27 H        1.5850    -3.9660     0.9120 H     1 <1>   0.1500 
 28 H        2.4630    -2.0760    -1.8560 H     1 <1>   0.0800 
 29 H        3.0470    -2.5240    -0.2730 H     1 <1>   0.0800 
 30 H        2.3920    -0.9280    -0.5380 H     1 <1>   0.0800 
 31 H       -0.6490    -4.7560     1.4750 H     1 <1>   0.1500 
 32 H       -2.9330    -4.4100     1.4430 H     1 <1>   0.3700 
 33 H       -5.1690    -4.3550     1.7310 H     1 <1>   0.0800 
 34 H       -4.5870    -6.4400     0.5600 H     1 <1>   0.0800 
 35 H       -5.6230    -6.0050    -0.7640 H     1 <1>   0.0800 
 36 H       -6.8620    -3.6810    -0.6780 H     1 <1>   0.0800 
 37 H       -6.5970    -2.6620     0.7020 H     1 <1>   0.0800 
 38 H       -6.5140    -6.5660     2.0730 H     1 <1>   0.0800 
 39 H       -6.7700    -7.5830     0.6860 H     1 <1>   0.0800 
 40 H       -8.7630    -3.8410     0.7980 H     1 <1>   0.0800 
 41 H       -7.7520    -4.2680     2.1520 H     1 <1>   0.0800 
 42 H      -10.1690    -5.6820    -2.2690 H     1 <1>   0.1500 
 43 H      -10.6470    -5.5420     1.9490 H     1 <1>   0.1500 
 44 H      -12.3120    -4.5080    -2.5560 H     1 <1>   0.1500 
 45 H      -12.7900    -4.3680     1.6740 H     1 <1>   0.1500 
 46 H      -13.6230    -3.8450    -0.5810 H     1 <1>   0.1500 
@<TRIPOS>BOND
  1   1   2  1   
  2   2   3  ar  
  3   2   4  ar  
  4   3   5  ar  
  5   3   6  1   
  6   4   7  ar  
  7   4  26  1   
  8   5   8  ar  
  9   5  27  1   
 10   6  28  1   
 11   6  29  1   
 12   6  30  1   
 13   7   8  ar  
 14   7   9  1   
 15   8  31  1   
 16   9  10  am  
 17   9  32  1   
 18  10  11  2   
 19  10  12  1   
 20  12  13  1   
 21  12  14  1   
 22  12  33  1   
 23  13  15  1   
 24  13  34  1   
 25  13  35  1   
 26  14  16  1   
 27  14  36  1   
 28  14  37  1   
 29  15  17  1   
 30  15  38  1   
 31  15  39  1   
 32  16  17  1   
 33  16  40  1   
 34  16  41  1   
 35  17  18  am  
 36  18  19  2   
 37  18  20  1   
 38  20  21  ar  
 39  20  22  ar  
 40  21  23  ar  
 41  21  42  1   
 42  22  24  ar  
 43  22  43  1   
 44  23  25  ar  
 45  23  44  1   
 46  24  25  ar  
 47  24  45  1   
 48  25  46  1   
@<TRIPOS>SUBSTRUCTURE
  1 ****  12 GROUP 4 **** **** 0

# MOE 2024.06 (io_trps.svl 2023.06)
