@<TRIPOS>MOLECULE
NONAME
31 32 1 0 0 
SMALL
USER_CHARGES


@<TRIPOS>ATOM
  1 O       -0.2790    -1.0980     0.9390 O.2   1 <1>  -0.5700 
  2 C       -0.3010    -2.2870     0.6580 C.2   1 <1>   0.7160 
  3 N        0.8750    -3.0040     0.8340 N.am  1 <1>  -0.6600 
  4 C       -1.5570    -2.8510     0.1680 C.2   1 <1>   0.2030 
  5 C        2.1660    -2.3150     1.0970 C.3   1 <1>   0.1400 
  6 C        0.9930    -4.4860     0.7830 C.3   1 <1>   0.1400 
  7 N       -1.7740    -3.9990    -0.4120 N.2   1 <1>  -0.4100 
  8 C       -2.7730    -2.1850     0.2430 C.2   1 <1>  -0.1500 
  9 C        2.8340    -1.8760    -0.2110 C.3   1 <1>  -0.1600 
 10 C        1.5110    -4.9600    -0.5810 C.3   1 <1>  -0.1600 
 11 O       -3.0420    -4.1330    -0.7150 O.3   1 <1>  -0.0190 
 12 C       -3.6390    -3.0320    -0.3180 C.2   1 <1>  -0.0400 
 13 C        2.7180    -2.8510    -1.3990 C.3   1 <1>  -0.1600 
 14 C        2.8470    -4.3390    -1.0310 C.3   1 <1>  -0.1600 
 15 C       -5.1290    -2.8920    -0.5410 C.3   1 <1>  -0.0600 
 16 H        2.8260    -2.9790     1.6280 H     1 <1>   0.0800 
 17 H        2.0060    -1.4560     1.7270 H     1 <1>   0.0800 
 18 H        0.0440    -4.9460     0.9950 H     1 <1>   0.0800 
 19 H        1.6710    -4.8130     1.5520 H     1 <1>   0.0800 
 20 H       -2.9250    -1.2080     0.6640 H     1 <1>   0.1500 
 21 H        3.8740    -1.7010    -0.0030 H     1 <1>   0.0800 
 22 H        2.4130    -0.9300    -0.5050 H     1 <1>   0.0800 
 23 H        0.7570    -4.7730    -1.3260 H     1 <1>   0.0800 
 24 H        1.6330    -6.0270    -0.5290 H     1 <1>   0.0800 
 25 H        3.4860    -2.5990    -2.1100 H     1 <1>   0.0800 
 26 H        1.7740    -2.6920    -1.8920 H     1 <1>   0.0800 
 27 H        3.1680    -4.8680    -1.9120 H     1 <1>   0.0800 
 28 H        3.6050    -4.4790    -0.2810 H     1 <1>   0.0800 
 29 H       -5.4750    -1.9450    -0.1690 H     1 <1>   0.0800 
 30 H       -5.6500    -3.6810    -0.0290 H     1 <1>   0.0800 
 31 H       -5.3470    -2.9550    -1.5920 H     1 <1>   0.0800 
@<TRIPOS>BOND
  1   1   2  2   
  2   2   3  am  
  3   2   4  1   
  4   3   5  1   
  5   3   6  1   
  6   4   7  2   
  7   4   8  1   
  8   5   9  1   
  9   5  16  1   
 10   5  17  1   
 11   6  10  1   
 12   6  18  1   
 13   6  19  1   
 14   7  11  1   
 15   8  12  2   
 16   8  20  1   
 17   9  13  1   
 18   9  21  1   
 19   9  22  1   
 20  10  14  1   
 21  10  23  1   
 22  10  24  1   
 23  11  12  1   
 24  12  15  1   
 25  13  14  1   
 26  13  25  1   
 27  13  26  1   
 28  14  27  1   
 29  14  28  1   
 30  15  29  1   
 31  15  30  1   
 32  15  31  1   
@<TRIPOS>SUBSTRUCTURE
  1 ****   2 GROUP 4 **** **** 0

# MOE 2024.06 (io_trps.svl 2023.06)
