@<TRIPOS>MOLECULE
NONAME
40 41 1 0 0 
SMALL
USER_CHARGES


@<TRIPOS>ATOM
  1 S       -0.1010    -0.1670     1.2300 S.o2  1 <1>   0.9740 
  2 O        0.0770     1.0850     0.5210 O.co2 1 <1>  -0.6500 
  3 O        0.2940    -0.2970     2.6210 O.co2 1 <1>  -0.6500 
  4 N        0.6390    -1.3280     0.3880 N.2   1 <1>  -0.7400 
  5 C       -1.8440    -0.6540     1.0660 C.ar  1 <1>  -0.0090 
  6 C        2.0210    -1.2230    -0.1030 C.3   1 <1>   0.2740 
  7 C       -2.6650    -0.8020     2.1750 C.ar  1 <1>  -0.1500 
  8 C       -2.4030    -0.8850    -0.1830 C.ar  1 <1>  -0.1500 
  9 C        3.0650    -0.9850     1.0060 C.2   1 <1>   0.5690 
 10 C        2.3960    -2.6760    -0.4810 C.2   1 <1>  -0.1240 
 11 C        2.3300    -0.1930    -1.2470 C.3   1 <1>   1.0200 
 12 C       -3.9950    -1.1680     2.0460 C.ar  1 <1>  -0.1500 
 13 C       -3.7310    -1.2510    -0.3250 C.ar  1 <1>  -0.1500 
 14 O        3.3300     0.0270     1.6090 O.2   1 <1>  -0.5700 
 15 N        3.7780    -2.1220     1.1970 N.am  1 <1>  -0.5390 
 16 C        3.3990    -3.1000     0.3260 C.2   1 <1>  -0.0290 
 17 C        1.6860    -3.3660    -1.5150 C.2   1 <1>   0.7060 
 18 F        3.4090    -0.5610    -1.9450 F     1 <1>  -0.3400 
 19 F        2.6030     1.0500    -0.8610 F     1 <1>  -0.3400 
 20 F        1.3630    -0.0680    -2.1550 F     1 <1>  -0.3400 
 21 C       -4.5360    -1.3960     0.7920 C.ar  1 <1>  -0.1430 
 22 C        4.1330    -4.4260     0.3980 C.3   1 <1>  -0.1020 
 23 O        1.1190    -2.8270    -2.4440 O.2   1 <1>  -0.5700 
 24 O        1.6680    -4.7060    -1.4710 O.3   1 <1>  -0.4300 
 25 C       -5.9920    -1.7960     0.6420 C.3   1 <1>  -0.0970 
 26 C        0.9500    -5.4680    -2.4200 C.3   1 <1>   0.0400 
 27 H       -2.2440    -0.6260     3.1490 H     1 <1>   0.1500 
 28 H       -1.7740    -0.7730    -1.0500 H     1 <1>   0.1500 
 29 H       -4.6000    -1.2730     2.9280 H     1 <1>   0.1500 
 30 H       -4.1260    -1.4200    -1.3100 H     1 <1>   0.1500 
 31 H        4.4770    -2.1620     1.9370 H     1 <1>   0.3700 
 32 H        5.1940    -4.2570     0.3660 H     1 <1>   0.0800 
 33 H        3.8740    -5.0660    -0.4230 H     1 <1>   0.0800 
 34 H        3.8860    -4.9260     1.3160 H     1 <1>   0.0800 
 35 H       -6.3230    -2.3380     1.5090 H     1 <1>   0.0800 
 36 H       -6.1210    -2.4240    -0.2210 H     1 <1>   0.0800 
 37 H       -6.5990    -0.9160     0.5270 H     1 <1>   0.0800 
 38 H        1.0640    -6.5090    -2.1780 H     1 <1>   0.0800 
 39 H        1.3460    -5.2660    -3.4000 H     1 <1>   0.0800 
 40 H       -0.0880    -5.1870    -2.3730 H     1 <1>   0.0800 
@<TRIPOS>BOND
  1   1   2  ar  
  2   1   3  ar  
  3   1   4  2   
  4   1   5  1   
  5   4   6  1   
  6   5   7  ar  
  7   5   8  ar  
  8   6   9  1   
  9   6  10  1   
 10   6  11  1   
 11   7  12  ar  
 12   7  27  1   
 13   8  13  ar  
 14   8  28  1   
 15   9  14  2   
 16   9  15  am  
 17  10  16  2   
 18  10  17  1   
 19  11  18  1   
 20  11  19  1   
 21  11  20  1   
 22  12  21  ar  
 23  12  29  1   
 24  13  21  ar  
 25  13  30  1   
 26  15  16  1   
 27  15  31  1   
 28  16  22  1   
 29  17  23  2   
 30  17  24  1   
 31  21  25  1   
 32  22  32  1   
 33  22  33  1   
 34  22  34  1   
 35  24  26  1   
 36  25  35  1   
 37  25  36  1   
 38  25  37  1   
 39  26  38  1   
 40  26  39  1   
 41  26  40  1   
@<TRIPOS>SUBSTRUCTURE
  1 ****   4 GROUP 4 **** **** 0

# MOE 2024.06 (io_trps.svl 2023.06)
