@<TRIPOS>MOLECULE
NONAME
35 36 1 0 0 
SMALL
USER_CHARGES


@<TRIPOS>ATOM
  1 O        1.4570     3.1510    -2.9800 O.2   1 <1>  -0.5700 
  2 C        1.2230     2.8890    -1.8250 C.2   1 <1>   0.5690 
  3 N        2.1270     3.0750    -0.8090 N.am  1 <1>  -0.5470 
  4 C       -0.1270     2.2480    -1.4730 C.3   1 <1>   0.1710 
  5 C        3.4190     3.6260    -0.7860 C.ar  1 <1>   0.1170 
  6 N       -1.1470     3.1400    -0.8510 N.3   1 <1>  -0.8100 
  7 C        4.2770     3.3210     0.2750 C.ar  1 <1>  -0.1430 
  8 C        3.8700     4.4880    -1.7810 C.ar  1 <1>  -0.1500 
  9 C       -2.4360     2.4340    -0.7050 C.3   1 <1>   0.1100 
 10 C       -0.7380     3.7230     0.4440 C.3   1 <1>   0.1100 
 11 C        5.5480     3.8720     0.3170 C.ar  1 <1>  -0.1500 
 12 C        3.8490     2.3840     1.3980 C.3   1 <1>  -0.0970 
 13 C        5.1390     5.0320    -1.7340 C.ar  1 <1>  -0.1500 
 14 C       -3.5000     3.3340    -0.0500 C.3   1 <1>   0.1200 
 15 C       -1.8650     4.5740     1.0560 C.3   1 <1>   0.1200 
 16 C        5.9810     4.7240    -0.6830 C.ar  1 <1>  -0.1500 
 17 O       -3.0370     3.8200     1.1770 O.3   1 <1>  -0.5600 
 18 H        1.8140     2.7400     0.0960 H     1 <1>   0.3700 
 19 H        0.0530     1.4080    -0.8280 H     1 <1>   0.0800 
 20 H       -0.5330     1.8630    -2.3920 H     1 <1>   0.0800 
 21 H        3.2270     4.7460    -2.6030 H     1 <1>   0.1500 
 22 H       -2.3090     1.5530    -0.0990 H     1 <1>   0.0800 
 23 H       -2.7890     2.1290    -1.6750 H     1 <1>   0.0800 
 24 H        0.1170     4.3590     0.2990 H     1 <1>   0.0800 
 25 H       -0.4770     2.9420     1.1370 H     1 <1>   0.0800 
 26 H        6.2160     3.6420     1.1280 H     1 <1>   0.1500 
 27 H        3.5450     1.4360     0.9920 H     1 <1>   0.0800 
 28 H        3.0340     2.8150     1.9500 H     1 <1>   0.0800 
 29 H        4.6610     2.2070     2.0810 H     1 <1>   0.0800 
 30 H        5.4690     5.6950    -2.5160 H     1 <1>   0.1500 
 31 H       -4.3990     2.7760     0.1350 H     1 <1>   0.0800 
 32 H       -3.7320     4.1690    -0.6890 H     1 <1>   0.0800 
 33 H       -2.0680     5.4320     0.4380 H     1 <1>   0.0800 
 34 H       -1.5890     4.9110     2.0390 H     1 <1>   0.0800 
 35 H        6.9700     5.1460    -0.6430 H     1 <1>   0.1500 
@<TRIPOS>BOND
  1   1   2  2   
  2   2   3  am  
  3   2   4  1   
  4   3   5  1   
  5   3  18  1   
  6   4   6  1   
  7   4  19  1   
  8   4  20  1   
  9   5   7  ar  
 10   5   8  ar  
 11   6   9  1   
 12   6  10  1   
 13   7  11  ar  
 14   7  12  1   
 15   8  13  ar  
 16   8  21  1   
 17   9  14  1   
 18   9  22  1   
 19   9  23  1   
 20  10  15  1   
 21  10  24  1   
 22  10  25  1   
 23  11  16  ar  
 24  11  26  1   
 25  12  27  1   
 26  12  28  1   
 27  12  29  1   
 28  13  16  ar  
 29  13  30  1   
 30  14  17  1   
 31  14  31  1   
 32  14  32  1   
 33  15  17  1   
 34  15  33  1   
 35  15  34  1   
 36  16  35  1   
@<TRIPOS>SUBSTRUCTURE
  1 ****   3 GROUP 4 **** **** 0

# MOE 2024.06 (io_trps.svl 2023.06)
