@<TRIPOS>MOLECULE
NONAME
37 38 1 0 0 
SMALL
USER_CHARGES


@<TRIPOS>ATOM
  1 O        0.0920    -1.2160    -1.6700 O.2   1 <1>  -0.5700 
  2 C        0.0390    -2.1720    -0.9200 C.2   1 <1>   0.5440 
  3 N        1.2030    -2.8490    -0.6180 N.am  1 <1>  -0.6600 
  4 C       -1.2410    -2.5600    -0.3720 C.ar  1 <1>   0.0860 
  5 C        2.5120    -2.5190    -1.2610 C.3   1 <1>   0.1400 
  6 C        1.3120    -3.9290     0.4070 C.3   1 <1>   0.1400 
  7 C       -1.8570    -3.7710    -0.7250 C.ar  1 <1>   0.1170 
  8 C       -1.8920    -1.7190     0.5290 C.ar  1 <1>  -0.1500 
  9 C        3.6010    -2.3120    -0.1950 C.3   1 <1>   0.1200 
 10 C        2.4710    -3.6390     1.3770 C.3   1 <1>   0.1200 
 11 N       -1.2540    -4.6410    -1.6420 N.am  1 <1>  -0.5470 
 12 C       -3.0930    -4.0950    -0.1730 C.ar  1 <1>  -0.1500 
 13 C       -3.1120    -2.0580     1.0790 C.ar  1 <1>  -0.1500 
 14 O        3.6590    -3.4080     0.6750 O.3   1 <1>  -0.5600 
 15 C       -1.0010    -5.9770    -1.5960 C.2   1 <1>   0.5690 
 16 C       -3.7160    -3.2520     0.7260 C.ar  1 <1>  -0.1500 
 17 O       -0.5020    -6.5120    -2.5520 O.2   1 <1>  -0.5700 
 18 C       -1.3100    -6.8050    -0.3520 C.3   1 <1>  -0.0990 
 19 C       -0.2020    -7.8100     0.0040 C.3   1 <1>  -0.2400 
 20 H        2.4320    -1.6290    -1.8600 H     1 <1>   0.0800 
 21 H        2.8000    -3.3280    -1.9090 H     1 <1>   0.0800 
 22 H        1.4950    -4.8660    -0.0890 H     1 <1>   0.0800 
 23 H        0.4010    -4.0190     0.9690 H     1 <1>   0.0800 
 24 H       -1.4270    -0.7840     0.7920 H     1 <1>   0.1500 
 25 H        3.4020    -1.4240     0.3780 H     1 <1>   0.0800 
 26 H        4.5630    -2.2130    -0.6640 H     1 <1>   0.0800 
 27 H        2.6320    -4.4810     2.0250 H     1 <1>   0.0800 
 28 H        2.2530    -2.7740     1.9790 H     1 <1>   0.0800 
 29 H       -0.8340    -4.2040    -2.4670 H     1 <1>   0.3700 
 30 H       -3.5790    -5.0100    -0.4590 H     1 <1>   0.1500 
 31 H       -3.5980    -1.3940     1.7750 H     1 <1>   0.1500 
 32 H       -4.6710    -3.5160     1.1480 H     1 <1>   0.1500 
 33 H       -2.2270    -7.3370    -0.5260 H     1 <1>   0.0800 
 34 H       -1.4550    -6.1570     0.4920 H     1 <1>   0.0800 
 35 H       -0.0670    -8.5130    -0.8010 H     1 <1>   0.0800 
 36 H       -0.4640    -8.3550     0.8930 H     1 <1>   0.0800 
 37 H        0.7290    -7.2990     0.1700 H     1 <1>   0.0800 
@<TRIPOS>BOND
  1   1   2  2   
  2   2   3  am  
  3   2   4  1   
  4   3   5  1   
  5   3   6  1   
  6   4   7  ar  
  7   4   8  ar  
  8   5   9  1   
  9   5  20  1   
 10   5  21  1   
 11   6  10  1   
 12   6  22  1   
 13   6  23  1   
 14   7  11  1   
 15   7  12  ar  
 16   8  13  ar  
 17   8  24  1   
 18   9  14  1   
 19   9  25  1   
 20   9  26  1   
 21  10  14  1   
 22  10  27  1   
 23  10  28  1   
 24  11  15  am  
 25  11  29  1   
 26  12  16  ar  
 27  12  30  1   
 28  13  16  ar  
 29  13  31  1   
 30  15  17  2   
 31  15  18  1   
 32  16  32  1   
 33  18  19  1   
 34  18  33  1   
 35  18  34  1   
 36  19  35  1   
 37  19  36  1   
 38  19  37  1   
@<TRIPOS>SUBSTRUCTURE
  1 ****   4 GROUP 4 **** **** 0

# MOE 2024.06 (io_trps.svl 2023.06)
