@<TRIPOS>MOLECULE
NONAME
41 43 1 0 0 
SMALL
USER_CHARGES


@<TRIPOS>ATOM
  1 O        0.6320     0.1950     0.7900 O.2   1 <1>  -0.5700 
  2 C        1.0390     1.3410     0.7680 C.2   1 <1>   0.6900 
  3 N        2.3760     1.6050     0.9450 N.am  1 <1>  -0.6600 
  4 N        0.1800     2.3890     0.5990 N.am  1 <1>  -0.5470 
  5 C        3.0570     2.8570     0.5050 C.3   1 <1>   0.1400 
  6 C        3.3070     0.5520     1.4410 C.3   1 <1>   0.1400 
  7 C       -1.1860     2.4300     0.2790 C.ar  1 <1>   0.1170 
  8 C        4.0520     2.5270    -0.6080 C.3   1 <1>  -0.1600 
  9 C        4.3050     0.1910     0.3400 C.3   1 <1>  -0.1600 
 10 C       -1.8300     1.4100    -0.4140 C.ar  1 <1>  -0.1500 
 11 C       -1.9280     3.5460     0.6510 C.ar  1 <1>  -0.1500 
 12 C        5.0260     1.4450    -0.1580 C.3   1 <1>   0.5600 
 13 C       -3.1750     1.5030    -0.7230 C.ar  1 <1>  -0.1500 
 14 C       -3.2740     3.6450     0.3440 C.ar  1 <1>  -0.1500 
 15 O        5.8780     1.1370    -1.2070 O.3   1 <1>  -0.5600 
 16 O        5.8460     1.9610     0.8400 O.3   1 <1>  -0.5600 
 17 C       -3.9070     2.6170    -0.3480 C.ar  1 <1>   0.0820 
 18 C        7.1290     0.8460    -0.7010 C.3   1 <1>   0.1200 
 19 C        7.1210     1.4490     0.6910 C.3   1 <1>   0.1200 
 20 O       -5.2230     2.6300    -0.6910 O.3   1 <1>  -0.3630 
 21 C       -6.0580     3.7050    -0.3230 C.3   1 <1>   0.0400 
 22 H        0.5930     3.2730     0.8640 H     1 <1>   0.3700 
 23 H        3.5790     3.2870     1.3440 H     1 <1>   0.0800 
 24 H        2.3510     3.5800     0.1390 H     1 <1>   0.0800 
 25 H        2.7640    -0.3280     1.7430 H     1 <1>   0.0800 
 26 H        3.8340     0.9270     2.3020 H     1 <1>   0.0800 
 27 H        4.6020     3.4070    -0.8850 H     1 <1>   0.0800 
 28 H        3.5100     2.1780    -1.4670 H     1 <1>   0.0800 
 29 H        3.7650    -0.2540    -0.4760 H     1 <1>   0.0800 
 30 H        5.0100    -0.5270     0.7110 H     1 <1>   0.0800 
 31 H       -1.2790     0.5380    -0.7170 H     1 <1>   0.1500 
 32 H       -1.4500     4.3430     1.1880 H     1 <1>   0.1500 
 33 H       -3.6650     0.7090    -1.2560 H     1 <1>   0.1500 
 34 H       -3.8100     4.5230     0.6500 H     1 <1>   0.1500 
 35 H        7.8770     1.2900    -1.3330 H     1 <1>   0.0800 
 36 H        7.2540    -0.2220    -0.6690 H     1 <1>   0.0800 
 37 H        7.2950     0.7050     1.4480 H     1 <1>   0.0800 
 38 H        7.8320     2.2510     0.7850 H     1 <1>   0.0800 
 39 H       -7.0490     3.4970    -0.6830 H     1 <1>   0.0800 
 40 H       -5.6860     4.6070    -0.7760 H     1 <1>   0.0800 
 41 H       -6.0680     3.7870     0.7500 H     1 <1>   0.0800 
@<TRIPOS>BOND
  1   1   2  2   
  2   2   3  am  
  3   2   4  am  
  4   3   5  1   
  5   3   6  1   
  6   4   7  1   
  7   4  22  1   
  8   5   8  1   
  9   5  23  1   
 10   5  24  1   
 11   6   9  1   
 12   6  25  1   
 13   6  26  1   
 14   7  10  ar  
 15   7  11  ar  
 16   8  12  1   
 17   8  27  1   
 18   8  28  1   
 19   9  12  1   
 20   9  29  1   
 21   9  30  1   
 22  10  13  ar  
 23  10  31  1   
 24  11  14  ar  
 25  11  32  1   
 26  12  15  1   
 27  12  16  1   
 28  13  17  ar  
 29  13  33  1   
 30  14  17  ar  
 31  14  34  1   
 32  15  18  1   
 33  16  19  1   
 34  17  20  1   
 35  18  19  1   
 36  18  35  1   
 37  18  36  1   
 38  19  37  1   
 39  19  38  1   
 40  20  21  1   
 41  21  39  1   
 42  21  40  1   
 43  21  41  1   
@<TRIPOS>SUBSTRUCTURE
  1 ****   2 GROUP 4 **** **** 0

# MOE 2024.06 (io_trps.svl 2023.06)
