@<TRIPOS>MOLECULE
NONAME
35 36 1 0 0 
SMALL
USER_CHARGES


@<TRIPOS>ATOM
  1 CL       0.1560     0.2070     0.2810 Cl    1 <1>  -0.1770 
  2 C       -1.4300     0.9270     0.1570 C.ar  1 <1>   0.1770 
  3 C       -1.5580     2.2020    -0.3590 C.ar  1 <1>  -0.1500 
  4 C       -2.5350     0.2130     0.5760 C.ar  1 <1>  -0.1500 
  5 C       -2.8130     2.7840    -0.4610 C.ar  1 <1>  -0.1440 
  6 C       -3.7860     0.7910     0.4720 C.ar  1 <1>  -0.1500 
  7 C       -3.9450     2.0780    -0.0410 C.ar  1 <1>   0.1170 
  8 C       -2.9210     4.1950    -1.0290 C.3   1 <1>  -0.0960 
  9 N       -5.2140     2.6690    -0.1640 N.am  1 <1>  -0.5470 
 10 C       -6.3790     2.4610     0.5240 C.2   1 <1>   0.5690 
 11 O       -6.4800     1.6770     1.4370 O.2   1 <1>  -0.5700 
 12 C       -7.5970     3.2880     0.1130 C.3   1 <1>  -0.0190 
 13 C       -7.9810     4.2980     1.2120 C.3   1 <1>  -0.1600 
 14 C       -8.8000     2.3920    -0.2420 C.3   1 <1>  -0.1600 
 15 C       -9.2060     5.1320     0.8090 C.3   1 <1>  -0.1600 
 16 C      -10.0250     3.2250    -0.6460 C.3   1 <1>  -0.1600 
 17 C      -10.3950     4.2310     0.4510 C.3   1 <1>  -0.1600 
 18 H       -0.6730     2.7240    -0.6740 H     1 <1>   0.1500 
 19 H       -2.4150    -0.7780     0.9750 H     1 <1>   0.1500 
 20 H       -4.6460     0.2300     0.7930 H     1 <1>   0.1500 
 21 H       -1.9470     4.6090    -1.2180 H     1 <1>   0.0800 
 22 H       -3.4260     4.8370    -0.3290 H     1 <1>   0.0800 
 23 H       -3.4660     4.1800    -1.9560 H     1 <1>   0.0800 
 24 H       -5.2510     3.4200    -0.8470 H     1 <1>   0.3700 
 25 H       -7.3410     3.8470    -0.7700 H     1 <1>   0.0800 
 26 H       -7.1500     4.9520     1.4110 H     1 <1>   0.0800 
 27 H       -8.2000     3.7620     2.1210 H     1 <1>   0.0800 
 28 H       -9.0530     1.7840     0.6110 H     1 <1>   0.0800 
 29 H       -8.5330     1.7290    -1.0470 H     1 <1>   0.0800 
 30 H       -8.9590     5.7490    -0.0370 H     1 <1>   0.0800 
 31 H       -9.4810     5.7820     1.6220 H     1 <1>   0.0800 
 32 H      -10.8600     2.5710    -0.8300 H     1 <1>   0.0800 
 33 H       -9.8140     3.7540    -1.5600 H     1 <1>   0.0800 
 34 H      -11.2210     4.8380     0.1210 H     1 <1>   0.0800 
 35 H      -10.7120     3.6960     1.3300 H     1 <1>   0.0800 
@<TRIPOS>BOND
  1   1   2  1   
  2   2   3  ar  
  3   2   4  ar  
  4   3   5  ar  
  5   3  18  1   
  6   4   6  ar  
  7   4  19  1   
  8   5   7  ar  
  9   5   8  1   
 10   6   7  ar  
 11   6  20  1   
 12   7   9  1   
 13   8  21  1   
 14   8  22  1   
 15   8  23  1   
 16   9  10  am  
 17   9  24  1   
 18  10  11  2   
 19  10  12  1   
 20  12  13  1   
 21  12  14  1   
 22  12  25  1   
 23  13  15  1   
 24  13  26  1   
 25  13  27  1   
 26  14  16  1   
 27  14  28  1   
 28  14  29  1   
 29  15  17  1   
 30  15  30  1   
 31  15  31  1   
 32  16  17  1   
 33  16  32  1   
 34  16  33  1   
 35  17  34  1   
 36  17  35  1   
@<TRIPOS>SUBSTRUCTURE
  1 ****   9 GROUP 4 **** **** 0

# MOE 2024.06 (io_trps.svl 2023.06)
