@<TRIPOS>MOLECULE
NONAME
51 53 1 0 0 
SMALL
USER_CHARGES


@<TRIPOS>ATOM
  1 O        2.3220    -0.1620     1.7390 O.2   1 <1>  -0.5700 
  2 C        2.7660    -0.2760     0.6160 C.2   1 <1>   0.5440 
  3 N        2.7730     0.8420    -0.1410 N.am  1 <1>  -0.8000 
  4 C        3.2070    -1.5550     0.1070 C.ar  1 <1>   0.0860 
  5 C        4.4970    -1.7880    -0.4070 C.ar  1 <1>   0.1170 
  6 C        2.3130    -2.6260     0.1410 C.ar  1 <1>  -0.1500 
  7 N        5.4970    -0.8110    -0.4520 N.am  1 <1>  -0.5470 
  8 C        4.8320    -3.0570    -0.8670 C.ar  1 <1>  -0.1500 
  9 C        2.6580    -3.8810    -0.3210 C.ar  1 <1>  -0.1500 
 10 C        5.6380     0.2540    -1.2910 C.2   1 <1>   0.5690 
 11 C        3.9260    -4.0970    -0.8300 C.ar  1 <1>  -0.1500 
 12 O        4.8000     0.5740    -2.1020 O.2   1 <1>  -0.5700 
 13 C        6.9320     1.0580    -1.1680 C.3   1 <1>   0.1710 
 14 N        8.0690     0.2560    -0.6320 N.3   1 <1>  -0.8100 
 15 C        9.1520     1.1360    -0.1320 C.3   1 <1>   0.1100 
 16 C        8.6180    -0.6520    -1.6730 C.3   1 <1>   0.1100 
 17 C       10.3510     0.3330     0.4100 C.3   1 <1>   0.2090 
 18 C        9.8090    -1.4810    -1.1560 C.3   1 <1>   0.2090 
 19 N       10.8840    -0.5920    -0.6310 N.pl3 1 <1>  -0.8380 
 20 C       12.0890    -1.2310    -0.3090 C.ar  1 <1>   0.1000 
 21 C       12.2410    -2.1730     0.7260 C.ar  1 <1>   0.0830 
 22 C       13.1970    -0.9000    -1.0750 C.ar  1 <1>  -0.1500 
 23 O       11.1460    -2.4970     1.4820 O.3   1 <1>  -0.3620 
 24 C       13.4890    -2.7460     0.9550 C.ar  1 <1>  -0.1500 
 25 C       14.4330    -1.4740    -0.8410 C.ar  1 <1>  -0.1500 
 26 C       11.2410    -3.3730     2.5830 C.3   1 <1>   0.0400 
 27 C       14.5790    -2.3980     0.1750 C.ar  1 <1>  -0.1500 
 28 H        2.4560     1.7260     0.2510 H     1 <1>   0.3700 
 29 H        3.2450     0.8690    -1.0570 H     1 <1>   0.3700 
 30 H        1.3280    -2.4610     0.5440 H     1 <1>   0.1500 
 31 H        6.3590    -0.9890     0.0800 H     1 <1>   0.3700 
 32 H        5.8170    -3.2300    -1.2610 H     1 <1>   0.1500 
 33 H        1.9460    -4.6870    -0.2840 H     1 <1>   0.1500 
 34 H        4.2010    -5.0730    -1.1930 H     1 <1>   0.1500 
 35 H        6.7300     1.8770    -0.5010 H     1 <1>   0.0800 
 36 H        7.1870     1.4690    -2.1290 H     1 <1>   0.0800 
 37 H        8.7710     1.7570     0.6590 H     1 <1>   0.0800 
 38 H        9.5010     1.7760    -0.9240 H     1 <1>   0.0800 
 39 H        8.9520    -0.0780    -2.5210 H     1 <1>   0.0800 
 40 H        7.8510    -1.3270    -2.0100 H     1 <1>   0.0800 
 41 H       10.0390    -0.2280     1.2730 H     1 <1>   0.0800 
 42 H       11.1310     1.0090     0.7130 H     1 <1>   0.0800 
 43 H       10.2080    -2.0800    -1.9550 H     1 <1>   0.0800 
 44 H        9.4700    -2.1420    -0.3780 H     1 <1>   0.0800 
 45 H       13.0760    -0.1810    -1.8640 H     1 <1>   0.1500 
 46 H       13.6410    -3.4680     1.7330 H     1 <1>   0.1500 
 47 H       15.2770    -1.2000    -1.4500 H     1 <1>   0.1500 
 48 H       10.2690    -3.4470     3.0350 H     1 <1>   0.0800 
 49 H       11.9430    -2.9690     3.2910 H     1 <1>   0.0800 
 50 H       11.5560    -4.3400     2.2340 H     1 <1>   0.0800 
 51 H       15.5400    -2.8470     0.3600 H     1 <1>   0.1500 
@<TRIPOS>BOND
  1   1   2  2   
  2   2   3  am  
  3   2   4  1   
  4   3  28  1   
  5   3  29  1   
  6   4   5  ar  
  7   4   6  ar  
  8   5   7  1   
  9   5   8  ar  
 10   6   9  ar  
 11   6  30  1   
 12   7  10  am  
 13   7  31  1   
 14   8  11  ar  
 15   8  32  1   
 16   9  11  ar  
 17   9  33  1   
 18  10  12  2   
 19  10  13  1   
 20  11  34  1   
 21  13  14  1   
 22  13  35  1   
 23  13  36  1   
 24  14  15  1   
 25  14  16  1   
 26  15  17  1   
 27  15  37  1   
 28  15  38  1   
 29  16  18  1   
 30  16  39  1   
 31  16  40  1   
 32  17  19  1   
 33  17  41  1   
 34  17  42  1   
 35  18  19  1   
 36  18  43  1   
 37  18  44  1   
 38  19  20  1   
 39  20  21  ar  
 40  20  22  ar  
 41  21  23  1   
 42  21  24  ar  
 43  22  25  ar  
 44  22  45  1   
 45  23  26  1   
 46  24  27  ar  
 47  24  46  1   
 48  25  27  ar  
 49  25  47  1   
 50  26  48  1   
 51  26  49  1   
 52  26  50  1   
 53  27  51  1   
@<TRIPOS>SUBSTRUCTURE
  1 ****  14 GROUP 4 **** **** 0

# MOE 2024.06 (io_trps.svl 2023.06)
