@<TRIPOS>MOLECULE
NONAME
55 58 1 0 0 
SMALL
USER_CHARGES


@<TRIPOS>ATOM
  1 O       -0.2750     1.2610    -1.1200 O.2   1 <1>  -0.5700 
  2 C        0.3610     0.2710    -0.8490 C.2   1 <1>   0.5690 
  3 N       -0.1960    -0.9520    -0.6280 N.am  1 <1>  -0.5470 
  4 C        1.8730     0.3920    -0.7560 C.3   1 <1>   0.0450 
  5 C       -1.5150    -1.4410    -0.5900 C.ar  1 <1>   0.1170 
  6 C        2.4950    -0.6130     0.2100 C.ar  1 <1>  -0.1430 
  7 C       -1.6890    -2.7480    -0.1120 C.ar  1 <1>   0.1000 
  8 C       -2.6170    -0.7070    -1.0040 C.ar  1 <1>  -0.1500 
  9 C        3.0230    -1.8080    -0.2580 C.ar  1 <1>  -0.1500 
 10 C        2.5310    -0.3410     1.5690 C.ar  1 <1>  -0.1500 
 11 N       -0.5660    -3.4910     0.3160 N.pl3 1 <1>  -0.8380 
 12 C       -2.9710    -3.2760    -0.0610 C.ar  1 <1>  -0.1500 
 13 C       -3.8860    -1.2560    -0.9470 C.ar  1 <1>  -0.1500 
 14 C        3.5840    -2.7160     0.6230 C.ar  1 <1>  -0.1500 
 15 C        3.0930    -1.2480     2.4500 C.ar  1 <1>  -0.1500 
 16 C       -0.0830    -3.2380     1.7090 C.3   1 <1>   0.2090 
 17 C       -0.4190    -4.9170    -0.1130 C.3   1 <1>   0.2090 
 18 C       -4.0750    -2.5480    -0.4750 C.ar  1 <1>   0.1000 
 19 C        3.6220    -2.4360     1.9780 C.ar  1 <1>  -0.1500 
 20 C       -0.5560    -4.3280     2.6850 C.3   1 <1>   0.1200 
 21 C       -0.8200    -5.9170     0.9910 C.3   1 <1>   0.1200 
 22 N       -5.3420    -3.1280    -0.4040 N.pl3 1 <1>  -0.8380 
 23 O       -0.2150    -5.6020     2.2140 O.3   1 <1>  -0.5600 
 24 C       -6.0180    -3.3490    -1.7170 C.3   1 <1>   0.2090 
 25 C       -6.2720    -2.5040     0.5820 C.3   1 <1>   0.2090 
 26 C       -7.3570    -4.0840    -1.5310 C.3   1 <1>   0.1200 
 27 C       -7.5990    -3.2810     0.6560 C.3   1 <1>   0.1200 
 28 O       -8.1780    -3.4120    -0.6140 O.3   1 <1>  -0.5600 
 29 H        0.4510    -1.6960    -0.3400 H     1 <1>   0.3700 
 30 H        2.1160     1.3900    -0.4390 H     1 <1>   0.0800 
 31 H        2.2810     0.2590    -1.7400 H     1 <1>   0.0800 
 32 H       -2.4920     0.2930    -1.3740 H     1 <1>   0.1500 
 33 H        3.0000    -2.0390    -1.3090 H     1 <1>   0.1500 
 34 H        2.1210     0.5800     1.9470 H     1 <1>   0.1500 
 35 H       -3.1360    -4.2660     0.3090 H     1 <1>   0.1500 
 36 H       -4.7320    -0.6790    -1.2700 H     1 <1>   0.1500 
 37 H        3.9930    -3.6410     0.2550 H     1 <1>   0.1500 
 38 H        3.1220    -1.0280     3.5040 H     1 <1>   0.1500 
 39 H       -0.4360    -2.2790     2.0470 H     1 <1>   0.0800 
 40 H        0.9910    -3.2110     1.7080 H     1 <1>   0.0800 
 41 H        0.6090    -5.0910    -0.3790 H     1 <1>   0.0800 
 42 H       -1.0150    -5.0940    -0.9920 H     1 <1>   0.0800 
 43 H        4.0610    -3.1420     2.6610 H     1 <1>   0.1500 
 44 H       -1.6230    -4.2780     2.8130 H     1 <1>   0.0800 
 45 H       -0.0850    -4.1950     3.6420 H     1 <1>   0.0800 
 46 H       -0.5090    -6.9080     0.7180 H     1 <1>   0.0800 
 47 H       -1.8860    -5.9220     1.1300 H     1 <1>   0.0800 
 48 H       -5.3740    -3.9310    -2.3530 H     1 <1>   0.0800 
 49 H       -6.1990    -2.4040    -2.1990 H     1 <1>   0.0800 
 50 H       -6.4740    -1.4850     0.3000 H     1 <1>   0.0800 
 51 H       -5.8050    -2.4960     1.5520 H     1 <1>   0.0800 
 52 H       -7.1860    -5.0840    -1.1710 H     1 <1>   0.0800 
 53 H       -7.8840    -4.1380    -2.4660 H     1 <1>   0.0800 
 54 H       -8.2990    -2.7600     1.2840 H     1 <1>   0.0800 
 55 H       -7.4330    -4.2630     1.0620 H     1 <1>   0.0800 
@<TRIPOS>BOND
  1   1   2  2   
  2   2   3  am  
  3   2   4  1   
  4   3   5  1   
  5   3  29  1   
  6   4   6  1   
  7   4  30  1   
  8   4  31  1   
  9   5   7  ar  
 10   5   8  ar  
 11   6   9  ar  
 12   6  10  ar  
 13   7  11  1   
 14   7  12  ar  
 15   8  13  ar  
 16   8  32  1   
 17   9  14  ar  
 18   9  33  1   
 19  10  15  ar  
 20  10  34  1   
 21  11  16  1   
 22  11  17  1   
 23  12  18  ar  
 24  12  35  1   
 25  13  18  ar  
 26  13  36  1   
 27  14  19  ar  
 28  14  37  1   
 29  15  19  ar  
 30  15  38  1   
 31  16  20  1   
 32  16  39  1   
 33  16  40  1   
 34  17  21  1   
 35  17  41  1   
 36  17  42  1   
 37  18  22  1   
 38  19  43  1   
 39  20  23  1   
 40  20  44  1   
 41  20  45  1   
 42  21  23  1   
 43  21  46  1   
 44  21  47  1   
 45  22  24  1   
 46  22  25  1   
 47  24  26  1   
 48  24  48  1   
 49  24  49  1   
 50  25  27  1   
 51  25  50  1   
 52  25  51  1   
 53  26  28  1   
 54  26  52  1   
 55  26  53  1   
 56  27  28  1   
 57  27  54  1   
 58  27  55  1   
@<TRIPOS>SUBSTRUCTURE
  1 ****   7 GROUP 4 **** **** 0

# MOE 2024.06 (io_trps.svl 2023.06)
