@<TRIPOS>MOLECULE
NONAME
29 30 1 0 0 
SMALL
USER_CHARGES


@<TRIPOS>ATOM
  1 I        0.4510     0.2030     1.7150 I     1 <1>  -0.0810 
  2 C        2.0260    -0.8960     0.8080 C.ar  1 <1>   0.0810 
  3 C        3.3140    -0.4000     0.8800 C.ar  1 <1>  -0.1500 
  4 C        1.7280    -2.0820     0.1640 C.ar  1 <1>  -0.1500 
  5 C        4.3330    -1.1230     0.2870 C.ar  1 <1>  -0.1500 
  6 C        2.7630    -2.7890    -0.4200 C.ar  1 <1>  -0.1500 
  7 C        4.0860    -2.3360    -0.3690 C.ar  1 <1>   0.0860 
  8 C        5.1550    -3.1050    -0.9810 C.2   1 <1>   0.5440 
  9 O        4.9330    -3.8300    -1.9310 O.2   1 <1>  -0.5700 
 10 N        6.4270    -3.0410    -0.4880 N.am  1 <1>  -0.7300 
 11 C        7.5950    -3.7680    -1.0140 C.3   1 <1>   0.2200 
 12 C        8.1260    -4.6920     0.0740 C.3   1 <1>  -0.1600 
 13 C        8.7340    -2.7770    -1.2190 C.3   1 <1>  -0.1600 
 14 C        8.9790    -3.8080     0.9930 C.3   1 <1>  -0.1600 
 15 C        9.3720    -2.5800     0.1610 C.3   1 <1>  -0.1600 
 16 H        3.5130     0.5300     1.3830 H     1 <1>   0.1500 
 17 H        0.7160    -2.4440     0.1190 H     1 <1>   0.1500 
 18 H        5.3360    -0.7370     0.3270 H     1 <1>   0.1500 
 19 H        2.5530    -3.7150    -0.9310 H     1 <1>   0.1500 
 20 H        6.6110    -2.5370     0.3770 H     1 <1>   0.3700 
 21 H        7.3440    -4.2990    -1.9180 H     1 <1>   0.0800 
 22 H        8.7600    -5.4290    -0.3870 H     1 <1>   0.0800 
 23 H        7.3350    -5.2000     0.5980 H     1 <1>   0.0800 
 24 H        8.3960    -1.8560    -1.6610 H     1 <1>   0.0800 
 25 H        9.4570    -3.2260    -1.8770 H     1 <1>   0.0800 
 26 H        9.8470    -4.3430     1.3400 H     1 <1>   0.0800 
 27 H        8.3990    -3.5000     1.8460 H     1 <1>   0.0800 
 28 H        8.9810    -1.6890     0.6220 H     1 <1>   0.0800 
 29 H       10.4410    -2.4870     0.0780 H     1 <1>   0.0800 
@<TRIPOS>BOND
  1   1   2  1   
  2   2   3  ar  
  3   2   4  ar  
  4   3   5  ar  
  5   3  16  1   
  6   4   6  ar  
  7   4  17  1   
  8   5   7  ar  
  9   5  18  1   
 10   6   7  ar  
 11   6  19  1   
 12   7   8  1   
 13   8   9  2   
 14   8  10  am  
 15  10  11  1   
 16  10  20  1   
 17  11  12  1   
 18  11  13  1   
 19  11  21  1   
 20  12  14  1   
 21  12  22  1   
 22  12  23  1   
 23  13  15  1   
 24  13  24  1   
 25  13  25  1   
 26  14  15  1   
 27  14  26  1   
 28  14  27  1   
 29  15  28  1   
 30  15  29  1   
@<TRIPOS>SUBSTRUCTURE
  1 ****   8 GROUP 4 **** **** 0

# MOE 2024.06 (io_trps.svl 2023.06)
