@<TRIPOS>MOLECULE
NONAME
36 38 1 0 0 
SMALL
USER_CHARGES


@<TRIPOS>ATOM
  1 O       -1.3300    -2.1930    -1.5300 O.3   1 <1>  -0.6800 
  2 C       -0.9930    -3.1720    -0.6280 C.3   1 <1>   0.4240 
  3 C        0.5330    -3.1300    -0.5050 C.ar  1 <1>  -0.1440 
  4 C       -1.6260    -4.5340    -1.1770 C.3   1 <1>  -0.0800 
  5 C       -1.6900    -2.7920     0.7560 C.3   1 <1>   0.3430 
  6 C        1.3610    -4.1460    -0.9740 C.ar  1 <1>  -0.1500 
  7 C        1.1290    -2.0220     0.0890 C.ar  1 <1>  -0.1500 
  8 C       -3.2000    -4.2890    -1.3240 C.3   1 <1>  -0.1600 
  9 C       -1.5320    -5.5950     0.0120 C.3   1 <1>  -0.1600 
 10 N       -2.7800    -3.7990     0.9790 N.4   1 <1>  -0.9590 
 11 C        2.7340    -4.0650    -0.8280 C.ar  1 <1>  -0.1500 
 12 C        2.5020    -1.9430     0.2350 C.ar  1 <1>  -0.1500 
 13 C       -3.8810    -3.7380    -0.0030 C.3   1 <1>   0.3430 
 14 C       -2.2700    -5.1360     1.3370 C.3   1 <1>   0.3430 
 15 C        3.3130    -2.9670    -0.2190 C.ar  1 <1>  -0.1430 
 16 C        4.8200    -2.8820    -0.0600 C.3   1 <1>  -0.0970 
 17 H       -0.5780    -2.0650    -2.1480 H     1 <1>   0.4000 
 18 H       -1.1760    -4.8790    -2.0930 H     1 <1>   0.0800 
 19 H       -2.0890    -1.7920     0.7100 H     1 <1>   0.0800 
 20 H       -0.9720    -2.8510     1.5570 H     1 <1>   0.0800 
 21 H        0.9740    -5.0190    -1.4670 H     1 <1>   0.1500 
 22 H        0.5390    -1.1930     0.4410 H     1 <1>   0.1500 
 23 H       -3.6840    -5.2110    -1.6020 H     1 <1>   0.0800 
 24 H       -3.3990    -3.6000    -2.1290 H     1 <1>   0.0800 
 25 H       -0.5030    -5.8020     0.2520 H     1 <1>   0.0800 
 26 H       -1.9560    -6.5320    -0.3070 H     1 <1>   0.0800 
 27 H       -2.4030    -4.1150     0.1680 H     1 <1>   0.4500 
 28 H        3.3570    -4.8630    -1.1960 H     1 <1>   0.1500 
 29 H        2.9420    -1.0770     0.6990 H     1 <1>   0.1500 
 30 H       -4.7120    -4.3540     0.3040 H     1 <1>   0.0800 
 31 H       -4.2140    -2.7190    -0.1330 H     1 <1>   0.0800 
 32 H       -1.5860    -5.0760     2.1700 H     1 <1>   0.0800 
 33 H       -3.0830    -5.8010     1.5850 H     1 <1>   0.0800 
 34 H        5.2460    -3.8640     0.0360 H     1 <1>   0.0800 
 35 H        5.0760    -2.3150     0.8170 H     1 <1>   0.0800 
 36 H        5.2500    -2.4000    -0.9210 H     1 <1>   0.0800 
@<TRIPOS>BOND
  1   1   2  1   
  2   1  17  1   
  3   2   3  1   
  4   2   4  1   
  5   2   5  1   
  6   3   6  ar  
  7   3   7  ar  
  8   4   8  1   
  9   4   9  1   
 10   4  18  1   
 11   5  10  1   
 12   5  19  1   
 13   5  20  1   
 14   6  11  ar  
 15   6  21  1   
 16   7  12  ar  
 17   7  22  1   
 18   8  13  1   
 19   8  23  1   
 20   8  24  1   
 21   9  14  1   
 22   9  25  1   
 23   9  26  1   
 24  10  13  1   
 25  10  14  1   
 26  10  27  1   
 27  11  15  ar  
 28  11  28  1   
 29  12  15  ar  
 30  12  29  1   
 31  13  30  1   
 32  13  31  1   
 33  14  32  1   
 34  14  33  1   
 35  15  16  1   
 36  16  34  1   
 37  16  35  1   
 38  16  36  1   
@<TRIPOS>SUBSTRUCTURE
  1 ****   3 GROUP 4 **** **** 0

# MOE 2024.06 (io_trps.svl 2023.06)
