@<TRIPOS>MOLECULE
NONAME
53 54 1 0 0 
SMALL
USER_CHARGES


@<TRIPOS>ATOM
  1 O        5.8730     6.5720    -0.0980 O.3   1 <1>  -0.5600 
  2 C        4.7790     7.3210    -0.5380 C.3   1 <1>   0.1200 
  3 C        5.6090     5.8340     1.0580 C.3   1 <1>   0.1200 
  4 C        3.5880     6.3930    -0.8410 C.3   1 <1>   0.1100 
  5 C        4.4430     4.8580     0.8140 C.3   1 <1>   0.1100 
  6 N        3.2300     5.5670     0.3390 N.3   1 <1>  -0.8100 
  7 C        2.1400     4.6260     0.0690 C.3   1 <1>   0.1100 
  8 C        0.7970     5.3680     0.0890 C.3   1 <1>   0.3430 
  9 N       -0.3550     4.4220    -0.0030 N.4   1 <1>  -0.9060 
 10 C       -1.6600     5.1490     0.0330 C.3   1 <1>   0.3430 
 11 C       -2.8490     4.1910    -0.0430 C.3   1 <1>   0.1200 
 12 O       -4.0070     4.9820    -0.0140 O.3   1 <1>  -0.3630 
 13 C       -5.2560     4.4470    -0.0650 C.ar  1 <1>   0.0820 
 14 C       -6.3520     5.3130    -0.0300 C.ar  1 <1>  -0.1440 
 15 C       -5.4610     3.0690    -0.1500 C.ar  1 <1>  -0.1500 
 16 C       -7.6280     4.7690    -0.0800 C.ar  1 <1>  -0.1500 
 17 C       -6.2390     6.8420     0.0620 C.3   1 <1>   0.0630 
 18 C       -6.7400     2.5450    -0.2010 C.ar  1 <1>  -0.1440 
 19 C       -7.8230     3.4030    -0.1640 C.ar  1 <1>  -0.1500 
 20 C       -5.5400     7.4460    -1.1610 C.3   1 <1>  -0.2400 
 21 C       -5.5810     7.2960     1.3700 C.3   1 <1>  -0.2400 
 22 C       -6.9600     1.0450    -0.2910 C.3   1 <1>  -0.0970 
 23 H        5.0810     7.8480    -1.4260 H     1 <1>   0.0800 
 24 H        4.5230     8.0380     0.2220 H     1 <1>   0.0800 
 25 H        5.3760     6.5150     1.8580 H     1 <1>   0.0800 
 26 H        6.5030     5.2930     1.3120 H     1 <1>   0.0800 
 27 H        3.8550     5.7590    -1.6710 H     1 <1>   0.0800 
 28 H        2.7500     7.0000    -1.1350 H     1 <1>   0.0800 
 29 H        4.2260     4.3450     1.7350 H     1 <1>   0.0800 
 30 H        4.7550     4.1280     0.0860 H     1 <1>   0.0800 
 31 H        2.1300     3.8810     0.8470 H     1 <1>   0.0800 
 32 H        2.3020     4.1410    -0.8780 H     1 <1>   0.0800 
 33 H        0.7680     6.0630    -0.7350 H     1 <1>   0.0800 
 34 H        0.7340     5.9280     1.0080 H     1 <1>   0.0800 
 35 H       -0.3060     3.7620     0.7850 H     1 <1>   0.4500 
 36 H       -0.2820     3.8760    -0.8710 H     1 <1>   0.4500 
 37 H       -1.7170     5.8340    -0.7970 H     1 <1>   0.0800 
 38 H       -1.7350     5.7160     0.9480 H     1 <1>   0.0800 
 39 H       -2.8750     3.5320     0.8070 H     1 <1>   0.0800 
 40 H       -2.8470     3.6390    -0.9670 H     1 <1>   0.0800 
 41 H       -4.6410     2.3810    -0.1760 H     1 <1>   0.1500 
 42 H       -8.4930     5.4080    -0.0540 H     1 <1>   0.1500 
 43 H       -7.2370     7.2470     0.0700 H     1 <1>   0.0800 
 44 H       -8.8250     3.0120    -0.2000 H     1 <1>   0.1500 
 45 H       -4.5050     7.1640    -1.1980 H     1 <1>   0.0800 
 46 H       -5.6010     8.5190    -1.1290 H     1 <1>   0.0800 
 47 H       -6.0210     7.1030    -2.0600 H     1 <1>   0.0800 
 48 H       -4.5480     7.0080     1.4070 H     1 <1>   0.0800 
 49 H       -6.0920     6.8520     2.2060 H     1 <1>   0.0800 
 50 H       -5.6410     8.3650     1.4620 H     1 <1>   0.0800 
 51 H       -6.1520     0.5750    -0.8220 H     1 <1>   0.0800 
 52 H       -7.8750     0.8310    -0.8130 H     1 <1>   0.0800 
 53 H       -7.0190     0.6260     0.6970 H     1 <1>   0.0800 
@<TRIPOS>BOND
  1   1   2  1   
  2   1   3  1   
  3   2   4  1   
  4   2  23  1   
  5   2  24  1   
  6   3   5  1   
  7   3  25  1   
  8   3  26  1   
  9   4   6  1   
 10   4  27  1   
 11   4  28  1   
 12   5   6  1   
 13   5  29  1   
 14   5  30  1   
 15   6   7  1   
 16   7   8  1   
 17   7  31  1   
 18   7  32  1   
 19   8   9  1   
 20   8  33  1   
 21   8  34  1   
 22   9  10  1   
 23   9  35  1   
 24   9  36  1   
 25  10  11  1   
 26  10  37  1   
 27  10  38  1   
 28  11  12  1   
 29  11  39  1   
 30  11  40  1   
 31  12  13  1   
 32  13  14  ar  
 33  13  15  ar  
 34  14  16  ar  
 35  14  17  1   
 36  15  18  ar  
 37  15  41  1   
 38  16  19  ar  
 39  16  42  1   
 40  17  20  1   
 41  17  21  1   
 42  17  43  1   
 43  18  19  ar  
 44  18  22  1   
 45  19  44  1   
 46  20  45  1   
 47  20  46  1   
 48  20  47  1   
 49  21  48  1   
 50  21  49  1   
 51  21  50  1   
 52  22  51  1   
 53  22  52  1   
 54  22  53  1   
@<TRIPOS>SUBSTRUCTURE
  1 ****  10 GROUP 4 **** **** 0

# MOE 2024.06 (io_trps.svl 2023.06)
