@<TRIPOS>MOLECULE
NONAME
49 51 1 0 0 
SMALL
USER_CHARGES


@<TRIPOS>ATOM
  1 O        0.3540     0.9180     1.3750 O.2   1 <1>  -0.5700 
  2 C        0.6170     1.8510     0.6620 C.2   1 <1>   0.5690 
  3 N        1.8670     2.2540     0.3130 N.am  1 <1>  -0.4200 
  4 C       -0.4340     2.7360     0.0200 C.3   1 <1>  -0.0190 
  5 C        1.8350     3.3270    -0.5210 C.2   1 <1>   0.5690 
  6 C        3.1190     1.6240     0.7910 C.3   1 <1>   0.1400 
  7 C        0.4070     3.7570    -0.7950 C.3   1 <1>  -0.0190 
  8 C       -1.4100     3.3240     1.0570 C.3   1 <1>  -0.0220 
  9 O        2.8010     3.8640    -1.0010 O.2   1 <1>  -0.5700 
 10 C        3.7030     0.7200    -0.2930 C.3   1 <1>  -0.0990 
 11 C        0.1770     5.2460    -0.4740 C.3   1 <1>  -0.0220 
 12 C       -1.9990     4.6320     0.5670 C.2   1 <1>  -0.2880 
 13 C        5.1060     0.3240     0.0910 C.2   1 <1>   0.5690 
 14 C       -1.2760     5.5080    -0.1310 C.2   1 <1>  -0.2880 
 15 O        5.2690    -0.6460     0.7870 O.2   1 <1>  -0.5700 
 16 N        6.1310     1.0950    -0.3480 N.am  1 <1>  -0.7300 
 17 C        7.5560     0.8600    -0.0600 C.3   1 <1>   0.2200 
 18 C        8.0480     2.0180     0.8160 C.3   1 <1>  -0.1600 
 19 C        8.2880     0.7050    -1.4000 C.3   1 <1>  -0.1600 
 20 C        9.5490     1.9910     1.1490 C.3   1 <1>  -0.1600 
 21 C        9.7060     0.1380    -1.2300 C.3   1 <1>  -0.1600 
 22 C       10.4250     2.3630    -0.0550 C.3   1 <1>  -0.1600 
 23 C       10.7980     1.1880    -0.9720 C.3   1 <1>  -0.1600 
 24 H       -0.9980     2.1340    -0.6700 H     1 <1>   0.0800 
 25 H        2.9270     1.0500     1.6820 H     1 <1>   0.0800 
 26 H        3.8230     2.4010     1.0370 H     1 <1>   0.0800 
 27 H        0.2070     3.6030    -1.8400 H     1 <1>   0.0800 
 28 H       -0.9050     3.5060     1.9900 H     1 <1>   0.0800 
 29 H       -2.1950     2.6100     1.2430 H     1 <1>   0.0800 
 30 H        3.7320     1.2300    -1.2380 H     1 <1>   0.0800 
 31 H        3.1030    -0.1670    -0.3910 H     1 <1>   0.0800 
 32 H        0.4690     5.8370    -1.3250 H     1 <1>   0.0800 
 33 H        0.7840     5.5510     0.3610 H     1 <1>   0.0800 
 34 H       -3.0270     4.7910     0.8510 H     1 <1>   0.1500 
 35 H       -1.6520     6.4580    -0.4760 H     1 <1>   0.1500 
 36 H        5.9400     1.9170    -0.9210 H     1 <1>   0.3700 
 37 H        7.6530    -0.0590     0.4960 H     1 <1>   0.0800 
 38 H        7.5040     1.9750     1.7430 H     1 <1>   0.0800 
 39 H        7.8110     2.9550     0.3420 H     1 <1>   0.0800 
 40 H        8.3170     1.6390    -1.9330 H     1 <1>   0.0800 
 41 H        7.7320     0.0000    -1.9940 H     1 <1>   0.0800 
 42 H        9.8350     1.0330     1.5500 H     1 <1>   0.0800 
 43 H        9.7220     2.7220     1.9210 H     1 <1>   0.0800 
 44 H        9.9720    -0.3980    -2.1250 H     1 <1>   0.0800 
 45 H        9.7080    -0.5830    -0.4300 H     1 <1>   0.0800 
 46 H       11.3410     2.7970     0.3080 H     1 <1>   0.0800 
 47 H        9.9330     3.1260    -0.6340 H     1 <1>   0.0800 
 48 H       11.1140     1.5960    -1.9180 H     1 <1>   0.0800 
 49 H       11.6500     0.6810    -0.5530 H     1 <1>   0.0800 
@<TRIPOS>BOND
  1   1   2  2   
  2   2   3  am  
  3   2   4  1   
  4   3   5  am  
  5   3   6  1   
  6   4   7  1   
  7   4   8  1   
  8   4  24  1   
  9   5   7  1   
 10   5   9  2   
 11   6  10  1   
 12   6  25  1   
 13   6  26  1   
 14   7  11  1   
 15   7  27  1   
 16   8  12  1   
 17   8  28  1   
 18   8  29  1   
 19  10  13  1   
 20  10  30  1   
 21  10  31  1   
 22  11  14  1   
 23  11  32  1   
 24  11  33  1   
 25  12  14  2   
 26  12  34  1   
 27  13  15  2   
 28  13  16  am  
 29  14  35  1   
 30  16  17  1   
 31  16  36  1   
 32  17  18  1   
 33  17  19  1   
 34  17  37  1   
 35  18  20  1   
 36  18  38  1   
 37  18  39  1   
 38  19  21  1   
 39  19  40  1   
 40  19  41  1   
 41  20  22  1   
 42  20  42  1   
 43  20  43  1   
 44  21  23  1   
 45  21  44  1   
 46  21  45  1   
 47  22  23  1   
 48  22  46  1   
 49  22  47  1   
 50  23  48  1   
 51  23  49  1   
@<TRIPOS>SUBSTRUCTURE
  1 ****   6 GROUP 4 **** **** 0

# MOE 2024.06 (io_trps.svl 2023.06)
