@<TRIPOS>MOLECULE
NONAME
44 45 1 0 0 
SMALL
USER_CHARGES


@<TRIPOS>ATOM
  1 S       -0.6990     0.7600     0.4180 S.3   1 <1>  -0.2860 
  2 C        1.0680     0.7110     0.7340 C.2   1 <1>   0.2420 
  3 C       -1.4150     0.3750     2.0930 C.3   1 <1>   0.1310 
  4 N        1.5740     0.4010     1.8730 N.2   1 <1>  -0.3380 
  5 N        1.9780     0.9960    -0.1970 N.pl3 1 <1>   0.0480 
  6 C       -2.9320     0.2810     2.0460 C.2   1 <1>   0.5690 
  7 N        2.8980     0.4810     1.7130 N.2   1 <1>  -0.3380 
  8 C        3.1200     0.8370     0.4900 C.2   1 <1>   0.0060 
  9 C        1.7520     1.3880    -1.6030 C.3   1 <1>   0.0160 
 10 O       -3.5410     0.4790     3.0690 O.2   1 <1>  -0.5700 
 11 N       -3.5280    -0.0270     0.8520 N.am  1 <1>  -0.5470 
 12 C        4.5160     1.0470    -0.0820 C.3   1 <1>   0.0200 
 13 C       -4.8710    -0.2050     0.4810 C.ar  1 <1>   0.1170 
 14 C        4.8400     2.5290    -0.3560 C.3   1 <1>  -0.0800 
 15 C       -5.2300    -0.0900    -0.8650 C.ar  1 <1>  -0.1430 
 16 C       -5.8590    -0.5110     1.4120 C.ar  1 <1>  -0.1500 
 17 C        6.2280     2.6610    -0.9950 C.3   1 <1>  -0.2400 
 18 C        4.7830     3.3670     0.9290 C.3   1 <1>  -0.2400 
 19 C       -6.5490    -0.2780    -1.2480 C.ar  1 <1>  -0.1500 
 20 C       -4.1960     0.2440    -1.9350 C.3   1 <1>  -0.0970 
 21 C       -7.1730    -0.6950     1.0240 C.ar  1 <1>  -0.1500 
 22 C       -7.5190    -0.5790    -0.3090 C.ar  1 <1>  -0.1500 
 23 H       -1.1080     1.1620     2.7580 H     1 <1>   0.0800 
 24 H       -0.9930    -0.5580     2.4170 H     1 <1>   0.0800 
 25 H        1.5150     2.4360    -1.6430 H     1 <1>   0.0800 
 26 H        0.9340     0.8200    -2.0080 H     1 <1>   0.0800 
 27 H        2.6350     1.1960    -2.1840 H     1 <1>   0.0800 
 28 H       -2.8770    -0.0640     0.0690 H     1 <1>   0.3700 
 29 H        4.6100     0.4770    -0.9890 H     1 <1>   0.0800 
 30 H        5.2330     0.6520     0.6170 H     1 <1>   0.0800 
 31 H        4.1160     2.9240    -1.0470 H     1 <1>   0.0800 
 32 H       -5.6080    -0.6110     2.4510 H     1 <1>   0.1500 
 33 H        6.9880     2.2880    -0.3320 H     1 <1>   0.0800 
 34 H        6.4420     3.6930    -1.2120 H     1 <1>   0.0800 
 35 H        6.2740     2.1070    -1.9170 H     1 <1>   0.0800 
 36 H        5.4820     2.9930     1.6570 H     1 <1>   0.0800 
 37 H        3.7980     3.3350     1.3620 H     1 <1>   0.0800 
 38 H        5.0230     4.3940     0.7200 H     1 <1>   0.0800 
 39 H       -6.8350    -0.1910    -2.2810 H     1 <1>   0.1500 
 40 H       -3.6990     1.1660    -1.6920 H     1 <1>   0.0800 
 41 H       -4.6620     0.3600    -2.8970 H     1 <1>   0.0800 
 42 H       -3.4690    -0.5450    -2.0050 H     1 <1>   0.0800 
 43 H       -7.9230    -0.9280     1.7590 H     1 <1>   0.1500 
 44 H       -8.5410    -0.7210    -0.6150 H     1 <1>   0.1500 
@<TRIPOS>BOND
  1   1   2  1   
  2   1   3  1   
  3   2   4  2   
  4   2   5  1   
  5   3   6  1   
  6   3  23  1   
  7   3  24  1   
  8   4   7  1   
  9   5   8  1   
 10   5   9  1   
 11   6  10  2   
 12   6  11  am  
 13   7   8  2   
 14   8  12  1   
 15   9  25  1   
 16   9  26  1   
 17   9  27  1   
 18  11  13  1   
 19  11  28  1   
 20  12  14  1   
 21  12  29  1   
 22  12  30  1   
 23  13  15  ar  
 24  13  16  ar  
 25  14  17  1   
 26  14  18  1   
 27  14  31  1   
 28  15  19  ar  
 29  15  20  1   
 30  16  21  ar  
 31  16  32  1   
 32  17  33  1   
 33  17  34  1   
 34  17  35  1   
 35  18  36  1   
 36  18  37  1   
 37  18  38  1   
 38  19  22  ar  
 39  19  39  1   
 40  20  40  1   
 41  20  41  1   
 42  20  42  1   
 43  21  22  ar  
 44  21  43  1   
 45  22  44  1   
@<TRIPOS>SUBSTRUCTURE
  1 ****   1 GROUP 4 **** **** 0

# MOE 2024.06 (io_trps.svl 2023.06)
