@<TRIPOS>MOLECULE
NONAME
43 44 1 0 0 
SMALL
USER_CHARGES


@<TRIPOS>ATOM
  1 O        0.1680    -1.4320     0.8520 O.3   1 <1>  -0.5600 
  2 C        0.9180    -0.3840     1.3800 C.3   1 <1>   0.1200 
  3 C        0.9120    -2.5640     0.5250 C.3   1 <1>   0.1200 
  4 C        1.9540     0.0730     0.3410 C.3   1 <1>   0.1100 
  5 C        1.9500    -2.1970    -0.5480 C.3   1 <1>   0.1100 
  6 N        2.7950    -1.0630    -0.1060 N.3   1 <1>  -0.3020 
  7 N        3.7500    -0.6610    -1.1690 N.4   1 <1>  -0.6410 
  8 C        5.0110    -0.0950    -0.6110 C.3   1 <1>   0.4230 
  9 C        5.8790     0.4500    -1.7480 C.3   1 <1>  -0.1600 
 10 C        5.7810    -1.1620     0.1770 C.3   1 <1>  -0.1600 
 11 C        7.2090     0.9860    -1.2130 C.3   1 <1>   0.3430 
 12 C        7.1110    -0.6140     0.6930 C.3   1 <1>   0.3430 
 13 N        7.9200    -0.0750    -0.4430 N.4   1 <1>  -0.9590 
 14 C        9.2380     0.4520     0.0320 C.3   1 <1>   0.3430 
 15 C       10.1610    -0.6980     0.4440 C.3   1 <1>  -0.1600 
 16 C       11.5520    -0.1720     0.8130 C.3   1 <1>  -0.2400 
 17 H        1.3890    -0.7140     2.2910 H     1 <1>   0.0800 
 18 H        0.2390     0.4180     1.6140 H     1 <1>   0.0800 
 19 H        0.2300    -3.3080     0.1510 H     1 <1>   0.0800 
 20 H        1.3830    -2.9440     1.4160 H     1 <1>   0.0800 
 21 H        2.5710     0.8360     0.7790 H     1 <1>   0.0800 
 22 H        1.4270     0.4970    -0.4970 H     1 <1>   0.0800 
 23 H        1.4260    -1.9390    -1.4530 H     1 <1>   0.0800 
 24 H        2.5660    -3.0570    -0.7420 H     1 <1>   0.0800 
 25 H        3.2980     0.0180    -1.8010 H     1 <1>   0.4500 
 26 H        3.9770    -1.4790    -1.7520 H     1 <1>   0.4500 
 27 H        4.7610     0.7190     0.0510 H     1 <1>   0.0800 
 28 H        5.3670     1.2580    -2.2420 H     1 <1>   0.0800 
 29 H        6.0830    -0.3160    -2.4770 H     1 <1>   0.0800 
 30 H        5.9710    -2.0270    -0.4340 H     1 <1>   0.0800 
 31 H        5.2010    -1.4760     1.0280 H     1 <1>   0.0800 
 32 H        7.0300     1.8380    -0.5760 H     1 <1>   0.0800 
 33 H        7.8240     1.3140    -2.0390 H     1 <1>   0.0800 
 34 H        7.6520    -1.4030     1.1910 H     1 <1>   0.0800 
 35 H        6.9290     0.1690     1.4130 H     1 <1>   0.0800 
 36 H        8.1500    -0.8510    -1.0830 H     1 <1>   0.4500 
 37 H        9.0990     1.1250     0.8630 H     1 <1>   0.0800 
 38 H        9.7170     1.0010    -0.7640 H     1 <1>   0.0800 
 39 H       10.2680    -1.3950    -0.3700 H     1 <1>   0.0800 
 40 H        9.7640    -1.2180     1.2970 H     1 <1>   0.0800 
 41 H       12.0080     0.3320    -0.0220 H     1 <1>   0.0800 
 42 H       12.1910    -0.9910     1.0980 H     1 <1>   0.0800 
 43 H       11.4970     0.5130     1.6430 H     1 <1>   0.0800 
@<TRIPOS>BOND
  1   1   2  1   
  2   1   3  1   
  3   2   4  1   
  4   2  17  1   
  5   2  18  1   
  6   3   5  1   
  7   3  19  1   
  8   3  20  1   
  9   4   6  1   
 10   4  21  1   
 11   4  22  1   
 12   5   6  1   
 13   5  23  1   
 14   5  24  1   
 15   6   7  1   
 16   7   8  1   
 17   7  25  1   
 18   7  26  1   
 19   8   9  1   
 20   8  10  1   
 21   8  27  1   
 22   9  11  1   
 23   9  28  1   
 24   9  29  1   
 25  10  12  1   
 26  10  30  1   
 27  10  31  1   
 28  11  13  1   
 29  11  32  1   
 30  11  33  1   
 31  12  13  1   
 32  12  34  1   
 33  12  35  1   
 34  13  14  1   
 35  13  36  1   
 36  14  15  1   
 37  14  37  1   
 38  14  38  1   
 39  15  16  1   
 40  15  39  1   
 41  15  40  1   
 42  16  41  1   
 43  16  42  1   
 44  16  43  1   
@<TRIPOS>SUBSTRUCTURE
  1 ****   8 GROUP 4 **** **** 0

# MOE 2024.06 (io_trps.svl 2023.06)
