@<TRIPOS>MOLECULE
NONAME
28 28 1 0 0 
SMALL
USER_CHARGES


@<TRIPOS>ATOM
  1 O       -0.8740     1.2220    -1.5680 O.3   1 <1>  -0.6800 
  2 C       -1.0260     1.1300    -0.1950 C.3   1 <1>   0.3440 
  3 C       -2.5180     1.1900     0.1310 C.ar  1 <1>  -0.1440 
  4 C       -0.1810     2.2140     0.5210 C.3   1 <1>  -0.0800 
  5 C       -3.3940     2.0180    -0.5590 C.ar  1 <1>  -0.1500 
  6 C       -3.0210     0.3900     1.1470 C.ar  1 <1>  -0.1500 
  7 C       -0.5630     3.6570     0.1450 C.3   1 <1>  -0.2400 
  8 C        1.3230     2.0040     0.2780 C.3   1 <1>  -0.2400 
  9 C       -4.7410     2.0420    -0.2440 C.ar  1 <1>  -0.1500 
 10 C       -4.3680     0.4130     1.4630 C.ar  1 <1>  -0.1500 
 11 C       -5.2370     1.2380     0.7680 C.ar  1 <1>  -0.1430 
 12 C       -6.7140     1.2660     1.1170 C.3   1 <1>  -0.0970 
 13 H       -1.6040     0.7260    -1.9830 H     1 <1>   0.4000 
 14 H       -0.6540     0.1610     0.0880 H     1 <1>   0.0800 
 15 H       -0.3560     2.0990     1.5760 H     1 <1>   0.0800 
 16 H       -3.0270     2.6550    -1.3460 H     1 <1>   0.1500 
 17 H       -2.3660    -0.2590     1.7010 H     1 <1>   0.1500 
 18 H       -0.4500     3.8130    -0.9140 H     1 <1>   0.0800 
 19 H        0.0650     4.3580     0.6640 H     1 <1>   0.0800 
 20 H       -1.5830     3.8610     0.4170 H     1 <1>   0.0800 
 21 H        1.5560     2.1320    -0.7650 H     1 <1>   0.0800 
 22 H        1.6170     1.0130     0.5740 H     1 <1>   0.0800 
 23 H        1.8990     2.7120     0.8470 H     1 <1>   0.0800 
 24 H       -5.4010     2.6930    -0.7900 H     1 <1>   0.1500 
 25 H       -4.7380    -0.2140     2.2550 H     1 <1>   0.1500 
 26 H       -6.8950     2.0110     1.8700 H     1 <1>   0.0800 
 27 H       -7.0300     0.3090     1.4910 H     1 <1>   0.0800 
 28 H       -7.3000     1.5000     0.2470 H     1 <1>   0.0800 
@<TRIPOS>BOND
  1   1   2  1   
  2   1  13  1   
  3   2   3  1   
  4   2   4  1   
  5   2  14  1   
  6   3   5  ar  
  7   3   6  ar  
  8   4   7  1   
  9   4   8  1   
 10   4  15  1   
 11   5   9  ar  
 12   5  16  1   
 13   6  10  ar  
 14   6  17  1   
 15   7  18  1   
 16   7  19  1   
 17   7  20  1   
 18   8  21  1   
 19   8  22  1   
 20   8  23  1   
 21   9  11  ar  
 22   9  24  1   
 23  10  11  ar  
 24  10  25  1   
 25  11  12  1   
 26  12  26  1   
 27  12  27  1   
 28  12  28  1   
@<TRIPOS>SUBSTRUCTURE
  1 ****   3 GROUP 4 **** **** 0

# MOE 2024.06 (io_trps.svl 2023.06)
