@<TRIPOS>MOLECULE
NONAME
42 44 1 0 0 
SMALL
USER_CHARGES


@<TRIPOS>ATOM
  1 N       -1.7250     1.0280    -0.2440 N.ar  1 <1>  -0.6250 
  2 C       -2.5350     0.6650    -1.2230 C.ar  1 <1>   0.1510 
  3 C       -1.6820     0.2100     0.7940 C.ar  1 <1>   0.1510 
  4 C       -3.3180    -0.4770    -1.2100 C.ar  1 <1>  -0.1590 
  5 C       -2.4230    -0.9540     0.9070 C.ar  1 <1>  -0.1590 
  6 C       -3.2750    -1.3210    -0.1170 C.ar  1 <1>  -0.1520 
  7 C       -4.1290    -2.5660    -0.0370 C.3   1 <1>   0.3040 
  8 N       -5.4490    -2.1210     0.4270 N.pl3 1 <1>  -0.7180 
  9 C       -6.6290    -2.6960     0.2640 C.cat 1 <1>   1.0690 
 10 N       -6.8290    -3.8820    -0.2950 N.pl3 1 <1>  -0.7040 
 11 N       -7.7890    -2.1510     0.6330 N.pl3 1 <1>  -0.7680 
 12 C       -8.1870    -4.1320    -0.3110 C.ar  1 <1>   0.3020 
 13 C       -8.8000    -3.0380     0.2720 C.ar  1 <1>   0.3020 
 14 C       -8.0230    -0.8420     1.2810 C.3   1 <1>   0.3470 
 15 C       -8.9300    -5.2080    -0.7810 C.ar  1 <1>  -0.1180 
 16 C      -10.1840    -2.9880     0.3930 C.ar  1 <1>  -0.1180 
 17 C       -8.1220     0.2420     0.2070 C.3   1 <1>  -0.1690 
 18 C      -10.3050    -5.1600    -0.6560 C.ar  1 <1>  -0.1590 
 19 C      -10.9290    -4.0550    -0.0730 C.ar  1 <1>  -0.1590 
 20 C       -8.3280     1.6270     0.8320 C.3   1 <1>  -0.1690 
 21 C       -8.4170     2.7040    -0.2510 C.3   1 <1>  -0.2480 
 22 H       -2.5760     1.3140    -2.0810 H     1 <1>   0.1410 
 23 H       -1.0190     0.4850     1.5980 H     1 <1>   0.1410 
 24 H       -3.9480    -0.6880    -2.0560 H     1 <1>   0.1410 
 25 H       -2.3200    -1.5550     1.7930 H     1 <1>   0.1410 
 26 H       -3.7060    -3.2650     0.6660 H     1 <1>   0.0710 
 27 H       -4.2000    -3.0320    -1.0050 H     1 <1>   0.0710 
 28 H       -5.4170    -1.1850     0.8280 H     1 <1>   0.4440 
 29 H       -6.1110    -4.5050    -0.6500 H     1 <1>   0.4440 
 30 H       -7.2170    -0.6170     1.9590 H     1 <1>   0.0710 
 31 H       -8.9340    -0.8750     1.8550 H     1 <1>   0.0710 
 32 H       -8.4440    -6.0560    -1.2300 H     1 <1>   0.1410 
 33 H      -10.6660    -2.1370     0.8400 H     1 <1>   0.1410 
 34 H       -8.9510     0.0240    -0.4430 H     1 <1>   0.0710 
 35 H       -7.2210     0.2560    -0.3800 H     1 <1>   0.0710 
 36 H      -10.9100    -5.9790    -1.0120 H     1 <1>   0.1410 
 37 H      -12.0040    -4.0420     0.0100 H     1 <1>   0.1410 
 38 H       -7.5090     1.8630     1.4900 H     1 <1>   0.0710 
 39 H       -9.2370     1.6390     1.4100 H     1 <1>   0.0710 
 40 H       -7.5100     2.7380    -0.8300 H     1 <1>   0.0710 
 41 H       -8.5650     3.6690     0.2020 H     1 <1>   0.0710 
 42 H       -9.2430     2.5110    -0.9130 H     1 <1>   0.0710 
@<TRIPOS>BOND
  1   1   2  ar  
  2   1   3  ar  
  3   2   4  ar  
  4   2  22  1   
  5   3   5  ar  
  6   3  23  1   
  7   4   6  ar  
  8   4  24  1   
  9   5   6  ar  
 10   5  25  1   
 11   6   7  1   
 12   7   8  1   
 13   7  26  1   
 14   7  27  1   
 15   8   9  ar  
 16   8  28  1   
 17   9  10  ar  
 18   9  11  ar  
 19  10  12  1   
 20  10  29  1   
 21  11  13  1   
 22  11  14  1   
 23  12  13  ar  
 24  12  15  ar  
 25  13  16  ar  
 26  14  17  1   
 27  14  30  1   
 28  14  31  1   
 29  15  18  ar  
 30  15  32  1   
 31  16  19  ar  
 32  16  33  1   
 33  17  20  1   
 34  17  34  1   
 35  17  35  1   
 36  18  19  ar  
 37  18  36  1   
 38  19  37  1   
 39  20  21  1   
 40  20  38  1   
 41  20  39  1   
 42  21  40  1   
 43  21  41  1   
 44  21  42  1   
@<TRIPOS>SUBSTRUCTURE
  1 ****   9 GROUP 4 **** **** 0

# MOE 2024.06 (io_trps.svl 2023.06)
