@<TRIPOS>MOLECULE
NONAME
57 60 1 0 0 
SMALL
USER_CHARGES


@<TRIPOS>ATOM
  1 F        1.6900    -0.4200    -0.9590 F     1 <1>  -0.1900 
  2 C        2.4660     0.6030    -0.7140 C.ar  1 <1>   0.1900 
  3 C        3.3040     1.0590    -1.7130 C.ar  1 <1>  -0.1500 
  4 C        2.4190     1.1940     0.5340 C.ar  1 <1>  -0.1500 
  5 C        4.1230     2.1440    -1.4460 C.ar  1 <1>  -0.1500 
  6 C        3.2430     2.2780     0.7850 C.ar  1 <1>  -0.1500 
  7 C        4.1040     2.7660    -0.1980 C.ar  1 <1>   0.1170 
  8 N        4.9450     3.8730     0.0600 N.am  1 <1>  -0.2370 
  9 C        5.7610     4.0180     1.1500 C.2   1 <1>   0.5690 
 10 C        5.0560     4.9780    -0.7380 C.2   1 <1>   0.5690 
 11 O        5.7550     3.3130     2.1320 O.2   1 <1>  -0.5700 
 12 C        6.6490     5.2670     1.0210 C.3   1 <1>   0.2510 
 13 O        4.4620     5.1770    -1.7670 O.2   1 <1>  -0.5700 
 14 C        6.0160     5.9930    -0.1750 C.3   1 <1>  -0.0990 
 15 N        8.1000     5.0380     0.7330 N.3   1 <1>  -0.8100 
 16 C        8.6720     3.9310     1.5250 C.3   1 <1>   0.1100 
 17 C        8.8730     6.2730     0.9490 C.3   1 <1>   0.1100 
 18 C       10.1140     3.6620     1.0860 C.3   1 <1>  -0.1600 
 19 C       10.3150     6.0810     0.4710 C.3   1 <1>  -0.1600 
 20 C       10.9970     4.9130     1.2040 C.3   1 <1>  -0.0800 
 21 C       12.4010     4.6140     0.6480 C.3   1 <1>  -0.1600 
 22 C       13.3580     5.7930     0.8310 C.3   1 <1>   0.3430 
 23 N       14.7280     5.4250     0.3840 N.4   1 <1>  -0.9590 
 24 C       15.7670     6.4060     0.8460 C.3   1 <1>   0.3430 
 25 C       14.8550     5.1960    -1.0980 C.3   1 <1>   0.3430 
 26 C       17.1840     5.9880     0.3860 C.3   1 <1>   0.1200 
 27 C       16.3150     4.8860    -1.5040 C.3   1 <1>   0.1200 
 28 O       17.1480     4.8130    -0.3790 O.3   1 <1>  -0.5600 
 29 H        3.3120     0.5760    -2.6730 H     1 <1>   0.1500 
 30 H        1.7540     0.8110     1.2870 H     1 <1>   0.1500 
 31 H        4.7780     2.5140    -2.2150 H     1 <1>   0.1500 
 32 H        3.2190     2.7450     1.7540 H     1 <1>   0.1500 
 33 H        6.5430     5.8470     1.9210 H     1 <1>   0.0800 
 34 H        5.4640     6.8550     0.1480 H     1 <1>   0.0800 
 35 H        6.7310     6.2690    -0.9270 H     1 <1>   0.0800 
 36 H        8.1120     3.0260     1.3630 H     1 <1>   0.0800 
 37 H        8.6360     4.1680     2.5760 H     1 <1>   0.0800 
 38 H        8.8640     6.5320     1.9950 H     1 <1>   0.0800 
 39 H        8.4330     7.0870     0.3980 H     1 <1>   0.0800 
 40 H       10.0920     3.3170     0.0660 H     1 <1>   0.0800 
 41 H       10.5150     2.8690     1.6920 H     1 <1>   0.0800 
 42 H       10.8480     6.9990     0.6400 H     1 <1>   0.0800 
 43 H       10.2950     5.8950    -0.5900 H     1 <1>   0.0800 
 44 H       11.0760     5.1640     2.2500 H     1 <1>   0.0800 
 45 H       12.3080     4.3690    -0.3950 H     1 <1>   0.0800 
 46 H       12.7970     3.7580     1.1660 H     1 <1>   0.0800 
 47 H       13.3800     6.0600     1.8760 H     1 <1>   0.0800 
 48 H       13.0040     6.6440     0.2730 H     1 <1>   0.0800 
 49 H       15.0010     4.5290     0.8160 H     1 <1>   0.4500 
 50 H       15.7560     6.4770     1.9220 H     1 <1>   0.0800 
 51 H       15.5490     7.3850     0.4540 H     1 <1>   0.0800 
 52 H       14.5200     6.0670    -1.6370 H     1 <1>   0.0800 
 53 H       14.2310     4.3710    -1.3980 H     1 <1>   0.0800 
 54 H       17.8120     5.8020     1.2410 H     1 <1>   0.0800 
 55 H       17.6400     6.7680    -0.2000 H     1 <1>   0.0800 
 56 H       16.6960     5.6430    -2.1680 H     1 <1>   0.0800 
 57 H       16.3640     3.9380    -2.0120 H     1 <1>   0.0800 
@<TRIPOS>BOND
  1   1   2  1   
  2   2   3  ar  
  3   2   4  ar  
  4   3   5  ar  
  5   3  29  1   
  6   4   6  ar  
  7   4  30  1   
  8   5   7  ar  
  9   5  31  1   
 10   6   7  ar  
 11   6  32  1   
 12   7   8  1   
 13   8   9  am  
 14   8  10  am  
 15   9  11  2   
 16   9  12  1   
 17  10  13  2   
 18  10  14  1   
 19  12  14  1   
 20  12  15  1   
 21  12  33  1   
 22  14  34  1   
 23  14  35  1   
 24  15  16  1   
 25  15  17  1   
 26  16  18  1   
 27  16  36  1   
 28  16  37  1   
 29  17  19  1   
 30  17  38  1   
 31  17  39  1   
 32  18  20  1   
 33  18  40  1   
 34  18  41  1   
 35  19  20  1   
 36  19  42  1   
 37  19  43  1   
 38  20  21  1   
 39  20  44  1   
 40  21  22  1   
 41  21  45  1   
 42  21  46  1   
 43  22  23  1   
 44  22  47  1   
 45  22  48  1   
 46  23  24  1   
 47  23  25  1   
 48  23  49  1   
 49  24  26  1   
 50  24  50  1   
 51  24  51  1   
 52  25  27  1   
 53  25  52  1   
 54  25  53  1   
 55  26  28  1   
 56  26  54  1   
 57  26  55  1   
 58  27  28  1   
 59  27  56  1   
 60  27  57  1   
@<TRIPOS>SUBSTRUCTURE
  1 ****  15 GROUP 4 **** **** 0

# MOE 2024.06 (io_trps.svl 2023.06)
