@<TRIPOS>MOLECULE
NONAME
54 56 1 0 0 
SMALL
USER_CHARGES


@<TRIPOS>ATOM
  1 O       -0.2080     0.9320    -0.3350 O.3   1 <1>  -0.3630 
  2 C       -1.2440     1.2100     0.5020 C.ar  1 <1>   0.0830 
  3 C        1.1240     1.0510     0.1170 C.3   1 <1>   0.2640 
  4 C       -1.2640     2.2460     1.4480 C.ar  1 <1>   0.0830 
  5 C       -2.3460     0.3820     0.3650 C.ar  1 <1>  -0.1500 
  6 C        2.0020     0.1220    -0.7060 C.ar  1 <1>  -0.1440 
  7 O       -0.1900     3.0830     1.5550 O.3   1 <1>  -0.3630 
  8 C       -2.3960     2.4040     2.2450 C.ar  1 <1>  -0.1500 
  9 C       -3.4720     0.5510     1.1530 C.ar  1 <1>  -0.1440 
 10 C        2.3650     0.4690    -1.9980 C.ar  1 <1>  -0.1500 
 11 C        2.4480    -1.0790    -0.1740 C.ar  1 <1>  -0.1500 
 12 C       -0.1960     4.2030     2.4130 C.3   1 <1>   0.0400 
 13 C       -3.4870     1.5640     2.0970 C.ar  1 <1>  -0.1500 
 14 C       -4.6770    -0.3600     0.9800 C.3   1 <1>   0.2530 
 15 C        3.1700    -0.3700    -2.7490 C.ar  1 <1>  -0.1500 
 16 C        3.2540    -1.9190    -0.9240 C.ar  1 <1>  -0.1500 
 17 N       -5.8030     0.3820     0.3770 N.3   1 <1>  -0.8100 
 18 C        3.6160    -1.5650    -2.2110 C.ar  1 <1>  -0.1500 
 19 C       -5.4530     0.9410    -0.9560 C.3   1 <1>   0.1100 
 20 C       -7.0220    -0.4530     0.2880 C.3   1 <1>   0.1100 
 21 C       -6.6500     1.6410    -1.6450 C.3   1 <1>   0.3430 
 22 C       -8.2290     0.3340    -0.2810 C.3   1 <1>   0.3430 
 23 N       -7.8310     1.7140    -0.7250 N.4   1 <1>  -0.9590 
 24 C       -8.9360     2.5420    -1.2650 C.3   1 <1>   0.3430 
 25 C       -9.9160     2.8840    -0.1500 C.3   1 <1>  -0.2400 
 26 H        1.4340     2.0720    -0.0120 H     1 <1>   0.0800 
 27 H        1.1600     0.7890     1.1600 H     1 <1>   0.0800 
 28 H       -2.3040    -0.4000    -0.3720 H     1 <1>   0.1500 
 29 H       -2.4550     3.1750     2.9880 H     1 <1>   0.1500 
 30 H        2.0160     1.3940    -2.4220 H     1 <1>   0.1500 
 31 H        2.1680    -1.3650     0.8240 H     1 <1>   0.1500 
 32 H       -0.2960     3.8650     3.4290 H     1 <1>   0.0800 
 33 H        0.7380     4.7210     2.2930 H     1 <1>   0.0800 
 34 H       -1.0100     4.8500     2.1380 H     1 <1>   0.0800 
 35 H       -4.3560     1.7040     2.7160 H     1 <1>   0.1500 
 36 H       -4.9690    -0.7330     1.9470 H     1 <1>   0.0800 
 37 H       -4.4170    -1.2030     0.3620 H     1 <1>   0.0800 
 38 H        3.4470    -0.0930    -3.7510 H     1 <1>   0.1500 
 39 H        3.5970    -2.8490    -0.5050 H     1 <1>   0.1500 
 40 H        4.2420    -2.2170    -2.7940 H     1 <1>   0.1500 
 41 H       -5.0820     0.1610    -1.5990 H     1 <1>   0.0800 
 42 H       -4.6630     1.6650    -0.8440 H     1 <1>   0.0800 
 43 H       -7.2790    -0.8200     1.2680 H     1 <1>   0.0800 
 44 H       -6.8320    -1.3090    -0.3380 H     1 <1>   0.0800 
 45 H       -6.9120     1.0970    -2.5370 H     1 <1>   0.0800 
 46 H       -6.3480     2.6320    -1.9410 H     1 <1>   0.0800 
 47 H       -8.9840     0.4020     0.4850 H     1 <1>   0.0800 
 48 H       -8.6510    -0.2140    -1.1070 H     1 <1>   0.0800 
 49 H       -7.4470     2.1490     0.1290 H     1 <1>   0.4500 
 50 H       -9.4430     2.0150    -2.0580 H     1 <1>   0.0800 
 51 H       -8.5350     3.4580    -1.6700 H     1 <1>   0.0800 
 52 H      -10.4180     2.0070     0.2160 H     1 <1>   0.0800 
 53 H      -10.6660     3.5520    -0.5340 H     1 <1>   0.0800 
 54 H       -9.4140     3.3820     0.6610 H     1 <1>   0.0800 
@<TRIPOS>BOND
  1   1   2  1   
  2   1   3  1   
  3   2   4  ar  
  4   2   5  ar  
  5   3   6  1   
  6   3  26  1   
  7   3  27  1   
  8   4   7  1   
  9   4   8  ar  
 10   5   9  ar  
 11   5  28  1   
 12   6  10  ar  
 13   6  11  ar  
 14   7  12  1   
 15   8  13  ar  
 16   8  29  1   
 17   9  13  ar  
 18   9  14  1   
 19  10  15  ar  
 20  10  30  1   
 21  11  16  ar  
 22  11  31  1   
 23  12  32  1   
 24  12  33  1   
 25  12  34  1   
 26  13  35  1   
 27  14  17  1   
 28  14  36  1   
 29  14  37  1   
 30  15  18  ar  
 31  15  38  1   
 32  16  18  ar  
 33  16  39  1   
 34  17  19  1   
 35  17  20  1   
 36  18  40  1   
 37  19  21  1   
 38  19  41  1   
 39  19  42  1   
 40  20  22  1   
 41  20  43  1   
 42  20  44  1   
 43  21  23  1   
 44  21  45  1   
 45  21  46  1   
 46  22  23  1   
 47  22  47  1   
 48  22  48  1   
 49  23  24  1   
 50  23  49  1   
 51  24  25  1   
 52  24  50  1   
 53  24  51  1   
 54  25  52  1   
 55  25  53  1   
 56  25  54  1   
@<TRIPOS>SUBSTRUCTURE
  1 ****   5 GROUP 4 **** **** 0

# MOE 2024.06 (io_trps.svl 2023.06)
