@<TRIPOS>MOLECULE
NONAME
55 60 1 0 0 
SMALL
USER_CHARGES


@<TRIPOS>ATOM
  1 S       -0.1150    -1.0090     0.2650 S.3   1 <1>  -0.0800 
  2 C       -1.4300     0.1620     0.1280 C.ar  1 <1>   0.2970 
  3 C        1.1040     0.2360    -0.0590 C.ar  1 <1>   0.0400 
  4 N       -2.6750    -0.2320     0.2680 N.ar  1 <1>  -0.5670 
  5 C       -0.9360     1.4340    -0.1320 C.ar  1 <1>   0.0000 
  6 C        2.4790     0.1280    -0.1320 C.ar  1 <1>   0.4100 
  7 C        0.5090     1.4530    -0.2360 C.ar  1 <1>   0.2560 
  8 C       -3.5590     0.7460     0.1330 C.ar  1 <1>   0.4100 
  9 C       -1.8840     2.4540    -0.2550 C.ar  1 <1>  -0.1430 
 10 N        3.1800     1.2330    -0.3580 N.ar  1 <1>  -0.3100 
 11 N        3.1680    -1.0700     0.0240 N.pl3 1 <1>  -0.8380 
 12 N        1.2630     2.5200    -0.4820 N.ar  1 <1>  -0.2560 
 13 N       -4.8770     0.3790     0.2960 N.pl3 1 <1>  -0.8380 
 14 C       -3.2150     2.0850    -0.1380 C.ar  1 <1>  -0.1430 
 15 C       -1.4600     3.8990    -0.5190 C.3   1 <1>  -0.0170 
 16 N        2.5680     2.3910    -0.5320 N.ar  1 <1>   0.0000 
 17 C        4.5740    -1.0480     0.5280 C.3   1 <1>   0.2090 
 18 C        2.7090    -2.3120    -0.6680 C.3   1 <1>   0.2090 
 19 C       -5.3740     0.3150     1.6970 C.3   1 <1>   0.2090 
 20 C       -5.3780    -0.7740    -0.5060 C.3   1 <1>   0.2090 
 21 C       -4.3370     3.1150    -0.2940 C.3   1 <1>  -0.0170 
 22 C       -2.5920     4.9120    -0.3230 C.3   1 <1>  -0.1600 
 23 C        5.0080    -2.4550     0.9480 C.3   1 <1>  -0.1600 
 24 C        3.8970    -3.0640    -1.2750 C.3   1 <1>  -0.1600 
 25 C       -6.9040     0.1430     1.7240 C.3   1 <1>   0.1200 
 26 C       -6.9070    -0.8980    -0.3820 C.3   1 <1>   0.1200 
 27 C       -3.8790     4.4080    -0.9730 C.3   1 <1>  -0.1600 
 28 C        4.9420    -3.4600    -0.2170 C.3   1 <1>  -0.1600 
 29 O       -7.3020    -0.9650     0.9620 O.3   1 <1>  -0.5600 
 30 H       -1.0970     3.9670    -1.5300 H     1 <1>   0.0800 
 31 H       -0.6570     4.1720     0.1420 H     1 <1>   0.0800 
 32 H        4.6410    -0.3800     1.3700 H     1 <1>   0.0800 
 33 H        5.2250    -0.6810    -0.2480 H     1 <1>   0.0800 
 34 H        2.0120    -2.0590    -1.4490 H     1 <1>   0.0800 
 35 H        2.2070    -2.9450     0.0450 H     1 <1>   0.0800 
 36 H       -5.1020     1.2170     2.2160 H     1 <1>   0.0800 
 37 H       -4.9110    -0.5150     2.2030 H     1 <1>   0.0800 
 38 H       -4.9190    -1.6840    -0.1570 H     1 <1>   0.0800 
 39 H       -5.1060    -0.6370    -1.5380 H     1 <1>   0.0800 
 40 H       -4.7240     3.3430     0.6830 H     1 <1>   0.0800 
 41 H       -5.1410     2.6940    -0.8730 H     1 <1>   0.0800 
 42 H       -2.3060     5.8580    -0.7510 H     1 <1>   0.0800 
 43 H       -2.7580     5.0600     0.7310 H     1 <1>   0.0800 
 44 H        4.3570    -2.7790     1.7420 H     1 <1>   0.0800 
 45 H        6.0080    -2.4230     1.3420 H     1 <1>   0.0800 
 46 H        4.3520    -2.4260    -2.0120 H     1 <1>   0.0800 
 47 H        3.5460    -3.9450    -1.7830 H     1 <1>   0.0800 
 48 H       -7.3850     1.0200     1.3290 H     1 <1>   0.0800 
 49 H       -7.2410    -0.0140     2.7320 H     1 <1>   0.0800 
 50 H       -7.2470    -1.7940    -0.8690 H     1 <1>   0.0800 
 51 H       -7.3870    -0.0500    -0.8390 H     1 <1>   0.0800 
 52 H       -4.6520     5.1530    -0.8900 H     1 <1>   0.0800 
 53 H       -3.7040     4.2210    -2.0190 H     1 <1>   0.0800 
 54 H        4.7070    -4.4320     0.1810 H     1 <1>   0.0800 
 55 H        5.9060    -3.5270    -0.6930 H     1 <1>   0.0800 
@<TRIPOS>BOND
  1   1   2  1   
  2   1   3  1   
  3   2   4  ar  
  4   2   5  ar  
  5   3   6  ar  
  6   3   7  ar  
  7   4   8  ar  
  8   5   7  1   
  9   5   9  ar  
 10   6  10  ar  
 11   6  11  1   
 12   7  12  ar  
 13   8  13  1   
 14   8  14  ar  
 15   9  14  ar  
 16   9  15  1   
 17  10  16  ar  
 18  11  17  1   
 19  11  18  1   
 20  12  16  ar  
 21  13  19  1   
 22  13  20  1   
 23  14  21  1   
 24  15  22  1   
 25  15  30  1   
 26  15  31  1   
 27  17  23  1   
 28  17  32  1   
 29  17  33  1   
 30  18  24  1   
 31  18  34  1   
 32  18  35  1   
 33  19  25  1   
 34  19  36  1   
 35  19  37  1   
 36  20  26  1   
 37  20  38  1   
 38  20  39  1   
 39  21  27  1   
 40  21  40  1   
 41  21  41  1   
 42  22  27  1   
 43  22  42  1   
 44  22  43  1   
 45  23  28  1   
 46  23  44  1   
 47  23  45  1   
 48  24  28  1   
 49  24  46  1   
 50  24  47  1   
 51  25  29  1   
 52  25  48  1   
 53  25  49  1   
 54  26  29  1   
 55  26  50  1   
 56  26  51  1   
 57  27  52  1   
 58  27  53  1   
 59  28  54  1   
 60  28  55  1   
@<TRIPOS>SUBSTRUCTURE
  1 ****   2 GROUP 4 **** **** 0

# MOE 2024.06 (io_trps.svl 2023.06)
