@<TRIPOS>MOLECULE
NONAME
46 48 1 0 0 
SMALL
USER_CHARGES


@<TRIPOS>ATOM
  1 O       -1.1210    -0.1190     1.0130 O.3   1 <1>  -0.3630 
  2 C       -1.7290     0.7640     0.1840 C.ar  1 <1>   0.0830 
  3 C        0.1230    -0.6200     0.5770 C.3   1 <1>   0.0400 
  4 C       -2.2420     0.3990    -1.0650 C.ar  1 <1>   0.0830 
  5 C       -1.8300     2.0770     0.6130 C.ar  1 <1>  -0.1500 
  6 O       -2.2240    -0.8740    -1.5310 O.3   1 <1>  -0.3630 
  7 C       -2.8020     1.3680    -1.8790 C.ar  1 <1>  -0.1500 
  8 C       -2.4190     3.0480    -0.1900 C.ar  1 <1>  -0.1430 
  9 C       -2.9840    -1.8190    -0.8100 C.3   1 <1>   0.0400 
 10 C       -2.8890     2.6800    -1.4450 C.ar  1 <1>  -0.1500 
 11 C       -2.5510     4.5140     0.2380 C.3   1 <1>   0.5230 
 12 O       -2.1490     4.7300     1.5450 O.3   1 <1>  -0.6800 
 13 C       -3.9460     5.1150     0.0470 C.2   1 <1>   0.0070 
 14 N       -4.0760     6.1880    -0.6590 N.2   1 <1>  -0.5650 
 15 N       -5.1380     4.6330     0.5500 N.pl3 1 <1>   0.0480 
 16 C       -5.4050     6.4480    -0.6630 C.ar  1 <1>   0.2270 
 17 C       -6.0850     5.4960     0.0690 C.ar  1 <1>  -0.1520 
 18 C       -5.5260     3.4940     1.4460 C.3   1 <1>   0.1760 
 19 C       -6.0880     7.4900    -1.2870 C.ar  1 <1>  -0.1500 
 20 C       -7.4810     5.5610     0.1810 C.ar  1 <1>  -0.1500 
 21 C       -4.6310     3.3220     2.6770 C.3   1 <1>  -0.2400 
 22 C       -5.6820     2.1840     0.6660 C.3   1 <1>  -0.2400 
 23 C       -7.4590     7.5590    -1.1720 C.ar  1 <1>  -0.1500 
 24 C       -8.1540     6.5910    -0.4380 C.ar  1 <1>  -0.1500 
 25 H       -0.0180    -1.1930    -0.3210 H     1 <1>   0.0800 
 26 H        0.7840     0.2090     0.3910 H     1 <1>   0.0800 
 27 H        0.5250    -1.2450     1.3530 H     1 <1>   0.0800 
 28 H       -1.4350     2.3290     1.5810 H     1 <1>   0.1500 
 29 H       -3.1730     1.0900    -2.8480 H     1 <1>   0.1500 
 30 H       -2.9900    -2.7390    -1.3660 H     1 <1>   0.0800 
 31 H       -2.5370    -1.9780     0.1540 H     1 <1>   0.0800 
 32 H       -3.9880    -1.4480    -0.7010 H     1 <1>   0.0800 
 33 H       -3.3340     3.4180    -2.0930 H     1 <1>   0.1500 
 34 H       -1.8700     5.0790    -0.3750 H     1 <1>   0.0800 
 35 H       -2.3400     5.6640     1.7510 H     1 <1>   0.4000 
 36 H       -6.4970     3.7360     1.8360 H     1 <1>   0.0800 
 37 H       -5.5260     8.2140    -1.8450 H     1 <1>   0.1500 
 38 H       -8.0240     4.8200     0.7380 H     1 <1>   0.1500 
 39 H       -3.6960     2.8680     2.4180 H     1 <1>   0.0800 
 40 H       -4.4550     4.2710     3.1500 H     1 <1>   0.0800 
 41 H       -5.1160     2.6760     3.3860 H     1 <1>   0.0800 
 42 H       -4.7280     1.7920     0.3720 H     1 <1>   0.0800 
 43 H       -6.2880     2.3390    -0.2080 H     1 <1>   0.0800 
 44 H       -6.1610     1.4480     1.2860 H     1 <1>   0.0800 
 45 H       -8.0050     8.3550    -1.6470 H     1 <1>   0.1500 
 46 H       -9.2250     6.6610    -0.3640 H     1 <1>   0.1500 
@<TRIPOS>BOND
  1   1   2  1   
  2   1   3  1   
  3   2   4  ar  
  4   2   5  ar  
  5   3  25  1   
  6   3  26  1   
  7   3  27  1   
  8   4   6  1   
  9   4   7  ar  
 10   5   8  ar  
 11   5  28  1   
 12   6   9  1   
 13   7  10  ar  
 14   7  29  1   
 15   8  10  ar  
 16   8  11  1   
 17   9  30  1   
 18   9  31  1   
 19   9  32  1   
 20  10  33  1   
 21  11  12  1   
 22  11  13  1   
 23  11  34  1   
 24  12  35  1   
 25  13  14  2   
 26  13  15  1   
 27  14  16  1   
 28  15  17  1   
 29  15  18  1   
 30  16  17  ar  
 31  16  19  ar  
 32  17  20  ar  
 33  18  21  1   
 34  18  22  1   
 35  18  36  1   
 36  19  23  ar  
 37  19  37  1   
 38  20  24  ar  
 39  20  38  1   
 40  21  39  1   
 41  21  40  1   
 42  21  41  1   
 43  22  42  1   
 44  22  43  1   
 45  22  44  1   
 46  23  24  ar  
 47  23  45  1   
 48  24  46  1   
@<TRIPOS>SUBSTRUCTURE
  1 ****   8 GROUP 4 **** **** 0

# MOE 2024.06 (io_trps.svl 2023.06)
