@<TRIPOS>MOLECULE
NONAME
38 39 1 0 0 
SMALL
USER_CHARGES


@<TRIPOS>ATOM
  1 O       -1.8130     2.6450     0.7640 O.3   1 <1>  -0.3630 
  2 C       -2.0260     1.3660     0.3670 C.ar  1 <1>   0.0830 
  3 C       -1.4230     3.6430    -0.1500 C.3   1 <1>   0.1200 
  4 C       -1.7740     0.9000    -0.9190 C.ar  1 <1>  -0.1500 
  5 C       -2.5260     0.4940     1.3200 C.ar  1 <1>  -0.1500 
  6 C       -1.3360     4.9660     0.6050 C.3   1 <1>  -0.2400 
  7 C       -2.0140    -0.4260    -1.2350 C.ar  1 <1>  -0.1500 
  8 C       -2.7660    -0.8300     1.0020 C.ar  1 <1>  -0.1500 
  9 C       -2.5010    -1.3010    -0.2740 C.ar  1 <1>  -0.1430 
 10 C       -2.7260    -2.7680    -0.6080 C.3   1 <1>  -0.0170 
 11 C       -1.6710    -3.6470     0.0870 C.3   1 <1>  -0.0800 
 12 C       -0.2560    -3.0920    -0.1540 C.3   1 <1>   0.3430 
 13 C       -1.7810    -5.1090    -0.3780 C.3   1 <1>  -0.1600 
 14 N        0.7620    -3.9710     0.4900 N.4   1 <1>  -0.9060 
 15 C       -0.6670    -5.9650     0.2430 C.3   1 <1>  -0.1600 
 16 C        0.7210    -5.3700    -0.0120 C.3   1 <1>   0.3430 
 17 H       -2.1630     3.6980    -0.9300 H     1 <1>   0.0800 
 18 H       -0.4650     3.3760    -0.5600 H     1 <1>   0.0800 
 19 H       -1.3970     1.5540    -1.6830 H     1 <1>   0.1500 
 20 H       -2.7290     0.8660     2.3080 H     1 <1>   0.1500 
 21 H       -2.2950     5.2150     1.0240 H     1 <1>   0.0800 
 22 H       -1.0400     5.7500    -0.0670 H     1 <1>   0.0800 
 23 H       -0.6080     4.8940     1.3930 H     1 <1>   0.0800 
 24 H       -1.8200    -0.7660    -2.2380 H     1 <1>   0.1500 
 25 H       -3.1640    -1.4850     1.7580 H     1 <1>   0.1500 
 26 H       -2.6830    -2.9050    -1.6750 H     1 <1>   0.0800 
 27 H       -3.7130    -3.0570    -0.2870 H     1 <1>   0.0800 
 28 H       -1.8650    -3.6060     1.1450 H     1 <1>   0.0800 
 29 H       -0.1890    -2.0940     0.2510 H     1 <1>   0.0800 
 30 H       -0.0720    -3.0360    -1.2140 H     1 <1>   0.0800 
 31 H       -1.7080    -5.1580    -1.4520 H     1 <1>   0.0800 
 32 H       -2.7420    -5.5110    -0.0990 H     1 <1>   0.0800 
 33 H        0.5920    -3.9750     1.5030 H     1 <1>   0.4500 
 34 H        1.6980    -3.5720     0.3460 H     1 <1>   0.4500 
 35 H       -0.7050    -6.9560    -0.1770 H     1 <1>   0.0800 
 36 H       -0.8260    -6.0630     1.3030 H     1 <1>   0.0800 
 37 H        1.4690    -5.9670     0.4860 H     1 <1>   0.0800 
 38 H        0.9260    -5.3830    -1.0710 H     1 <1>   0.0800 
@<TRIPOS>BOND
  1   1   2  1   
  2   1   3  1   
  3   2   4  ar  
  4   2   5  ar  
  5   3   6  1   
  6   3  17  1   
  7   3  18  1   
  8   4   7  ar  
  9   4  19  1   
 10   5   8  ar  
 11   5  20  1   
 12   6  21  1   
 13   6  22  1   
 14   6  23  1   
 15   7   9  ar  
 16   7  24  1   
 17   8   9  ar  
 18   8  25  1   
 19   9  10  1   
 20  10  11  1   
 21  10  26  1   
 22  10  27  1   
 23  11  12  1   
 24  11  13  1   
 25  11  28  1   
 26  12  14  1   
 27  12  29  1   
 28  12  30  1   
 29  13  15  1   
 30  13  31  1   
 31  13  32  1   
 32  14  16  1   
 33  14  33  1   
 34  14  34  1   
 35  15  16  1   
 36  15  35  1   
 37  15  36  1   
 38  16  37  1   
 39  16  38  1   
@<TRIPOS>SUBSTRUCTURE
  1 ****   9 GROUP 4 **** **** 0

# MOE 2024.06 (io_trps.svl 2023.06)
