@<TRIPOS>MOLECULE
NONAME
41 42 1 0 0 
SMALL
USER_CHARGES


@<TRIPOS>ATOM
  1 O       -0.2740    -0.6180     0.4940 O.3   1 <1>  -0.3630 
  2 C       -1.5010    -1.0930     0.1720 C.ar  1 <1>   0.0830 
  3 C        0.5700    -1.2990     1.3960 C.3   1 <1>   0.0400 
  4 C       -2.0610    -2.2390     0.7270 C.ar  1 <1>  -0.1500 
  5 C       -2.2180    -0.3750    -0.7710 C.ar  1 <1>  -0.1500 
  6 C       -3.3250    -2.6500     0.3420 C.ar  1 <1>  -0.1500 
  7 C       -3.4810    -0.7850    -1.1560 C.ar  1 <1>  -0.1500 
  8 C       -4.0460    -1.9220    -0.5950 C.ar  1 <1>  -0.1430 
  9 C       -5.4400    -2.3600    -1.0010 C.3   1 <1>   0.4860 
 10 N       -6.3900    -2.0710     0.1190 N.4   1 <1>  -0.9590 
 11 C       -7.7500    -2.6670    -0.0870 C.3   1 <1>   0.4230 
 12 C       -6.4230    -0.5920     0.3800 C.3   1 <1>   0.2630 
 13 C       -8.6560    -2.3500     1.1190 C.3   1 <1>  -0.1600 
 14 C       -7.6430    -4.1930    -0.2820 C.3   1 <1>  -0.1600 
 15 C      -10.0300    -3.0260     1.0100 C.3   1 <1>  -0.1600 
 16 C       -9.0200    -4.8640    -0.3870 C.3   1 <1>  -0.1600 
 17 C       -9.8920    -4.5390     0.8290 C.3   1 <1>  -0.1600 
 18 H        1.4890    -0.7470     1.4750 H     1 <1>   0.0800 
 19 H        0.7680    -2.2850     1.0130 H     1 <1>   0.0800 
 20 H        0.0900    -1.3460     2.3570 H     1 <1>   0.0800 
 21 H       -1.5240    -2.8190     1.4550 H     1 <1>   0.1500 
 22 H       -1.7720     0.5050    -1.1990 H     1 <1>   0.1500 
 23 H       -3.7320    -3.5450     0.7810 H     1 <1>   0.1500 
 24 H       -4.0080    -0.2070    -1.8960 H     1 <1>   0.1500 
 25 H       -5.4110    -3.4140    -1.2150 H     1 <1>   0.0800 
 26 H       -5.7460    -1.8390    -1.8940 H     1 <1>   0.0800 
 27 H       -5.9860    -2.5170     0.9510 H     1 <1>   0.4500 
 28 H       -8.2000    -2.2410    -0.9700 H     1 <1>   0.0800 
 29 H       -6.8680    -0.0720    -0.4520 H     1 <1>   0.0800 
 30 H       -5.4250    -0.2120     0.5290 H     1 <1>   0.0800 
 31 H       -6.9920    -0.3750     1.2690 H     1 <1>   0.0800 
 32 H       -8.8330    -1.2930     1.1940 H     1 <1>   0.0800 
 33 H       -8.1830    -2.6860     2.0260 H     1 <1>   0.0800 
 34 H       -7.1160    -4.6290     0.5490 H     1 <1>   0.0800 
 35 H       -7.1160    -4.4280    -1.1880 H     1 <1>   0.0800 
 36 H      -10.5720    -2.6150     0.1740 H     1 <1>   0.0800 
 37 H      -10.6040    -2.8250     1.8990 H     1 <1>   0.0800 
 38 H       -8.8990    -5.9320    -0.4610 H     1 <1>   0.0800 
 39 H       -9.5210    -4.5320    -1.2810 H     1 <1>   0.0800 
 40 H      -10.8680    -4.9770     0.6990 H     1 <1>   0.0800 
 41 H       -9.4570    -4.9730     1.7140 H     1 <1>   0.0800 
@<TRIPOS>BOND
  1   1   2  1   
  2   1   3  1   
  3   2   4  ar  
  4   2   5  ar  
  5   3  18  1   
  6   3  19  1   
  7   3  20  1   
  8   4   6  ar  
  9   4  21  1   
 10   5   7  ar  
 11   5  22  1   
 12   6   8  ar  
 13   6  23  1   
 14   7   8  ar  
 15   7  24  1   
 16   8   9  1   
 17   9  10  1   
 18   9  25  1   
 19   9  26  1   
 20  10  11  1   
 21  10  12  1   
 22  10  27  1   
 23  11  13  1   
 24  11  14  1   
 25  11  28  1   
 26  12  29  1   
 27  12  30  1   
 28  12  31  1   
 29  13  15  1   
 30  13  32  1   
 31  13  33  1   
 32  14  16  1   
 33  14  34  1   
 34  14  35  1   
 35  15  17  1   
 36  15  36  1   
 37  15  37  1   
 38  16  17  1   
 39  16  38  1   
 40  16  39  1   
 41  17  40  1   
 42  17  41  1   
@<TRIPOS>SUBSTRUCTURE
  1 ****   9 GROUP 4 **** **** 0

# MOE 2024.06 (io_trps.svl 2023.06)
