@<TRIPOS>MOLECULE
NONAME
51 53 1 0 0 
SMALL
USER_CHARGES


@<TRIPOS>ATOM
  1 S        0.2360    -0.1510     0.6210 S.o2  1 <1>   1.4470 
  2 O        0.4100     0.0730     2.0410 O.2   1 <1>  -0.6500 
  3 O       -0.5840     0.7620    -0.1450 O.2   1 <1>  -0.6500 
  4 N        1.7860    -0.1170    -0.0660 N.am  1 <1>  -0.8490 
  5 C       -0.3150    -1.8530     0.3130 C.ar  1 <1>  -0.0090 
  6 C        2.7350    -0.9670     0.6740 C.3   1 <1>   0.1960 
  7 C        2.2880     1.2570    -0.1530 C.3   1 <1>   0.1960 
  8 C       -0.5370    -2.3050    -0.9830 C.ar  1 <1>  -0.1500 
  9 C       -0.5080    -2.7540     1.3560 C.ar  1 <1>  -0.1500 
 10 C        4.0770    -1.0430    -0.0670 C.3   1 <1>  -0.0190 
 11 C        3.6250     1.2900    -0.9030 C.3   1 <1>  -0.1600 
 12 C       -0.9350    -3.6070    -1.2300 C.ar  1 <1>  -0.1500 
 13 C       -0.9050    -4.0590     1.1190 C.ar  1 <1>  -0.1500 
 14 C        5.0490    -1.9580     0.6650 C.2   1 <1>   0.5690 
 15 C        4.6650     0.3670    -0.2520 C.3   1 <1>  -0.1600 
 16 C       -1.1200    -4.4940    -0.1840 C.ar  1 <1>   0.0820 
 17 O        4.9630    -2.0920     1.8610 O.2   1 <1>  -0.5700 
 18 N        5.9980    -2.6020    -0.0550 N.am  1 <1>  -0.7300 
 19 O       -1.5060    -5.7520    -0.5090 O.3   1 <1>  -0.3630 
 20 C        7.0360    -3.4860     0.5230 C.3   1 <1>   0.3200 
 21 C       -1.7410    -6.7280     0.4790 C.3   1 <1>   0.1200 
 22 C        8.3950    -3.1700    -0.0790 C.2   1 <1>  -0.0400 
 23 C       -2.1660    -8.0160    -0.2210 C.3   1 <1>  -0.2400 
 24 O        9.3740    -4.0340     0.1100 O.3   1 <1>  -0.2800 
 25 C        8.8330    -2.1190    -0.8100 C.2   1 <1>  -0.1500 
 26 C       10.4480    -3.5630    -0.4910 C.2   1 <1>  -0.0100 
 27 C       10.1820    -2.3790    -1.0820 C.2   1 <1>  -0.1500 
 28 H        2.3380    -1.9640     0.7690 H     1 <1>   0.0800 
 29 H        2.8860    -0.5730     1.6670 H     1 <1>   0.0800 
 30 H        2.4070     1.6670     0.8370 H     1 <1>   0.0800 
 31 H        1.5790     1.8710    -0.6860 H     1 <1>   0.0800 
 32 H       -0.3960    -1.6250    -1.8070 H     1 <1>   0.1500 
 33 H       -0.3440    -2.4270     2.3700 H     1 <1>   0.1500 
 34 H        3.8860    -1.4730    -1.0340 H     1 <1>   0.0800 
 35 H        3.9970     2.2990    -0.9210 H     1 <1>   0.0800 
 36 H        3.4540     0.9860    -1.9220 H     1 <1>   0.0800 
 37 H       -1.1040    -3.9440    -2.2370 H     1 <1>   0.1500 
 38 H       -1.0410    -4.7160     1.9570 H     1 <1>   0.1500 
 39 H        5.5510     0.3250    -0.8600 H     1 <1>   0.0800 
 40 H        4.9400     0.7650     0.7110 H     1 <1>   0.0800 
 41 H        6.0570    -2.4870    -1.0670 H     1 <1>   0.3700 
 42 H        6.7830    -4.5090     0.3060 H     1 <1>   0.0800 
 43 H        7.0820    -3.3680     1.5920 H     1 <1>   0.0800 
 44 H       -2.5220    -6.3740     1.1300 H     1 <1>   0.0800 
 45 H       -0.8310    -6.8790     1.0330 H     1 <1>   0.0800 
 46 H       -3.0670    -7.8500    -0.7840 H     1 <1>   0.0800 
 47 H       -2.3530    -8.7830     0.5090 H     1 <1>   0.0800 
 48 H       -1.3870    -8.3530    -0.8810 H     1 <1>   0.0800 
 49 H        8.2940    -1.2460    -1.1300 H     1 <1>   0.1500 
 50 H       11.3600    -4.1330    -0.4490 H     1 <1>   0.1500 
 51 H       10.8420    -1.7440    -1.6460 H     1 <1>   0.1500 
@<TRIPOS>BOND
  1   1   2  2   
  2   1   3  2   
  3   1   4  am  
  4   1   5  1   
  5   4   6  1   
  6   4   7  1   
  7   5   8  ar  
  8   5   9  ar  
  9   6  10  1   
 10   6  28  1   
 11   6  29  1   
 12   7  11  1   
 13   7  30  1   
 14   7  31  1   
 15   8  12  ar  
 16   8  32  1   
 17   9  13  ar  
 18   9  33  1   
 19  10  14  1   
 20  10  15  1   
 21  10  34  1   
 22  11  15  1   
 23  11  35  1   
 24  11  36  1   
 25  12  16  ar  
 26  12  37  1   
 27  13  16  ar  
 28  13  38  1   
 29  14  17  2   
 30  14  18  am  
 31  15  39  1   
 32  15  40  1   
 33  16  19  1   
 34  18  20  1   
 35  18  41  1   
 36  19  21  1   
 37  20  22  1   
 38  20  42  1   
 39  20  43  1   
 40  21  23  1   
 41  21  44  1   
 42  21  45  1   
 43  22  24  1   
 44  22  25  2   
 45  23  46  1   
 46  23  47  1   
 47  23  48  1   
 48  24  26  1   
 49  25  27  1   
 50  25  49  1   
 51  26  27  2   
 52  26  50  1   
 53  27  51  1   
@<TRIPOS>SUBSTRUCTURE
  1 ****   6 GROUP 4 **** **** 0

# MOE 2024.06 (io_trps.svl 2023.06)
