@<TRIPOS>MOLECULE
NONAME
43 44 1 0 0 
SMALL
USER_CHARGES


@<TRIPOS>ATOM
  1 F       -3.7110    -1.0040     1.8300 F     1 <1>  -0.1900 
  2 C       -4.7310    -1.3710     1.0930 C.ar  1 <1>   0.1900 
  3 C       -4.6090    -1.5590    -0.2900 C.ar  1 <1>   0.0830 
  4 C       -5.9280    -1.5640     1.7570 C.ar  1 <1>  -0.1500 
  5 O       -3.4840    -1.3980    -1.0470 O.3   1 <1>  -0.3630 
  6 C       -5.7430    -1.9530    -0.9860 C.ar  1 <1>  -0.1500 
  7 C       -7.0440    -1.9580     1.0380 C.ar  1 <1>  -0.1500 
  8 C       -2.2580    -0.9580    -0.5030 C.3   1 <1>   0.1200 
  9 C       -6.9480    -2.1510    -0.3310 C.ar  1 <1>  -0.1500 
 10 C       -1.2020    -0.9130    -1.6140 C.3   1 <1>   0.2000 
 11 O       -1.1940    -2.1410    -2.2800 O.3   1 <1>  -0.6800 
 12 C        0.2210    -0.6160    -1.0860 C.3   1 <1>   0.3430 
 13 N        0.9480    -1.8810    -0.7520 N.4   1 <1>  -0.9590 
 14 C        0.7590    -2.4090     0.6350 C.3   1 <1>   0.3430 
 15 C        2.4030    -1.8740    -1.1280 C.3   1 <1>   0.3430 
 16 C        1.3100    -3.8540     0.7520 C.3   1 <1>   0.2000 
 17 C        3.1860    -3.0850    -0.5490 C.3   1 <1>   0.2000 
 18 O        2.3100    -4.1220    -0.1990 O.3   1 <1>  -0.5600 
 19 C        0.2120    -4.8880     0.5090 C.3   1 <1>  -0.2400 
 20 C        4.0680    -2.7310     0.6560 C.3   1 <1>  -0.2400 
 21 H       -5.9870    -1.4100     2.8200 H     1 <1>   0.1500 
 22 H       -5.6820    -2.1050    -2.0490 H     1 <1>   0.1500 
 23 H       -7.9840    -2.1130     1.5400 H     1 <1>   0.1500 
 24 H       -1.9700    -1.6500     0.2650 H     1 <1>   0.0800 
 25 H       -2.4070     0.0210    -0.0810 H     1 <1>   0.0800 
 26 H       -7.8170    -2.4570    -0.8890 H     1 <1>   0.1500 
 27 H       -1.4840    -0.1510    -2.3200 H     1 <1>   0.0800 
 28 H       -2.1210    -2.3740    -2.5210 H     1 <1>   0.4000 
 29 H        0.1820     0.0450    -0.2360 H     1 <1>   0.0800 
 30 H        0.7530    -0.1040    -1.8710 H     1 <1>   0.0800 
 31 H        0.5010    -2.5890    -1.3730 H     1 <1>   0.4500 
 32 H       -0.2820    -2.4130     0.9060 H     1 <1>   0.0800 
 33 H        1.2780    -1.7780     1.3360 H     1 <1>   0.0800 
 34 H        2.8710    -0.9680    -0.7810 H     1 <1>   0.0800 
 35 H        2.4920    -1.8910    -2.2020 H     1 <1>   0.0800 
 36 H        1.7290    -4.0060     1.7330 H     1 <1>   0.0800 
 37 H        3.8270    -3.4740    -1.3230 H     1 <1>   0.0800 
 38 H       -0.2070    -4.7760    -0.4750 H     1 <1>   0.0800 
 39 H       -0.5740    -4.7800     1.2340 H     1 <1>   0.0800 
 40 H        0.6200    -5.8800     0.6040 H     1 <1>   0.0800 
 41 H        3.5080    -2.2730     1.4490 H     1 <1>   0.0800 
 42 H        4.8390    -2.0460     0.3520 H     1 <1>   0.0800 
 43 H        4.5470    -3.6210     1.0270 H     1 <1>   0.0800 
@<TRIPOS>BOND
  1   1   2  1   
  2   2   3  ar  
  3   2   4  ar  
  4   3   5  1   
  5   3   6  ar  
  6   4   7  ar  
  7   4  21  1   
  8   5   8  1   
  9   6   9  ar  
 10   6  22  1   
 11   7   9  ar  
 12   7  23  1   
 13   8  10  1   
 14   8  24  1   
 15   8  25  1   
 16   9  26  1   
 17  10  11  1   
 18  10  12  1   
 19  10  27  1   
 20  11  28  1   
 21  12  13  1   
 22  12  29  1   
 23  12  30  1   
 24  13  14  1   
 25  13  15  1   
 26  13  31  1   
 27  14  16  1   
 28  14  32  1   
 29  14  33  1   
 30  15  17  1   
 31  15  34  1   
 32  15  35  1   
 33  16  18  1   
 34  16  19  1   
 35  16  36  1   
 36  17  18  1   
 37  17  20  1   
 38  17  37  1   
 39  19  38  1   
 40  19  39  1   
 41  19  40  1   
 42  20  41  1   
 43  20  42  1   
 44  20  43  1   
@<TRIPOS>SUBSTRUCTURE
  1 ****   8 GROUP 4 **** **** 0

# MOE 2024.06 (io_trps.svl 2023.06)
