@<TRIPOS>MOLECULE
NONAME
41 42 1 0 0 
SMALL
USER_CHARGES


@<TRIPOS>ATOM
  1 O       -1.0350    -0.5090    -1.2060 O.2   1 <1>  -0.5700 
  2 C       -0.5830    -1.2620    -0.3750 C.2   1 <1>   0.5690 
  3 N       -1.4090    -1.7110     0.6350 N.am  1 <1>  -0.6600 
  4 C        0.8890    -1.6670    -0.5480 C.3   1 <1>  -0.0190 
  5 C       -2.7060    -1.0060     0.8520 C.3   1 <1>   0.1400 
  6 C       -1.2210    -2.9390     1.4480 C.3   1 <1>   0.1400 
  7 C        1.0650    -3.0410    -1.2310 C.3   1 <1>  -0.1600 
  8 C        1.7430    -1.5280     0.7320 C.3   1 <1>  -0.1600 
  9 C       -3.7300    -1.4190    -0.2200 C.3   1 <1>   0.3430 
 10 C       -2.3800    -3.9250     1.2390 C.3   1 <1>  -0.1600 
 11 C        2.5470    -3.3630    -1.4690 C.3   1 <1>  -0.1600 
 12 C        3.2150    -1.8680     0.4610 C.3   1 <1>  -0.1600 
 13 N       -4.1660    -2.8640    -0.1490 N.4   1 <1>  -0.9590 
 14 C       -3.0330    -3.8450    -0.1470 C.3   1 <1>   0.3430 
 15 C        3.3580    -3.2580    -0.1700 C.3   1 <1>  -0.1600 
 16 C       -5.0800    -3.1520    -1.2940 C.3   1 <1>   0.2630 
 17 H        1.2970    -0.9470    -1.2390 H     1 <1>   0.0800 
 18 H       -2.5370     0.0550     0.7720 H     1 <1>   0.0800 
 19 H       -3.0870    -1.1980     1.8400 H     1 <1>   0.0800 
 20 H       -1.1450    -2.6720     2.4900 H     1 <1>   0.0800 
 21 H       -0.3070    -3.4290     1.1790 H     1 <1>   0.0800 
 22 H        0.5540    -3.0310    -2.1780 H     1 <1>   0.0800 
 23 H        0.6380    -3.8240    -0.6370 H     1 <1>   0.0800 
 24 H        1.3870    -2.1740     1.5100 H     1 <1>   0.0800 
 25 H        1.6750    -0.5160     1.0950 H     1 <1>   0.0800 
 26 H       -3.2950    -1.2200    -1.1860 H     1 <1>   0.0800 
 27 H       -4.5960    -0.7850    -0.1220 H     1 <1>   0.0800 
 28 H       -3.1170    -3.7990     2.0110 H     1 <1>   0.0800 
 29 H       -1.9770    -4.9150     1.3640 H     1 <1>   0.0800 
 30 H        2.9500    -2.6740    -2.1930 H     1 <1>   0.0800 
 31 H        2.6420    -4.3550    -1.8740 H     1 <1>   0.0800 
 32 H        3.7690    -1.8320     1.3830 H     1 <1>   0.0800 
 33 H        3.6360    -1.1310    -0.2020 H     1 <1>   0.0800 
 34 H       -4.6890    -2.9970     0.7260 H     1 <1>   0.4500 
 35 H       -3.4170    -4.8220    -0.3930 H     1 <1>   0.0800 
 36 H       -2.3000    -3.5770    -0.8920 H     1 <1>   0.0800 
 37 H        4.3960    -3.4500    -0.3810 H     1 <1>   0.0800 
 38 H        3.0210    -4.0070     0.5260 H     1 <1>   0.0800 
 39 H       -4.5580    -3.0230    -2.2290 H     1 <1>   0.0800 
 40 H       -5.9250    -2.4830    -1.2770 H     1 <1>   0.0800 
 41 H       -5.4440    -4.1650    -1.2400 H     1 <1>   0.0800 
@<TRIPOS>BOND
  1   1   2  2   
  2   2   3  am  
  3   2   4  1   
  4   3   5  1   
  5   3   6  1   
  6   4   7  1   
  7   4   8  1   
  8   4  17  1   
  9   5   9  1   
 10   5  18  1   
 11   5  19  1   
 12   6  10  1   
 13   6  20  1   
 14   6  21  1   
 15   7  11  1   
 16   7  22  1   
 17   7  23  1   
 18   8  12  1   
 19   8  24  1   
 20   8  25  1   
 21   9  13  1   
 22   9  26  1   
 23   9  27  1   
 24  10  14  1   
 25  10  28  1   
 26  10  29  1   
 27  11  15  1   
 28  11  30  1   
 29  11  31  1   
 30  12  15  1   
 31  12  32  1   
 32  12  33  1   
 33  13  14  1   
 34  13  16  1   
 35  13  34  1   
 36  14  35  1   
 37  14  36  1   
 38  15  37  1   
 39  15  38  1   
 40  16  39  1   
 41  16  40  1   
 42  16  41  1   
@<TRIPOS>SUBSTRUCTURE
  1 ****   2 GROUP 4 **** **** 0

# MOE 2024.06 (io_trps.svl 2023.06)
