@<TRIPOS>MOLECULE
NONAME
47 49 1 0 0 
SMALL
USER_CHARGES


@<TRIPOS>ATOM
  1 O       -0.8170    -0.3910    -0.4520 O.2   1 <1>  -0.5700 
  2 C       -1.7330    -1.1880    -0.3330 C.2   1 <1>   0.6900 
  3 N       -3.0330    -0.7170    -0.1820 N.am  1 <1>  -0.4200 
  4 N       -1.4780    -2.5470    -0.3570 N.am  1 <1>  -0.4230 
  5 C       -4.0970    -1.5970    -0.1000 C.2   1 <1>   0.7150 
  6 C       -3.2760     0.7540    -0.1390 C.3   1 <1>   0.0600 
  7 C       -2.5410    -3.4330    -0.2240 C.2   1 <1>   0.2900 
  8 C       -0.1070    -3.1060    -0.4870 C.3   1 <1>   0.0600 
  9 O       -5.2460    -1.1920    -0.0580 O.2   1 <1>  -0.5700 
 10 C       -3.8060    -2.9830    -0.0960 C.2   1 <1>  -0.2370 
 11 N       -2.4730    -4.7710    -0.2000 N.2   1 <1>  -0.5650 
 12 N       -4.5810    -4.0890     0.0280 N.pl3 1 <1>   0.0480 
 13 C       -3.7130    -5.1220    -0.0410 C.2   1 <1>   0.0360 
 14 C       -6.0510    -4.1480     0.1960 C.3   1 <1>   0.1570 
 15 C       -6.4940    -3.7650     1.6020 C.2   1 <1>   0.5690 
 16 O       -5.7040    -3.6840     2.5090 O.2   1 <1>  -0.5700 
 17 N       -7.8120    -3.5500     1.8470 N.am  1 <1>  -0.5470 
 18 C       -8.8890    -3.7280     0.9710 C.ar  1 <1>   0.1170 
 19 C       -9.2650    -2.7170     0.0840 C.ar  1 <1>  -0.1430 
 20 C       -9.5880    -4.9360     0.9750 C.ar  1 <1>  -0.1430 
 21 C      -10.3140    -2.9320    -0.7930 C.ar  1 <1>  -0.1500 
 22 C       -8.5620    -1.3640     0.0360 C.3   1 <1>  -0.0970 
 23 C      -10.6350    -5.1280     0.0900 C.ar  1 <1>  -0.1500 
 24 C       -9.2230    -6.0580     1.9410 C.3   1 <1>  -0.0970 
 25 C      -11.0010    -4.1330    -0.7990 C.ar  1 <1>  -0.1430 
 26 C      -12.1510    -4.3530    -1.7650 C.3   1 <1>  -0.0970 
 27 H       -2.4870     1.2430     0.4050 H     1 <1>   0.0800 
 28 H       -4.2100     0.9740     0.3500 H     1 <1>   0.0800 
 29 H       -3.3030     1.1410    -1.1420 H     1 <1>   0.0800 
 30 H        0.6190    -2.3250    -0.6260 H     1 <1>   0.0800 
 31 H       -0.0720    -3.7710    -1.3320 H     1 <1>   0.0800 
 32 H        0.1370    -3.6590     0.4030 H     1 <1>   0.0800 
 33 H       -4.0360    -6.1460     0.0320 H     1 <1>   0.1500 
 34 H       -6.3870    -5.1440    -0.0130 H     1 <1>   0.0800 
 35 H       -6.5020    -3.4800    -0.5130 H     1 <1>   0.0800 
 36 H       -8.0280    -3.2990     2.8110 H     1 <1>   0.3700 
 37 H      -10.6030    -2.1560    -1.4800 H     1 <1>   0.1500 
 38 H       -7.8120    -1.3700    -0.7330 H     1 <1>   0.0800 
 39 H       -8.0940    -1.1220     0.9720 H     1 <1>   0.0800 
 40 H       -9.2690    -0.5850    -0.1870 H     1 <1>   0.0800 
 41 H      -11.1770    -6.0570     0.0900 H     1 <1>   0.1500 
 42 H       -9.8970    -6.8890     1.8420 H     1 <1>   0.0800 
 43 H       -9.2760    -5.7020     2.9540 H     1 <1>   0.0800 
 44 H       -8.2250    -6.4050     1.7460 H     1 <1>   0.0800 
 45 H      -12.0020    -3.7840    -2.6650 H     1 <1>   0.0800 
 46 H      -13.0730    -4.0430    -1.3070 H     1 <1>   0.0800 
 47 H      -12.2270    -5.3920    -2.0300 H     1 <1>   0.0800 
@<TRIPOS>BOND
  1   1   2  2   
  2   2   3  am  
  3   2   4  am  
  4   3   5  am  
  5   3   6  1   
  6   4   7  1   
  7   4   8  1   
  8   5   9  2   
  9   5  10  1   
 10   6  27  1   
 11   6  28  1   
 12   6  29  1   
 13   7  10  2   
 14   7  11  1   
 15   8  30  1   
 16   8  31  1   
 17   8  32  1   
 18  10  12  1   
 19  11  13  2   
 20  12  13  1   
 21  12  14  1   
 22  13  33  1   
 23  14  15  1   
 24  14  34  1   
 25  14  35  1   
 26  15  16  2   
 27  15  17  am  
 28  17  18  1   
 29  17  36  1   
 30  18  19  ar  
 31  18  20  ar  
 32  19  21  ar  
 33  19  22  1   
 34  20  23  ar  
 35  20  24  1   
 36  21  25  ar  
 37  21  37  1   
 38  22  38  1   
 39  22  39  1   
 40  22  40  1   
 41  23  25  ar  
 42  23  41  1   
 43  24  42  1   
 44  24  43  1   
 45  24  44  1   
 46  25  26  1   
 47  26  45  1   
 48  26  46  1   
 49  26  47  1   
@<TRIPOS>SUBSTRUCTURE
  1 ****  14 GROUP 4 **** **** 0

# MOE 2024.06 (io_trps.svl 2023.06)
