@<TRIPOS>MOLECULE
NONAME
49 50 1 0 0 
SMALL
USER_CHARGES


@<TRIPOS>ATOM
  1 S       -1.3080    -0.0210     0.2020 S.o2  1 <1>   1.4470 
  2 O       -0.5730    -0.7240     1.2300 O.2   1 <1>  -0.6500 
  3 O       -2.4350    -0.6710    -0.4310 O.2   1 <1>  -0.6500 
  4 N       -1.9340     1.3700     0.9380 N.am  1 <1>  -0.8490 
  5 C       -0.1940     0.6330    -1.0710 C.ar  1 <1>  -0.0090 
  6 C       -3.1550     1.0590     1.7360 C.3   1 <1>   0.2570 
  7 C       -0.9320     2.0870     1.7270 C.3   1 <1>   0.1960 
  8 C       -0.6390     1.5790    -1.9880 C.ar  1 <1>  -0.1500 
  9 C        1.1270     0.2070    -1.1640 C.ar  1 <1>  -0.1500 
 10 C       -4.4750     1.4190     1.0410 C.2   1 <1>   0.5690 
 11 C       -1.3470     3.5500     1.8710 C.3   1 <1>  -0.2400 
 12 C        0.2040     2.0870    -2.9620 C.ar  1 <1>  -0.1500 
 13 C        1.9760     0.7090    -2.1360 C.ar  1 <1>  -0.1500 
 14 O       -5.2940     2.0410     1.6750 O.2   1 <1>  -0.5700 
 15 N       -4.6820     1.0120    -0.2480 N.am  1 <1>  -0.5470 
 16 C        1.5140     1.6510    -3.0360 C.ar  1 <1>  -0.1500 
 17 C       -5.7970     1.2090    -1.0780 C.ar  1 <1>   0.1170 
 18 C       -6.4850     0.0980    -1.5770 C.ar  1 <1>  -0.1430 
 19 C       -6.2170     2.4940    -1.4420 C.ar  1 <1>  -0.1430 
 20 C       -7.5820     0.2800    -2.4020 C.ar  1 <1>  -0.1500 
 21 C       -6.0720    -1.3340    -1.2430 C.3   1 <1>  -0.0170 
 22 C       -7.3210     2.6510    -2.2640 C.ar  1 <1>  -0.1500 
 23 C       -5.4930     3.7500    -0.9710 C.3   1 <1>  -0.0970 
 24 C       -8.0040     1.5500    -2.7440 C.ar  1 <1>  -0.1500 
 25 C       -5.1020    -1.8750    -2.2960 C.3   1 <1>  -0.2400 
 26 H       -3.1390     1.5990     2.6660 H     1 <1>   0.0800 
 27 H       -3.1810     0.0150     1.9940 H     1 <1>   0.0800 
 28 H        0.0200     2.0610     1.2220 H     1 <1>   0.0800 
 29 H       -0.8060     1.6220     2.6930 H     1 <1>   0.0800 
 30 H       -1.6590     1.9240    -1.9380 H     1 <1>   0.1500 
 31 H        1.4970    -0.5290    -0.4690 H     1 <1>   0.1500 
 32 H       -1.4730     3.9930     0.9000 H     1 <1>   0.0800 
 33 H       -0.5790     4.0900     2.3940 H     1 <1>   0.0800 
 34 H       -2.2620     3.6490     2.4260 H     1 <1>   0.0800 
 35 H       -0.1610     2.8190    -3.6630 H     1 <1>   0.1500 
 36 H        2.9950     0.3660    -2.1910 H     1 <1>   0.1500 
 37 H       -3.9900     0.3400    -0.6040 H     1 <1>   0.3700 
 38 H        2.1720     2.0430    -3.7930 H     1 <1>   0.1500 
 39 H       -8.1160    -0.5710    -2.7860 H     1 <1>   0.1500 
 40 H       -6.9460    -1.9600    -1.2120 H     1 <1>   0.0800 
 41 H       -5.6190    -1.3850    -0.2690 H     1 <1>   0.0800 
 42 H       -7.6560     3.6360    -2.5380 H     1 <1>   0.1500 
 43 H       -5.7000     4.5780    -1.6230 H     1 <1>   0.0800 
 44 H       -5.8200     4.0050     0.0210 H     1 <1>   0.0800 
 45 H       -4.4300     3.5930    -0.9580 H     1 <1>   0.0800 
 46 H       -8.8600     1.6820    -3.3820 H     1 <1>   0.1500 
 47 H       -5.5730    -1.8880    -3.2620 H     1 <1>   0.0800 
 48 H       -4.7990    -2.8740    -2.0420 H     1 <1>   0.0800 
 49 H       -4.2260    -1.2540    -2.3520 H     1 <1>   0.0800 
@<TRIPOS>BOND
  1   1   2  2   
  2   1   3  2   
  3   1   4  am  
  4   1   5  1   
  5   4   6  1   
  6   4   7  1   
  7   5   8  ar  
  8   5   9  ar  
  9   6  10  1   
 10   6  26  1   
 11   6  27  1   
 12   7  11  1   
 13   7  28  1   
 14   7  29  1   
 15   8  12  ar  
 16   8  30  1   
 17   9  13  ar  
 18   9  31  1   
 19  10  14  2   
 20  10  15  am  
 21  11  32  1   
 22  11  33  1   
 23  11  34  1   
 24  12  16  ar  
 25  12  35  1   
 26  13  16  ar  
 27  13  36  1   
 28  15  17  1   
 29  15  37  1   
 30  16  38  1   
 31  17  18  ar  
 32  17  19  ar  
 33  18  20  ar  
 34  18  21  1   
 35  19  22  ar  
 36  19  23  1   
 37  20  24  ar  
 38  20  39  1   
 39  21  25  1   
 40  21  40  1   
 41  21  41  1   
 42  22  24  ar  
 43  22  42  1   
 44  23  43  1   
 45  23  44  1   
 46  23  45  1   
 47  24  46  1   
 48  25  47  1   
 49  25  48  1   
 50  25  49  1   
@<TRIPOS>SUBSTRUCTURE
  1 ****  15 GROUP 4 **** **** 0

# MOE 2024.06 (io_trps.svl 2023.06)
