@<TRIPOS>MOLECULE
NONAME
49 50 1 0 0 
SMALL
USER_CHARGES


@<TRIPOS>ATOM
  1 O        0.6270    -3.9950     0.7290 O.3   1 <1>  -0.3630 
  2 C       -0.6870    -3.8580     0.4190 C.ar  1 <1>   0.0830 
  3 C        1.4400    -4.9720     0.1130 C.3   1 <1>   0.1200 
  4 C       -1.3400    -4.6110    -0.5540 C.ar  1 <1>  -0.1500 
  5 C       -1.3900    -2.9000     1.1330 C.ar  1 <1>  -0.1500 
  6 C        2.8500    -4.8700     0.7090 C.3   1 <1>   0.2000 
  7 C       -2.6940    -4.3990    -0.8010 C.ar  1 <1>   0.0830 
  8 C       -2.7350    -2.6890     0.8880 C.ar  1 <1>  -0.1500 
  9 O        3.2780    -3.5410     0.6390 O.3   1 <1>  -0.6800 
 10 C        3.8740    -5.7780    -0.0110 C.3   1 <1>   0.3430 
 11 O       -3.4110    -5.0830    -1.7280 O.3   1 <1>  -0.3620 
 12 C       -3.3820    -3.4380    -0.0780 C.ar  1 <1>  -0.1500 
 13 N        5.2530    -5.1930     0.0820 N.4   1 <1>  -0.9590 
 14 C       -2.8270    -6.0810    -2.5340 C.3   1 <1>   0.0400 
 15 C        5.8820    -5.0710    -1.2600 C.3   1 <1>   0.4230 
 16 C        6.1490    -5.8150     1.0930 C.3   1 <1>   0.4230 
 17 C        6.9960    -6.1120    -1.4910 C.3   1 <1>  -0.1600 
 18 C        6.4140    -3.6510    -1.3940 C.3   1 <1>  -0.2400 
 19 C        6.4720    -7.2670     0.7000 C.3   1 <1>  -0.1600 
 20 C        5.5580    -5.7140     2.4950 C.3   1 <1>  -0.2400 
 21 C        6.6860    -7.4560    -0.8150 C.3   1 <1>  -0.1600 
 22 H        1.4570    -4.7800    -0.9460 H     1 <1>   0.0800 
 23 H        1.0120    -5.9410     0.3060 H     1 <1>   0.0800 
 24 H       -0.8100    -5.3520    -1.1130 H     1 <1>   0.1500 
 25 H       -0.8840    -2.3210     1.8840 H     1 <1>   0.1500 
 26 H        2.8020    -5.1390     1.7500 H     1 <1>   0.0800 
 27 H       -3.2770    -1.9440     1.4450 H     1 <1>   0.1500 
 28 H        2.5230    -2.9600     0.8970 H     1 <1>   0.4000 
 29 H        3.5860    -5.8530    -1.0450 H     1 <1>   0.0800 
 30 H        3.8490    -6.7700     0.4060 H     1 <1>   0.0800 
 31 H       -4.4270    -3.2820    -0.2770 H     1 <1>   0.1500 
 32 H        5.0550    -4.2220     0.3900 H     1 <1>   0.4500 
 33 H       -3.5890    -6.4690    -3.1860 H     1 <1>   0.0800 
 34 H       -2.4530    -6.8660    -1.9020 H     1 <1>   0.0800 
 35 H       -2.0380    -5.6400    -3.1180 H     1 <1>   0.0800 
 36 H        5.1240    -5.2150    -2.0140 H     1 <1>   0.0800 
 37 H        7.0760    -5.2620     1.0880 H     1 <1>   0.0800 
 38 H        7.9330    -5.7390    -1.1140 H     1 <1>   0.0800 
 39 H        7.1220    -6.2580    -2.5500 H     1 <1>   0.0800 
 40 H        7.1660    -3.4450    -0.6530 H     1 <1>   0.0800 
 41 H        5.6130    -2.9390    -1.2980 H     1 <1>   0.0800 
 42 H        6.8550    -3.5200    -2.3660 H     1 <1>   0.0800 
 43 H        5.6990    -7.9350     1.0380 H     1 <1>   0.0800 
 44 H        7.3730    -7.5500     1.2170 H     1 <1>   0.0800 
 45 H        4.6880    -6.3350     2.6080 H     1 <1>   0.0800 
 46 H        5.3100    -4.6930     2.7270 H     1 <1>   0.0800 
 47 H        6.2890    -6.0450     3.2110 H     1 <1>   0.0800 
 48 H        7.4880    -8.1540    -0.9890 H     1 <1>   0.0800 
 49 H        5.7950    -7.8720    -1.2550 H     1 <1>   0.0800 
@<TRIPOS>BOND
  1   1   2  1   
  2   1   3  1   
  3   2   4  ar  
  4   2   5  ar  
  5   3   6  1   
  6   3  22  1   
  7   3  23  1   
  8   4   7  ar  
  9   4  24  1   
 10   5   8  ar  
 11   5  25  1   
 12   6   9  1   
 13   6  10  1   
 14   6  26  1   
 15   7  11  1   
 16   7  12  ar  
 17   8  12  ar  
 18   8  27  1   
 19   9  28  1   
 20  10  13  1   
 21  10  29  1   
 22  10  30  1   
 23  11  14  1   
 24  12  31  1   
 25  13  15  1   
 26  13  16  1   
 27  13  32  1   
 28  14  33  1   
 29  14  34  1   
 30  14  35  1   
 31  15  17  1   
 32  15  18  1   
 33  15  36  1   
 34  16  19  1   
 35  16  20  1   
 36  16  37  1   
 37  17  21  1   
 38  17  38  1   
 39  17  39  1   
 40  18  40  1   
 41  18  41  1   
 42  18  42  1   
 43  19  21  1   
 44  19  43  1   
 45  19  44  1   
 46  20  45  1   
 47  20  46  1   
 48  20  47  1   
 49  21  48  1   
 50  21  49  1   
@<TRIPOS>SUBSTRUCTURE
  1 ****   3 GROUP 4 **** **** 0

# MOE 2024.06 (io_trps.svl 2023.06)
