@<TRIPOS>MOLECULE
NONAME
51 53 1 0 0 
SMALL
USER_CHARGES


@<TRIPOS>ATOM
  1 S       -0.4680    -0.0720     0.4020 S.3   1 <1>  -0.3320 
  2 C       -1.9030     0.8500    -0.1820 C.ar  1 <1>   0.1020 
  3 C        1.0160     0.7100    -0.3700 C.3   1 <1>  -0.0100 
  4 C       -3.1400     0.4290     0.2670 C.ar  1 <1>  -0.1500 
  5 C       -1.7860     1.9310    -1.0390 C.ar  1 <1>  -0.1500 
  6 C       -4.2970     1.0840    -0.1350 C.ar  1 <1>   0.1170 
  7 C       -2.9320     2.5930    -1.4440 C.ar  1 <1>  -0.1500 
  8 N       -5.5280     0.6230     0.3570 N.am  1 <1>  -0.5470 
  9 C       -4.1730     2.1730    -0.9940 C.ar  1 <1>  -0.1500 
 10 C       -6.8100     0.8110    -0.0850 C.2   1 <1>   0.5690 
 11 O       -7.0880     1.4550    -1.0660 O.2   1 <1>  -0.5700 
 12 C       -7.9260     0.1450     0.7240 C.3   1 <1>  -0.0190 
 13 C       -8.0270    -1.3560     0.3950 C.3   1 <1>  -0.1600 
 14 C       -9.3020     0.8150     0.5190 C.3   1 <1>  -0.1600 
 15 C       -9.1320    -2.0380     1.2050 C.3   1 <1>   0.1400 
 16 C      -10.4050     0.1180     1.3180 C.3   1 <1>   0.1400 
 17 N      -10.4240    -1.3330     0.9810 N.am  1 <1>  -0.6600 
 18 C      -11.4860    -1.9570     0.3520 C.2   1 <1>   0.5440 
 19 O      -11.3090    -3.0420    -0.1690 O.2   1 <1>  -0.5700 
 20 C      -12.8030    -1.3540     0.2850 C.ar  1 <1>   0.0860 
 21 C      -13.4900    -0.9650     1.4350 C.ar  1 <1>  -0.1500 
 22 C      -13.4330    -1.1480    -0.9420 C.ar  1 <1>  -0.1500 
 23 C      -14.7390    -0.3790     1.3610 C.ar  1 <1>  -0.1500 
 24 C      -14.6830    -0.5630    -1.0260 C.ar  1 <1>  -0.1500 
 25 C      -15.3460    -0.1690     0.1340 C.ar  1 <1>   0.0830 
 26 O      -16.5660     0.4130     0.1440 O.3   1 <1>  -0.3620 
 27 C      -17.2890     0.6430    -1.0450 C.3   1 <1>   0.0400 
 28 H        1.8810     0.1670    -0.0330 H     1 <1>   0.0800 
 29 H        1.0590     1.7340    -0.0460 H     1 <1>   0.0800 
 30 H        0.9130     0.6370    -1.4380 H     1 <1>   0.0800 
 31 H       -3.1910    -0.4150     0.9280 H     1 <1>   0.1500 
 32 H       -0.8310     2.2660    -1.3950 H     1 <1>   0.1500 
 33 H       -2.8620     3.4360    -2.1100 H     1 <1>   0.1500 
 34 H       -5.4430    -0.0030     1.1540 H     1 <1>   0.3700 
 35 H       -5.0480     2.7060    -1.3180 H     1 <1>   0.1500 
 36 H       -7.6730     0.2460     1.7640 H     1 <1>   0.0800 
 37 H       -7.0910    -1.8460     0.5980 H     1 <1>   0.0800 
 38 H       -8.2400    -1.4850    -0.6540 H     1 <1>   0.0800 
 39 H       -9.5670     0.7890    -0.5250 H     1 <1>   0.0800 
 40 H       -9.2470     1.8490     0.8110 H     1 <1>   0.0800 
 41 H       -8.8950    -2.0060     2.2550 H     1 <1>   0.0800 
 42 H       -9.2050    -3.0730     0.9170 H     1 <1>   0.0800 
 43 H      -11.3470     0.5830     1.0870 H     1 <1>   0.0800 
 44 H      -10.2250     0.2310     2.3730 H     1 <1>   0.0800 
 45 H      -13.0330    -1.1300     2.3950 H     1 <1>   0.1500 
 46 H      -12.9240    -1.4590    -1.8390 H     1 <1>   0.1500 
 47 H      -15.2580    -0.0810     2.2550 H     1 <1>   0.1500 
 48 H      -15.1250    -0.4240    -1.9940 H     1 <1>   0.1500 
 49 H      -18.2250     1.1010    -0.7830 H     1 <1>   0.0800 
 50 H      -17.4660    -0.2990    -1.5330 H     1 <1>   0.0800 
 51 H      -16.7220     1.3050    -1.6760 H     1 <1>   0.0800 
@<TRIPOS>BOND
  1   1   2  1   
  2   1   3  1   
  3   2   4  ar  
  4   2   5  ar  
  5   3  28  1   
  6   3  29  1   
  7   3  30  1   
  8   4   6  ar  
  9   4  31  1   
 10   5   7  ar  
 11   5  32  1   
 12   6   8  1   
 13   6   9  ar  
 14   7   9  ar  
 15   7  33  1   
 16   8  10  am  
 17   8  34  1   
 18   9  35  1   
 19  10  11  2   
 20  10  12  1   
 21  12  13  1   
 22  12  14  1   
 23  12  36  1   
 24  13  15  1   
 25  13  37  1   
 26  13  38  1   
 27  14  16  1   
 28  14  39  1   
 29  14  40  1   
 30  15  17  1   
 31  15  41  1   
 32  15  42  1   
 33  16  17  1   
 34  16  43  1   
 35  16  44  1   
 36  17  18  am  
 37  18  19  2   
 38  18  20  1   
 39  20  21  ar  
 40  20  22  ar  
 41  21  23  ar  
 42  21  45  1   
 43  22  24  ar  
 44  22  46  1   
 45  23  25  ar  
 46  23  47  1   
 47  24  25  ar  
 48  24  48  1   
 49  25  26  1   
 50  26  27  1   
 51  27  49  1   
 52  27  50  1   
 53  27  51  1   
@<TRIPOS>SUBSTRUCTURE
  1 ****  12 GROUP 4 **** **** 0

# MOE 2024.06 (io_trps.svl 2023.06)
