@<TRIPOS>MOLECULE
NONAME
48 50 1 0 0 
SMALL
USER_CHARGES


@<TRIPOS>ATOM
  1 O       -0.1100    -2.5080     1.3380 O.2   1 <1>  -0.5700 
  2 C       -0.8190    -2.0760     0.4460 C.2   1 <1>   0.7150 
  3 N       -0.6860    -2.5950    -0.8050 N.am  1 <1>  -0.7300 
  4 C       -1.7790    -1.0270     0.6950 C.2   1 <1>   0.0550 
  5 C        0.3650    -3.5570    -1.2380 C.3   1 <1>   0.2810 
  6 O       -2.5380    -0.5440    -0.2860 O.3   1 <1>  -0.2800 
  7 C       -2.0930    -0.3680     1.8460 C.2   1 <1>  -0.1500 
  8 C        1.4980    -2.8220    -1.9860 C.2   1 <1>   0.5690 
  9 C       -0.2580    -4.6460    -2.1330 C.3   1 <1>  -0.1600 
 10 C       -3.3170     0.3940     0.2040 C.2   1 <1>  -0.0100 
 11 C       -3.0900     0.5540     1.5250 C.2   1 <1>  -0.1500 
 12 O        1.2250    -2.0950    -2.9120 O.2   1 <1>  -0.5700 
 13 N        2.8060    -2.9950    -1.6500 N.am  1 <1>  -0.5470 
 14 C       -0.9910    -5.7830    -1.3880 C.3   1 <1>  -0.0800 
 15 C        3.3690    -3.7800    -0.6390 C.ar  1 <1>   0.1170 
 16 C       -1.3710    -6.8830    -2.3860 C.3   1 <1>  -0.2400 
 17 C       -2.2540    -5.3140    -0.6540 C.3   1 <1>  -0.2400 
 18 C        4.2100    -4.8330    -0.9730 C.ar  1 <1>  -0.1500 
 19 C        3.1010    -3.5210     0.7010 C.ar  1 <1>  -0.1500 
 20 C        4.7630    -5.6240     0.0170 C.ar  1 <1>   0.0830 
 21 C        3.6460    -4.3130     1.6960 C.ar  1 <1>  -0.1500 
 22 O        5.5870    -6.6410    -0.3430 O.3   1 <1>  -0.3620 
 23 C        4.4720    -5.3710     1.3590 C.ar  1 <1>   0.0830 
 24 C        6.3680    -7.2250     0.6830 C.3   1 <1>   0.1200 
 25 O        4.9820    -6.1490     2.3500 O.3   1 <1>  -0.3630 
 26 C        5.5320    -7.3920     1.9590 C.3   1 <1>   0.1200 
 27 H       -1.1550    -2.1010    -1.5660 H     1 <1>   0.3700 
 28 H        0.7760    -4.0390    -0.3710 H     1 <1>   0.0800 
 29 H       -1.6610    -0.5200     2.8190 H     1 <1>   0.1500 
 30 H        0.5500    -5.1000    -2.6820 H     1 <1>   0.0800 
 31 H       -0.9070    -4.1890    -2.8590 H     1 <1>   0.0800 
 32 H       -4.0040     0.9010    -0.4520 H     1 <1>   0.1500 
 33 H       -3.5610     1.2360     2.2110 H     1 <1>   0.1500 
 34 H        3.4520    -2.5060    -2.2700 H     1 <1>   0.3700 
 35 H       -0.3180    -6.2120    -0.6630 H     1 <1>   0.0800 
 36 H       -2.0490    -6.5020    -3.1300 H     1 <1>   0.0800 
 37 H       -1.8460    -7.7030    -1.8770 H     1 <1>   0.0800 
 38 H       -0.4950    -7.2620    -2.8820 H     1 <1>   0.0800 
 39 H       -2.9020    -4.7710    -1.3190 H     1 <1>   0.0800 
 40 H       -1.9990    -4.6830     0.1770 H     1 <1>   0.0800 
 41 H       -2.7950    -6.1580    -0.2620 H     1 <1>   0.0800 
 42 H        4.4350    -5.0440    -2.0010 H     1 <1>   0.1500 
 43 H        2.4620    -2.6970     0.9690 H     1 <1>   0.1500 
 44 H        3.4310    -4.1170     2.7320 H     1 <1>   0.1500 
 45 H        7.2100    -6.5810     0.8690 H     1 <1>   0.0800 
 46 H        6.7220    -8.1760     0.3290 H     1 <1>   0.0800 
 47 H        6.1390    -7.7550     2.7690 H     1 <1>   0.0800 
 48 H        4.7220    -8.0780     1.7890 H     1 <1>   0.0800 
@<TRIPOS>BOND
  1   1   2  2   
  2   2   3  am  
  3   2   4  1   
  4   3   5  1   
  5   3  27  1   
  6   4   6  1   
  7   4   7  2   
  8   5   8  1   
  9   5   9  1   
 10   5  28  1   
 11   6  10  1   
 12   7  11  1   
 13   7  29  1   
 14   8  12  2   
 15   8  13  am  
 16   9  14  1   
 17   9  30  1   
 18   9  31  1   
 19  10  11  2   
 20  10  32  1   
 21  11  33  1   
 22  13  15  1   
 23  13  34  1   
 24  14  16  1   
 25  14  17  1   
 26  14  35  1   
 27  15  18  ar  
 28  15  19  ar  
 29  16  36  1   
 30  16  37  1   
 31  16  38  1   
 32  17  39  1   
 33  17  40  1   
 34  17  41  1   
 35  18  20  ar  
 36  18  42  1   
 37  19  21  ar  
 38  19  43  1   
 39  20  22  1   
 40  20  23  ar  
 41  21  23  ar  
 42  21  44  1   
 43  22  24  1   
 44  23  25  1   
 45  24  26  1   
 46  24  45  1   
 47  24  46  1   
 48  25  26  1   
 49  26  47  1   
 50  26  48  1   
@<TRIPOS>SUBSTRUCTURE
  1 ****   5 GROUP 4 **** **** 0

# MOE 2024.06 (io_trps.svl 2023.06)
