@<TRIPOS>MOLECULE
NONAME
49 52 1 0 0 
SMALL
USER_CHARGES


@<TRIPOS>ATOM
  1 N       -0.0400     0.3320     0.3240 N.3   1 <1>  -0.8100 
  2 C       -0.0150     0.6380    -1.1310 C.3   1 <1>   0.1100 
  3 C       -1.2890    -0.3730     0.6900 C.3   1 <1>   0.1100 
  4 C        1.1610    -0.4090     0.7610 C.3   1 <1>   0.2540 
  5 C       -1.2810     1.3950    -1.6000 C.3   1 <1>   0.3430 
  6 C       -2.5530     0.4240     0.2770 C.3   1 <1>   0.3430 
  7 C        2.4210     0.3850     0.4490 C.ar  1 <1>  -0.1440 
  8 N       -2.1890     1.6900    -0.4440 N.4   1 <1>  -0.9590 
  9 C        2.6120     1.6330     1.0080 C.ar  1 <1>  -0.1500 
 10 C        3.3860    -0.1420    -0.4170 C.ar  1 <1>  -0.1500 
 11 C       -3.3630     2.5340    -0.8070 C.3   1 <1>   0.2630 
 12 C        3.7560     2.3660     0.7000 C.ar  1 <1>   0.0000 
 13 C        4.5220     0.5740    -0.7270 C.ar  1 <1>  -0.1500 
 14 C        4.7030     1.8390    -0.1680 C.ar  1 <1>  -0.1520 
 15 C        4.2200     3.6490     1.1020 C.ar  1 <1>   0.0000 
 16 N        5.7280     2.7560    -0.3120 N.pl3 1 <1>   0.0480 
 17 C        5.4360     3.8620     0.4630 C.ar  1 <1>  -0.1520 
 18 C        3.6990     4.6240     1.9510 C.ar  1 <1>  -0.1500 
 19 C        6.9280     2.5870    -1.1580 C.3   1 <1>   0.0960 
 20 C        6.1430     5.0490     0.6640 C.ar  1 <1>  -0.1500 
 21 C        4.3980     5.7970     2.1470 C.ar  1 <1>  -0.1500 
 22 C        8.0620     1.9390    -0.3580 C.3   1 <1>  -0.2400 
 23 C        5.6190     6.0080     1.5040 C.ar  1 <1>  -0.1500 
 24 H        0.0850    -0.2720    -1.6980 H     1 <1>   0.0800 
 25 H        0.8420     1.2510    -1.3580 H     1 <1>   0.0800 
 26 H       -1.3120    -0.5300     1.7550 H     1 <1>   0.0800 
 27 H       -1.3130    -1.3420     0.2190 H     1 <1>   0.0800 
 28 H        1.1990    -1.3700     0.2770 H     1 <1>   0.0800 
 29 H        1.1150    -0.5720     1.8250 H     1 <1>   0.0800 
 30 H       -1.7980     0.8010    -2.3340 H     1 <1>   0.0800 
 31 H       -0.9780     2.3140    -2.0750 H     1 <1>   0.0800 
 32 H       -3.1200     0.6590     1.1630 H     1 <1>   0.0800 
 33 H       -3.1710    -0.1950    -0.3530 H     1 <1>   0.0800 
 34 H       -1.5710     2.1830     0.2240 H     1 <1>   0.4500 
 35 H        1.8860     2.0540     1.6790 H     1 <1>   0.1500 
 36 H        3.2440    -1.1170    -0.8480 H     1 <1>   0.1500 
 37 H       -3.9970     2.0130    -1.5060 H     1 <1>   0.0800 
 38 H       -3.0330     3.4560    -1.2590 H     1 <1>   0.0800 
 39 H       -3.9390     2.7710     0.0730 H     1 <1>   0.0800 
 40 H        5.2630     0.1650    -1.3900 H     1 <1>   0.1500 
 41 H        2.7610     4.4490     2.4430 H     1 <1>   0.1500 
 42 H        7.2340     3.5520    -1.5210 H     1 <1>   0.0800 
 43 H        6.6730     1.9750    -2.0040 H     1 <1>   0.0800 
 44 H        7.0850     5.2100     0.1720 H     1 <1>   0.1500 
 45 H        4.0060     6.5570     2.7990 H     1 <1>   0.1500 
 46 H        8.3220     2.5560     0.4840 H     1 <1>   0.0800 
 47 H        8.9310     1.8240    -0.9810 H     1 <1>   0.0800 
 48 H        7.7600     0.9680    -0.0060 H     1 <1>   0.0800 
 49 H        6.1490     6.9290     1.6710 H     1 <1>   0.1500 
@<TRIPOS>BOND
  1   1   2  1   
  2   1   3  1   
  3   1   4  1   
  4   2   5  1   
  5   2  24  1   
  6   2  25  1   
  7   3   6  1   
  8   3  26  1   
  9   3  27  1   
 10   4   7  1   
 11   4  28  1   
 12   4  29  1   
 13   5   8  1   
 14   5  30  1   
 15   5  31  1   
 16   6   8  1   
 17   6  32  1   
 18   6  33  1   
 19   7   9  ar  
 20   7  10  ar  
 21   8  11  1   
 22   8  34  1   
 23   9  12  ar  
 24   9  35  1   
 25  10  13  ar  
 26  10  36  1   
 27  11  37  1   
 28  11  38  1   
 29  11  39  1   
 30  12  14  ar  
 31  12  15  1   
 32  13  14  ar  
 33  13  40  1   
 34  14  16  1   
 35  15  17  ar  
 36  15  18  ar  
 37  16  17  1   
 38  16  19  1   
 39  17  20  ar  
 40  18  21  ar  
 41  18  41  1   
 42  19  22  1   
 43  19  42  1   
 44  19  43  1   
 45  20  23  ar  
 46  20  44  1   
 47  21  23  ar  
 48  21  45  1   
 49  22  46  1   
 50  22  47  1   
 51  22  48  1   
 52  23  49  1   
@<TRIPOS>SUBSTRUCTURE
  1 ****   9 GROUP 4 **** **** 0

# MOE 2024.06 (io_trps.svl 2023.06)
