@<TRIPOS>MOLECULE
11842
31 31 1 0 0 
SMALL
USER_CHARGES


@<TRIPOS>ATOM
  1 CL       1.0810     0.6130     0.0400 Cl    1 <1>  -0.1770 
  2 C        1.5120    -1.0720     0.2280 C.ar  1 <1>   0.1770 
  3 C        0.6460    -1.9580     0.8460 C.ar  1 <1>   0.1770 
  4 C        2.7340    -1.5020    -0.2540 C.ar  1 <1>  -0.1500 
  5 CL      -0.9030    -1.4230     1.4590 Cl    1 <1>  -0.1770 
  6 C        0.9990    -3.2880     0.9850 C.ar  1 <1>  -0.1500 
  7 C        3.1070    -2.8350    -0.1200 C.ar  1 <1>   0.1170 
  8 C        2.2230    -3.7190     0.5010 C.ar  1 <1>  -0.1500 
  9 N        4.3480    -3.2440    -0.6280 N.am  1 <1>  -0.5470 
 10 C        5.1680    -4.2610    -0.2400 C.2   1 <1>   0.6900 
 11 O        4.9330    -4.9390     0.7400 O.2   1 <1>  -0.5700 
 12 N        6.2800    -4.4880    -0.9830 N.am  1 <1>  -0.7300 
 13 C        7.3010    -5.5140    -0.6840 C.3   1 <1>   0.1400 
 14 C        8.6720    -4.8470    -0.6210 C.3   1 <1>  -0.1600 
 15 C        9.7520    -5.8720    -0.2690 C.3   1 <1>   0.1200 
 16 O       11.0040    -5.2720    -0.3580 O.3   1 <1>  -0.5600 
 17 C       11.4240    -4.5980     0.7880 C.3   1 <1>   0.0400 
 18 H        3.3900    -0.7960    -0.7260 H     1 <1>   0.1500 
 19 H        0.3250    -3.9750     1.4660 H     1 <1>   0.1500 
 20 H        2.4920    -4.7550     0.6070 H     1 <1>   0.1500 
 21 H        4.7630    -2.6290    -1.3200 H     1 <1>   0.3700 
 22 H        6.4110    -3.9860    -1.8580 H     1 <1>   0.3700 
 23 H        7.2850    -6.2660    -1.4550 H     1 <1>   0.0800 
 24 H        7.0830    -5.9900     0.2590 H     1 <1>   0.0800 
 25 H        8.6490    -4.0780     0.1300 H     1 <1>   0.0800 
 26 H        8.9040    -4.4130    -1.5770 H     1 <1>   0.0800 
 27 H        9.7400    -6.6780    -0.9820 H     1 <1>   0.0800 
 28 H        9.6140    -6.2810     0.7180 H     1 <1>   0.0800 
 29 H       12.4030    -4.1950     0.5970 H     1 <1>   0.0800 
 30 H       11.4730    -5.2910     1.6100 H     1 <1>   0.0800 
 31 H       10.7410    -3.7960     1.0070 H     1 <1>   0.0800 
@<TRIPOS>BOND
  1   1   2  1   
  2   2   3  ar  
  3   2   4  ar  
  4   3   5  1   
  5   3   6  ar  
  6   4   7  ar  
  7   4  18  1   
  8   6   8  ar  
  9   6  19  1   
 10   7   8  ar  
 11   7   9  1   
 12   8  20  1   
 13   9  10  am  
 14   9  21  1   
 15  10  11  2   
 16  10  12  am  
 17  12  13  1   
 18  12  22  1   
 19  13  14  1   
 20  13  23  1   
 21  13  24  1   
 22  14  15  1   
 23  14  25  1   
 24  14  26  1   
 25  15  16  1   
 26  15  27  1   
 27  15  28  1   
 28  16  17  1   
 29  17  29  1   
 30  17  30  1   
 31  17  31  1   
@<TRIPOS>SUBSTRUCTURE
  1 ****   9 GROUP 4 **** **** 0

# MOE 2024.06 (io_trps.svl 2023.06)
