@<TRIPOS>MOLECULE
NONAME
25 25 1 0 0 
SMALL
USER_CHARGES


@<TRIPOS>ATOM
  1 F       -0.6910     0.7180    -0.4570 F     1 <1>  -0.3400 
  2 C       -0.4070     1.9440    -0.0240 C.3   1 <1>   1.0200 
  3 F       -0.6390     1.9350     1.2840 F     1 <1>  -0.3400 
  4 F        0.9170     2.0630    -0.1370 F     1 <1>  -0.3400 
  5 C       -1.1530     3.1090    -0.8220 C.3   1 <1>   0.5600 
  6 O       -2.4690     2.8030    -1.2450 O.3   1 <1>  -0.5600 
  7 O       -0.5210     3.3490    -2.0460 O.3   1 <1>  -0.6800 
  8 C       -1.1290     4.4590    -0.0970 C.3   1 <1>  -0.0990 
  9 C       -3.5990     2.9010    -0.4260 C.3   1 <1>   0.2800 
 10 C       -2.2490     4.5000     0.9000 C.2   1 <1>   0.4480 
 11 C       -3.6110     4.2360     0.3240 C.3   1 <1>  -0.0990 
 12 C       -4.7840     2.8360    -1.3910 C.3   1 <1>  -0.2400 
 13 C       -3.6760     1.6960     0.5180 C.3   1 <1>  -0.2400 
 14 O       -2.0660     4.7180     2.0560 O.2   1 <1>  -0.5700 
 15 H        0.4480     3.2640    -1.9490 H     1 <1>   0.4000 
 16 H       -1.2720     5.2620    -0.7970 H     1 <1>   0.0800 
 17 H       -0.1920     4.6050     0.4070 H     1 <1>   0.0800 
 18 H       -4.3450     4.2180     1.1090 H     1 <1>   0.0800 
 19 H       -3.8630     5.0370    -0.3460 H     1 <1>   0.0800 
 20 H       -4.7240     3.6300    -2.1140 H     1 <1>   0.0800 
 21 H       -5.7120     2.9310    -0.8570 H     1 <1>   0.0800 
 22 H       -4.7860     1.8960    -1.9130 H     1 <1>   0.0800 
 23 H       -4.6730     1.6090     0.9130 H     1 <1>   0.0800 
 24 H       -3.4500     0.7860    -0.0100 H     1 <1>   0.0800 
 25 H       -3.0260     1.8010     1.3630 H     1 <1>   0.0800 
@<TRIPOS>BOND
  1   1   2  1   
  2   2   3  1   
  3   2   4  1   
  4   2   5  1   
  5   5   6  1   
  6   5   7  1   
  7   5   8  1   
  8   6   9  1   
  9   7  15  1   
 10   8  10  1   
 11   8  16  1   
 12   8  17  1   
 13   9  11  1   
 14   9  12  1   
 15   9  13  1   
 16  10  11  1   
 17  10  14  2   
 18  11  18  1   
 19  11  19  1   
 20  12  20  1   
 21  12  21  1   
 22  12  22  1   
 23  13  23  1   
 24  13  24  1   
 25  13  25  1   
@<TRIPOS>SUBSTRUCTURE
  1 ****   5 GROUP 4 **** **** 0

# MOE 2024.06 (io_trps.svl 2023.06)
