@<TRIPOS>MOLECULE
NONAME
40 41 1 0 0 
SMALL
USER_CHARGES


@<TRIPOS>ATOM
  1 S       -0.4550    -0.1780     0.6090 S.o2  1 <1>   1.4470 
  2 O       -0.2910    -0.7140     1.9430 O.2   1 <1>  -0.6500 
  3 O       -0.7010    -1.0840    -0.4910 O.2   1 <1>  -0.6500 
  4 N       -1.8050     0.8470     0.6800 N.am  1 <1>  -0.8490 
  5 C        0.9250     0.9210     0.1820 C.ar  1 <1>  -0.0090 
  6 C       -3.0370     0.0300     0.8530 C.3   1 <1>   0.2570 
  7 C       -1.7080     1.8630     1.7390 C.3   1 <1>   0.1960 
  8 C        1.8650     1.3050     1.1320 C.ar  1 <1>  -0.1500 
  9 C        1.0600     1.4280    -1.1040 C.ar  1 <1>  -0.1500 
 10 C       -4.3380     0.7950     0.5950 C.2   1 <1>   0.5690 
 11 C       -1.4660     3.2250     1.0980 C.3   1 <1>  -0.2400 
 12 C        2.9000     2.1670     0.8110 C.ar  1 <1>  -0.1500 
 13 C        2.0930     2.2900    -1.4320 C.ar  1 <1>  -0.1500 
 14 O       -5.2990     0.5770     1.2950 O.2   1 <1>  -0.5700 
 15 N       -4.3530     1.7060    -0.4140 N.am  1 <1>  -0.5790 
 16 C        3.0170     2.6660    -0.4740 C.ar  1 <1>  -0.1430 
 17 C       -5.4870     2.5490    -0.8120 C.3   1 <1>   0.0490 
 18 C        4.1520     3.6100    -0.8320 C.3   1 <1>  -0.0970 
 19 C       -5.6170     2.9120    -2.2530 C.3   1 <1>  -0.2000 
 20 C       -5.2010     3.9460    -1.2510 C.3   1 <1>  -0.2000 
 21 H       -3.0650    -0.3850     1.8470 H     1 <1>   0.0800 
 22 H       -3.0300    -0.7940     0.1610 H     1 <1>   0.0800 
 23 H       -0.9100     1.6380     2.4290 H     1 <1>   0.0800 
 24 H       -2.6200     1.9140     2.3120 H     1 <1>   0.0800 
 25 H        1.7900     0.9240     2.1370 H     1 <1>   0.1500 
 26 H        0.3480     1.1430    -1.8600 H     1 <1>   0.1500 
 27 H       -0.5450     3.2360     0.5460 H     1 <1>   0.0800 
 28 H       -1.4050     3.9750     1.8660 H     1 <1>   0.0800 
 29 H       -2.2790     3.4810     0.4440 H     1 <1>   0.0800 
 30 H        3.6150     2.4440     1.5660 H     1 <1>   0.1500 
 31 H        2.1730     2.6650    -2.4380 H     1 <1>   0.1500 
 32 H       -3.4710     1.8730    -0.9040 H     1 <1>   0.3700 
 33 H       -6.3830     2.3560    -0.2430 H     1 <1>   0.1000 
 34 H        3.8370     4.3070    -1.5880 H     1 <1>   0.0800 
 35 H        4.9880     3.0470    -1.2070 H     1 <1>   0.0800 
 36 H        4.4680     4.1670     0.0320 H     1 <1>   0.0800 
 37 H       -6.6030     2.9840    -2.6780 H     1 <1>   0.1000 
 38 H       -4.8910     2.5340    -2.9520 H     1 <1>   0.1000 
 39 H       -4.1840     4.2960    -1.2540 H     1 <1>   0.1000 
 40 H       -5.9040     4.7190    -0.9960 H     1 <1>   0.1000 
@<TRIPOS>BOND
  1   1   2  2   
  2   1   3  2   
  3   1   4  am  
  4   1   5  1   
  5   4   6  1   
  6   4   7  1   
  7   5   8  ar  
  8   5   9  ar  
  9   6  10  1   
 10   6  21  1   
 11   6  22  1   
 12   7  11  1   
 13   7  23  1   
 14   7  24  1   
 15   8  12  ar  
 16   8  25  1   
 17   9  13  ar  
 18   9  26  1   
 19  10  14  2   
 20  10  15  am  
 21  11  27  1   
 22  11  28  1   
 23  11  29  1   
 24  12  16  ar  
 25  12  30  1   
 26  13  16  ar  
 27  13  31  1   
 28  15  17  1   
 29  15  32  1   
 30  16  18  1   
 31  17  19  1   
 32  17  20  1   
 33  17  33  1   
 34  18  34  1   
 35  18  35  1   
 36  18  36  1   
 37  19  20  1   
 38  19  37  1   
 39  19  38  1   
 40  20  39  1   
 41  20  40  1   
@<TRIPOS>SUBSTRUCTURE
  1 ****   4 GROUP 4 **** **** 0

# MOE 2024.06 (io_trps.svl 2023.06)
