@<TRIPOS>MOLECULE
NONAME
44 45 1 0 0 
SMALL
USER_CHARGES


@<TRIPOS>ATOM
  1 O       -0.3790    -0.3860     0.4550 O.3   1 <1>  -0.3630 
  2 C       -1.5780    -0.9070     0.1000 C.ar  1 <1>   0.0830 
  3 C        0.4600    -1.0280     1.3900 C.3   1 <1>   0.0400 
  4 C       -2.1140    -2.0670     0.6500 C.ar  1 <1>  -0.1500 
  5 C       -2.2890    -0.2240    -0.8720 C.ar  1 <1>  -0.1500 
  6 C       -3.3510    -2.5260     0.2310 C.ar  1 <1>  -0.1500 
  7 C       -3.5240    -0.6820    -1.2920 C.ar  1 <1>  -0.1500 
  8 C       -4.0680    -1.8310    -0.7350 C.ar  1 <1>  -0.1430 
  9 C       -5.4330    -2.3180    -1.1790 C.3   1 <1>   0.4860 
 10 N       -6.4230    -2.0360    -0.0860 N.4   1 <1>  -0.9590 
 11 C       -7.7440    -2.7300    -0.2610 C.3   1 <1>   0.4230 
 12 C       -6.5370    -0.5410     0.0750 C.3   1 <1>   0.2630 
 13 C       -8.6950    -2.3810     0.8960 C.3   1 <1>  -0.1600 
 14 C       -7.5520    -4.2550    -0.3230 C.3   1 <1>  -0.1600 
 15 C      -10.0140    -3.1520     0.8110 C.3   1 <1>   0.3430 
 16 C       -8.8860    -5.0010    -0.3900 C.3   1 <1>   0.3430 
 17 N       -9.7470    -4.6160     0.7620 N.4   1 <1>  -0.9590 
 18 C      -11.0400    -5.3760     0.7200 C.3   1 <1>   0.2630 
 19 H        1.3560    -0.4430     1.4920 H     1 <1>   0.0800 
 20 H        0.7050    -2.0090     1.0240 H     1 <1>   0.0800 
 21 H       -0.0480    -1.0830     2.3370 H     1 <1>   0.0800 
 22 H       -1.5790    -2.6200     1.3990 H     1 <1>   0.1500 
 23 H       -1.8600     0.6670    -1.2960 H     1 <1>   0.1500 
 24 H       -3.7340    -3.4320     0.6680 H     1 <1>   0.1500 
 25 H       -4.0440    -0.1280    -2.0550 H     1 <1>   0.1500 
 26 H       -5.3640    -3.3740    -1.3740 H     1 <1>   0.0800 
 27 H       -5.7230    -1.8200    -2.0900 H     1 <1>   0.0800 
 28 H       -5.9690    -2.3800     0.7720 H     1 <1>   0.4500 
 29 H       -8.1940    -2.4000    -1.1860 H     1 <1>   0.0800 
 30 H       -6.9870    -0.0980    -0.7990 H     1 <1>   0.0800 
 31 H       -5.5620    -0.1010     0.2150 H     1 <1>   0.0800 
 32 H       -7.1330    -0.2910     0.9370 H     1 <1>   0.0800 
 33 H       -8.9470    -1.3370     0.8690 H     1 <1>   0.0800 
 34 H       -8.2300    -2.5920     1.8430 H     1 <1>   0.0800 
 35 H       -7.0040    -4.6010     0.5360 H     1 <1>   0.0800 
 36 H       -7.0030    -4.5290    -1.2060 H     1 <1>   0.0800 
 37 H      -10.5570    -2.8520    -0.0710 H     1 <1>   0.0800 
 38 H      -10.6230    -2.9200     1.6720 H     1 <1>   0.0800 
 39 H       -8.7050    -6.0660    -0.3720 H     1 <1>   0.0800 
 40 H       -9.3910    -4.7660    -1.3150 H     1 <1>   0.0800 
 41 H       -9.2720    -4.8930     1.6370 H     1 <1>   0.4500 
 42 H      -11.5940    -5.1340    -0.1730 H     1 <1>   0.0800 
 43 H      -11.6480    -5.1330     1.5770 H     1 <1>   0.0800 
 44 H      -10.8530    -6.4390     0.7290 H     1 <1>   0.0800 
@<TRIPOS>BOND
  1   1   2  1   
  2   1   3  1   
  3   2   4  ar  
  4   2   5  ar  
  5   3  19  1   
  6   3  20  1   
  7   3  21  1   
  8   4   6  ar  
  9   4  22  1   
 10   5   7  ar  
 11   5  23  1   
 12   6   8  ar  
 13   6  24  1   
 14   7   8  ar  
 15   7  25  1   
 16   8   9  1   
 17   9  10  1   
 18   9  26  1   
 19   9  27  1   
 20  10  11  1   
 21  10  12  1   
 22  10  28  1   
 23  11  13  1   
 24  11  14  1   
 25  11  29  1   
 26  12  30  1   
 27  12  31  1   
 28  12  32  1   
 29  13  15  1   
 30  13  33  1   
 31  13  34  1   
 32  14  16  1   
 33  14  35  1   
 34  14  36  1   
 35  15  17  1   
 36  15  37  1   
 37  15  38  1   
 38  16  17  1   
 39  16  39  1   
 40  16  40  1   
 41  17  18  1   
 42  17  41  1   
 43  18  42  1   
 44  18  43  1   
 45  18  44  1   
@<TRIPOS>SUBSTRUCTURE
  1 ****  10 GROUP 4 **** **** 0

# MOE 2024.06 (io_trps.svl 2023.06)
