@<TRIPOS>MOLECULE
NONAME
35 35 1 0 0 
SMALL
USER_CHARGES


@<TRIPOS>ATOM
  1 O        3.8070    -5.6040     0.0010 O.3   1 <1>  -0.3630 
  2 C        2.4480    -5.6180     0.0020 C.ar  1 <1>   0.0830 
  3 C        4.5240    -4.3950     0.0050 C.3   1 <1>   0.1200 
  4 C        1.6570    -4.4710     0.0070 C.ar  1 <1>  -0.1500 
  5 C        1.8420    -6.8640    -0.0020 C.ar  1 <1>  -0.1500 
  6 C        6.0110    -4.7580     0.0030 C.3   1 <1>   0.3430 
  7 C        0.2770    -4.5790     0.0080 C.ar  1 <1>  -0.1500 
  8 C        0.4630    -6.9700    -0.0010 C.ar  1 <1>  -0.1500 
  9 N        6.8840    -3.5440     0.0080 N.4   1 <1>  -0.9060 
 10 C       -0.3290    -5.8330     0.0030 C.ar  1 <1>   0.0830 
 11 C        8.3200    -3.8960     0.0050 C.3   1 <1>   0.3430 
 12 O       -1.6730    -6.0270     0.0040 O.3   1 <1>  -0.3630 
 13 C        9.1230    -2.6040     0.0100 C.3   1 <1>  -0.2400 
 14 C       -2.5690    -4.9410     0.0080 C.3   1 <1>   0.1200 
 15 C       -3.9880    -5.5000     0.0070 C.3   1 <1>  -0.2400 
 16 H        4.2570    -3.8540     0.8960 H     1 <1>   0.0800 
 17 H        4.2560    -3.8460    -0.8800 H     1 <1>   0.0800 
 18 H        2.0870    -3.4880     0.0100 H     1 <1>   0.1500 
 19 H        2.4490    -7.7510    -0.0060 H     1 <1>   0.1500 
 20 H        6.2180    -5.3500    -0.8750 H     1 <1>   0.0800 
 21 H        6.2190    -5.3570     0.8750 H     1 <1>   0.0800 
 22 H       -0.3120    -3.6810     0.0110 H     1 <1>   0.1500 
 23 H       -0.0100    -7.9350    -0.0050 H     1 <1>   0.1500 
 24 H        6.6870    -2.9700     0.8370 H     1 <1>   0.4500 
 25 H        6.6850    -2.9620    -0.8170 H     1 <1>   0.4500 
 26 H        8.5630    -4.4730    -0.8740 H     1 <1>   0.0800 
 27 H        8.5640    -4.4810     0.8780 H     1 <1>   0.0800 
 28 H        8.9170    -2.0160    -0.8670 H     1 <1>   0.0800 
 29 H       10.1730    -2.8400     0.0090 H     1 <1>   0.0800 
 30 H        8.9180    -2.0240     0.8940 H     1 <1>   0.0800 
 31 H       -2.3930    -4.3500    -0.8740 H     1 <1>   0.0800 
 32 H       -2.3920    -4.3560     0.8940 H     1 <1>   0.0800 
 33 H       -4.1480    -6.0960    -0.8730 H     1 <1>   0.0800 
 34 H       -4.6980    -4.6930     0.0100 H     1 <1>   0.0800 
 35 H       -4.1470    -6.1020     0.8830 H     1 <1>   0.0800 
@<TRIPOS>BOND
  1   1   2  1   
  2   1   3  1   
  3   2   4  ar  
  4   2   5  ar  
  5   3   6  1   
  6   3  16  1   
  7   3  17  1   
  8   4   7  ar  
  9   4  18  1   
 10   5   8  ar  
 11   5  19  1   
 12   6   9  1   
 13   6  20  1   
 14   6  21  1   
 15   7  10  ar  
 16   7  22  1   
 17   8  10  ar  
 18   8  23  1   
 19   9  11  1   
 20   9  24  1   
 21   9  25  1   
 22  10  12  1   
 23  11  13  1   
 24  11  26  1   
 25  11  27  1   
 26  12  14  1   
 27  13  28  1   
 28  13  29  1   
 29  13  30  1   
 30  14  15  1   
 31  14  31  1   
 32  14  32  1   
 33  15  33  1   
 34  15  34  1   
 35  15  35  1   
@<TRIPOS>SUBSTRUCTURE
  1 ****   2 GROUP 4 **** **** 0

# MOE 2024.06 (io_trps.svl 2023.06)
