@<TRIPOS>MOLECULE
NONAME
44 45 1 0 0 
SMALL
USER_CHARGES


@<TRIPOS>ATOM
  1 S       -0.5130    -0.9810     1.1380 S.o2  1 <1>   1.4470 
  2 O       -0.6880     0.4540     1.2220 O.2   1 <1>  -0.6500 
  3 O       -0.9180    -1.7660     2.2860 O.2   1 <1>  -0.6500 
  4 N       -1.4910    -1.4930    -0.1540 N.am  1 <1>  -0.8490 
  5 C        1.1820    -1.3050     0.5720 C.ar  1 <1>  -0.0090 
  6 C       -2.8560    -0.9630    -0.0080 C.3   1 <1>   0.1960 
  7 C       -1.4920    -2.9540    -0.2910 C.3   1 <1>   0.1960 
  8 C        1.8400    -2.5120     0.8110 C.ar  1 <1>   0.0820 
  9 C        1.8580    -0.3270    -0.1500 C.ar  1 <1>  -0.1500 
 10 C       -3.7420    -1.3420    -1.2010 C.3   1 <1>  -0.0190 
 11 C       -2.3030    -3.3780    -1.5190 C.3   1 <1>  -0.1600 
 12 O        1.1820    -3.4820     1.4900 O.3   1 <1>  -0.3630 
 13 C        3.1390    -2.7090     0.3460 C.ar  1 <1>  -0.1500 
 14 C        3.1480    -0.5170    -0.6160 C.ar  1 <1>  -0.1440 
 15 C       -5.1430    -0.7840    -1.0020 C.2   1 <1>   0.5690 
 16 C       -3.7440    -2.8640    -1.4390 C.3   1 <1>  -0.1600 
 17 C        1.8660    -4.5240     2.1500 C.3   1 <1>   0.0400 
 18 C        3.7870    -1.7150    -0.3610 C.ar  1 <1>  -0.1500 
 19 C        3.8500     0.5810    -1.3950 C.3   1 <1>  -0.0970 
 20 O       -5.5430     0.0650    -1.7600 O.2   1 <1>  -0.5700 
 21 N       -5.9080    -1.2480     0.0250 N.am  1 <1>  -0.7300 
 22 C       -7.2820    -0.7830     0.3430 C.3   1 <1>   0.0600 
 23 H       -2.8210     0.1130     0.0550 H     1 <1>   0.0800 
 24 H       -3.2870    -1.3330     0.9080 H     1 <1>   0.0800 
 25 H       -1.9010    -3.4100     0.5970 H     1 <1>   0.0800 
 26 H       -0.4840    -3.3070    -0.4160 H     1 <1>   0.0800 
 27 H        1.3590     0.6070    -0.3490 H     1 <1>   0.1500 
 28 H       -3.3270    -0.8640    -2.0710 H     1 <1>   0.0800 
 29 H       -2.3040    -4.4510    -1.5910 H     1 <1>   0.0800 
 30 H       -1.8230    -2.9900    -2.4010 H     1 <1>   0.0800 
 31 H        3.6580    -3.6320     0.5190 H     1 <1>   0.1500 
 32 H       -4.2660    -3.0880    -2.3540 H     1 <1>   0.0800 
 33 H       -4.2510    -3.3640    -0.6320 H     1 <1>   0.0800 
 34 H        1.1580    -5.0500     2.7650 H     1 <1>   0.0800 
 35 H        2.6390    -4.1000     2.7680 H     1 <1>   0.0800 
 36 H        2.2800    -5.1930     1.4170 H     1 <1>   0.0800 
 37 H        4.7910    -1.8780    -0.7130 H     1 <1>   0.1500 
 38 H        3.1370     1.1640    -1.9500 H     1 <1>   0.0800 
 39 H        4.5550     0.1590    -2.0880 H     1 <1>   0.0800 
 40 H        4.3750     1.2290    -0.7160 H     1 <1>   0.0800 
 41 H       -5.5380    -1.9810     0.6340 H     1 <1>   0.3700 
 42 H       -7.3080    -0.3820     1.3410 H     1 <1>   0.0800 
 43 H       -7.9710    -1.6050     0.2700 H     1 <1>   0.0800 
 44 H       -7.5870    -0.0130    -0.3470 H     1 <1>   0.0800 
@<TRIPOS>BOND
  1   1   2  2   
  2   1   3  2   
  3   1   4  am  
  4   1   5  1   
  5   4   6  1   
  6   4   7  1   
  7   5   8  ar  
  8   5   9  ar  
  9   6  10  1   
 10   6  23  1   
 11   6  24  1   
 12   7  11  1   
 13   7  25  1   
 14   7  26  1   
 15   8  12  1   
 16   8  13  ar  
 17   9  14  ar  
 18   9  27  1   
 19  10  15  1   
 20  10  16  1   
 21  10  28  1   
 22  11  16  1   
 23  11  29  1   
 24  11  30  1   
 25  12  17  1   
 26  13  18  ar  
 27  13  31  1   
 28  14  18  ar  
 29  14  19  1   
 30  15  20  2   
 31  15  21  am  
 32  16  32  1   
 33  16  33  1   
 34  17  34  1   
 35  17  35  1   
 36  17  36  1   
 37  18  37  1   
 38  19  38  1   
 39  19  39  1   
 40  19  40  1   
 41  21  22  1   
 42  21  41  1   
 43  22  42  1   
 44  22  43  1   
 45  22  44  1   
@<TRIPOS>SUBSTRUCTURE
  1 ****   4 GROUP 4 **** **** 0

# MOE 2024.06 (io_trps.svl 2023.06)
