@<TRIPOS>MOLECULE
NONAME
54 56 1 0 0 
SMALL
USER_CHARGES


@<TRIPOS>ATOM
  1 O        1.8790    -2.0840    -2.6840 O.2   1 <1>  -0.5700 
  2 C        1.1060    -2.0580    -1.7560 C.2   1 <1>   0.5690 
  3 N        1.0950    -1.0990    -0.7850 N.am  1 <1>  -0.5470 
  4 C        0.0580    -3.1660    -1.6310 C.3   1 <1>   0.1710 
  5 C        1.8680     0.0450    -0.5160 C.ar  1 <1>   0.1170 
  6 N       -1.1660    -2.7520    -0.8860 N.3   1 <1>  -0.8100 
  7 C        1.6100     0.7640     0.6570 C.ar  1 <1>   0.0830 
  8 C        2.8750     0.4900    -1.3660 C.ar  1 <1>  -0.1500 
  9 C       -2.0020    -1.8370    -1.7060 C.3   1 <1>   0.1100 
 10 C       -1.9730    -3.9270    -0.4830 C.3   1 <1>   0.1100 
 11 O        0.6210     0.2980     1.4770 O.3   1 <1>  -0.3630 
 12 C        2.3500     1.9040     0.9540 C.ar  1 <1>  -0.1500 
 13 C        3.6110     1.6220    -1.0630 C.ar  1 <1>  -0.1500 
 14 C       -3.2860    -1.4060    -0.9740 C.3   1 <1>   0.2090 
 15 C       -3.2530    -3.5190     0.2710 C.3   1 <1>   0.2090 
 16 C        0.5450     0.7140     2.8230 C.3   1 <1>   0.0400 
 17 C        3.3490     2.3300     0.0950 C.ar  1 <1>  -0.1500 
 18 N       -4.0840    -2.5940    -0.5540 N.pl3 1 <1>  -0.8380 
 19 C       -5.3570    -2.3160    -0.0400 C.ar  1 <1>   0.1000 
 20 C       -5.5970    -1.6320     1.1650 C.ar  1 <1>   0.0830 
 21 C       -6.4510    -2.7440    -0.7780 C.ar  1 <1>  -0.1500 
 22 O       -4.5540    -1.1870     1.9190 O.3   1 <1>  -0.3630 
 23 C       -6.8970    -1.4150     1.6010 C.ar  1 <1>  -0.1500 
 24 C       -7.7460    -2.5170    -0.3470 C.ar  1 <1>  -0.1500 
 25 C       -4.5220     0.1870     2.2210 C.3   1 <1>   0.1200 
 26 C       -7.9710    -1.8530     0.8450 C.ar  1 <1>  -0.1500 
 27 C       -3.1210     0.5260     2.7200 C.3   1 <1>  -0.2400 
 28 H        0.3340    -1.2440    -0.1100 H     1 <1>   0.3700 
 29 H        0.5270    -3.9830    -1.1130 H     1 <1>   0.0800 
 30 H       -0.2080    -3.5080    -2.6150 H     1 <1>   0.0800 
 31 H        3.0930    -0.0450    -2.2710 H     1 <1>   0.1500 
 32 H       -2.2820    -2.3220    -2.6250 H     1 <1>   0.0800 
 33 H       -1.4390    -0.9540    -1.9540 H     1 <1>   0.0800 
 34 H       -1.3850    -4.5610     0.1570 H     1 <1>   0.0800 
 35 H       -2.2550    -4.4950    -1.3540 H     1 <1>   0.0800 
 36 H        2.1630     2.4760     1.8420 H     1 <1>   0.1500 
 37 H        4.3870     1.9500    -1.7330 H     1 <1>   0.1500 
 38 H       -3.8840    -0.7920    -1.6240 H     1 <1>   0.0800 
 39 H       -3.0180    -0.8240    -0.1120 H     1 <1>   0.0800 
 40 H       -2.9800    -3.0400     1.1950 H     1 <1>   0.0800 
 41 H       -3.8300    -4.3960     0.5050 H     1 <1>   0.0800 
 42 H       -0.1860     0.1030     3.3200 H     1 <1>   0.0800 
 43 H        0.2400     1.7450     2.8530 H     1 <1>   0.0800 
 44 H        1.5070     0.5810     3.2860 H     1 <1>   0.0800 
 45 H        3.9210     3.2120     0.3270 H     1 <1>   0.1500 
 46 H       -6.2700    -3.2630    -1.7010 H     1 <1>   0.1500 
 47 H       -7.0760    -0.9120     2.5320 H     1 <1>   0.1500 
 48 H       -8.5760    -2.8600    -0.9400 H     1 <1>   0.1500 
 49 H       -5.2580     0.3910     2.9780 H     1 <1>   0.0800 
 50 H       -4.7530     0.7390     1.3250 H     1 <1>   0.0800 
 51 H       -8.9770    -1.6810     1.1850 H     1 <1>   0.1500 
 52 H       -2.8980    -0.0430     3.6040 H     1 <1>   0.0800 
 53 H       -3.0620     1.5730     2.9570 H     1 <1>   0.0800 
 54 H       -2.3960     0.3050     1.9570 H     1 <1>   0.0800 
@<TRIPOS>BOND
  1   1   2  2   
  2   2   3  am  
  3   2   4  1   
  4   3   5  1   
  5   3  28  1   
  6   4   6  1   
  7   4  29  1   
  8   4  30  1   
  9   5   7  ar  
 10   5   8  ar  
 11   6   9  1   
 12   6  10  1   
 13   7  11  1   
 14   7  12  ar  
 15   8  13  ar  
 16   8  31  1   
 17   9  14  1   
 18   9  32  1   
 19   9  33  1   
 20  10  15  1   
 21  10  34  1   
 22  10  35  1   
 23  11  16  1   
 24  12  17  ar  
 25  12  36  1   
 26  13  17  ar  
 27  13  37  1   
 28  14  18  1   
 29  14  38  1   
 30  14  39  1   
 31  15  18  1   
 32  15  40  1   
 33  15  41  1   
 34  16  42  1   
 35  16  43  1   
 36  16  44  1   
 37  17  45  1   
 38  18  19  1   
 39  19  20  ar  
 40  19  21  ar  
 41  20  22  1   
 42  20  23  ar  
 43  21  24  ar  
 44  21  46  1   
 45  22  25  1   
 46  23  26  ar  
 47  23  47  1   
 48  24  26  ar  
 49  24  48  1   
 50  25  27  1   
 51  25  49  1   
 52  25  50  1   
 53  26  51  1   
 54  27  52  1   
 55  27  53  1   
 56  27  54  1   
@<TRIPOS>SUBSTRUCTURE
  1 ****  14 GROUP 4 **** **** 0

# MOE 2024.06 (io_trps.svl 2023.06)
