@<TRIPOS>MOLECULE
NONAME
46 47 1 0 0 
SMALL
USER_CHARGES


@<TRIPOS>ATOM
  1 O        0.3920     1.0670    -1.6550 O.2   1 <1>  -0.5700 
  2 C        0.8000     1.5570    -0.6220 C.2   1 <1>   0.5440 
  3 N       -0.0760     2.1950     0.2220 N.am  1 <1>  -0.5470 
  4 C        2.1970     1.4450    -0.2560 C.ar  1 <1>   0.0860 
  5 C       -1.4570     2.4110     0.0580 C.ar  1 <1>   0.1170 
  6 C        2.8550     2.4600     0.4410 C.ar  1 <1>  -0.1500 
  7 C        2.9260     0.3070    -0.5940 C.ar  1 <1>  -0.1500 
  8 C       -2.0090     3.1310    -1.0160 C.ar  1 <1>   0.1660 
  9 C       -2.3250     1.9090     1.0210 C.ar  1 <1>  -0.1430 
 10 C        4.1890     2.3380     0.8120 C.ar  1 <1>   0.0830 
 11 C        4.2590     0.1590    -0.2340 C.ar  1 <1>   0.0830 
 12 N       -3.3020     3.3640    -1.1770 N.ar  1 <1>  -0.6200 
 13 C       -1.1360     3.7340    -2.1030 C.3   1 <1>  -0.0970 
 14 C       -3.6710     2.1530     0.8440 C.ar  1 <1>  -0.1500 
 15 C       -1.8460     1.1050     2.2240 C.3   1 <1>  -0.0970 
 16 O        4.8560     3.3180     1.4890 O.3   1 <1>  -0.3630 
 17 C        4.8890     1.1790     0.4800 C.ar  1 <1>   0.0830 
 18 O        4.9860    -0.9510    -0.5530 O.3   1 <1>  -0.3630 
 19 C       -4.1060     2.8730    -0.2540 C.ar  1 <1>   0.1670 
 20 C        4.2470     4.5400     1.8380 C.3   1 <1>   0.0400 
 21 O        6.1800     1.0420     0.8740 O.3   1 <1>  -0.3630 
 22 C        4.4110    -2.0470    -1.2300 C.3   1 <1>   0.0400 
 23 C       -5.5820     3.1420    -0.4580 C.3   1 <1>  -0.0970 
 24 C        7.1540     1.3580    -0.0910 C.3   1 <1>   0.0400 
 25 H        0.2590     2.3210     1.1740 H     1 <1>   0.3700 
 26 H        2.3070     3.3500     0.6780 H     1 <1>   0.1500 
 27 H        2.4140    -0.4590    -1.1470 H     1 <1>   0.1500 
 28 H       -1.0140     3.0190    -2.8960 H     1 <1>   0.0800 
 29 H       -0.1710     4.0080    -1.7230 H     1 <1>   0.0800 
 30 H       -1.6020     4.6150    -2.5050 H     1 <1>   0.0800 
 31 H       -4.3870     1.7840     1.5550 H     1 <1>   0.1500 
 32 H       -1.2600     1.7270     2.8760 H     1 <1>   0.0800 
 33 H       -1.2480     0.2730     1.8950 H     1 <1>   0.0800 
 34 H       -2.6790     0.7180     2.7820 H     1 <1>   0.0800 
 35 H        4.9790     5.1410     2.3470 H     1 <1>   0.0800 
 36 H        3.4180     4.3440     2.4940 H     1 <1>   0.0800 
 37 H        3.9260     5.0410     0.9420 H     1 <1>   0.0800 
 38 H        5.1690    -2.8000    -1.3480 H     1 <1>   0.0800 
 39 H        4.0670    -1.7210    -2.1950 H     1 <1>   0.0800 
 40 H        3.5990    -2.4360    -0.6400 H     1 <1>   0.0800 
 41 H       -5.8940     2.7200    -1.3960 H     1 <1>   0.0800 
 42 H       -5.7510     4.2020    -0.4830 H     1 <1>   0.0800 
 43 H       -6.1690     2.7120     0.3310 H     1 <1>   0.0800 
 44 H        8.1230     1.2190     0.3540 H     1 <1>   0.0800 
 45 H        7.0260     2.3840    -0.3870 H     1 <1>   0.0800 
 46 H        7.0370     0.7020    -0.9350 H     1 <1>   0.0800 
@<TRIPOS>BOND
  1   1   2  2   
  2   2   3  am  
  3   2   4  1   
  4   3   5  1   
  5   3  25  1   
  6   4   6  ar  
  7   4   7  ar  
  8   5   8  ar  
  9   5   9  ar  
 10   6  10  ar  
 11   6  26  1   
 12   7  11  ar  
 13   7  27  1   
 14   8  12  ar  
 15   8  13  1   
 16   9  14  ar  
 17   9  15  1   
 18  10  16  1   
 19  10  17  ar  
 20  11  17  ar  
 21  11  18  1   
 22  12  19  ar  
 23  13  28  1   
 24  13  29  1   
 25  13  30  1   
 26  14  19  ar  
 27  14  31  1   
 28  15  32  1   
 29  15  33  1   
 30  15  34  1   
 31  16  20  1   
 32  17  21  1   
 33  18  22  1   
 34  19  23  1   
 35  20  35  1   
 36  20  36  1   
 37  20  37  1   
 38  21  24  1   
 39  22  38  1   
 40  22  39  1   
 41  22  40  1   
 42  23  41  1   
 43  23  42  1   
 44  23  43  1   
 45  24  44  1   
 46  24  45  1   
 47  24  46  1   
@<TRIPOS>SUBSTRUCTURE
  1 ****   2 GROUP 4 **** **** 0

# MOE 2024.06 (io_trps.svl 2023.06)
