@<TRIPOS>MOLECULE
NONAME
57 60 1 0 0 
SMALL
USER_CHARGES


@<TRIPOS>ATOM
  1 O        0.1550    -0.4770     1.5650 O.2   1 <1>  -0.5700 
  2 C        0.1620    -1.4750     0.8910 C.2   1 <1>   0.4950 
  3 C        1.2930    -2.3150     0.6920 C.2   1 <1>  -0.1240 
  4 C       -1.1170    -1.9120     0.1870 C.3   1 <1>  -0.0990 
  5 C        1.2520    -3.4980     0.0790 C.2   1 <1>  -0.0620 
  6 C        2.7040    -2.0630     1.1550 C.3   1 <1>   0.2020 
  7 C       -1.2680    -3.4570     0.0940 C.3   1 <1>   0.0000 
  8 O        2.4150    -4.1250     0.0100 O.3   1 <1>  -0.3570 
  9 C        0.0020    -4.1180    -0.5100 C.3   1 <1>  -0.0220 
 10 C        3.2830    -0.6880     0.8170 C.ar  1 <1>  -0.1430 
 11 C        3.4560    -3.2540     0.4810 C.3   1 <1>   0.4020 
 12 C       -1.5220    -4.0270     1.5030 C.3   1 <1>  -0.2400 
 13 C       -2.4840    -3.7960    -0.7810 C.3   1 <1>  -0.2400 
 14 C        4.1310    -0.0710     1.7270 C.ar  1 <1>  -0.1500 
 15 C        2.9990    -0.0430    -0.3800 C.ar  1 <1>  -0.1500 
 16 C        4.3590    -4.0210     1.4480 C.2   1 <1>   0.4480 
 17 C        4.3040    -2.8340    -0.7310 C.2   1 <1>   0.4480 
 18 C        4.6940     1.1610     1.4470 C.ar  1 <1>  -0.1500 
 19 C        3.5620     1.1880    -0.6630 C.ar  1 <1>  -0.1500 
 20 O        4.2730    -3.9640     2.6400 O.2   1 <1>  -0.5700 
 21 C        5.4490    -4.8490     0.7920 C.3   1 <1>  -0.0990 
 22 O        3.8670    -2.6950    -1.8370 O.2   1 <1>  -0.5700 
 23 C        5.7890    -2.6430    -0.4680 C.3   1 <1>  -0.0990 
 24 C        4.4120     1.7980     0.2430 C.ar  1 <1>   0.0830 
 25 C        6.4560    -3.9500     0.0310 C.3   1 <1>   0.0000 
 26 O        4.9240     3.0030    -0.1120 O.3   1 <1>  -0.3630 
 27 C        7.6260    -3.5840     0.9590 C.3   1 <1>  -0.2400 
 28 C        7.0160    -4.7350    -1.1650 C.3   1 <1>  -0.2400 
 29 C        5.7120     3.7560     0.7820 C.3   1 <1>   0.0400 
 30 H       -1.0980    -1.4910    -0.8010 H     1 <1>   0.0800 
 31 H       -1.9590    -1.4900     0.7050 H     1 <1>   0.0800 
 32 H        2.6930    -2.1690     2.2250 H     1 <1>   0.0800 
 33 H       -0.0040    -5.1770    -0.3190 H     1 <1>   0.0800 
 34 H        0.0310    -3.9740    -1.5760 H     1 <1>   0.0800 
 35 H       -1.6760    -5.0910     1.4600 H     1 <1>   0.0800 
 36 H       -2.3970    -3.5800     1.9410 H     1 <1>   0.0800 
 37 H       -0.6880    -3.8390     2.1570 H     1 <1>   0.0800 
 38 H       -2.3570    -3.4080    -1.7770 H     1 <1>   0.0800 
 39 H       -3.3810    -3.3700    -0.3660 H     1 <1>   0.0800 
 40 H       -2.6170    -4.8620    -0.8490 H     1 <1>   0.0800 
 41 H        4.3580    -0.5470     2.6670 H     1 <1>   0.1500 
 42 H        2.3440    -0.4960    -1.1060 H     1 <1>   0.1500 
 43 H        5.3440     1.6080     2.1740 H     1 <1>   0.1500 
 44 H        3.3430     1.6830    -1.5920 H     1 <1>   0.1500 
 45 H        4.9680    -5.5320     0.1130 H     1 <1>   0.0800 
 46 H        5.9500    -5.4430     1.5350 H     1 <1>   0.0800 
 47 H        5.8910    -1.8640     0.2660 H     1 <1>   0.0800 
 48 H        6.2680    -2.2880    -1.3640 H     1 <1>   0.0800 
 49 H        7.2720    -3.0770     1.8400 H     1 <1>   0.0800 
 50 H        8.3240    -2.9390     0.4530 H     1 <1>   0.0800 
 51 H        8.1550    -4.4670     1.2720 H     1 <1>   0.0800 
 52 H        6.2350    -4.9650    -1.8700 H     1 <1>   0.0800 
 53 H        7.4640    -5.6580    -0.8400 H     1 <1>   0.0800 
 54 H        7.7690    -4.1620    -1.6790 H     1 <1>   0.0800 
 55 H        5.9660     4.6840     0.3020 H     1 <1>   0.0800 
 56 H        6.6070     3.2040     1.0070 H     1 <1>   0.0800 
 57 H        5.1410     3.9490     1.6720 H     1 <1>   0.0800 
@<TRIPOS>BOND
  1   1   2  2   
  2   2   3  1   
  3   2   4  1   
  4   3   5  2   
  5   3   6  1   
  6   4   7  1   
  7   4  30  1   
  8   4  31  1   
  9   5   8  1   
 10   5   9  1   
 11   6  10  1   
 12   6  11  1   
 13   6  32  1   
 14   7   9  1   
 15   7  12  1   
 16   7  13  1   
 17   8  11  1   
 18   9  33  1   
 19   9  34  1   
 20  10  14  ar  
 21  10  15  ar  
 22  11  16  1   
 23  11  17  1   
 24  12  35  1   
 25  12  36  1   
 26  12  37  1   
 27  13  38  1   
 28  13  39  1   
 29  13  40  1   
 30  14  18  ar  
 31  14  41  1   
 32  15  19  ar  
 33  15  42  1   
 34  16  20  2   
 35  16  21  1   
 36  17  22  2   
 37  17  23  1   
 38  18  24  ar  
 39  18  43  1   
 40  19  24  ar  
 41  19  44  1   
 42  21  25  1   
 43  21  45  1   
 44  21  46  1   
 45  23  25  1   
 46  23  47  1   
 47  23  48  1   
 48  24  26  1   
 49  25  27  1   
 50  25  28  1   
 51  26  29  1   
 52  27  49  1   
 53  27  50  1   
 54  27  51  1   
 55  28  52  1   
 56  28  53  1   
 57  28  54  1   
 58  29  55  1   
 59  29  56  1   
 60  29  57  1   
@<TRIPOS>SUBSTRUCTURE
  1 ****   6 GROUP 4 **** **** 0

# MOE 2024.06 (io_trps.svl 2023.06)
