@<TRIPOS>MOLECULE
NONAME
48 50 1 0 0 
SMALL
USER_CHARGES


@<TRIPOS>ATOM
  1 S        0.2300     0.0720    -0.4480 S.o2  1 <1>   1.5760 
  2 O       -0.1530    -0.2920    -1.7940 O.2   1 <1>  -0.6500 
  3 O        0.7020    -0.9300     0.4810 O.2   1 <1>  -0.6500 
  4 N       -1.0520     0.9050     0.2610 N.am  1 <1>  -0.8490 
  5 N        1.3710     1.3080    -0.5250 N.am  1 <1>  -0.8490 
  6 C       -2.1030    -0.0230     0.6960 C.3   1 <1>   0.1960 
  7 C       -1.6320     1.9000    -0.6530 C.3   1 <1>   0.1960 
  8 C        2.5050     0.9170    -1.3860 C.3   1 <1>   0.1960 
  9 C        1.8710     1.6700     0.8190 C.3   1 <1>   0.1960 
 10 C       -3.2860     0.7390     1.3210 C.3   1 <1>   0.1200 
 11 C       -2.8210     2.6220     0.0070 C.3   1 <1>   0.1200 
 12 C        3.5580     2.0340    -1.5160 C.3   1 <1>   0.2090 
 13 C        2.8950     2.8200     0.7730 C.3   1 <1>   0.2090 
 14 O       -3.7840     1.6980     0.4310 O.3   1 <1>  -0.5600 
 15 N        3.9970     2.4970    -0.1730 N.pl3 1 <1>  -0.8380 
 16 C        5.2970     2.9530     0.0530 C.ar  1 <1>   0.1000 
 17 C        5.7150     4.2150    -0.3850 C.ar  1 <1>  -0.1430 
 18 C        6.2030     2.1340     0.7320 C.ar  1 <1>  -0.1430 
 19 C        7.0130     4.6340    -0.1430 C.ar  1 <1>  -0.1500 
 20 C        4.7770     5.1540    -1.1320 C.3   1 <1>  -0.0970 
 21 C        7.4950     2.5710     0.9670 C.ar  1 <1>  -0.1500 
 22 C        5.7880     0.7520     1.2210 C.3   1 <1>  -0.0970 
 23 C        7.9020     3.8180     0.5310 C.ar  1 <1>  -0.1500 
 24 H       -1.7010    -0.7050     1.4270 H     1 <1>   0.0800 
 25 H       -2.4580    -0.6010    -0.1410 H     1 <1>   0.0800 
 26 H       -1.9740     1.4260    -1.5580 H     1 <1>   0.0800 
 27 H       -0.8840     2.6270    -0.9200 H     1 <1>   0.0800 
 28 H        2.1420     0.6750    -2.3710 H     1 <1>   0.0800 
 29 H        2.9810     0.0380    -0.9840 H     1 <1>   0.0800 
 30 H        2.3400     0.8170     1.2800 H     1 <1>   0.0800 
 31 H        1.0460     1.9690     1.4420 H     1 <1>   0.0800 
 32 H       -2.9790     1.2340     2.2260 H     1 <1>   0.0800 
 33 H       -4.0870     0.0580     1.5520 H     1 <1>   0.0800 
 34 H       -3.2910     3.2860    -0.6970 H     1 <1>   0.0800 
 35 H       -2.4910     3.1920     0.8580 H     1 <1>   0.0800 
 36 H        3.1300     2.8590    -2.0560 H     1 <1>   0.0800 
 37 H        4.4100     1.6730    -2.0660 H     1 <1>   0.0800 
 38 H        3.3030     2.9860     1.7550 H     1 <1>   0.0800 
 39 H        2.4010     3.7200     0.4540 H     1 <1>   0.0800 
 40 H        7.3440     5.6010    -0.4780 H     1 <1>   0.1500 
 41 H        3.8460     5.2450    -0.6040 H     1 <1>   0.0800 
 42 H        4.5860     4.7690    -2.1160 H     1 <1>   0.0800 
 43 H        5.2060     6.1350    -1.2260 H     1 <1>   0.0800 
 44 H        8.1960     1.9450     1.4900 H     1 <1>   0.1500 
 45 H        5.4240     0.1690     0.3940 H     1 <1>   0.0800 
 46 H        5.0040     0.8460     1.9490 H     1 <1>   0.0800 
 47 H        6.6140     0.2320     1.6690 H     1 <1>   0.0800 
 48 H        8.9070     4.1520     0.7150 H     1 <1>   0.1500 
@<TRIPOS>BOND
  1   1   2  2   
  2   1   3  2   
  3   1   4  am  
  4   1   5  am  
  5   4   6  1   
  6   4   7  1   
  7   5   8  1   
  8   5   9  1   
  9   6  10  1   
 10   6  24  1   
 11   6  25  1   
 12   7  11  1   
 13   7  26  1   
 14   7  27  1   
 15   8  12  1   
 16   8  28  1   
 17   8  29  1   
 18   9  13  1   
 19   9  30  1   
 20   9  31  1   
 21  10  14  1   
 22  10  32  1   
 23  10  33  1   
 24  11  14  1   
 25  11  34  1   
 26  11  35  1   
 27  12  15  1   
 28  12  36  1   
 29  12  37  1   
 30  13  15  1   
 31  13  38  1   
 32  13  39  1   
 33  15  16  1   
 34  16  17  ar  
 35  16  18  ar  
 36  17  19  ar  
 37  17  20  1   
 38  18  21  ar  
 39  18  22  1   
 40  19  23  ar  
 41  19  40  1   
 42  20  41  1   
 43  20  42  1   
 44  20  43  1   
 45  21  23  ar  
 46  21  44  1   
 47  22  45  1   
 48  22  46  1   
 49  22  47  1   
 50  23  48  1   
@<TRIPOS>SUBSTRUCTURE
  1 ****   9 GROUP 4 **** **** 0

# MOE 2024.06 (io_trps.svl 2023.06)
