@<TRIPOS>MOLECULE
NONAME
50 52 1 0 0 
SMALL
USER_CHARGES


@<TRIPOS>ATOM
  1 O        0.1730    -1.0770    -1.3610 O.2   1 <1>  -0.5700 
  2 C       -0.1240    -1.8040    -0.4340 C.2   1 <1>   0.6340 
  3 O        0.7030    -1.8760     0.6140 O.3   1 <1>  -0.4300 
  4 C       -1.3350    -2.6020    -0.4060 C.ar  1 <1>   0.0860 
  5 C        1.8950    -1.1260     0.6690 C.3   1 <1>   0.1200 
  6 C       -1.6380    -3.4580     0.6580 C.ar  1 <1>  -0.1500 
  7 C       -2.2580    -2.5450    -1.4550 C.ar  1 <1>  -0.1500 
  8 C        2.5980    -1.4480     1.9840 C.3   1 <1>  -0.2400 
  9 C       -2.7920    -4.2200     0.6720 C.ar  1 <1>  -0.1500 
 10 C       -3.4140    -3.3030    -1.4500 C.ar  1 <1>  -0.1500 
 11 C       -3.6840    -4.1540    -0.3920 C.ar  1 <1>   0.0830 
 12 O       -4.8280    -4.8800    -0.4230 O.3   1 <1>  -0.1650 
 13 C       -4.9160    -6.1900    -0.1130 C.ar  1 <1>   0.7030 
 14 N       -3.8230    -6.9050    -0.1110 N.ar  1 <1>  -0.6200 
 15 N       -6.1190    -6.6140     0.1480 N.ar  1 <1>  -0.6200 
 16 C       -4.0080    -8.1630     0.1950 C.ar  1 <1>   0.7200 
 17 C       -6.1820    -7.8890     0.4450 C.ar  1 <1>   0.7200 
 18 N       -5.1610    -8.7050     0.4810 N.ar  1 <1>  -0.6200 
 19 N       -2.8970    -8.9760     0.2120 N.pl3 1 <1>  -0.8380 
 20 N       -7.4240    -8.4080     0.7420 N.pl3 1 <1>  -0.8380 
 21 C       -2.9820   -10.4540    -0.0010 C.3   1 <1>   0.2090 
 22 C       -1.4970    -8.4660     0.0650 C.3   1 <1>   0.2090 
 23 C       -7.5960    -9.7220     1.4240 C.3   1 <1>   0.1290 
 24 C       -8.6870    -7.6700     0.4540 C.3   1 <1>   0.1290 
 25 C       -2.2810   -10.8460    -1.3150 C.3   1 <1>   0.1200 
 26 C       -0.8890    -8.9550    -1.2600 C.3   1 <1>   0.1200 
 27 O       -0.9690   -10.3510    -1.3610 O.3   1 <1>  -0.5600 
 28 H        1.6430    -0.0800     0.6100 H     1 <1>   0.0800 
 29 H        2.5090    -1.3970    -0.1740 H     1 <1>   0.0800 
 30 H       -0.9600    -3.5280     1.4910 H     1 <1>   0.1500 
 31 H       -2.0600    -1.8920    -2.2890 H     1 <1>   0.1500 
 32 H        1.9700    -1.1800     2.8150 H     1 <1>   0.0800 
 33 H        3.5130    -0.8890     2.0520 H     1 <1>   0.0800 
 34 H        2.8330    -2.4970     2.0320 H     1 <1>   0.0800 
 35 H       -3.0000    -4.8670     1.5060 H     1 <1>   0.1500 
 36 H       -4.1100    -3.2400    -2.2690 H     1 <1>   0.1500 
 37 H       -4.0040   -10.7880    -0.0390 H     1 <1>   0.0800 
 38 H       -2.5040   -10.9580     0.8210 H     1 <1>   0.0800 
 39 H       -0.9020    -8.8370     0.8810 H     1 <1>   0.0800 
 40 H       -1.4590    -7.3920     0.1010 H     1 <1>   0.0800 
 41 H       -6.7140    -9.9810     1.9840 H     1 <1>   0.0800 
 42 H       -7.7820   -10.4870     0.6910 H     1 <1>   0.0800 
 43 H       -8.4260    -9.6770     2.1080 H     1 <1>   0.0800 
 44 H       -8.5570    -7.0110    -0.3880 H     1 <1>   0.0800 
 45 H       -8.9680    -7.0870     1.3140 H     1 <1>   0.0800 
 46 H       -9.4760    -8.3630     0.2200 H     1 <1>   0.0800 
 47 H       -2.8250   -10.4560    -2.1570 H     1 <1>   0.0800 
 48 H       -2.2310   -11.9170    -1.4030 H     1 <1>   0.0800 
 49 H        0.1480    -8.6800    -1.3160 H     1 <1>   0.0800 
 50 H       -1.4110    -8.5160    -2.0940 H     1 <1>   0.0800 
@<TRIPOS>BOND
  1   1   2  2   
  2   2   3  1   
  3   2   4  1   
  4   3   5  1   
  5   4   6  ar  
  6   4   7  ar  
  7   5   8  1   
  8   5  28  1   
  9   5  29  1   
 10   6   9  ar  
 11   6  30  1   
 12   7  10  ar  
 13   7  31  1   
 14   8  32  1   
 15   8  33  1   
 16   8  34  1   
 17   9  11  ar  
 18   9  35  1   
 19  10  11  ar  
 20  10  36  1   
 21  11  12  1   
 22  12  13  1   
 23  13  14  ar  
 24  13  15  ar  
 25  14  16  ar  
 26  15  17  ar  
 27  16  18  ar  
 28  16  19  1   
 29  17  18  ar  
 30  17  20  1   
 31  19  21  1   
 32  19  22  1   
 33  20  23  1   
 34  20  24  1   
 35  21  25  1   
 36  21  37  1   
 37  21  38  1   
 38  22  26  1   
 39  22  39  1   
 40  22  40  1   
 41  23  41  1   
 42  23  42  1   
 43  23  43  1   
 44  24  44  1   
 45  24  45  1   
 46  24  46  1   
 47  25  27  1   
 48  25  47  1   
 49  25  48  1   
 50  26  27  1   
 51  26  49  1   
 52  26  50  1   
@<TRIPOS>SUBSTRUCTURE
  1 ****  14 GROUP 4 **** **** 0

# MOE 2024.06 (io_trps.svl 2023.06)
