@<TRIPOS>MOLECULE
NONAME
43 44 1 0 0 
SMALL
USER_CHARGES


@<TRIPOS>ATOM
  1 CL      -0.3700     0.5540     2.0810 Cl    1 <1>  -0.1770 
  2 C       -1.6830     0.2180     0.9790 C.ar  1 <1>   0.1770 
  3 C       -1.8150    -1.0530     0.4310 C.ar  1 <1>  -0.1440 
  4 C       -2.5590     1.2390     0.6690 C.ar  1 <1>  -0.1500 
  5 C       -2.8630    -1.3040    -0.4500 C.ar  1 <1>  -0.1500 
  6 C       -0.8360    -2.1540     0.7970 C.3   1 <1>   0.4870 
  7 C       -3.5840     0.9590    -0.2110 C.ar  1 <1>   0.1900 
  8 C       -3.7540    -0.2930    -0.7750 C.ar  1 <1>  -0.1500 
  9 N        0.1570    -2.3130    -0.3000 N.4   1 <1>  -0.9590 
 10 F       -4.4230     1.9080    -0.5220 F     1 <1>  -0.1900 
 11 C        0.9220    -3.6030    -0.1330 C.3   1 <1>   0.3430 
 12 C        1.0890    -1.1240    -0.3600 C.3   1 <1>   0.3430 
 13 C        2.0330    -3.7620    -1.1910 C.3   1 <1>   0.1400 
 14 C        2.2050    -1.2960    -1.4120 C.3   1 <1>   0.1400 
 15 N        2.9290    -2.5720    -1.1690 N.am  1 <1>  -0.6600 
 16 C        3.9180    -2.5480    -0.2320 C.2   1 <1>   0.6900 
 17 O        3.7470    -3.1090     0.8340 O.2   1 <1>  -0.5700 
 18 N        5.0390    -1.8480    -0.4960 N.am  1 <1>  -0.7300 
 19 C        6.2000    -1.7320     0.4120 C.3   1 <1>   0.1400 
 20 C        6.7280    -0.2990     0.3650 C.3   1 <1>  -0.1600 
 21 C        7.9350    -0.1210     1.2930 C.3   1 <1>  -0.2400 
 22 H       -2.4520     2.2200     1.0960 H     1 <1>   0.1500 
 23 H       -3.0070    -2.2800    -0.8840 H     1 <1>   0.1500 
 24 H       -1.3830    -3.0730     0.9340 H     1 <1>   0.0800 
 25 H       -0.3350    -1.9240     1.7240 H     1 <1>   0.0800 
 26 H       -4.5740    -0.4640    -1.4530 H     1 <1>   0.1500 
 27 H       -0.3610    -2.3500    -1.1860 H     1 <1>   0.4500 
 28 H        0.2510    -4.4440    -0.1970 H     1 <1>   0.0800 
 29 H        1.3870    -3.6260     0.8400 H     1 <1>   0.0800 
 30 H        1.5570    -0.9870     0.6020 H     1 <1>   0.0800 
 31 H        0.5310    -0.2290    -0.5820 H     1 <1>   0.0800 
 32 H        1.6070    -3.8790    -2.1720 H     1 <1>   0.0800 
 33 H        2.6080    -4.6470    -0.9730 H     1 <1>   0.0800 
 34 H        2.8890    -0.4670    -1.3410 H     1 <1>   0.0800 
 35 H        1.7890    -1.2970    -2.4040 H     1 <1>   0.0800 
 36 H        5.2120    -1.5990    -1.4680 H     1 <1>   0.3700 
 37 H        6.9650    -2.4230     0.0990 H     1 <1>   0.0800 
 38 H        5.9060    -1.9830     1.4180 H     1 <1>   0.0800 
 39 H        5.9490     0.3770     0.6710 H     1 <1>   0.0800 
 40 H        7.0220    -0.0550    -0.6410 H     1 <1>   0.0800 
 41 H        7.6630    -0.3420     2.3100 H     1 <1>   0.0800 
 42 H        8.2880     0.8940     1.2470 H     1 <1>   0.0800 
 43 H        8.7370    -0.7750     0.9980 H     1 <1>   0.0800 
@<TRIPOS>BOND
  1   1   2  1   
  2   2   3  ar  
  3   2   4  ar  
  4   3   5  ar  
  5   3   6  1   
  6   4   7  ar  
  7   4  22  1   
  8   5   8  ar  
  9   5  23  1   
 10   6   9  1   
 11   6  24  1   
 12   6  25  1   
 13   7   8  ar  
 14   7  10  1   
 15   8  26  1   
 16   9  11  1   
 17   9  12  1   
 18   9  27  1   
 19  11  13  1   
 20  11  28  1   
 21  11  29  1   
 22  12  14  1   
 23  12  30  1   
 24  12  31  1   
 25  13  15  1   
 26  13  32  1   
 27  13  33  1   
 28  14  15  1   
 29  14  34  1   
 30  14  35  1   
 31  15  16  am  
 32  16  17  2   
 33  16  18  am  
 34  18  19  1   
 35  18  36  1   
 36  19  20  1   
 37  19  37  1   
 38  19  38  1   
 39  20  21  1   
 40  20  39  1   
 41  20  40  1   
 42  21  41  1   
 43  21  42  1   
 44  21  43  1   
@<TRIPOS>SUBSTRUCTURE
  1 ****  12 GROUP 4 **** **** 0

# MOE 2024.06 (io_trps.svl 2023.06)
