@<TRIPOS>MOLECULE
NONAME
40 41 1 0 0 
SMALL
USER_CHARGES


@<TRIPOS>ATOM
  1 CL       2.8750    -1.2630    -0.2830 Cl    1 <1>  -0.1770 
  2 C        1.9940    -2.7200     0.0950 C.ar  1 <1>   0.1770 
  3 C        1.0890    -3.2250    -0.8170 C.ar  1 <1>  -0.1500 
  4 C        2.2140    -3.3520     1.3030 C.ar  1 <1>  -0.1500 
  5 C        0.3990    -4.3860    -0.5120 C.ar  1 <1>  -0.1500 
  6 C        1.5190    -4.5140     1.5930 C.ar  1 <1>  -0.1500 
  7 C        0.6090    -5.0580     0.6900 C.ar  1 <1>  -0.0090 
  8 S       -0.2900    -6.5850     1.0950 S.o2  1 <1>   1.4470 
  9 O       -1.5930    -6.2200     1.6030 O.2   1 <1>  -0.6500 
 10 O        0.5390    -7.4540     1.9050 O.2   1 <1>  -0.6500 
 11 N       -0.5430    -7.3980    -0.3760 N.am  1 <1>  -0.8490 
 12 C        0.6680    -8.0910    -0.8990 C.3   1 <1>   0.2570 
 13 C       -1.6690    -8.3350    -0.3040 C.3   1 <1>   0.1160 
 14 C        1.8300    -7.1720    -1.3260 C.2   1 <1>   0.5690 
 15 O        1.7030    -6.6190    -2.3960 O.2   1 <1>  -0.5700 
 16 N        2.9540    -6.9680    -0.5540 N.am  1 <1>  -0.6600 
 17 C        3.9480    -5.9180    -0.9270 C.3   1 <1>   0.1400 
 18 C        3.3230    -7.7070     0.6910 C.3   1 <1>   0.1400 
 19 C        5.3270    -6.5530    -1.1240 C.3   1 <1>  -0.1600 
 20 C        4.7000    -8.3580     0.5190 C.3   1 <1>  -0.1600 
 21 C        5.7700    -7.3320     0.1220 C.3   1 <1>  -0.1600 
 22 H        0.9300    -2.7200    -1.7540 H     1 <1>   0.1500 
 23 H        2.9180    -2.9380     2.0030 H     1 <1>   0.1500 
 24 H       -0.3040    -4.7840    -1.2260 H     1 <1>   0.1500 
 25 H        1.6870    -5.0110     2.5340 H     1 <1>   0.1500 
 26 H        0.3870    -8.6260    -1.7880 H     1 <1>   0.0800 
 27 H        0.9990    -8.8280    -0.1950 H     1 <1>   0.0800 
 28 H       -2.5730    -7.8070    -0.0470 H     1 <1>   0.0800 
 29 H       -1.4840    -9.0880     0.4450 H     1 <1>   0.0800 
 30 H       -1.8230    -8.8100    -1.2570 H     1 <1>   0.0800 
 31 H        3.9940    -5.1850    -0.1410 H     1 <1>   0.0800 
 32 H        3.6550    -5.4100    -1.8310 H     1 <1>   0.0800 
 33 H        2.6110    -8.4710     0.9320 H     1 <1>   0.0800 
 34 H        3.3510    -7.0130     1.5130 H     1 <1>   0.0800 
 35 H        6.0440    -5.7820    -1.3420 H     1 <1>   0.0800 
 36 H        5.2860    -7.2120    -1.9730 H     1 <1>   0.0800 
 37 H        4.6320    -9.1200    -0.2380 H     1 <1>   0.0800 
 38 H        4.9840    -8.8350     1.4400 H     1 <1>   0.0800 
 39 H        5.9250    -6.6440     0.9360 H     1 <1>   0.0800 
 40 H        6.7020    -7.8320    -0.0730 H     1 <1>   0.0800 
@<TRIPOS>BOND
  1   1   2  1   
  2   2   3  ar  
  3   2   4  ar  
  4   3   5  ar  
  5   3  22  1   
  6   4   6  ar  
  7   4  23  1   
  8   5   7  ar  
  9   5  24  1   
 10   6   7  ar  
 11   6  25  1   
 12   7   8  1   
 13   8   9  2   
 14   8  10  2   
 15   8  11  am  
 16  11  12  1   
 17  11  13  1   
 18  12  14  1   
 19  12  26  1   
 20  12  27  1   
 21  13  28  1   
 22  13  29  1   
 23  13  30  1   
 24  14  15  2   
 25  14  16  am  
 26  16  17  1   
 27  16  18  1   
 28  17  19  1   
 29  17  31  1   
 30  17  32  1   
 31  18  20  1   
 32  18  33  1   
 33  18  34  1   
 34  19  21  1   
 35  19  35  1   
 36  19  36  1   
 37  20  21  1   
 38  20  37  1   
 39  20  38  1   
 40  21  39  1   
 41  21  40  1   
@<TRIPOS>SUBSTRUCTURE
  1 ****   7 GROUP 4 **** **** 0

# MOE 2024.06 (io_trps.svl 2023.06)
