@<TRIPOS>MOLECULE
NONAME
45 47 1 0 0 
SMALL
USER_CHARGES


@<TRIPOS>ATOM
  1 O        0.1850    -0.9830     0.9930 O.2   1 <1>  -0.5700 
  2 C        0.9580    -1.5430     0.2510 C.2   1 <1>   0.5690 
  3 N        0.5550    -2.5440    -0.5740 N.am  1 <1>  -0.7300 
  4 C        2.4310    -1.1350     0.2390 C.3   1 <1>  -0.0190 
  5 C       -0.8430    -3.0300    -0.6720 C.3   1 <1>   0.1400 
  6 C        3.1070    -1.4450     1.5890 C.3   1 <1>  -0.1600 
  7 C        2.6020     0.3540    -0.1230 C.3   1 <1>  -0.1600 
  8 C       -1.0780    -4.1700     0.3180 C.3   1 <1>   0.0210 
  9 C        4.5850    -1.0290     1.5900 C.3   1 <1>  -0.1600 
 10 C        4.0800     0.7700    -0.1230 C.3   1 <1>  -0.1600 
 11 C       -2.5200    -4.6400     0.2370 C.2   1 <1>  -0.1810 
 12 C        4.7440     0.4530     1.2240 C.3   1 <1>  -0.1600 
 13 C       -3.5960    -3.8930     0.7700 C.ar  1 <1>   0.0000 
 14 C       -3.0330    -5.7680    -0.3160 C.2   1 <1>  -0.3320 
 15 C       -4.7500    -4.6220     0.5090 C.ar  1 <1>  -0.1520 
 16 C       -3.6910    -2.6710     1.4460 C.ar  1 <1>  -0.1500 
 17 N       -4.3910    -5.7660    -0.1530 N.pl3 1 <1>   0.0330 
 18 C       -2.3350    -6.9150    -1.0270 C.3   1 <1>  -0.0600 
 19 C       -6.0040    -4.1540     0.9100 C.ar  1 <1>  -0.1500 
 20 C       -4.9260    -2.2090     1.8410 C.ar  1 <1>  -0.1500 
 21 C       -6.0830    -2.9510     1.5720 C.ar  1 <1>  -0.1500 
 22 H        1.2360    -3.0160    -1.1680 H     1 <1>   0.3700 
 23 H        2.9290    -1.7130    -0.5180 H     1 <1>   0.0800 
 24 H       -1.0410    -3.3690    -1.6740 H     1 <1>   0.0800 
 25 H       -1.5200    -2.2210    -0.4550 H     1 <1>   0.0800 
 26 H        3.0280    -2.4970     1.7990 H     1 <1>   0.0800 
 27 H        2.5890    -0.9160     2.3720 H     1 <1>   0.0800 
 28 H        2.0650     0.9550     0.5920 H     1 <1>   0.0800 
 29 H        2.1740     0.5410    -1.0920 H     1 <1>   0.0800 
 30 H       -0.8800    -3.8260     1.3180 H     1 <1>   0.0800 
 31 H       -0.4130    -4.9840     0.1000 H     1 <1>   0.0800 
 32 H        5.1280    -1.6310     0.8820 H     1 <1>   0.0800 
 33 H        5.0070    -1.2050     2.5640 H     1 <1>   0.0800 
 34 H        4.1560     1.8250    -0.3210 H     1 <1>   0.0800 
 35 H        4.6000     0.2480    -0.9080 H     1 <1>   0.0800 
 36 H        5.7900     0.7030     1.1790 H     1 <1>   0.0800 
 37 H        4.2930     1.0580     1.9920 H     1 <1>   0.0800 
 38 H       -2.7970    -2.1090     1.6490 H     1 <1>   0.1500 
 39 H       -5.0420    -6.4910    -0.4660 H     1 <1>   0.2700 
 40 H       -1.2780    -6.7390    -1.0960 H     1 <1>   0.0800 
 41 H       -2.7260    -7.0230    -2.0230 H     1 <1>   0.0800 
 42 H       -2.4940    -7.8310    -0.4870 H     1 <1>   0.0800 
 43 H       -6.8860    -4.7310     0.6990 H     1 <1>   0.1500 
 44 H       -5.0110    -1.2710     2.3600 H     1 <1>   0.1500 
 45 H       -7.0360    -2.5670     1.8910 H     1 <1>   0.1500 
@<TRIPOS>BOND
  1   1   2  2   
  2   2   3  am  
  3   2   4  1   
  4   3   5  1   
  5   3  22  1   
  6   4   6  1   
  7   4   7  1   
  8   4  23  1   
  9   5   8  1   
 10   5  24  1   
 11   5  25  1   
 12   6   9  1   
 13   6  26  1   
 14   6  27  1   
 15   7  10  1   
 16   7  28  1   
 17   7  29  1   
 18   8  11  1   
 19   8  30  1   
 20   8  31  1   
 21   9  12  1   
 22   9  32  1   
 23   9  33  1   
 24  10  12  1   
 25  10  34  1   
 26  10  35  1   
 27  11  13  1   
 28  11  14  2   
 29  12  36  1   
 30  12  37  1   
 31  13  15  ar  
 32  13  16  ar  
 33  14  17  1   
 34  14  18  1   
 35  15  17  1   
 36  15  19  ar  
 37  16  20  ar  
 38  16  38  1   
 39  17  39  1   
 40  18  40  1   
 41  18  41  1   
 42  18  42  1   
 43  19  21  ar  
 44  19  43  1   
 45  20  21  ar  
 46  20  44  1   
 47  21  45  1   
@<TRIPOS>SUBSTRUCTURE
  1 ****   5 GROUP 4 **** **** 0

# MOE 2024.06 (io_trps.svl 2023.06)
