@<TRIPOS>MOLECULE
NONAME
39 41 1 0 0 
SMALL
USER_CHARGES


@<TRIPOS>ATOM
  1 CL       0.1130     0.3320    -0.2940 Cl    1 <1>  -0.1770 
  2 C       -0.9630     1.6780    -0.0230 C.ar  1 <1>   0.1770 
  3 C       -2.3210     1.5010    -0.1940 C.ar  1 <1>  -0.1500 
  4 C       -0.4350     2.8970     0.3560 C.ar  1 <1>  -0.1500 
  5 C       -3.2060     2.5580     0.0150 C.ar  1 <1>   0.0530 
  6 C       -1.2960     3.9580     0.5680 C.ar  1 <1>  -0.1500 
  7 C       -4.6330     2.3850    -0.1610 C.2   1 <1>   0.0870 
  8 C       -2.6600     3.7860     0.3980 C.ar  1 <1>  -0.1500 
  9 O       -5.4640     3.4000     0.0380 O.3   1 <1>  -0.2800 
 10 C       -5.3670     1.2980    -0.5200 C.2   1 <1>  -0.1500 
 11 C       -6.6980     3.0020    -0.1800 C.2   1 <1>  -0.0400 
 12 C       -6.7050     1.6960    -0.5340 C.2   1 <1>  -0.1500 
 13 C       -7.7950     4.0320    -0.0010 C.3   1 <1>   0.5230 
 14 N       -9.1150     3.4150    -0.2790 N.4   1 <1>  -0.9060 
 15 C      -10.2430     4.3800    -0.1020 C.3   1 <1>   0.3430 
 16 C      -11.6160     3.7340    -0.3460 C.3   1 <1>   0.2000 
 17 O      -12.5830     4.6700    -0.0320 O.3   1 <1>  -0.5600 
 18 C      -11.9490     2.5440     0.5470 C.3   1 <1>  -0.1600 
 19 C      -13.8000     4.0470     0.2450 C.3   1 <1>   0.1200 
 20 C      -13.4650     2.6110     0.6380 C.3   1 <1>  -0.1600 
 21 H       -2.6810     0.5340    -0.4900 H     1 <1>   0.1500 
 22 H        0.6270     3.0080     0.4820 H     1 <1>   0.1500 
 23 H       -0.9050     4.9170     0.8640 H     1 <1>   0.1500 
 24 H       -3.3120     4.6240     0.5680 H     1 <1>   0.1500 
 25 H       -5.0130     0.3100    -0.7550 H     1 <1>   0.1500 
 26 H       -7.5200     1.0390    -0.7840 H     1 <1>   0.1500 
 27 H       -7.6180     4.8550    -0.6740 H     1 <1>   0.0800 
 28 H       -7.7630     4.4060     1.0100 H     1 <1>   0.0800 
 29 H       -9.2300     2.6170     0.3560 H     1 <1>   0.4500 
 30 H       -9.0990     3.0490    -1.2380 H     1 <1>   0.4500 
 31 H      -10.1300     5.2070    -0.7850 H     1 <1>   0.0800 
 32 H      -10.2320     4.7670     0.9040 H     1 <1>   0.0800 
 33 H      -11.7470     3.4830    -1.3860 H     1 <1>   0.0800 
 34 H      -11.5240     2.6810     1.5270 H     1 <1>   0.0800 
 35 H      -11.6120     1.6100     0.1330 H     1 <1>   0.0800 
 36 H      -14.4110     4.0820    -0.6420 H     1 <1>   0.0800 
 37 H      -14.2850     4.5840     1.0430 H     1 <1>   0.0800 
 38 H      -13.8200     2.3840     1.6290 H     1 <1>   0.0800 
 39 H      -13.9270     1.9320    -0.0580 H     1 <1>   0.0800 
@<TRIPOS>BOND
  1   1   2  1   
  2   2   3  ar  
  3   2   4  ar  
  4   3   5  ar  
  5   3  21  1   
  6   4   6  ar  
  7   4  22  1   
  8   5   7  1   
  9   5   8  ar  
 10   6   8  ar  
 11   6  23  1   
 12   7   9  1   
 13   7  10  2   
 14   8  24  1   
 15   9  11  1   
 16  10  12  1   
 17  10  25  1   
 18  11  12  2   
 19  11  13  1   
 20  12  26  1   
 21  13  14  1   
 22  13  27  1   
 23  13  28  1   
 24  14  15  1   
 25  14  29  1   
 26  14  30  1   
 27  15  16  1   
 28  15  31  1   
 29  15  32  1   
 30  16  17  1   
 31  16  18  1   
 32  16  33  1   
 33  17  19  1   
 34  18  20  1   
 35  18  34  1   
 36  18  35  1   
 37  19  20  1   
 38  19  36  1   
 39  19  37  1   
 40  20  38  1   
 41  20  39  1   
@<TRIPOS>SUBSTRUCTURE
  1 ****  11 GROUP 4 **** **** 0

# MOE 2024.06 (io_trps.svl 2023.06)
