@<TRIPOS>MOLECULE
NONAME
40 41 1 0 0 
SMALL
USER_CHARGES


@<TRIPOS>ATOM
  1 S       -0.4060     0.2040    -1.0200 S.o2  1 <1>   1.3330 
  2 O        0.5910    -0.5740    -1.7180 O.2   1 <1>  -0.6500 
  3 O       -0.8900     1.4460    -1.5750 O.2   1 <1>  -0.6500 
  4 N       -1.7440    -0.7960    -0.7350 N.am  1 <1>  -0.8490 
  5 C        0.2350     0.5560     0.6070 C.3   1 <1>  -0.1350 
  6 C       -2.8390    -0.1450    -0.0050 C.3   1 <1>   0.1960 
  7 C       -1.4130    -2.1290    -0.2250 C.3   1 <1>   0.1960 
  8 C       -4.1100    -0.9970    -0.0670 C.3   1 <1>  -0.0190 
  9 C       -2.6460    -3.0370    -0.2880 C.3   1 <1>  -0.1600 
 10 C       -5.2120    -0.3120     0.7230 C.2   1 <1>   0.5690 
 11 C       -3.8430    -2.4220     0.4520 C.3   1 <1>  -0.1600 
 12 O       -4.9940     0.0350     1.8590 O.2   1 <1>  -0.5700 
 13 N       -6.4090    -0.1050     0.1210 N.am  1 <1>  -0.7300 
 14 C       -7.5680     0.5640     0.7330 C.3   1 <1>   0.2200 
 15 C       -8.7910    -0.3280     0.5630 C.3   1 <1>  -0.1600 
 16 C       -7.9130     1.7940    -0.0950 C.3   1 <1>  -0.1600 
 17 C       -9.2990    -0.0770    -0.8620 C.3   1 <1>  -0.1600 
 18 C       -8.7110     1.2730    -1.2960 C.3   1 <1>  -0.1600 
 19 H        1.1000     1.1840     0.5230 H     1 <1>   0.0800 
 20 H        0.5200    -0.3490     1.1030 H     1 <1>   0.0800 
 21 H       -0.4980     1.0680     1.1980 H     1 <1>   0.0800 
 22 H       -3.0480     0.8170    -0.4450 H     1 <1>   0.0800 
 23 H       -2.5550     0.0090     1.0230 H     1 <1>   0.0800 
 24 H       -1.0630    -2.0590     0.7910 H     1 <1>   0.0800 
 25 H       -0.6320    -2.5650    -0.8270 H     1 <1>   0.0800 
 26 H       -4.4120    -1.0530    -1.0970 H     1 <1>   0.0800 
 27 H       -2.4060    -3.9930     0.1420 H     1 <1>   0.0800 
 28 H       -2.9010    -3.1980    -1.3210 H     1 <1>   0.0800 
 29 H       -4.7170    -3.0340     0.3100 H     1 <1>   0.0800 
 30 H       -3.6310    -2.3840     1.5070 H     1 <1>   0.0800 
 31 H       -6.5620    -0.3960    -0.8440 H     1 <1>   0.3700 
 32 H       -7.3730     0.8040     1.7660 H     1 <1>   0.0800 
 33 H       -9.5430    -0.0060     1.2620 H     1 <1>   0.0800 
 34 H       -8.5700    -1.3640     0.7530 H     1 <1>   0.0800 
 35 H       -7.0380     2.3500    -0.3840 H     1 <1>   0.0800 
 36 H       -8.5460     2.4330     0.4940 H     1 <1>   0.0800 
 37 H      -10.3750    -0.0600    -0.8850 H     1 <1>   0.0800 
 38 H       -8.9520    -0.8540    -1.5210 H     1 <1>   0.0800 
 39 H       -8.0540     1.1290    -2.1360 H     1 <1>   0.0800 
 40 H       -9.4830     1.9690    -1.5760 H     1 <1>   0.0800 
@<TRIPOS>BOND
  1   1   2  2   
  2   1   3  2   
  3   1   4  am  
  4   1   5  1   
  5   4   6  1   
  6   4   7  1   
  7   5  19  1   
  8   5  20  1   
  9   5  21  1   
 10   6   8  1   
 11   6  22  1   
 12   6  23  1   
 13   7   9  1   
 14   7  24  1   
 15   7  25  1   
 16   8  10  1   
 17   8  11  1   
 18   8  26  1   
 19   9  11  1   
 20   9  27  1   
 21   9  28  1   
 22  10  12  2   
 23  10  13  am  
 24  11  29  1   
 25  11  30  1   
 26  13  14  1   
 27  13  31  1   
 28  14  15  1   
 29  14  16  1   
 30  14  32  1   
 31  15  17  1   
 32  15  33  1   
 33  15  34  1   
 34  16  18  1   
 35  16  35  1   
 36  16  36  1   
 37  17  18  1   
 38  17  37  1   
 39  17  38  1   
 40  18  39  1   
 41  18  40  1   
@<TRIPOS>SUBSTRUCTURE
  1 ****   8 GROUP 4 **** **** 0

# MOE 2024.06 (io_trps.svl 2023.06)
