@<TRIPOS>MOLECULE
NONAME
47 48 1 0 0 
SMALL
USER_CHARGES


@<TRIPOS>ATOM
  1 O        0.4190     0.4960    -0.1550 O.3   1 <1>  -0.3630 
  2 C       -0.8100     1.0700    -0.1140 C.ar  1 <1>   0.0830 
  3 C        1.5850     1.2440     0.0860 C.3   1 <1>   0.1200 
  4 C       -1.0330     2.4150     0.1660 C.ar  1 <1>  -0.1500 
  5 C       -1.8890     0.2440    -0.3710 C.ar  1 <1>  -0.1500 
  6 C        2.7750     0.2910    -0.0430 C.3   1 <1>  -0.1600 
  7 C       -2.3220     2.9280     0.1890 C.ar  1 <1>  -0.1440 
  8 C       -3.1750     0.7500    -0.3490 C.ar  1 <1>  -0.1500 
  9 C        4.1120     1.0080     0.1960 C.3   1 <1>  -0.1600 
 10 C       -3.4020     2.0890    -0.0700 C.ar  1 <1>  -0.1430 
 11 C       -2.5250     4.4040     0.5000 C.3   1 <1>  -0.0970 
 12 C        5.2740     0.0200     0.0630 C.3   1 <1>   0.3430 
 13 C       -4.8330     2.6060    -0.0560 C.3   1 <1>  -0.0970 
 14 N        6.5670     0.6790     0.3940 N.4   1 <1>  -0.9590 
 15 C        7.0010     1.6460    -0.6610 C.3   1 <1>   0.3430 
 16 C        7.6210    -0.3470     0.6520 C.3   1 <1>   0.3430 
 17 C        8.2680     2.3730    -0.2070 C.3   1 <1>  -0.1600 
 18 C        8.9010     0.3370     1.1360 C.3   1 <1>  -0.1600 
 19 C        9.3950     1.3910     0.1380 C.3   1 <1>  -0.1600 
 20 H        1.5220     1.6550     1.0790 H     1 <1>   0.0800 
 21 H        1.6370     2.0320    -0.6460 H     1 <1>   0.0800 
 22 H       -0.2130     3.0740     0.3680 H     1 <1>   0.1500 
 23 H       -1.7160    -0.7940    -0.5870 H     1 <1>   0.1500 
 24 H        2.7630    -0.1360    -1.0320 H     1 <1>   0.0800 
 25 H        2.6540    -0.5030     0.6750 H     1 <1>   0.0800 
 26 H       -4.0000     0.0900    -0.5510 H     1 <1>   0.1500 
 27 H        4.1080     1.4310     1.1850 H     1 <1>   0.0800 
 28 H        4.2100     1.8000    -0.5250 H     1 <1>   0.0800 
 29 H       -1.5870     4.8980     0.6730 H     1 <1>   0.0800 
 30 H       -3.1310     4.5140     1.3810 H     1 <1>   0.0800 
 31 H       -3.0140     4.8890    -0.3260 H     1 <1>   0.0800 
 32 H        5.3060    -0.3780    -0.9390 H     1 <1>   0.0800 
 33 H        5.1050    -0.8000     0.7430 H     1 <1>   0.0800 
 34 H       -5.0710     3.0040     0.9140 H     1 <1>   0.0800 
 35 H       -5.5310     1.8190    -0.2770 H     1 <1>   0.0800 
 36 H       -4.9530     3.3790    -0.7930 H     1 <1>   0.0800 
 37 H        6.4460     1.2100     1.2660 H     1 <1>   0.4500 
 38 H        6.2250     2.3700    -0.8470 H     1 <1>   0.0800 
 39 H        7.1990     1.1180    -1.5800 H     1 <1>   0.0800 
 40 H        7.8270    -0.8940    -0.2550 H     1 <1>   0.0800 
 41 H        7.2840    -1.0450     1.4010 H     1 <1>   0.0800 
 42 H        8.0410     2.9870     0.6470 H     1 <1>   0.0800 
 43 H        8.5980     3.0290    -0.9940 H     1 <1>   0.0800 
 44 H        9.6670    -0.4080     1.2740 H     1 <1>   0.0800 
 45 H        8.7230     0.7930     2.0950 H     1 <1>   0.0800 
 46 H       10.2330     1.9260     0.5540 H     1 <1>   0.0800 
 47 H        9.7340     0.9030    -0.7620 H     1 <1>   0.0800 
@<TRIPOS>BOND
  1   1   2  1   
  2   1   3  1   
  3   2   4  ar  
  4   2   5  ar  
  5   3   6  1   
  6   3  20  1   
  7   3  21  1   
  8   4   7  ar  
  9   4  22  1   
 10   5   8  ar  
 11   5  23  1   
 12   6   9  1   
 13   6  24  1   
 14   6  25  1   
 15   7  10  ar  
 16   7  11  1   
 17   8  10  ar  
 18   8  26  1   
 19   9  12  1   
 20   9  27  1   
 21   9  28  1   
 22  10  13  1   
 23  11  29  1   
 24  11  30  1   
 25  11  31  1   
 26  12  14  1   
 27  12  32  1   
 28  12  33  1   
 29  13  34  1   
 30  13  35  1   
 31  13  36  1   
 32  14  15  1   
 33  14  16  1   
 34  14  37  1   
 35  15  17  1   
 36  15  38  1   
 37  15  39  1   
 38  16  18  1   
 39  16  40  1   
 40  16  41  1   
 41  17  19  1   
 42  17  42  1   
 43  17  43  1   
 44  18  19  1   
 45  18  44  1   
 46  18  45  1   
 47  19  46  1   
 48  19  47  1   
@<TRIPOS>SUBSTRUCTURE
  1 ****   3 GROUP 4 **** **** 0

# MOE 2024.06 (io_trps.svl 2023.06)
