@<TRIPOS>MOLECULE
NONAME
33 34 1 0 0 
SMALL
USER_CHARGES


@<TRIPOS>ATOM
  1 S        0.0430    -0.1170    -0.2700 S.3   1 <1>  -0.4600 
  2 C       -1.1860    -1.4120    -0.0520 C.3   1 <1>   0.0700 
  3 C       -1.0750     1.2850    -0.4090 C.3   1 <1>   0.0700 
  4 C       -2.5270    -0.7380    -0.3890 C.3   1 <1>   0.4230 
  5 C       -2.4240     0.7310     0.0540 C.3   1 <1>  -0.1600 
  6 N       -3.6890    -1.4200     0.2710 N.4   1 <1>  -0.9590 
  7 C       -3.7440    -2.8960    -0.0630 C.3   1 <1>   0.3430 
  8 C       -5.0040    -0.7550    -0.0750 C.3   1 <1>   0.3430 
  9 C       -4.9460    -3.6170     0.5850 C.3   1 <1>   0.1400 
 10 C       -6.2000    -1.4490     0.5980 C.3   1 <1>   0.1400 
 11 N       -6.2160    -2.9040     0.2600 N.am  1 <1>  -0.6600 
 12 C       -7.2850    -3.4520    -0.4040 C.2   1 <1>   0.5690 
 13 O       -8.1640    -2.7600    -0.8490 O.2   1 <1>  -0.5700 
 14 C       -7.3890    -4.9440    -0.6180 C.3   1 <1>  -0.1790 
 15 H       -1.1220    -1.7170     0.9770 H     1 <1>   0.0800 
 16 H       -0.9360    -2.2150    -0.7220 H     1 <1>   0.0800 
 17 H       -1.0840     1.5810    -1.4450 H     1 <1>   0.0800 
 18 H       -0.7050     2.0840     0.2110 H     1 <1>   0.0800 
 19 H       -2.6510    -0.7630    -1.4600 H     1 <1>   0.0800 
 20 H       -3.2090     1.3340    -0.3660 H     1 <1>   0.0800 
 21 H       -2.4600     0.7960     1.1270 H     1 <1>   0.0800 
 22 H       -3.5630    -1.3330     1.2880 H     1 <1>   0.4500 
 23 H       -2.8380    -3.3810     0.2610 H     1 <1>   0.0800 
 24 H       -3.8160    -3.0180    -1.1310 H     1 <1>   0.0800 
 25 H       -5.1570    -0.7790    -1.1410 H     1 <1>   0.0800 
 26 H       -4.9910     0.2770     0.2340 H     1 <1>   0.0800 
 27 H       -4.8210    -3.6510     1.6530 H     1 <1>   0.0800 
 28 H       -4.9740    -4.6310     0.2290 H     1 <1>   0.0800 
 29 H       -7.1090    -0.9700     0.2730 H     1 <1>   0.0800 
 30 H       -6.1430    -1.3310     1.6660 H     1 <1>   0.0800 
 31 H       -7.2330    -5.4640     0.3080 H     1 <1>   0.0800 
 32 H       -6.6690    -5.2630    -1.3470 H     1 <1>   0.0800 
 33 H       -8.3720    -5.1850    -0.9810 H     1 <1>   0.0800 
@<TRIPOS>BOND
  1   1   2  1   
  2   1   3  1   
  3   2   4  1   
  4   2  15  1   
  5   2  16  1   
  6   3   5  1   
  7   3  17  1   
  8   3  18  1   
  9   4   5  1   
 10   4   6  1   
 11   4  19  1   
 12   5  20  1   
 13   5  21  1   
 14   6   7  1   
 15   6   8  1   
 16   6  22  1   
 17   7   9  1   
 18   7  23  1   
 19   7  24  1   
 20   8  10  1   
 21   8  25  1   
 22   8  26  1   
 23   9  11  1   
 24   9  27  1   
 25   9  28  1   
 26  10  11  1   
 27  10  29  1   
 28  10  30  1   
 29  11  12  am  
 30  12  13  2   
 31  12  14  1   
 32  14  31  1   
 33  14  32  1   
 34  14  33  1   
@<TRIPOS>SUBSTRUCTURE
  1 ****   6 GROUP 4 **** **** 0

# MOE 2024.06 (io_trps.svl 2023.06)
