@<TRIPOS>MOLECULE
NONAME
50 51 1 0 0 
SMALL
USER_CHARGES


@<TRIPOS>ATOM
  1 O       -0.4830     0.0160    -0.3270 O.2   1 <1>  -0.5700 
  2 C       -0.3800    -1.1300     0.0650 C.2   1 <1>   0.5440 
  3 N        0.8070    -1.5750     0.6000 N.am  1 <1>  -0.5470 
  4 C       -1.5140    -2.0330    -0.0220 C.ar  1 <1>   0.0860 
  5 C        2.0360    -0.9240     0.7930 C.ar  1 <1>   0.1170 
  6 C       -2.8180    -1.5430     0.0470 C.ar  1 <1>  -0.1500 
  7 C       -1.3540    -3.4110    -0.1740 C.ar  1 <1>  -0.1500 
  8 C        2.1460     0.4490     0.9890 C.ar  1 <1>  -0.1500 
  9 C        3.2000    -1.6840     0.8110 C.ar  1 <1>  -0.1500 
 10 C       -3.9170    -2.3910    -0.0160 C.ar  1 <1>   0.0830 
 11 C       -2.4370    -4.2680    -0.2330 C.ar  1 <1>   0.0830 
 12 C        3.3790     1.0430     1.1840 C.ar  1 <1>  -0.1500 
 13 C        4.4350    -1.0920     1.0050 C.ar  1 <1>  -0.1500 
 14 O       -5.2030    -1.9640     0.0470 O.3   1 <1>  -0.3630 
 15 C       -3.7250    -3.7540    -0.1520 C.ar  1 <1>  -0.1500 
 16 O       -2.1580    -5.5880    -0.3710 O.3   1 <1>  -0.3630 
 17 C        4.5390     0.2800     1.1850 C.ar  1 <1>   0.1170 
 18 C       -5.5180    -0.5920     0.1200 C.3   1 <1>   0.1200 
 19 C       -3.1870    -6.5450    -0.4750 C.3   1 <1>   0.1200 
 20 N        5.7960     0.8660     1.3770 N.am  1 <1>  -0.5470 
 21 C       -7.0370    -0.4580     0.1370 C.3   1 <1>  -0.2400 
 22 C       -2.5410    -7.9170    -0.6350 C.3   1 <1>  -0.2400 
 23 C        6.3980     1.9010     0.7350 C.2   1 <1>   0.5690 
 24 O        7.4610     2.3010     1.1360 O.2   1 <1>  -0.5700 
 25 C        5.7540     2.5580    -0.4830 C.3   1 <1>  -0.0990 
 26 C        6.7610     2.9330    -1.5830 C.3   1 <1>  -0.2400 
 27 H        0.7980    -2.5500     0.8910 H     1 <1>   0.3700 
 28 H       -2.9450    -0.4810     0.1530 H     1 <1>   0.1500 
 29 H       -0.3730    -3.8400    -0.2610 H     1 <1>   0.1500 
 30 H        1.2620     1.0610     0.9960 H     1 <1>   0.1500 
 31 H        3.1420    -2.7470     0.6660 H     1 <1>   0.1500 
 32 H        3.4390     2.1050     1.3400 H     1 <1>   0.1500 
 33 H        5.3250    -1.6950     1.0090 H     1 <1>   0.1500 
 34 H       -4.5930    -4.3830    -0.1940 H     1 <1>   0.1500 
 35 H       -5.1020    -0.1000    -0.7430 H     1 <1>   0.0800 
 36 H       -5.0900    -0.1900     1.0220 H     1 <1>   0.0800 
 37 H       -3.7910    -6.3060    -1.3340 H     1 <1>   0.0800 
 38 H       -3.7810    -6.5060     0.4220 H     1 <1>   0.0800 
 39 H        6.3820     0.4660     2.1090 H     1 <1>   0.3700 
 40 H       -7.4550    -0.8760    -0.7610 H     1 <1>   0.0800 
 41 H       -7.3100     0.5800     0.1920 H     1 <1>   0.0800 
 42 H       -7.4430    -0.9660     0.9930 H     1 <1>   0.0800 
 43 H       -1.9390    -7.9410    -1.5250 H     1 <1>   0.0800 
 44 H       -3.3030    -8.6710    -0.7160 H     1 <1>   0.0800 
 45 H       -1.9290    -8.1400     0.2210 H     1 <1>   0.0800 
 46 H        5.2440     3.4440    -0.1530 H     1 <1>   0.0800 
 47 H        5.0260     1.8940    -0.9090 H     1 <1>   0.0800 
 48 H        7.4800     3.6390    -1.2040 H     1 <1>   0.0800 
 49 H        6.2510     3.3770    -2.4200 H     1 <1>   0.0800 
 50 H        7.2860     2.0570    -1.9210 H     1 <1>   0.0800 
@<TRIPOS>BOND
  1   1   2  2   
  2   2   3  am  
  3   2   4  1   
  4   3   5  1   
  5   3  27  1   
  6   4   6  ar  
  7   4   7  ar  
  8   5   8  ar  
  9   5   9  ar  
 10   6  10  ar  
 11   6  28  1   
 12   7  11  ar  
 13   7  29  1   
 14   8  12  ar  
 15   8  30  1   
 16   9  13  ar  
 17   9  31  1   
 18  10  14  1   
 19  10  15  ar  
 20  11  15  ar  
 21  11  16  1   
 22  12  17  ar  
 23  12  32  1   
 24  13  17  ar  
 25  13  33  1   
 26  14  18  1   
 27  15  34  1   
 28  16  19  1   
 29  17  20  1   
 30  18  21  1   
 31  18  35  1   
 32  18  36  1   
 33  19  22  1   
 34  19  37  1   
 35  19  38  1   
 36  20  23  am  
 37  20  39  1   
 38  21  40  1   
 39  21  41  1   
 40  21  42  1   
 41  22  43  1   
 42  22  44  1   
 43  22  45  1   
 44  23  24  2   
 45  23  25  1   
 46  25  26  1   
 47  25  46  1   
 48  25  47  1   
 49  26  48  1   
 50  26  49  1   
 51  26  50  1   
@<TRIPOS>SUBSTRUCTURE
  1 ****   3 GROUP 4 **** **** 0

# MOE 2024.06 (io_trps.svl 2023.06)
