@<TRIPOS>MOLECULE
NONAME
33 35 1 0 0 
SMALL
USER_CHARGES


@<TRIPOS>ATOM
  1 O       -0.5230     0.3930    -0.8240 O.3   1 <1>  -0.6800 
  2 C       -0.6620     1.3560     0.1440 C.3   1 <1>   0.3800 
  3 C       -2.1050     1.8200     0.1030 C.2   1 <1>  -0.3320 
  4 C        0.3020     2.5060    -0.1990 C.3   1 <1>  -0.1600 
  5 N       -3.2190     1.0220     0.1740 N.pl3 1 <1>   0.0480 
  6 C       -2.4810     3.1140     0.0070 C.2   1 <1>  -0.1810 
  7 C       -0.1280     3.8460     0.4340 C.3   1 <1>  -0.1600 
  8 C       -4.3220     1.8420     0.0910 C.ar  1 <1>  -0.1520 
  9 C       -3.2610    -0.4420     0.3480 C.3   1 <1>   0.0160 
 10 C       -3.8900     3.1610    -0.0140 C.ar  1 <1>   0.0000 
 11 C       -1.5210     4.2850    -0.0550 C.3   1 <1>   0.0210 
 12 C       -5.6890     1.5470     0.0970 C.ar  1 <1>  -0.1500 
 13 C       -4.8260     4.1960    -0.1120 C.ar  1 <1>  -0.1500 
 14 C       -6.5980     2.5750     0.0000 C.ar  1 <1>  -0.1500 
 15 C       -6.1720     3.9060    -0.1050 C.ar  1 <1>  -0.1430 
 16 C       -7.2110     5.0060    -0.2100 C.3   1 <1>  -0.0970 
 17 H       -1.0210     0.7120    -1.6000 H     1 <1>   0.4000 
 18 H       -0.4240     0.9220     1.1010 H     1 <1>   0.0800 
 19 H        0.3360     2.6390    -1.2660 H     1 <1>   0.0800 
 20 H        1.2880     2.2460     0.1410 H     1 <1>   0.0800 
 21 H        0.5910     4.6110     0.2000 H     1 <1>   0.0800 
 22 H       -0.1570     3.7330     1.5040 H     1 <1>   0.0800 
 23 H       -2.3360    -0.7850     0.7730 H     1 <1>   0.0800 
 24 H       -3.4100    -0.9050    -0.6090 H     1 <1>   0.0800 
 25 H       -4.0690    -0.6990     1.0070 H     1 <1>   0.0800 
 26 H       -1.8850     5.0880     0.5610 H     1 <1>   0.0800 
 27 H       -1.4650     4.6320    -1.0710 H     1 <1>   0.0800 
 28 H       -6.0190     0.5280     0.1750 H     1 <1>   0.1500 
 29 H       -4.4680     5.2050    -0.1910 H     1 <1>   0.1500 
 30 H       -7.6520     2.3610     0.0030 H     1 <1>   0.1500 
 31 H       -6.7420     5.9710    -0.2830 H     1 <1>   0.0800 
 32 H       -7.8420     4.9960     0.6610 H     1 <1>   0.0800 
 33 H       -7.8180     4.8530    -1.0840 H     1 <1>   0.0800 
@<TRIPOS>BOND
  1   1   2  1   
  2   1  17  1   
  3   2   3  1   
  4   2   4  1   
  5   2  18  1   
  6   3   5  1   
  7   3   6  2   
  8   4   7  1   
  9   4  19  1   
 10   4  20  1   
 11   5   8  1   
 12   5   9  1   
 13   6  10  1   
 14   6  11  1   
 15   7  11  1   
 16   7  21  1   
 17   7  22  1   
 18   8  10  ar  
 19   8  12  ar  
 20   9  23  1   
 21   9  24  1   
 22   9  25  1   
 23  10  13  ar  
 24  11  26  1   
 25  11  27  1   
 26  12  14  ar  
 27  12  28  1   
 28  13  15  ar  
 29  13  29  1   
 30  14  15  ar  
 31  14  30  1   
 32  15  16  1   
 33  16  31  1   
 34  16  32  1   
 35  16  33  1   
@<TRIPOS>SUBSTRUCTURE
  1 ****  10 GROUP 4 **** **** 0

# MOE 2024.06 (io_trps.svl 2023.06)
