@<TRIPOS>MOLECULE
NONAME
56 58 1 0 0 
SMALL
USER_CHARGES


@<TRIPOS>ATOM
  1 O       -0.3270     0.6660     0.7480 O.3   1 <1>  -0.3630 
  2 C       -1.3230     1.1690    -0.0500 C.ar  1 <1>   0.0830 
  3 C       -0.4500    -0.6050     1.3520 C.3   1 <1>   0.0400 
  4 C       -1.1430     2.4440    -0.6200 C.ar  1 <1>   0.1000 
  5 C       -2.4930     0.4620    -0.3080 C.ar  1 <1>  -0.1500 
  6 N       -0.0020     3.2350    -0.4220 N.pl3 1 <1>  -0.8380 
  7 C       -2.1440     2.9620    -1.4290 C.ar  1 <1>  -0.1500 
  8 C       -3.4780     1.0010    -1.1190 C.ar  1 <1>  -0.1500 
  9 C        1.2390     2.6760    -1.0270 C.3   1 <1>   0.2090 
 10 C        0.1640     3.7250     0.9750 C.3   1 <1>   0.2090 
 11 C       -3.3030     2.2520    -1.6790 C.ar  1 <1>  -0.1500 
 12 C        2.4000     3.6840    -0.9190 C.3   1 <1>   0.3430 
 13 C        1.3350     4.7230     1.0670 C.3   1 <1>   0.3430 
 14 N        2.6290     4.1650     0.5050 N.4   1 <1>  -0.9590 
 15 C        3.7790     5.0980     0.7030 C.3   1 <1>   0.4230 
 16 C        3.6920     6.3430    -0.1900 C.3   1 <1>  -0.1600 
 17 C        5.1040     4.3700     0.4670 C.3   1 <1>  -0.1600 
 18 C        4.8860     7.2650     0.0570 C.3   1 <1>   0.3430 
 19 C        6.2870     5.3100     0.7060 C.3   1 <1>   0.3430 
 20 N        6.1630     6.5240    -0.1580 N.4   1 <1>  -0.9590 
 21 C        7.3190     7.4530     0.0400 C.3   1 <1>   0.3430 
 22 C        8.5930     6.8640    -0.5700 C.3   1 <1>  -0.1600 
 23 C        9.7500     7.8650    -0.4790 C.3   1 <1>  -0.2400 
 24 H        0.4380    -0.7930     1.9280 H     1 <1>   0.0800 
 25 H       -0.5480    -1.3500     0.5820 H     1 <1>   0.0800 
 26 H       -1.3100    -0.6040     1.9980 H     1 <1>   0.0800 
 27 H       -2.6680    -0.5120     0.1070 H     1 <1>   0.1500 
 28 H       -2.0100     3.9340    -1.8650 H     1 <1>   0.1500 
 29 H       -4.3800     0.4470    -1.3130 H     1 <1>   0.1500 
 30 H        1.0520     2.4530    -2.0640 H     1 <1>   0.0800 
 31 H        1.5080     1.7560    -0.5380 H     1 <1>   0.0800 
 32 H        0.3360     2.8980     1.6400 H     1 <1>   0.0800 
 33 H       -0.7460     4.2110     1.2850 H     1 <1>   0.0800 
 34 H       -4.0680     2.6720    -2.3090 H     1 <1>   0.1500 
 35 H        2.1610     4.5220    -1.5520 H     1 <1>   0.0800 
 36 H        3.2910     3.2190    -1.3030 H     1 <1>   0.0800 
 37 H        1.4690     4.9980     2.1000 H     1 <1>   0.0800 
 38 H        1.0530     5.6080     0.5220 H     1 <1>   0.0800 
 39 H        2.8060     3.3110     1.0540 H     1 <1>   0.4500 
 40 H        3.7670     5.4260     1.7310 H     1 <1>   0.0800 
 41 H        2.7950     6.8940     0.0300 H     1 <1>   0.0800 
 42 H        3.6770     6.0780    -1.2320 H     1 <1>   0.0800 
 43 H        5.1680     3.9890    -0.5360 H     1 <1>   0.0800 
 44 H        5.1900     3.5420     1.1490 H     1 <1>   0.0800 
 45 H        4.8520     7.6440     1.0670 H     1 <1>   0.0800 
 46 H        4.8340     8.1090    -0.6150 H     1 <1>   0.0800 
 47 H        7.2060     4.7900     0.4840 H     1 <1>   0.0800 
 48 H        6.3160     5.6050     1.7440 H     1 <1>   0.0800 
 49 H        6.2090     6.2320    -1.1460 H     1 <1>   0.4500 
 50 H        7.4710     7.6480     1.0900 H     1 <1>   0.0800 
 51 H        7.1140     8.3940    -0.4470 H     1 <1>   0.0800 
 52 H        8.4300     6.6280    -1.6070 H     1 <1>   0.0800 
 53 H        8.8850     5.9690    -0.0500 H     1 <1>   0.0800 
 54 H        9.5190     8.7710    -1.0130 H     1 <1>   0.0800 
 55 H       10.6390     7.4390    -0.9130 H     1 <1>   0.0800 
 56 H        9.9650     8.1130     0.5460 H     1 <1>   0.0800 
@<TRIPOS>BOND
  1   1   2  1   
  2   1   3  1   
  3   2   4  ar  
  4   2   5  ar  
  5   3  24  1   
  6   3  25  1   
  7   3  26  1   
  8   4   6  1   
  9   4   7  ar  
 10   5   8  ar  
 11   5  27  1   
 12   6   9  1   
 13   6  10  1   
 14   7  11  ar  
 15   7  28  1   
 16   8  11  ar  
 17   8  29  1   
 18   9  12  1   
 19   9  30  1   
 20   9  31  1   
 21  10  13  1   
 22  10  32  1   
 23  10  33  1   
 24  11  34  1   
 25  12  14  1   
 26  12  35  1   
 27  12  36  1   
 28  13  14  1   
 29  13  37  1   
 30  13  38  1   
 31  14  15  1   
 32  14  39  1   
 33  15  16  1   
 34  15  17  1   
 35  15  40  1   
 36  16  18  1   
 37  16  41  1   
 38  16  42  1   
 39  17  19  1   
 40  17  43  1   
 41  17  44  1   
 42  18  20  1   
 43  18  45  1   
 44  18  46  1   
 45  19  20  1   
 46  19  47  1   
 47  19  48  1   
 48  20  21  1   
 49  20  49  1   
 50  21  22  1   
 51  21  50  1   
 52  21  51  1   
 53  22  23  1   
 54  22  52  1   
 55  22  53  1   
 56  23  54  1   
 57  23  55  1   
 58  23  56  1   
@<TRIPOS>SUBSTRUCTURE
  1 ****  14 GROUP 4 **** **** 0

# MOE 2024.06 (io_trps.svl 2023.06)
