@<TRIPOS>MOLECULE
NONAME
37 39 1 0 0 
SMALL
USER_CHARGES


@<TRIPOS>ATOM
  1 S        0.4410    -0.3320    -0.0930 S.3   1 <1>  -0.3320 
  2 C       -1.0150    -1.3810    -0.0730 C.ar  1 <1>   0.4120 
  3 C        1.6280    -1.1340    -1.2700 C.3   1 <1>   0.2110 
  4 N       -0.9140    -2.4740    -0.8190 N.ar  1 <1>  -0.6200 
  5 C       -2.1130    -1.0190     0.7010 C.ar  1 <1>  -0.1790 
  6 C        2.6220    -1.9960    -0.5060 C.2   1 <1>   0.5690 
  7 C        2.4940    -0.0210    -1.8720 C.3   1 <1>  -0.0990 
  8 C       -1.9570    -3.2830    -0.7660 C.ar  1 <1>   0.1600 
  9 C       -2.1560     0.2160     1.4380 C.2   1 <1>   0.9790 
 10 C       -3.1840    -1.9010     0.7340 C.ar  1 <1>  -0.1500 
 11 O        2.3900    -3.0940    -0.0620 O.2   1 <1>  -0.5700 
 12 N        3.8350    -1.3790    -0.4580 N.am  1 <1>  -0.4200 
 13 C        3.8300    -0.2370    -1.2060 C.2   1 <1>   0.5690 
 14 C       -3.0970    -3.0520    -0.0150 C.ar  1 <1>  -0.1500 
 15 O       -2.2580     0.1920     2.6760 O.co2 1 <1>  -0.9000 
 16 O       -2.1870     1.3080     0.8470 O.co2 1 <1>  -0.9000 
 17 C        4.9700    -1.9190     0.3340 C.3   1 <1>   0.2200 
 18 O        4.7520     0.5180    -1.3740 O.2   1 <1>  -0.5700 
 19 C        5.3580    -0.9750     1.4810 C.3   1 <1>  -0.1600 
 20 C        6.2360    -2.1250    -0.5110 C.3   1 <1>  -0.1600 
 21 C        6.8860    -0.9580     1.5020 C.3   1 <1>  -0.1600 
 22 C        7.2830    -1.1590     0.0440 C.3   1 <1>  -0.1600 
 23 H        1.0840    -1.6800    -2.0170 H     1 <1>   0.0800 
 24 H        2.1150     0.9620    -1.6580 H     1 <1>   0.0800 
 25 H        2.6010    -0.1520    -2.9320 H     1 <1>   0.0800 
 26 H       -1.9010    -4.1850    -1.3500 H     1 <1>   0.1500 
 27 H       -4.0470    -1.6710     1.3370 H     1 <1>   0.1500 
 28 H       -3.9030    -3.7620    -0.0180 H     1 <1>   0.1500 
 29 H        4.6890    -2.8710     0.7540 H     1 <1>   0.0800 
 30 H        4.9580    -1.3150     2.4190 H     1 <1>   0.0800 
 31 H        5.0040     0.0230     1.2880 H     1 <1>   0.0800 
 32 H        6.0700    -1.9640    -1.5620 H     1 <1>   0.0800 
 33 H        6.5830    -3.1330    -0.3670 H     1 <1>   0.0800 
 34 H        7.2500    -1.7820     2.0910 H     1 <1>   0.0800 
 35 H        7.2740    -0.0370     1.9010 H     1 <1>   0.0800 
 36 H        7.2120    -0.2190    -0.4770 H     1 <1>   0.0800 
 37 H        8.2850    -1.5420    -0.0570 H     1 <1>   0.0800 
@<TRIPOS>BOND
  1   1   2  1   
  2   1   3  1   
  3   2   4  ar  
  4   2   5  ar  
  5   3   6  1   
  6   3   7  1   
  7   3  23  1   
  8   4   8  ar  
  9   5   9  1   
 10   5  10  ar  
 11   6  11  2   
 12   6  12  am  
 13   7  13  1   
 14   7  24  1   
 15   7  25  1   
 16   8  14  ar  
 17   8  26  1   
 18   9  15  ar  
 19   9  16  ar  
 20  10  14  ar  
 21  10  27  1   
 22  12  13  am  
 23  12  17  1   
 24  13  18  2   
 25  14  28  1   
 26  17  19  1   
 27  17  20  1   
 28  17  29  1   
 29  19  21  1   
 30  19  30  1   
 31  19  31  1   
 32  20  22  1   
 33  20  32  1   
 34  20  33  1   
 35  21  22  1   
 36  21  34  1   
 37  21  35  1   
 38  22  36  1   
 39  22  37  1   
@<TRIPOS>SUBSTRUCTURE
  1 ****   3 GROUP 4 **** **** 0

# MOE 2024.06 (io_trps.svl 2023.06)
