@<TRIPOS>MOLECULE
NONAME
36 36 1 0 0 
SMALL
USER_CHARGES


@<TRIPOS>ATOM
  1 BR       0.2120     0.2720    -1.1120 Br    1 <1>  -0.1110 
  2 C       -0.8610     1.8430    -0.7870 C.ar  1 <1>   0.1110 
  3 C       -0.2510     3.0870    -0.7270 C.ar  1 <1>   0.0820 
  4 C       -2.2190     1.6720    -0.6100 C.ar  1 <1>  -0.1500 
  5 O        1.0910     3.1800    -0.8770 O.3   1 <1>  -0.3630 
  6 C       -1.0700     4.1990    -0.5080 C.ar  1 <1>   0.0830 
  7 C       -3.0400     2.7720    -0.3560 C.ar  1 <1>   0.0860 
  8 C        1.8320     3.5430     0.2660 C.3   1 <1>   0.1200 
  9 O       -0.5940     5.4680    -0.4710 O.3   1 <1>  -0.3620 
 10 C       -2.4310     4.0310    -0.3180 C.ar  1 <1>  -0.1500 
 11 C       -4.4670     2.6010    -0.1470 C.2   1 <1>   0.5440 
 12 C        3.3150     3.5220    -0.1020 C.3   1 <1>  -0.1600 
 13 C        0.0010     5.9630    -1.6520 C.3   1 <1>   0.0400 
 14 O       -5.0470     1.6350    -0.6030 O.2   1 <1>  -0.5700 
 15 N       -5.1840     3.5110     0.5800 N.am  1 <1>  -0.7300 
 16 C        4.1920     3.9060     1.0960 C.3   1 <1>  -0.2400 
 17 C       -6.6370     3.4490     0.8270 C.3   1 <1>   0.1400 
 18 C       -7.1990     4.8640     0.7750 C.3   1 <1>  -0.2400 
 19 H       -2.6470     0.6860    -0.6650 H     1 <1>   0.1500 
 20 H        1.6200     2.8310     1.0450 H     1 <1>   0.0800 
 21 H        1.5290     4.5260     0.5790 H     1 <1>   0.0800 
 22 H       -3.0280     4.9080    -0.1500 H     1 <1>   0.1500 
 23 H        3.4910     4.2150    -0.9060 H     1 <1>   0.0800 
 24 H        3.5820     2.5330    -0.4340 H     1 <1>   0.0800 
 25 H        0.1660     7.0180    -1.5280 H     1 <1>   0.0800 
 26 H       -0.6660     5.7900    -2.4780 H     1 <1>   0.0800 
 27 H        0.9390     5.4660    -1.8190 H     1 <1>   0.0800 
 28 H       -4.6910     4.2570     1.0710 H     1 <1>   0.3700 
 29 H        3.9520     4.8980     1.4360 H     1 <1>   0.0800 
 30 H        5.2290     3.8840     0.8120 H     1 <1>   0.0800 
 31 H        4.0450     3.2140     1.9070 H     1 <1>   0.0800 
 32 H       -6.8170     3.0090     1.7930 H     1 <1>   0.0800 
 33 H       -7.1120     2.8360     0.0780 H     1 <1>   0.0800 
 34 H       -6.7530     5.4770     1.5370 H     1 <1>   0.0800 
 35 H       -8.2610     4.8350     0.9400 H     1 <1>   0.0800 
 36 H       -7.0190     5.2990    -0.1920 H     1 <1>   0.0800 
@<TRIPOS>BOND
  1   1   2  1   
  2   2   3  ar  
  3   2   4  ar  
  4   3   5  1   
  5   3   6  ar  
  6   4   7  ar  
  7   4  19  1   
  8   5   8  1   
  9   6   9  1   
 10   6  10  ar  
 11   7  10  ar  
 12   7  11  1   
 13   8  12  1   
 14   8  20  1   
 15   8  21  1   
 16   9  13  1   
 17  10  22  1   
 18  11  14  2   
 19  11  15  am  
 20  12  16  1   
 21  12  23  1   
 22  12  24  1   
 23  13  25  1   
 24  13  26  1   
 25  13  27  1   
 26  15  17  1   
 27  15  28  1   
 28  16  29  1   
 29  16  30  1   
 30  16  31  1   
 31  17  18  1   
 32  17  32  1   
 33  17  33  1   
 34  18  34  1   
 35  18  35  1   
 36  18  36  1   
@<TRIPOS>SUBSTRUCTURE
  1 ****   6 GROUP 4 **** **** 0

# MOE 2024.06 (io_trps.svl 2023.06)
