@<TRIPOS>MOLECULE
NONAME
44 46 1 0 0 
SMALL
USER_CHARGES


@<TRIPOS>ATOM
  1 O        0.0900     0.9700    -2.3370 O.2   1 <1>  -0.5700 
  2 C       -0.4740     1.9460    -1.8760 C.2   1 <1>   0.5440 
  3 N       -1.8540     1.9680    -1.8540 N.am  1 <1>  -0.6600 
  4 C        0.3270     3.0400    -1.3740 C.ar  1 <1>   0.0860 
  5 C       -2.6760     0.7710    -2.2010 C.3   1 <1>   0.1400 
  6 C       -2.6690     3.1030    -1.3260 C.3   1 <1>   0.1400 
  7 C        0.3770     3.3820    -0.0150 C.ar  1 <1>   0.0820 
  8 C        1.0820     3.8080    -2.2600 C.ar  1 <1>  -0.1500 
  9 C       -3.4710     0.3050    -0.9740 C.3   1 <1>   0.1400 
 10 C       -3.5070     2.6690    -0.1110 C.3   1 <1>   0.1400 
 11 O       -0.3050     2.6900     0.9200 O.3   1 <1>  -0.3630 
 12 C        1.1180     4.4700     0.4180 C.ar  1 <1>  -0.1500 
 13 C        1.8320     4.8850    -1.8260 C.ar  1 <1>  -0.1500 
 14 N       -4.2860     1.4220    -0.3960 N.am  1 <1>  -0.6600 
 15 C        0.1340     1.3860     1.2280 C.3   1 <1>   0.1200 
 16 C        1.8470     5.2220    -0.4830 C.ar  1 <1>  -0.1500 
 17 C       -5.6580     1.3230    -0.2590 C.2   1 <1>   0.7150 
 18 C       -0.7300     0.8520     2.3670 C.3   1 <1>  -0.2400 
 19 O       -6.2390     0.4910    -0.9350 O.2   1 <1>  -0.5700 
 20 C       -6.4370     2.1590     0.6360 C.2   1 <1>   0.0550 
 21 O       -5.8990     2.8020     1.6730 O.3   1 <1>  -0.2800 
 22 C       -7.7750     2.4170     0.6270 C.2   1 <1>  -0.1500 
 23 C       -6.8450     3.4570     2.3070 C.2   1 <1>  -0.0100 
 24 C       -8.0370     3.2610     1.7070 C.2   1 <1>  -0.1500 
 25 H       -2.0540    -0.0350    -2.5470 H     1 <1>   0.0800 
 26 H       -3.3580     1.0240    -2.9940 H     1 <1>   0.0800 
 27 H       -3.3320     3.4430    -2.1030 H     1 <1>   0.0800 
 28 H       -2.0460     3.9340    -1.0490 H     1 <1>   0.0800 
 29 H        1.0740     3.5470    -3.3040 H     1 <1>   0.1500 
 30 H       -2.7820    -0.0480    -0.2270 H     1 <1>   0.0800 
 31 H       -4.0990    -0.5220    -1.2540 H     1 <1>   0.0800 
 32 H       -4.1650     3.4800     0.1420 H     1 <1>   0.0800 
 33 H       -2.8590     2.4960     0.7300 H     1 <1>   0.0800 
 34 H        1.1240     4.7200     1.4640 H     1 <1>   0.1500 
 35 H        2.4050     5.4640    -2.5310 H     1 <1>   0.1500 
 36 H        1.1690     1.4370     1.5220 H     1 <1>   0.0800 
 37 H        0.0370     0.7610     0.3580 H     1 <1>   0.0800 
 38 H        2.4250     6.0640    -0.1440 H     1 <1>   0.1500 
 39 H       -0.6420     1.4890     3.2290 H     1 <1>   0.0800 
 40 H       -0.4040    -0.1360     2.6360 H     1 <1>   0.0800 
 41 H       -1.7590     0.8010     2.0600 H     1 <1>   0.0800 
 42 H       -8.5020     2.0420    -0.0720 H     1 <1>   0.1500 
 43 H       -6.5880     4.0370     3.1770 H     1 <1>   0.1500 
 44 H       -9.0010     3.6530     1.9800 H     1 <1>   0.1500 
@<TRIPOS>BOND
  1   1   2  2   
  2   2   3  am  
  3   2   4  1   
  4   3   5  1   
  5   3   6  1   
  6   4   7  ar  
  7   4   8  ar  
  8   5   9  1   
  9   5  25  1   
 10   5  26  1   
 11   6  10  1   
 12   6  27  1   
 13   6  28  1   
 14   7  11  1   
 15   7  12  ar  
 16   8  13  ar  
 17   8  29  1   
 18   9  14  1   
 19   9  30  1   
 20   9  31  1   
 21  10  14  1   
 22  10  32  1   
 23  10  33  1   
 24  11  15  1   
 25  12  16  ar  
 26  12  34  1   
 27  13  16  ar  
 28  13  35  1   
 29  14  17  am  
 30  15  18  1   
 31  15  36  1   
 32  15  37  1   
 33  16  38  1   
 34  17  19  2   
 35  17  20  1   
 36  18  39  1   
 37  18  40  1   
 38  18  41  1   
 39  20  21  1   
 40  20  22  2   
 41  21  23  1   
 42  22  24  1   
 43  22  42  1   
 44  23  24  2   
 45  23  43  1   
 46  24  44  1   
@<TRIPOS>SUBSTRUCTURE
  1 ****  10 GROUP 4 **** **** 0

# MOE 2024.06 (io_trps.svl 2023.06)
