@<TRIPOS>MOLECULE
NONAME
44 45 1 0 0 
SMALL
USER_CHARGES


@<TRIPOS>ATOM
  1 O       -0.5850    -1.9880    -1.7580 O.2   1 <1>  -0.5700 
  2 C       -0.9460    -1.8900    -0.6020 C.2   1 <1>   0.5440 
  3 N       -0.0130    -1.9250     0.4010 N.am  1 <1>  -0.7300 
  4 C       -2.3570    -1.7570    -0.2850 C.ar  1 <1>   0.0860 
  5 C        1.4600    -2.0420     0.2630 C.3   1 <1>   0.2200 
  6 C       -2.8020    -1.0390     0.8290 C.ar  1 <1>  -0.1500 
  7 C       -3.3290    -2.3520    -1.0930 C.ar  1 <1>  -0.1500 
  8 C        1.9990    -0.8570    -0.5530 C.3   1 <1>  -0.1600 
  9 C        1.8190    -3.4250    -0.3210 C.3   1 <1>  -0.1600 
 10 C       -4.1480    -0.9240     1.1250 C.ar  1 <1>  -0.1500 
 11 C       -4.6770    -2.2430    -0.8060 C.ar  1 <1>  -0.1500 
 12 C        3.4340    -0.4330    -0.1970 C.3   1 <1>  -0.1600 
 13 C        2.7550    -4.2470     0.5790 C.3   1 <1>  -0.1600 
 14 C       -5.0910    -1.5210     0.2990 C.ar  1 <1>   0.0830 
 15 C        4.5070    -1.5080    -0.4320 C.3   1 <1>  -0.1600 
 16 C        4.2500    -3.9420     0.3990 C.3   1 <1>  -0.1600 
 17 O       -6.4140    -1.4260     0.5570 O.3   1 <1>  -0.2320 
 18 C        4.6750    -2.5030     0.7330 C.3   1 <1>  -0.1600 
 19 C       -7.0600    -0.2890     0.8010 C.2   1 <1>   0.6590 
 20 O       -8.0410    -0.2750     1.4930 O.2   1 <1>  -0.5700 
 21 C       -6.5690     0.9840     0.1410 C.3   1 <1>  -0.1790 
 22 H       -0.3450    -2.0100     1.3610 H     1 <1>   0.3700 
 23 H        1.8650    -1.9630     1.2570 H     1 <1>   0.0800 
 24 H       -2.0820    -0.5580     1.4680 H     1 <1>   0.1500 
 25 H       -3.0100    -2.9080    -1.9590 H     1 <1>   0.1500 
 26 H        1.3680    -0.0040    -0.3770 H     1 <1>   0.0800 
 27 H        1.9380    -1.0810    -1.6040 H     1 <1>   0.0800 
 28 H        2.2540    -3.3250    -1.2990 H     1 <1>   0.0800 
 29 H        0.9160    -3.9960    -0.4510 H     1 <1>   0.0800 
 30 H       -4.4640    -0.3780     1.9970 H     1 <1>   0.1500 
 31 H       -5.4080    -2.7150    -1.4390 H     1 <1>   0.1500 
 32 H        3.4730    -0.0890     0.8220 H     1 <1>   0.0800 
 33 H        3.6760     0.4130    -0.8180 H     1 <1>   0.0800 
 34 H        2.6110    -5.2870     0.3380 H     1 <1>   0.0800 
 35 H        2.4760    -4.1270     1.6120 H     1 <1>   0.0800 
 36 H        5.4460    -0.9940    -0.5490 H     1 <1>   0.0800 
 37 H        4.3240    -2.0160    -1.3630 H     1 <1>   0.0800 
 38 H        4.5530    -4.1900    -0.6040 H     1 <1>   0.0800 
 39 H        4.7900    -4.6040     1.0550 H     1 <1>   0.0800 
 40 H        4.1750    -2.1620     1.6220 H     1 <1>   0.0800 
 41 H        5.7250    -2.5350     0.9720 H     1 <1>   0.0800 
 42 H       -6.3080     0.7900    -0.8830 H     1 <1>   0.0800 
 43 H       -5.7150     1.3680     0.6650 H     1 <1>   0.0800 
 44 H       -7.3490     1.7220     0.1650 H     1 <1>   0.0800 
@<TRIPOS>BOND
  1   1   2  2   
  2   2   3  am  
  3   2   4  1   
  4   3   5  1   
  5   3  22  1   
  6   4   6  ar  
  7   4   7  ar  
  8   5   8  1   
  9   5   9  1   
 10   5  23  1   
 11   6  10  ar  
 12   6  24  1   
 13   7  11  ar  
 14   7  25  1   
 15   8  12  1   
 16   8  26  1   
 17   8  27  1   
 18   9  13  1   
 19   9  28  1   
 20   9  29  1   
 21  10  14  ar  
 22  10  30  1   
 23  11  14  ar  
 24  11  31  1   
 25  12  15  1   
 26  12  32  1   
 27  12  33  1   
 28  13  16  1   
 29  13  34  1   
 30  13  35  1   
 31  14  17  1   
 32  15  18  1   
 33  15  36  1   
 34  15  37  1   
 35  16  18  1   
 36  16  38  1   
 37  16  39  1   
 38  17  19  1   
 39  18  40  1   
 40  18  41  1   
 41  19  20  2   
 42  19  21  1   
 43  21  42  1   
 44  21  43  1   
 45  21  44  1   
@<TRIPOS>SUBSTRUCTURE
  1 ****   2 GROUP 4 **** **** 0

# MOE 2024.06 (io_trps.svl 2023.06)
