@<TRIPOS>MOLECULE
NONAME
43 45 1 0 0 
SMALL
USER_CHARGES


@<TRIPOS>ATOM
  1 CL      -0.1710    -0.2100     0.0170 Cl    1 <1>  -0.1770 
  2 C       -0.3870    -1.8580    -0.5100 C.ar  1 <1>   0.1770 
  3 C       -1.6010    -2.4790    -0.2980 C.ar  1 <1>  -0.1500 
  4 C        0.6620    -2.5110    -1.1270 C.ar  1 <1>  -0.1500 
  5 C       -1.8060    -3.7980    -0.7110 C.ar  1 <1>   0.0860 
  6 C        0.4840    -3.8200    -1.5380 C.ar  1 <1>  -0.1500 
  7 C       -3.0740    -4.4800    -0.5120 C.2   1 <1>   0.5440 
  8 C       -0.7330    -4.4470    -1.3290 C.ar  1 <1>  -0.1500 
  9 O       -3.1390    -5.6940    -0.5080 O.2   1 <1>  -0.5700 
 10 N       -4.2300    -3.7760    -0.3340 N.am  1 <1>  -0.7300 
 11 C       -5.5650    -4.3900    -0.0850 C.3   1 <1>   0.1400 
 12 C       -6.6780    -3.3580     0.2630 C.3   1 <1>   0.1440 
 13 C       -8.0310    -4.0850     0.5170 C.ar  1 <1>  -0.1430 
 14 C       -6.2450    -2.6090     1.5570 C.3   1 <1>  -0.1600 
 15 C       -6.8330    -2.3990    -0.9540 C.3   1 <1>  -0.1600 
 16 C       -9.1700    -3.3590     0.8550 C.ar  1 <1>  -0.1500 
 17 C       -8.1730    -5.4710     0.4210 C.ar  1 <1>  -0.1500 
 18 C       -6.6960    -1.1490     1.6520 C.3   1 <1>   0.1200 
 19 C       -7.2320    -0.9630    -0.6070 C.3   1 <1>   0.1200 
 20 C      -10.3870    -3.9750     1.0870 C.ar  1 <1>  -0.1500 
 21 C       -9.3880    -6.0930     0.6520 C.ar  1 <1>  -0.1500 
 22 O       -6.4410    -0.5140     0.4430 O.3   1 <1>  -0.5600 
 23 C      -10.5000    -5.3460     0.9860 C.ar  1 <1>  -0.1500 
 24 H       -2.3810    -1.9300     0.1960 H     1 <1>   0.1500 
 25 H        1.5970    -2.0030    -1.2790 H     1 <1>   0.1500 
 26 H        1.2890    -4.3500    -2.0180 H     1 <1>   0.1500 
 27 H       -0.8620    -5.4680    -1.6500 H     1 <1>   0.1500 
 28 H       -4.2270    -2.7560    -0.3960 H     1 <1>   0.3700 
 29 H       -5.4620    -5.0920     0.7240 H     1 <1>   0.0800 
 30 H       -5.8470    -4.9370    -0.9690 H     1 <1>   0.0800 
 31 H       -5.1760    -2.5890     1.6530 H     1 <1>   0.0800 
 32 H       -6.6050    -3.1440     2.4180 H     1 <1>   0.0800 
 33 H       -7.5540    -2.8070    -1.6410 H     1 <1>   0.0800 
 34 H       -5.9160    -2.3220    -1.5050 H     1 <1>   0.0800 
 35 H       -9.1410    -2.2950     0.9470 H     1 <1>   0.1500 
 36 H       -7.3550    -6.1190     0.1660 H     1 <1>   0.1500 
 37 H       -6.1330    -0.6370     2.4130 H     1 <1>   0.0800 
 38 H       -7.7400    -1.0530     1.8880 H     1 <1>   0.0800 
 39 H       -8.2670    -0.8760    -0.3310 H     1 <1>   0.0800 
 40 H       -7.0550    -0.3160    -1.4490 H     1 <1>   0.0800 
 41 H      -11.2490    -3.3850     1.3470 H     1 <1>   0.1500 
 42 H       -9.4670    -7.1630     0.5710 H     1 <1>   0.1500 
 43 H      -11.4450    -5.8290     1.1650 H     1 <1>   0.1500 
@<TRIPOS>BOND
  1   1   2  1   
  2   2   3  ar  
  3   2   4  ar  
  4   3   5  ar  
  5   3  24  1   
  6   4   6  ar  
  7   4  25  1   
  8   5   7  1   
  9   5   8  ar  
 10   6   8  ar  
 11   6  26  1   
 12   7   9  2   
 13   7  10  am  
 14   8  27  1   
 15  10  11  1   
 16  10  28  1   
 17  11  12  1   
 18  11  29  1   
 19  11  30  1   
 20  12  13  1   
 21  12  14  1   
 22  12  15  1   
 23  13  16  ar  
 24  13  17  ar  
 25  14  18  1   
 26  14  31  1   
 27  14  32  1   
 28  15  19  1   
 29  15  33  1   
 30  15  34  1   
 31  16  20  ar  
 32  16  35  1   
 33  17  21  ar  
 34  17  36  1   
 35  18  22  1   
 36  18  37  1   
 37  18  38  1   
 38  19  22  1   
 39  19  39  1   
 40  19  40  1   
 41  20  23  ar  
 42  20  41  1   
 43  21  23  ar  
 44  21  42  1   
 45  23  43  1   
@<TRIPOS>SUBSTRUCTURE
  1 ****  10 GROUP 4 **** **** 0

# MOE 2024.06 (io_trps.svl 2023.06)
