@<TRIPOS>MOLECULE
NONAME
44 47 1 0 0 
SMALL
USER_CHARGES


@<TRIPOS>ATOM
  1 N       -0.0570    -0.0400     0.2240 N.2   1 <1>  -0.6290 
  2 C       -0.8810    -1.1320    -0.0330 C.ar  1 <1>   0.1790 
  3 C        1.2000     0.0760     0.1750 C.2   1 <1>   0.3280 
  4 C       -0.5130    -2.2610    -0.7860 C.ar  1 <1>   0.1000 
  5 C       -2.1830    -1.0360     0.4350 C.ar  1 <1>  -0.1500 
  6 C        2.3230    -0.9560    -0.0710 C.3   1 <1>  -0.0190 
  7 C        1.7410     1.4950     0.3360 C.3   1 <1>  -0.0990 
  8 N        0.7820    -2.4950    -1.2370 N.pl3 1 <1>  -0.8690 
  9 C       -1.4810    -3.2160    -1.0840 C.ar  1 <1>  -0.1500 
 10 C       -3.1270    -2.0070     0.1570 C.ar  1 <1>  -0.1500 
 11 C        1.9040    -2.4440    -0.2830 C.3   1 <1>   0.3690 
 12 C        3.4140    -0.7950     1.0280 C.3   1 <1>  -0.1600 
 13 C        2.8190     1.6100     1.4160 C.3   1 <1>  -0.1600 
 14 C       -2.7750    -3.0980    -0.6150 C.ar  1 <1>  -0.1500 
 15 C        3.0410    -3.2350    -0.9780 C.3   1 <1>  -0.1600 
 16 C        1.5420    -3.1910     1.0310 C.3   1 <1>  -0.1600 
 17 C        3.9570     0.6340     1.1260 C.3   1 <1>  -0.1600 
 18 C        2.7320    -4.7310    -1.1920 C.3   1 <1>  -0.1600 
 19 C        1.2150    -4.6840     0.8350 C.3   1 <1>  -0.1600 
 20 C        2.3640    -5.4140     0.1300 C.3   1 <1>  -0.1600 
 21 H       -2.4540    -0.1740     1.0160 H     1 <1>   0.1500 
 22 H        2.7730    -0.6510    -0.9980 H     1 <1>   0.0800 
 23 H        0.9320     2.1630     0.5760 H     1 <1>   0.0800 
 24 H        2.1450     1.8100    -0.6090 H     1 <1>   0.0800 
 25 H        0.8660    -3.3480    -1.7890 H     1 <1>   0.4000 
 26 H       -1.2120    -4.0650    -1.6820 H     1 <1>   0.1500 
 27 H       -4.1310    -1.9080     0.5310 H     1 <1>   0.1500 
 28 H        4.2460    -1.4490     0.8480 H     1 <1>   0.0800 
 29 H        2.9970    -1.0490     1.9870 H     1 <1>   0.0800 
 30 H        2.3840     1.3890     2.3760 H     1 <1>   0.0800 
 31 H        3.1980     2.6170     1.4450 H     1 <1>   0.0800 
 32 H       -3.5060    -3.8520    -0.8480 H     1 <1>   0.1500 
 33 H        3.9330    -3.1830    -0.3850 H     1 <1>   0.0800 
 34 H        3.2660    -2.7790    -1.9260 H     1 <1>   0.0800 
 35 H        0.7270    -2.6980     1.5290 H     1 <1>   0.0800 
 36 H        2.3790    -3.1530     1.7010 H     1 <1>   0.0800 
 37 H        4.4440     0.9030     0.2050 H     1 <1>   0.0800 
 38 H        4.6870     0.6900     1.9160 H     1 <1>   0.0800 
 39 H        3.5970    -5.2160    -1.6130 H     1 <1>   0.0800 
 40 H        1.9260    -4.8510    -1.8940 H     1 <1>   0.0800 
 41 H        0.3140    -4.7910     0.2590 H     1 <1>   0.0800 
 42 H        1.0370    -5.1380     1.7940 H     1 <1>   0.0800 
 43 H        3.2250    -5.4250     0.7760 H     1 <1>   0.0800 
 44 H        2.0810    -6.4360    -0.0570 H     1 <1>   0.0800 
@<TRIPOS>BOND
  1   1   2  1   
  2   1   3  2   
  3   2   4  ar  
  4   2   5  ar  
  5   3   6  1   
  6   3   7  1   
  7   4   8  1   
  8   4   9  ar  
  9   5  10  ar  
 10   5  21  1   
 11   6  11  1   
 12   6  12  1   
 13   6  22  1   
 14   7  13  1   
 15   7  23  1   
 16   7  24  1   
 17   8  11  1   
 18   8  25  1   
 19   9  14  ar  
 20   9  26  1   
 21  10  14  ar  
 22  10  27  1   
 23  11  15  1   
 24  11  16  1   
 25  12  17  1   
 26  12  28  1   
 27  12  29  1   
 28  13  17  1   
 29  13  30  1   
 30  13  31  1   
 31  14  32  1   
 32  15  18  1   
 33  15  33  1   
 34  15  34  1   
 35  16  19  1   
 36  16  35  1   
 37  16  36  1   
 38  17  37  1   
 39  17  38  1   
 40  18  20  1   
 41  18  39  1   
 42  18  40  1   
 43  19  20  1   
 44  19  41  1   
 45  19  42  1   
 46  20  43  1   
 47  20  44  1   
@<TRIPOS>SUBSTRUCTURE
  1 ****  11 GROUP 4 **** **** 0

# MOE 2024.06 (io_trps.svl 2023.06)
