@<TRIPOS>MOLECULE
NONAME
35 38 1 0 0 
SMALL
USER_CHARGES


@<TRIPOS>ATOM
  1 O       -0.7790    -0.2820     0.1480 O.2   1 <1>  -0.5700 
  2 C       -0.9030    -1.4700    -0.0300 C.2   1 <1>   0.5690 
  3 N       -1.5150    -2.3300     0.8670 N.am  1 <1>  -0.6600 
  4 C       -0.3630    -2.1590    -1.3030 C.3   1 <1>   0.1190 
  5 C       -1.3700    -3.7870     0.5400 C.3   1 <1>   0.3580 
  6 C       -2.2080    -1.9100     2.1100 C.3   1 <1>   0.0600 
  7 C       -1.5620    -3.0060    -1.7740 C.2   1 <1>  -0.2880 
  8 C        0.6210    -3.3000    -0.9180 C.3   1 <1>  -0.0190 
  9 C       -2.0360    -3.8550    -0.8440 C.2   1 <1>  -0.2880 
 10 C        0.1700    -3.9000     0.4210 C.3   1 <1>  -0.0190 
 11 C        2.1060    -3.4240    -0.7340 C.2   1 <1>   0.5690 
 12 C        1.1400    -5.0350     0.5160 C.2   1 <1>   0.5690 
 13 O        2.9040    -2.6370    -1.1690 O.2   1 <1>  -0.5700 
 14 N        2.3400    -4.5960    -0.0270 N.am  1 <1>  -0.2370 
 15 O        0.8740    -6.1020     1.0040 O.2   1 <1>  -0.5700 
 16 C        3.5920    -5.2340     0.1220 C.ar  1 <1>   0.1170 
 17 C        4.7330    -4.5010     0.4360 C.ar  1 <1>  -0.1500 
 18 C        3.7170    -6.6100    -0.0420 C.ar  1 <1>  -0.1500 
 19 C        5.9600    -5.1230     0.5820 C.ar  1 <1>  -0.1500 
 20 C        4.9420    -7.2360     0.1040 C.ar  1 <1>  -0.1500 
 21 C        6.0660    -6.4930     0.4160 C.ar  1 <1>  -0.1500 
 22 H        0.0080    -1.4790    -2.0480 H     1 <1>   0.0800 
 23 H       -1.8080    -4.4210     1.2930 H     1 <1>   0.0800 
 24 H       -2.2060    -0.8350     2.1880 H     1 <1>   0.0800 
 25 H       -1.7050    -2.3210     2.9680 H     1 <1>   0.0800 
 26 H       -3.2270    -2.2530     2.0910 H     1 <1>   0.0800 
 27 H       -1.9070    -2.8680    -2.7860 H     1 <1>   0.1500 
 28 H        0.4770    -4.0420    -1.6900 H     1 <1>   0.0800 
 29 H       -2.8480    -4.5530    -0.9540 H     1 <1>   0.1500 
 30 H        0.5430    -3.2800     1.2240 H     1 <1>   0.0800 
 31 H        4.6670    -3.4350     0.5660 H     1 <1>   0.1500 
 32 H        2.8510    -7.2020    -0.2830 H     1 <1>   0.1500 
 33 H        6.8330    -4.5410     0.8240 H     1 <1>   0.1500 
 34 H        5.0210    -8.3020    -0.0250 H     1 <1>   0.1500 
 35 H        7.0200    -6.9780     0.5300 H     1 <1>   0.1500 
@<TRIPOS>BOND
  1   1   2  2   
  2   2   3  am  
  3   2   4  1   
  4   3   5  1   
  5   3   6  1   
  6   4   7  1   
  7   4   8  1   
  8   4  22  1   
  9   5   9  1   
 10   5  10  1   
 11   5  23  1   
 12   6  24  1   
 13   6  25  1   
 14   6  26  1   
 15   7   9  2   
 16   7  27  1   
 17   8  10  1   
 18   8  11  1   
 19   8  28  1   
 20   9  29  1   
 21  10  12  1   
 22  10  30  1   
 23  11  13  2   
 24  11  14  am  
 25  12  14  am  
 26  12  15  2   
 27  14  16  1   
 28  16  17  ar  
 29  16  18  ar  
 30  17  19  ar  
 31  17  31  1   
 32  18  20  ar  
 33  18  32  1   
 34  19  21  ar  
 35  19  33  1   
 36  20  21  ar  
 37  20  34  1   
 38  21  35  1   
@<TRIPOS>SUBSTRUCTURE
  1 ****  14 GROUP 4 **** **** 0

# MOE 2024.06 (io_trps.svl 2023.06)
