@<TRIPOS>MOLECULE
NONAME
48 50 1 0 0 
SMALL
USER_CHARGES


@<TRIPOS>ATOM
  1 O       -2.6090    -1.2300    -0.6950 O.2   1 <1>  -0.5700 
  2 C       -1.5980    -1.6600    -0.2110 C.2   1 <1>   0.6590 
  3 O       -1.1010    -1.1110     0.8950 O.3   1 <1>  -0.4300 
  4 C       -0.9040    -2.8520    -0.8580 C.3   1 <1>  -0.0990 
  5 C        0.1030    -1.4690     1.5410 C.3   1 <1>   0.0400 
  6 C       -1.3800    -4.1850    -0.2540 C.3   1 <1>  -0.1600 
  7 C       -0.7410    -5.3910    -0.9620 C.3   1 <1>  -0.0990 
  8 C       -1.1870    -6.7020    -0.3450 C.2   1 <1>   0.5690 
  9 O       -0.4590    -7.2600     0.4320 O.2   1 <1>  -0.5700 
 10 N       -2.4310    -7.1780    -0.6750 N.am  1 <1>  -0.5470 
 11 C       -3.0500    -8.3250    -0.2360 C.ar  1 <1>   0.1170 
 12 C       -4.3270    -8.2840     0.3570 C.ar  1 <1>  -0.1430 
 13 C       -2.4530    -9.5850    -0.3660 C.ar  1 <1>  -0.1430 
 14 C       -4.9340    -9.4540     0.7870 C.ar  1 <1>   0.2180 
 15 C       -5.0270    -6.9300     0.5280 C.3   1 <1>  -0.0170 
 16 C       -3.0860   -10.7050     0.0730 C.ar  1 <1>   0.2180 
 17 C       -1.1110    -9.9410    -0.9770 C.3   1 <1>  -0.0170 
 18 N       -4.3010   -10.6430     0.6460 N.ar  1 <1>  -0.1790 
 19 C       -6.3140    -9.4820     1.4420 C.3   1 <1>  -0.0170 
 20 C       -6.2000    -6.9730     1.5130 C.3   1 <1>  -0.1600 
 21 C       -2.2810   -11.9600    -0.1700 C.3   1 <1>  -0.0170 
 22 C       -1.1570   -11.4750    -1.1030 C.3   1 <1>  -0.1600 
 23 C       -7.0960    -8.1810     1.2350 C.3   1 <1>  -0.1600 
 24 H        0.1620    -2.7560    -0.7790 H     1 <1>   0.0800 
 25 H       -1.1480    -2.8350    -1.9050 H     1 <1>   0.0800 
 26 H        0.2070    -0.8510     2.4160 H     1 <1>   0.0800 
 27 H        0.9280    -1.2900     0.8740 H     1 <1>   0.0800 
 28 H        0.0590    -2.5030     1.8320 H     1 <1>   0.0800 
 29 H       -2.4520    -4.2420    -0.3380 H     1 <1>   0.0800 
 30 H       -1.1310    -4.2190     0.7930 H     1 <1>   0.0800 
 31 H        0.3310    -5.3300    -0.8830 H     1 <1>   0.0800 
 32 H       -0.9940    -5.3890    -2.0070 H     1 <1>   0.0800 
 33 H       -3.0070    -6.5120    -1.1900 H     1 <1>   0.3700 
 34 H       -5.3900    -6.6050    -0.4330 H     1 <1>   0.0800 
 35 H       -4.3270    -6.1910     0.8820 H     1 <1>   0.0800 
 36 H       -0.3150    -9.6540    -0.3120 H     1 <1>   0.0800 
 37 H       -0.9670    -9.4680    -1.9340 H     1 <1>   0.0800 
 38 H       -4.7480   -11.5030     0.9740 H     1 <1>   0.4570 
 39 H       -6.1870    -9.6450     2.4980 H     1 <1>   0.0800 
 40 H       -6.8980   -10.2960     1.0470 H     1 <1>   0.0800 
 41 H       -6.7730    -6.0650     1.4260 H     1 <1>   0.0800 
 42 H       -5.8230    -7.0260     2.5210 H     1 <1>   0.0800 
 43 H       -2.8640   -12.7320    -0.6410 H     1 <1>   0.0800 
 44 H       -1.8710   -12.3190     0.7580 H     1 <1>   0.0800 
 45 H       -0.2080   -11.9190    -0.8540 H     1 <1>   0.0800 
 46 H       -1.4020   -11.7330    -2.1200 H     1 <1>   0.0800 
 47 H       -7.9490    -8.1620     1.8930 H     1 <1>   0.0800 
 48 H       -7.4610    -8.1300     0.2230 H     1 <1>   0.0800 
@<TRIPOS>BOND
  1   1   2  2   
  2   2   3  1   
  3   2   4  1   
  4   3   5  1   
  5   4   6  1   
  6   4  24  1   
  7   4  25  1   
  8   5  26  1   
  9   5  27  1   
 10   5  28  1   
 11   6   7  1   
 12   6  29  1   
 13   6  30  1   
 14   7   8  1   
 15   7  31  1   
 16   7  32  1   
 17   8   9  2   
 18   8  10  am  
 19  10  11  1   
 20  10  33  1   
 21  11  12  ar  
 22  11  13  ar  
 23  12  14  ar  
 24  12  15  1   
 25  13  16  ar  
 26  13  17  1   
 27  14  18  ar  
 28  14  19  1   
 29  15  20  1   
 30  15  34  1   
 31  15  35  1   
 32  16  18  ar  
 33  16  21  1   
 34  17  22  1   
 35  17  36  1   
 36  17  37  1   
 37  18  38  1   
 38  19  23  1   
 39  19  39  1   
 40  19  40  1   
 41  20  23  1   
 42  20  41  1   
 43  20  42  1   
 44  21  22  1   
 45  21  43  1   
 46  21  44  1   
 47  22  45  1   
 48  22  46  1   
 49  23  47  1   
 50  23  48  1   
@<TRIPOS>SUBSTRUCTURE
  1 ****  10 GROUP 4 **** **** 0

# MOE 2024.06 (io_trps.svl 2023.06)
