@<TRIPOS>MOLECULE
NONAME
39 40 1 0 0 
SMALL
USER_CHARGES


@<TRIPOS>ATOM
  1 O       -0.1870     0.8900     0.7150 O.2   1 <1>  -0.5700 
  2 C        0.2370     1.6910    -0.0930 C.2   1 <1>   0.7800 
  3 O       -0.5720     2.6100    -0.6170 O.3   1 <1>  -0.4300 
  4 N        1.5210     1.7330    -0.5400 N.am  1 <1>  -0.5470 
  5 C       -1.9350     2.6760    -0.2460 C.3   1 <1>   0.0400 
  6 C        2.6450     0.9510    -0.2290 C.ar  1 <1>   0.1170 
  7 C        3.7120     0.9280    -1.1200 C.ar  1 <1>  -0.1500 
  8 C        2.7470     0.2030     0.9410 C.ar  1 <1>  -0.1500 
  9 C        4.8410     0.1740    -0.8560 C.ar  1 <1>  -0.1500 
 10 C        3.8730    -0.5540     1.2100 C.ar  1 <1>  -0.1500 
 11 C        4.9290    -0.5770     0.3040 C.ar  1 <1>   0.0830 
 12 O        6.0630    -1.3030     0.4790 O.3   1 <1>  -0.3630 
 13 C        6.1630    -2.2470     1.5370 C.3   1 <1>   0.1810 
 14 C        7.4390    -3.0820     1.4370 C.2   1 <1>   0.5690 
 15 O        8.1660    -3.0900     2.4040 O.2   1 <1>  -0.5700 
 16 N        7.7370    -3.8210     0.3150 N.am  1 <1>  -0.6600 
 17 C        9.0120    -4.5910     0.2020 C.3   1 <1>   0.1400 
 18 C        6.8990    -3.8910    -0.9210 C.3   1 <1>   0.1400 
 19 C        8.7520    -6.0020    -0.3500 C.3   1 <1>   0.1200 
 20 C        6.7670    -5.3420    -1.4140 C.3   1 <1>   0.1200 
 21 O        8.0250    -5.9400    -1.5460 O.3   1 <1>  -0.5600 
 22 H        1.6510     2.4390    -1.2590 H     1 <1>   0.3700 
 23 H       -2.3970     3.4840    -0.7850 H     1 <1>   0.0800 
 24 H       -1.9990     2.8530     0.8140 H     1 <1>   0.0800 
 25 H       -2.4100     1.7430    -0.4960 H     1 <1>   0.0800 
 26 H        3.6610     1.5010    -2.0270 H     1 <1>   0.1500 
 27 H        1.9440     0.2120     1.6560 H     1 <1>   0.1500 
 28 H        5.6620     0.1610    -1.5510 H     1 <1>   0.1500 
 29 H        3.9060    -1.1100     2.1280 H     1 <1>   0.1500 
 30 H        5.3120    -2.9000     1.4960 H     1 <1>   0.0800 
 31 H        6.1630    -1.7070     2.4660 H     1 <1>   0.0800 
 32 H        9.4930    -4.6710     1.1610 H     1 <1>   0.0800 
 33 H        9.6810    -4.0700    -0.4600 H     1 <1>   0.0800 
 34 H        7.3610    -3.2980    -1.6920 H     1 <1>   0.0800 
 35 H        5.9150    -3.4970    -0.7460 H     1 <1>   0.0800 
 36 H        8.1990    -6.5900     0.3620 H     1 <1>   0.0800 
 37 H        9.6840    -6.4960    -0.5570 H     1 <1>   0.0800 
 38 H        6.2910    -5.3640    -2.3780 H     1 <1>   0.0800 
 39 H        6.1800    -5.9240    -0.7250 H     1 <1>   0.0800 
@<TRIPOS>BOND
  1   1   2  2   
  2   2   3  1   
  3   2   4  am  
  4   3   5  1   
  5   4   6  1   
  6   4  22  1   
  7   5  23  1   
  8   5  24  1   
  9   5  25  1   
 10   6   7  ar  
 11   6   8  ar  
 12   7   9  ar  
 13   7  26  1   
 14   8  10  ar  
 15   8  27  1   
 16   9  11  ar  
 17   9  28  1   
 18  10  11  ar  
 19  10  29  1   
 20  11  12  1   
 21  12  13  1   
 22  13  14  1   
 23  13  30  1   
 24  13  31  1   
 25  14  15  2   
 26  14  16  am  
 27  16  17  1   
 28  16  18  1   
 29  17  19  1   
 30  17  32  1   
 31  17  33  1   
 32  18  20  1   
 33  18  34  1   
 34  18  35  1   
 35  19  21  1   
 36  19  36  1   
 37  19  37  1   
 38  20  21  1   
 39  20  38  1   
 40  20  39  1   
@<TRIPOS>SUBSTRUCTURE
  1 ****  11 GROUP 4 **** **** 0

# MOE 2024.06 (io_trps.svl 2023.06)
