@<TRIPOS>MOLECULE
NONAME
45 48 1 0 0 
SMALL
USER_CHARGES


@<TRIPOS>ATOM
  1 O        0.2890     0.1960    -0.8910 O.2   1 <1>  -0.5700 
  2 C        0.7350     1.1830    -0.3370 C.2   1 <1>   0.7150 
  3 N       -0.1070     2.2180    -0.0010 N.am  1 <1>  -0.5470 
  4 C        2.1450     1.3100    -0.0300 C.2   1 <1>   0.0550 
  5 C       -1.5040     2.3530    -0.0940 C.ar  1 <1>   0.1170 
  6 O        3.0280     0.4160    -0.4690 O.3   1 <1>  -0.2800 
  7 C        2.8210     2.2520     0.6910 C.2   1 <1>  -0.1500 
  8 C       -2.0430     3.6210    -0.2000 C.ar  1 <1>  -0.1500 
  9 C       -2.3710     1.2450    -0.0560 C.ar  1 <1>  -0.1500 
 10 C        4.2270     0.7570    -0.0570 C.2   1 <1>  -0.0100 
 11 C        4.1690     1.8920     0.6700 C.2   1 <1>  -0.1500 
 12 C       -3.4220     3.7880    -0.2750 C.ar  1 <1>   0.2270 
 13 C       -3.7370     1.3970    -0.1320 C.ar  1 <1>  -0.1500 
 14 N       -4.1450     4.9380    -0.3800 N.2   1 <1>  -0.5650 
 15 C       -4.2560     2.6870    -0.2440 C.ar  1 <1>  -0.1520 
 16 C       -5.3710     4.5360    -0.4090 C.2   1 <1>   0.0070 
 17 N       -5.5150     3.1890    -0.3380 N.pl3 1 <1>   0.0480 
 18 C       -6.5970     5.4320    -0.5330 C.3   1 <1>   0.2900 
 19 C       -6.8050     2.4780    -0.3170 C.3   1 <1>   0.0960 
 20 N       -7.8490     4.7220    -0.1600 N.3   1 <1>  -0.8100 
 21 C       -7.9240     3.4020    -0.8200 C.3   1 <1>   0.1100 
 22 C       -9.0220     5.5670    -0.4580 C.3   1 <1>   0.1100 
 23 C      -10.2300     5.1620     0.3890 C.3   1 <1>   0.1200 
 24 O      -11.3000     5.9840     0.0440 O.3   1 <1>  -0.5600 
 25 C      -12.4500     5.7540     0.7910 C.3   1 <1>   0.0400 
 26 H        0.3750     3.0620     0.2920 H     1 <1>   0.3700 
 27 H        2.4310     3.1170     1.1970 H     1 <1>   0.1500 
 28 H       -1.4300     4.5000    -0.2310 H     1 <1>   0.1500 
 29 H       -1.9580     0.2570     0.0370 H     1 <1>   0.1500 
 30 H        5.0660     0.1380    -0.3250 H     1 <1>   0.1500 
 31 H        4.9750     2.4240     1.1440 H     1 <1>   0.1500 
 32 H       -4.3920     0.5450    -0.1050 H     1 <1>   0.1500 
 33 H       -6.6620     5.7780    -1.5500 H     1 <1>   0.0800 
 34 H       -6.4650     6.2880     0.1070 H     1 <1>   0.0800 
 35 H       -7.0120     2.1790     0.6940 H     1 <1>   0.0800 
 36 H       -6.7380     1.6030    -0.9350 H     1 <1>   0.0800 
 37 H       -8.8700     2.9350    -0.6130 H     1 <1>   0.0800 
 38 H       -7.8400     3.5230    -1.8880 H     1 <1>   0.0800 
 39 H       -9.2690     5.5030    -1.5040 H     1 <1>   0.0800 
 40 H       -8.7930     6.5920    -0.2220 H     1 <1>   0.0800 
 41 H      -10.0070     5.3010     1.4330 H     1 <1>   0.0800 
 42 H      -10.5120     4.1430     0.1980 H     1 <1>   0.0800 
 43 H      -13.2130     6.4310     0.4480 H     1 <1>   0.0800 
 44 H      -12.2410     5.9400     1.8310 H     1 <1>   0.0800 
 45 H      -12.7740     4.7380     0.6440 H     1 <1>   0.0800 
@<TRIPOS>BOND
  1   1   2  2   
  2   2   3  am  
  3   2   4  1   
  4   3   5  1   
  5   3  26  1   
  6   4   6  1   
  7   4   7  2   
  8   5   8  ar  
  9   5   9  ar  
 10   6  10  1   
 11   7  11  1   
 12   7  27  1   
 13   8  12  ar  
 14   8  28  1   
 15   9  13  ar  
 16   9  29  1   
 17  10  11  2   
 18  10  30  1   
 19  11  31  1   
 20  12  14  1   
 21  12  15  ar  
 22  13  15  ar  
 23  13  32  1   
 24  14  16  2   
 25  15  17  1   
 26  16  17  1   
 27  16  18  1   
 28  17  19  1   
 29  18  20  1   
 30  18  33  1   
 31  18  34  1   
 32  19  21  1   
 33  19  35  1   
 34  19  36  1   
 35  20  21  1   
 36  20  22  1   
 37  21  37  1   
 38  21  38  1   
 39  22  23  1   
 40  22  39  1   
 41  22  40  1   
 42  23  24  1   
 43  23  41  1   
 44  23  42  1   
 45  24  25  1   
 46  25  43  1   
 47  25  44  1   
 48  25  45  1   
@<TRIPOS>SUBSTRUCTURE
  1 ****  12 GROUP 4 **** **** 0

# MOE 2024.06 (io_trps.svl 2023.06)
