@<TRIPOS>MOLECULE
NONAME
29 30 1 0 0 
SMALL
USER_CHARGES


@<TRIPOS>ATOM
  1 O       -0.6190     0.2150    -1.0730 O.2   1 <1>  -0.5700 
  2 C       -1.6550    -0.2220    -0.6490 C.2   1 <1>   0.5690 
  3 N       -1.9710    -1.5290    -0.4330 N.am  1 <1>  -0.4200 
  4 C       -2.8080     0.6840    -0.3140 C.3   1 <1>  -0.0990 
  5 C       -1.2700    -2.6670    -0.7720 C.2   1 <1>   0.7800 
  6 C       -3.3930    -1.6400    -0.0590 C.3   1 <1>   0.1400 
  7 C       -3.7860    -0.2370     0.4260 C.3   1 <1>   0.0630 
  8 O       -1.8590    -3.6490    -1.1680 O.2   1 <1>  -0.5700 
  9 O        0.0500    -2.7800    -0.6010 O.3   1 <1>  -0.4300 
 10 C       -5.2600     0.1370     0.2340 C.ar  1 <1>  -0.1440 
 11 C        0.8470    -1.9830     0.2530 C.3   1 <1>   0.0400 
 12 C       -5.6380     1.4750     0.2270 C.ar  1 <1>  -0.1500 
 13 C       -6.2480    -0.8310     0.0890 C.ar  1 <1>  -0.1500 
 14 C       -6.9630     1.8370     0.0600 C.ar  1 <1>  -0.1500 
 15 C       -7.5740    -0.4690    -0.0780 C.ar  1 <1>  -0.1500 
 16 C       -7.9330     0.8650    -0.0950 C.ar  1 <1>  -0.1500 
 17 H       -3.2310     1.0480    -1.2330 H     1 <1>   0.0800 
 18 H       -2.4870     1.5080     0.2970 H     1 <1>   0.0800 
 19 H       -3.5330    -2.3800     0.7100 H     1 <1>   0.0800 
 20 H       -3.9550    -1.9160    -0.9360 H     1 <1>   0.0800 
 21 H       -3.5690    -0.1870     1.4790 H     1 <1>   0.0800 
 22 H        1.6590    -2.5900     0.6110 H     1 <1>   0.0800 
 23 H        0.2580    -1.6350     1.0820 H     1 <1>   0.0800 
 24 H        1.2410    -1.1570    -0.3110 H     1 <1>   0.0800 
 25 H       -4.9090     2.2540     0.3550 H     1 <1>   0.1500 
 26 H       -6.0140    -1.8800     0.1080 H     1 <1>   0.1500 
 27 H       -7.2410     2.8770     0.0530 H     1 <1>   0.1500 
 28 H       -8.3280    -1.2280    -0.1930 H     1 <1>   0.1500 
 29 H       -8.9640     1.1460    -0.2260 H     1 <1>   0.1500 
@<TRIPOS>BOND
  1   1   2  2   
  2   2   3  am  
  3   2   4  1   
  4   3   5  am  
  5   3   6  1   
  6   4   7  1   
  7   4  17  1   
  8   4  18  1   
  9   5   8  2   
 10   5   9  1   
 11   6   7  1   
 12   6  19  1   
 13   6  20  1   
 14   7  10  1   
 15   7  21  1   
 16   9  11  1   
 17  10  12  ar  
 18  10  13  ar  
 19  11  22  1   
 20  11  23  1   
 21  11  24  1   
 22  12  14  ar  
 23  12  25  1   
 24  13  15  ar  
 25  13  26  1   
 26  14  16  ar  
 27  14  27  1   
 28  15  16  ar  
 29  15  28  1   
 30  16  29  1   
@<TRIPOS>SUBSTRUCTURE
  1 ****   7 GROUP 4 **** **** 0

# MOE 2024.06 (io_trps.svl 2023.06)
