@<TRIPOS>MOLECULE
NONAME
46 49 1 0 0 
SMALL
USER_CHARGES


@<TRIPOS>ATOM
  1 BR      -1.4830     0.6080     2.1270 Br    1 <1>  -0.1110 
  2 C       -2.4290     1.2170     0.5600 C.ar  1 <1>   0.1110 
  3 C       -1.8860     2.2220    -0.2290 C.ar  1 <1>   0.0820 
  4 C       -3.6400     0.6180     0.2740 C.ar  1 <1>  -0.1500 
  5 O       -0.6900     2.7540     0.1320 O.3   1 <1>  -0.3630 
  6 C       -2.6040     2.6270    -1.3500 C.ar  1 <1>  -0.1500 
  7 C       -4.3540     1.0390    -0.8400 C.ar  1 <1>  -0.1430 
  8 C       -0.0320     3.7130    -0.6670 C.3   1 <1>   0.0400 
  9 C       -3.8250     2.0390    -1.6490 C.ar  1 <1>  -0.1500 
 10 C       -5.7000     0.4190    -1.1640 C.3   1 <1>   0.4870 
 11 N       -6.6990     0.9040    -0.1730 N.4   1 <1>  -0.9590 
 12 C       -8.0030     0.1610    -0.2960 C.3   1 <1>   0.3430 
 13 C       -6.8740     2.3910    -0.2500 C.3   1 <1>   0.3430 
 14 C       -9.1680     0.8250     0.4690 C.3   1 <1>   0.0580 
 15 C       -7.8920     2.9110     0.7870 C.3   1 <1>  -0.0800 
 16 C      -10.0450     1.5560    -0.5510 C.2   1 <1>  -0.0290 
 17 C       -8.6380     1.7920     1.5360 C.3   1 <1>  -0.1600 
 18 C       -8.9330     3.7490     0.0390 C.3   1 <1>   0.1400 
 19 N       -9.7910     2.8960    -0.8430 N.am  1 <1>  -0.4690 
 20 C      -11.0480     0.8930    -1.1930 C.2   1 <1>  -0.1500 
 21 C      -10.5100     3.5400    -1.8420 C.2   1 <1>   0.6160 
 22 C      -11.8290     1.5390    -2.1800 C.2   1 <1>  -0.1500 
 23 O      -10.2350     4.6920    -2.1520 O.2   1 <1>  -0.5700 
 24 C      -11.5530     2.8310    -2.4940 C.2   1 <1>  -0.1360 
 25 H       -3.9970    -0.1620     0.9230 H     1 <1>   0.1500 
 26 H       -2.2270     3.3960    -1.9990 H     1 <1>   0.1500 
 27 H        0.9040     3.9530    -0.1950 H     1 <1>   0.0800 
 28 H       -0.6430     4.5950    -0.7320 H     1 <1>   0.0800 
 29 H        0.1490     3.2930    -1.6410 H     1 <1>   0.0800 
 30 H       -4.3540     2.3730    -2.5260 H     1 <1>   0.1500 
 31 H       -5.6170    -0.6550    -1.1150 H     1 <1>   0.0800 
 32 H       -6.0020     0.6930    -2.1630 H     1 <1>   0.0800 
 33 H       -6.3070     0.7160     0.7570 H     1 <1>   0.4500 
 34 H       -7.8720    -0.8420     0.0760 H     1 <1>   0.0800 
 35 H       -8.2830     0.0890    -1.3350 H     1 <1>   0.0800 
 36 H       -7.2190     2.6520    -1.2390 H     1 <1>   0.0800 
 37 H       -5.9280     2.8840    -0.0930 H     1 <1>   0.0800 
 38 H       -9.7550     0.0550     0.9390 H     1 <1>   0.0800 
 39 H       -7.3860     3.5500     1.4900 H     1 <1>   0.0800 
 40 H       -7.9830     1.2830     2.2230 H     1 <1>   0.0800 
 41 H       -9.4580     2.2010     2.1040 H     1 <1>   0.0800 
 42 H       -8.4370     4.5050    -0.5470 H     1 <1>   0.0800 
 43 H       -9.5730     4.2540     0.7440 H     1 <1>   0.0800 
 44 H      -11.2810    -0.1370    -0.9810 H     1 <1>   0.1500 
 45 H      -12.6220     0.9920    -2.6620 H     1 <1>   0.1500 
 46 H      -12.1040     3.3730    -3.2390 H     1 <1>   0.1500 
@<TRIPOS>BOND
  1   1   2  1   
  2   2   3  ar  
  3   2   4  ar  
  4   3   5  1   
  5   3   6  ar  
  6   4   7  ar  
  7   4  25  1   
  8   5   8  1   
  9   6   9  ar  
 10   6  26  1   
 11   7   9  ar  
 12   7  10  1   
 13   8  27  1   
 14   8  28  1   
 15   8  29  1   
 16   9  30  1   
 17  10  11  1   
 18  10  31  1   
 19  10  32  1   
 20  11  12  1   
 21  11  13  1   
 22  11  33  1   
 23  12  14  1   
 24  12  34  1   
 25  12  35  1   
 26  13  15  1   
 27  13  36  1   
 28  13  37  1   
 29  14  16  1   
 30  14  17  1   
 31  14  38  1   
 32  15  17  1   
 33  15  18  1   
 34  15  39  1   
 35  16  19  1   
 36  16  20  2   
 37  17  40  1   
 38  17  41  1   
 39  18  19  1   
 40  18  42  1   
 41  18  43  1   
 42  19  21  am  
 43  20  22  1   
 44  20  44  1   
 45  21  23  2   
 46  21  24  1   
 47  22  24  2   
 48  22  45  1   
 49  24  46  1   
@<TRIPOS>SUBSTRUCTURE
  1 ****  13 GROUP 4 **** **** 0

# MOE 2024.06 (io_trps.svl 2023.06)
