@<TRIPOS>MOLECULE
NONAME
45 47 1 0 0 
SMALL
USER_CHARGES


@<TRIPOS>ATOM
  1 S        0.0160    -0.0940    -0.2240 S.o2  1 <1>   1.0900 
  2 O       -0.1650    -1.0850    -1.2610 O.2   1 <1>  -0.6500 
  3 O        0.1420    -0.4860     1.1640 O.2   1 <1>  -0.6500 
  4 C        1.4480     0.9090    -0.6490 C.3   1 <1>   0.0890 
  5 C       -1.3110     1.1130    -0.3510 C.3   1 <1>   0.0890 
  6 C        2.7720     0.1510    -0.6510 C.ar  1 <1>  -0.1440 
  7 C       -2.6950     0.5560    -0.0440 C.ar  1 <1>  -0.1440 
  8 C        3.3190    -0.3100     0.5350 C.ar  1 <1>  -0.1500 
  9 C        3.4450    -0.0880    -1.8390 C.ar  1 <1>  -0.1500 
 10 C       -3.6040     0.3270    -1.0660 C.ar  1 <1>  -0.1500 
 11 C       -3.0570     0.2730     1.2640 C.ar  1 <1>  -0.1500 
 12 C        4.5240    -0.9880     0.5330 C.ar  1 <1>  -0.1500 
 13 C        4.6520    -0.7640    -1.8330 C.ar  1 <1>  -0.1500 
 14 C       -4.8640    -0.1690    -0.7820 C.ar  1 <1>  -0.1500 
 15 C       -4.3170    -0.2230     1.5490 C.ar  1 <1>  -0.1500 
 16 C        5.2280    -1.2200    -0.6490 C.ar  1 <1>   0.0860 
 17 C       -5.2220    -0.4430     0.5260 C.ar  1 <1>  -0.1500 
 18 C        6.5050    -1.9110    -0.6620 C.2   1 <1>   0.5440 
 19 O        6.6960    -2.8110    -1.4570 O.2   1 <1>  -0.5700 
 20 N        7.5260    -1.5630     0.1950 N.am  1 <1>  -0.6600 
 21 C        7.6180    -0.2820     0.9310 C.3   1 <1>   0.1400 
 22 C        8.8290    -2.2630     0.1890 C.3   1 <1>   0.1400 
 23 C        9.1130    -0.0550     1.1240 C.3   1 <1>  -0.1600 
 24 C        9.7140    -1.4570     1.1340 C.3   1 <1>  -0.1600 
 25 H        1.5350     1.7180     0.0500 H     1 <1>   0.0800 
 26 H        1.3020     1.3380    -1.6210 H     1 <1>   0.0800 
 27 H       -1.3240     1.5240    -1.3420 H     1 <1>   0.0800 
 28 H       -1.1250     1.9210     0.3290 H     1 <1>   0.0800 
 29 H        2.8040    -0.1560     1.4700 H     1 <1>   0.1500 
 30 H        3.0360     0.2420    -2.7780 H     1 <1>   0.1500 
 31 H       -3.3400     0.5280    -2.0900 H     1 <1>   0.1500 
 32 H       -2.3590     0.4290     2.0700 H     1 <1>   0.1500 
 33 H        4.9290    -1.3550     1.4590 H     1 <1>   0.1500 
 34 H        5.1660    -0.9540    -2.7600 H     1 <1>   0.1500 
 35 H       -5.5660    -0.3450    -1.5780 H     1 <1>   0.1500 
 36 H       -4.5900    -0.4420     2.5660 H     1 <1>   0.1500 
 37 H       -6.2020    -0.8290     0.7480 H     1 <1>   0.1500 
 38 H        7.1330    -0.3890     1.8860 H     1 <1>   0.0800 
 39 H        7.1650     0.5220     0.3760 H     1 <1>   0.0800 
 40 H        9.2300    -2.2500    -0.8110 H     1 <1>   0.0800 
 41 H        8.7140    -3.2820     0.5160 H     1 <1>   0.0800 
 42 H        9.3220     0.4890     2.0280 H     1 <1>   0.0800 
 43 H        9.4930     0.4990     0.2840 H     1 <1>   0.0800 
 44 H       10.7430    -1.4660     0.8200 H     1 <1>   0.0800 
 45 H        9.6450    -1.8800     2.1210 H     1 <1>   0.0800 
@<TRIPOS>BOND
  1   1   2  2   
  2   1   3  2   
  3   1   4  1   
  4   1   5  1   
  5   4   6  1   
  6   4  25  1   
  7   4  26  1   
  8   5   7  1   
  9   5  27  1   
 10   5  28  1   
 11   6   8  ar  
 12   6   9  ar  
 13   7  10  ar  
 14   7  11  ar  
 15   8  12  ar  
 16   8  29  1   
 17   9  13  ar  
 18   9  30  1   
 19  10  14  ar  
 20  10  31  1   
 21  11  15  ar  
 22  11  32  1   
 23  12  16  ar  
 24  12  33  1   
 25  13  16  ar  
 26  13  34  1   
 27  14  17  ar  
 28  14  35  1   
 29  15  17  ar  
 30  15  36  1   
 31  16  18  1   
 32  17  37  1   
 33  18  19  2   
 34  18  20  am  
 35  20  21  1   
 36  20  22  1   
 37  21  23  1   
 38  21  38  1   
 39  21  39  1   
 40  22  24  1   
 41  22  40  1   
 42  22  41  1   
 43  23  24  1   
 44  23  42  1   
 45  23  43  1   
 46  24  44  1   
 47  24  45  1   
@<TRIPOS>SUBSTRUCTURE
  1 ****   6 GROUP 4 **** **** 0

# MOE 2024.06 (io_trps.svl 2023.06)
