@<TRIPOS>MOLECULE
NONAME
44 46 1 0 0 
SMALL
USER_CHARGES


@<TRIPOS>ATOM
  1 O       -0.1120    -1.4810     0.4740 O.2   1 <1>  -0.5700 
  2 C        0.5550    -2.4910     0.4810 C.2   1 <1>   0.6900 
  3 N        1.8910    -2.3850     0.6150 N.am  1 <1>  -0.7300 
  4 N       -0.0610    -3.6830     0.3630 N.am  1 <1>  -0.7300 
  5 C        2.8740    -3.2240    -0.0870 C.3   1 <1>   0.2200 
  6 C        0.2280    -4.8610     1.2080 C.3   1 <1>   0.1400 
  7 C        3.9430    -3.7040     0.9110 C.3   1 <1>  -0.1600 
  8 C        3.4930    -2.4140    -1.2290 C.3   1 <1>  -0.1600 
  9 C       -0.8850    -5.0320     2.2460 C.3   1 <1>   0.0210 
 10 C        5.3280    -3.9250     0.2710 C.3   1 <1>  -0.1600 
 11 C        4.4990    -3.2550    -2.0390 C.3   1 <1>  -0.1600 
 12 C       -2.2470    -5.1300     1.5820 C.2   1 <1>  -0.1810 
 13 C        5.2060    -4.3380    -1.2010 C.3   1 <1>  -0.1600 
 14 C       -2.7430    -6.2690     0.9080 C.ar  1 <1>   0.0000 
 15 C       -3.1920    -4.1640     1.5060 C.2   1 <1>  -0.3020 
 16 C       -4.0060    -5.9250     0.4370 C.ar  1 <1>  -0.1520 
 17 C       -2.2400    -7.5510     0.6540 C.ar  1 <1>  -0.1500 
 18 N       -4.2700    -4.6330     0.8130 N.pl3 1 <1>   0.0330 
 19 C       -4.7780    -6.8380    -0.2870 C.ar  1 <1>  -0.1500 
 20 C       -3.0000    -8.4490    -0.0580 C.ar  1 <1>  -0.1500 
 21 C       -4.2690    -8.0930    -0.5300 C.ar  1 <1>  -0.1500 
 22 H        2.1940    -1.4230     0.7490 H     1 <1>   0.3700 
 23 H       -1.0640    -3.5920     0.1750 H     1 <1>   0.3700 
 24 H        2.3800    -4.0810    -0.5160 H     1 <1>   0.0800 
 25 H        0.2790    -5.7340     0.5810 H     1 <1>   0.0800 
 26 H        1.1720    -4.7380     1.7080 H     1 <1>   0.0800 
 27 H        3.6040    -4.6300     1.3390 H     1 <1>   0.0800 
 28 H        4.0520    -2.9920     1.7100 H     1 <1>   0.0800 
 29 H        2.7190    -2.0550    -1.8860 H     1 <1>   0.0800 
 30 H        4.0050    -1.5640    -0.8130 H     1 <1>   0.0800 
 31 H       -0.8700    -4.1910     2.9160 H     1 <1>   0.0800 
 32 H       -0.7050    -5.9180     2.8280 H     1 <1>   0.0800 
 33 H        5.8670    -4.6760     0.8230 H     1 <1>   0.0800 
 34 H        5.8950    -3.0110     0.3250 H     1 <1>   0.0800 
 35 H        5.2340    -2.5930    -2.4630 H     1 <1>   0.0800 
 36 H        3.9890    -3.7350    -2.8570 H     1 <1>   0.0800 
 37 H        4.6430    -5.2550    -1.2570 H     1 <1>   0.0800 
 38 H        6.1820    -4.5320    -1.6120 H     1 <1>   0.0800 
 39 H       -3.1600    -3.1620     1.9010 H     1 <1>   0.1500 
 40 H       -1.2670    -7.8160     1.0210 H     1 <1>   0.1500 
 41 H       -5.1290    -4.1170     0.5990 H     1 <1>   0.2700 
 42 H       -5.7510    -6.5550    -0.6450 H     1 <1>   0.1500 
 43 H       -2.6260    -9.4370    -0.2610 H     1 <1>   0.1500 
 44 H       -4.8440    -8.8140    -1.0850 H     1 <1>   0.1500 
@<TRIPOS>BOND
  1   1   2  2   
  2   2   3  am  
  3   2   4  am  
  4   3   5  1   
  5   3  22  1   
  6   4   6  1   
  7   4  23  1   
  8   5   7  1   
  9   5   8  1   
 10   5  24  1   
 11   6   9  1   
 12   6  25  1   
 13   6  26  1   
 14   7  10  1   
 15   7  27  1   
 16   7  28  1   
 17   8  11  1   
 18   8  29  1   
 19   8  30  1   
 20   9  12  1   
 21   9  31  1   
 22   9  32  1   
 23  10  13  1   
 24  10  33  1   
 25  10  34  1   
 26  11  13  1   
 27  11  35  1   
 28  11  36  1   
 29  12  14  1   
 30  12  15  2   
 31  13  37  1   
 32  13  38  1   
 33  14  16  ar  
 34  14  17  ar  
 35  15  18  1   
 36  15  39  1   
 37  16  18  1   
 38  16  19  ar  
 39  17  20  ar  
 40  17  40  1   
 41  18  41  1   
 42  19  21  ar  
 43  19  42  1   
 44  20  21  ar  
 45  20  43  1   
 46  21  44  1   
@<TRIPOS>SUBSTRUCTURE
  1 ****   4 GROUP 4 **** **** 0

# MOE 2024.06 (io_trps.svl 2023.06)
