@<TRIPOS>MOLECULE
NONAME
45 46 1 0 0 
SMALL
USER_CHARGES


@<TRIPOS>ATOM
  1 O       -7.1600     3.6010    -0.1730 O.3   1 <1>  -0.3630 
  2 C       -7.2700     2.2860     0.1680 C.ar  1 <1>   0.0830 
  3 C       -5.8680     4.1380    -0.3630 C.3   1 <1>   0.2640 
  4 C       -8.2520     1.8870     1.0820 C.ar  1 <1>   0.0830 
  5 C       -6.4140     1.3270    -0.3660 C.ar  1 <1>  -0.1500 
  6 C       -5.9190     5.6470    -0.1710 C.ar  1 <1>  -0.1440 
  7 O       -9.1430     2.7570     1.6220 O.3   1 <1>  -0.3630 
  8 C       -8.3360     0.5630     1.4790 C.ar  1 <1>  -0.1500 
  9 C       -6.5150     0.0030     0.0260 C.ar  1 <1>  -0.1500 
 10 C       -6.0720     6.1750     1.1020 C.ar  1 <1>  -0.1500 
 11 C       -5.7760     6.5070    -1.2500 C.ar  1 <1>  -0.1500 
 12 C      -10.0270     3.4000     0.7370 C.3   1 <1>   0.1200 
 13 C       -7.4700    -0.3790     0.9520 C.ar  1 <1>  -0.1500 
 14 C       -6.0700     7.5460     1.2970 C.ar  1 <1>  -0.1500 
 15 C       -5.7730     7.8780    -1.0570 C.ar  1 <1>  -0.1500 
 16 C       -9.9140     4.9040     0.9720 C.3   1 <1>  -0.1600 
 17 C       -5.9170     8.3990     0.2180 C.ar  1 <1>  -0.1500 
 18 C      -10.6280     5.6610    -0.1430 C.3   1 <1>   0.3430 
 19 N      -10.3680     7.1220    -0.0200 N.4   1 <1>  -0.9590 
 20 C      -11.3910     7.9150    -0.7640 C.3   1 <1>   0.2630 
 21 C       -8.9910     7.4620    -0.5010 C.3   1 <1>   0.2630 
 22 H       -5.5370     3.8840    -1.3540 H     1 <1>   0.0800 
 23 H       -5.2030     3.7020     0.3630 H     1 <1>   0.0800 
 24 H       -5.6670     1.5930    -1.0910 H     1 <1>   0.1500 
 25 H       -9.0810     0.2740     2.1980 H     1 <1>   0.1500 
 26 H       -5.8470    -0.7340    -0.3880 H     1 <1>   0.1500 
 27 H       -6.1810     5.5150     1.9480 H     1 <1>   0.1500 
 28 H       -5.6510     6.1130    -2.2450 H     1 <1>   0.1500 
 29 H      -11.0200     3.0400     0.9460 H     1 <1>   0.0800 
 30 H       -9.7640     3.1410    -0.2760 H     1 <1>   0.0800 
 31 H       -7.5420    -1.4070     1.2610 H     1 <1>   0.1500 
 32 H       -6.1720     7.9470     2.2920 H     1 <1>   0.1500 
 33 H       -5.6430     8.5400    -1.8970 H     1 <1>   0.1500 
 34 H       -8.8710     5.1610     0.9860 H     1 <1>   0.0800 
 35 H      -10.3510     5.1440     1.9250 H     1 <1>   0.0800 
 36 H       -5.8970     9.4650     0.3710 H     1 <1>   0.1500 
 37 H      -11.6870     5.4680    -0.0720 H     1 <1>   0.0800 
 38 H      -10.2830     5.3090    -1.1020 H     1 <1>   0.0800 
 39 H      -10.4240     7.3630     0.9820 H     1 <1>   0.4500 
 40 H      -11.3560     7.6800    -1.8150 H     1 <1>   0.0800 
 41 H      -11.2070     8.9700    -0.6410 H     1 <1>   0.0800 
 42 H      -12.3790     7.6950    -0.3920 H     1 <1>   0.0800 
 43 H       -8.8830     7.2170    -1.5450 H     1 <1>   0.0800 
 44 H       -8.2500     6.9100     0.0520 H     1 <1>   0.0800 
 45 H       -8.7940     8.5140    -0.3710 H     1 <1>   0.0800 
@<TRIPOS>BOND
  1   1   2  1   
  2   1   3  1   
  3   2   4  ar  
  4   2   5  ar  
  5   3   6  1   
  6   3  22  1   
  7   3  23  1   
  8   4   7  1   
  9   4   8  ar  
 10   5   9  ar  
 11   5  24  1   
 12   6  10  ar  
 13   6  11  ar  
 14   7  12  1   
 15   8  13  ar  
 16   8  25  1   
 17   9  13  ar  
 18   9  26  1   
 19  10  14  ar  
 20  10  27  1   
 21  11  15  ar  
 22  11  28  1   
 23  12  16  1   
 24  12  29  1   
 25  12  30  1   
 26  13  31  1   
 27  14  17  ar  
 28  14  32  1   
 29  15  17  ar  
 30  15  33  1   
 31  16  18  1   
 32  16  34  1   
 33  16  35  1   
 34  17  36  1   
 35  18  19  1   
 36  18  37  1   
 37  18  38  1   
 38  19  20  1   
 39  19  21  1   
 40  19  39  1   
 41  20  40  1   
 42  20  41  1   
 43  20  42  1   
 44  21  43  1   
 45  21  44  1   
 46  21  45  1   
@<TRIPOS>SUBSTRUCTURE
  1 ****   1 GROUP 4 **** **** 0

# MOE 2024.06 (io_trps.svl 2023.06)
