@<TRIPOS>MOLECULE
NONAME
32 33 1 0 0 
SMALL
USER_CHARGES


@<TRIPOS>ATOM
  1 F        0.9740     0.4870    -0.1340 F     1 <1>  -0.1900 
  2 C        1.9920    -0.3270    -0.2320 C.ar  1 <1>   0.1900 
  3 C        3.1940     0.0450     0.3340 C.ar  1 <1>  -0.1500 
  4 C        1.8210    -1.5250    -0.8990 C.ar  1 <1>  -0.1500 
  5 C        4.2850    -0.8100     0.2360 C.ar  1 <1>   0.1170 
  6 C        2.9050    -2.3800    -0.9960 C.ar  1 <1>  -0.1500 
  7 N        5.4980    -0.4260     0.8270 N.am  1 <1>  -0.5470 
  8 C        4.1200    -2.0240    -0.4320 C.ar  1 <1>  -0.1500 
  9 C        6.7810    -0.7860     0.5400 C.2   1 <1>   0.6900 
 10 O        7.0610    -1.4750    -0.4190 O.2   1 <1>  -0.5700 
 11 N        7.7570    -0.3250     1.3600 N.am  1 <1>  -0.7300 
 12 C        9.2060    -0.6400     1.2010 C.3   1 <1>   0.1400 
 13 C        9.8060    -0.0130    -0.0670 C.3   1 <1>   0.2000 
 14 O       11.1910    -0.1220    -0.0190 O.3   1 <1>  -0.5600 
 15 C        9.5640     1.4830    -0.2290 C.3   1 <1>  -0.1600 
 16 C       11.7630     0.7830    -0.9070 C.3   1 <1>   0.1200 
 17 C       10.7840     1.9500    -1.0100 C.3   1 <1>  -0.1600 
 18 H        3.2720     0.9880     0.8380 H     1 <1>   0.1500 
 19 H        0.8680    -1.7770    -1.3270 H     1 <1>   0.1500 
 20 H        2.8060    -3.3220    -1.5090 H     1 <1>   0.1500 
 21 H        5.4280     0.3170     1.5120 H     1 <1>   0.3700 
 22 H        4.9490    -2.7030    -0.5130 H     1 <1>   0.1500 
 23 H        7.5010     0.1040     2.2460 H     1 <1>   0.3700 
 24 H        9.3300    -1.7090     1.1510 H     1 <1>   0.0800 
 25 H        9.7390    -0.2710     2.0590 H     1 <1>   0.0800 
 26 H        9.4700    -0.5470    -0.9410 H     1 <1>   0.0800 
 27 H        9.5370     1.9560     0.7360 H     1 <1>   0.0800 
 28 H        8.6410     1.6750    -0.7470 H     1 <1>   0.0800 
 29 H       11.8820     0.2880    -1.8560 H     1 <1>   0.0800 
 30 H       12.7220     1.0840    -0.5220 H     1 <1>   0.0800 
 31 H       11.2040     2.8440    -0.5830 H     1 <1>   0.0800 
 32 H       10.5420     2.1320    -2.0420 H     1 <1>   0.0800 
@<TRIPOS>BOND
  1   1   2  1   
  2   2   3  ar  
  3   2   4  ar  
  4   3   5  ar  
  5   3  18  1   
  6   4   6  ar  
  7   4  19  1   
  8   5   7  1   
  9   5   8  ar  
 10   6   8  ar  
 11   6  20  1   
 12   7   9  am  
 13   7  21  1   
 14   8  22  1   
 15   9  10  2   
 16   9  11  am  
 17  11  12  1   
 18  11  23  1   
 19  12  13  1   
 20  12  24  1   
 21  12  25  1   
 22  13  14  1   
 23  13  15  1   
 24  13  26  1   
 25  14  16  1   
 26  15  17  1   
 27  15  27  1   
 28  15  28  1   
 29  16  17  1   
 30  16  29  1   
 31  16  30  1   
 32  17  31  1   
 33  17  32  1   
@<TRIPOS>SUBSTRUCTURE
  1 ****   9 GROUP 4 **** **** 0

# MOE 2024.06 (io_trps.svl 2023.06)
