@<TRIPOS>MOLECULE
NONAME
35 37 1 0 0 
SMALL
USER_CHARGES


@<TRIPOS>ATOM
  1 S        0.4120    -1.7100    -0.9540 S.3   1 <1>  -0.4600 
  2 C        0.5950    -0.3480     0.2250 C.3   1 <1>   0.0700 
  3 C        2.0650    -1.8220    -1.6880 C.3   1 <1>   0.0700 
  4 C        1.7940    -0.6380     1.1380 C.3   1 <1>   0.3430 
  5 C        3.1030    -1.9430    -0.5660 C.3   1 <1>   0.3430 
  6 N        3.0860    -0.7650     0.3780 N.4   1 <1>  -0.9590 
  7 C        4.2460    -0.8020     1.3140 C.3   1 <1>   0.4860 
  8 C        5.5240    -0.6730     0.5090 C.ar  1 <1>  -0.1440 
  9 C        6.2860    -1.8220     0.1690 C.ar  1 <1>   0.0000 
 10 C        5.9170     0.5770     0.1030 C.ar  1 <1>  -0.1500 
 11 C        7.4290    -1.6470    -0.6450 C.ar  1 <1>   0.0000 
 12 C        5.9760    -3.1410     0.5870 C.ar  1 <1>  -0.1500 
 13 C        7.0620     0.7410    -0.6800 C.ar  1 <1>  -0.1500 
 14 C        7.7950    -0.3490    -1.0480 C.ar  1 <1>  -0.1500 
 15 C        8.1800    -2.7740    -1.0350 C.ar  1 <1>  -0.1500 
 16 C        6.7260    -4.2150     0.1960 C.ar  1 <1>  -0.1500 
 17 C        7.8390    -4.0310    -0.6290 C.ar  1 <1>  -0.1500 
 18 H       -0.3200    -0.2980     0.7890 H     1 <1>   0.0800 
 19 H        0.7240     0.5610    -0.3350 H     1 <1>   0.0800 
 20 H        2.2220    -0.9440    -2.2900 H     1 <1>   0.0800 
 21 H        2.0710    -2.6950    -2.3180 H     1 <1>   0.0800 
 22 H        1.6020    -1.5500     1.6800 H     1 <1>   0.0800 
 23 H        1.8750     0.1630     1.8550 H     1 <1>   0.0800 
 24 H        4.0760    -2.0280    -1.0240 H     1 <1>   0.0800 
 25 H        2.9170    -2.8520    -0.0180 H     1 <1>   0.0800 
 26 H        3.2160     0.0760    -0.2000 H     1 <1>   0.4500 
 27 H        4.2430    -1.7100     1.8920 H     1 <1>   0.0800 
 28 H        4.1870     0.0280     2.0000 H     1 <1>   0.0800 
 29 H        5.3660     1.4640     0.3670 H     1 <1>   0.1500 
 30 H        5.1410    -3.3270     1.2330 H     1 <1>   0.1500 
 31 H        7.3580     1.7310    -0.9870 H     1 <1>   0.1500 
 32 H        8.6760    -0.2290    -1.6550 H     1 <1>   0.1500 
 33 H        9.0400    -2.6250    -1.6640 H     1 <1>   0.1500 
 34 H        6.4830    -5.2140     0.5180 H     1 <1>   0.1500 
 35 H        8.4180    -4.8880    -0.9300 H     1 <1>   0.1500 
@<TRIPOS>BOND
  1   1   2  1   
  2   1   3  1   
  3   2   4  1   
  4   2  18  1   
  5   2  19  1   
  6   3   5  1   
  7   3  20  1   
  8   3  21  1   
  9   4   6  1   
 10   4  22  1   
 11   4  23  1   
 12   5   6  1   
 13   5  24  1   
 14   5  25  1   
 15   6   7  1   
 16   6  26  1   
 17   7   8  1   
 18   7  27  1   
 19   7  28  1   
 20   8   9  ar  
 21   8  10  ar  
 22   9  11  ar  
 23   9  12  ar  
 24  10  13  ar  
 25  10  29  1   
 26  11  14  ar  
 27  11  15  ar  
 28  12  16  ar  
 29  12  30  1   
 30  13  14  ar  
 31  13  31  1   
 32  14  32  1   
 33  15  17  ar  
 34  15  33  1   
 35  16  17  ar  
 36  16  34  1   
 37  17  35  1   
@<TRIPOS>SUBSTRUCTURE
  1 ****   8 GROUP 4 **** **** 0

# MOE 2024.06 (io_trps.svl 2023.06)
