@<TRIPOS>MOLECULE
NONAME
52 54 1 0 0 
SMALL
USER_CHARGES


@<TRIPOS>ATOM
  1 S       -0.9650     0.6660     0.5120 S.o2  1 <1>   1.4470 
  2 O       -0.0080    -0.0540    -0.3010 O.2   1 <1>  -0.6500 
  3 O       -0.7580     0.7600     1.9420 O.2   1 <1>  -0.6500 
  4 N       -1.0410     2.2510    -0.0820 N.am  1 <1>  -0.8490 
  5 C       -2.6290     0.0420     0.1590 C.ar  1 <1>  -0.0090 
  6 C       -1.9980     3.0960     0.6580 C.3   1 <1>   0.1960 
  7 C        0.2780     2.8750    -0.1750 C.3   1 <1>   0.1960 
  8 C       -3.4810    -0.3820     1.1730 C.ar  1 <1>  -0.1500 
  9 C       -3.1070     0.0050    -1.1460 C.ar  1 <1>  -0.1500 
 10 C       -1.8260     4.5980     0.3630 C.3   1 <1>  -0.1600 
 11 C        0.2000     4.1370    -1.0510 C.3   1 <1>  -0.1600 
 12 C       -4.7740    -0.7880     0.8990 C.ar  1 <1>  -0.1500 
 13 C       -4.4000    -0.3990    -1.4270 C.ar  1 <1>  -0.1500 
 14 C       -1.1660     4.8450    -0.9960 C.3   1 <1>  -0.1600 
 15 C       -5.2580    -0.7710    -0.4020 C.ar  1 <1>   0.1990 
 16 N       -6.5810    -1.0560    -0.6780 N.am  1 <1>  -0.7570 
 17 S       -7.8710    -0.1830     0.0440 S.o2  1 <1>   1.4470 
 18 O       -8.0110    -0.6870     1.3890 O.2   1 <1>  -0.6500 
 19 O       -8.9310    -0.3020    -0.9280 O.2   1 <1>  -0.6500 
 20 C       -7.1980     1.5020     0.0440 C.ar  1 <1>  -0.0090 
 21 C       -6.6260     2.0420     1.1900 C.ar  1 <1>  -0.1500 
 22 C       -7.1800     2.2740    -1.1120 C.ar  1 <1>  -0.1500 
 23 C       -6.0400     3.2970     1.1940 C.ar  1 <1>  -0.1430 
 24 C       -6.5990     3.5290    -1.1290 C.ar  1 <1>  -0.1500 
 25 C       -6.0180     4.0480     0.0240 C.ar  1 <1>   0.0830 
 26 C       -5.4320     3.8420     2.4800 C.3   1 <1>  -0.0970 
 27 O       -5.4210     5.2660     0.0660 O.3   1 <1>  -0.3630 
 28 C       -5.3410     6.0970    -1.0720 C.3   1 <1>   0.0400 
 29 H       -1.8930     2.9450     1.7200 H     1 <1>   0.0800 
 30 H       -2.9970     2.8020     0.3810 H     1 <1>   0.0800 
 31 H        0.9900     2.1940    -0.6110 H     1 <1>   0.0800 
 32 H        0.6220     3.1260     0.8160 H     1 <1>   0.0800 
 33 H       -3.1280    -0.3870     2.1920 H     1 <1>   0.1500 
 34 H       -2.4550     0.3110    -1.9480 H     1 <1>   0.1500 
 35 H       -1.2180     5.0360     1.1350 H     1 <1>   0.0800 
 36 H       -2.7860     5.0800     0.4040 H     1 <1>   0.0800 
 37 H        0.4140     3.8690    -2.0710 H     1 <1>   0.0800 
 38 H        0.9730     4.8140    -0.7310 H     1 <1>   0.0800 
 39 H       -5.4170    -1.1120     1.6990 H     1 <1>   0.1500 
 40 H       -4.7450    -0.4060    -2.4440 H     1 <1>   0.1500 
 41 H       -1.0490     5.8990    -1.1790 H     1 <1>   0.0800 
 42 H       -1.8020     4.4390    -1.7640 H     1 <1>   0.0800 
 43 H       -6.8320    -1.2550    -1.6400 H     1 <1>   0.4200 
 44 H       -6.6380     1.4600     2.0960 H     1 <1>   0.1500 
 45 H       -7.6250     1.8850    -2.0120 H     1 <1>   0.1500 
 46 H       -6.6090     4.0860    -2.0470 H     1 <1>   0.1500 
 47 H       -5.4850     3.1200     3.2740 H     1 <1>   0.0800 
 48 H       -5.9640     4.7260     2.7830 H     1 <1>   0.0800 
 49 H       -4.4020     4.1010     2.3200 H     1 <1>   0.0800 
 50 H       -4.8260     6.9980    -0.7920 H     1 <1>   0.0800 
 51 H       -6.3370     6.3340    -1.4010 H     1 <1>   0.0800 
 52 H       -4.7900     5.5850    -1.8400 H     1 <1>   0.0800 
@<TRIPOS>BOND
  1   1   2  2   
  2   1   3  2   
  3   1   4  am  
  4   1   5  1   
  5   4   6  1   
  6   4   7  1   
  7   5   8  ar  
  8   5   9  ar  
  9   6  10  1   
 10   6  29  1   
 11   6  30  1   
 12   7  11  1   
 13   7  31  1   
 14   7  32  1   
 15   8  12  ar  
 16   8  33  1   
 17   9  13  ar  
 18   9  34  1   
 19  10  14  1   
 20  10  35  1   
 21  10  36  1   
 22  11  14  1   
 23  11  37  1   
 24  11  38  1   
 25  12  15  ar  
 26  12  39  1   
 27  13  15  ar  
 28  13  40  1   
 29  14  41  1   
 30  14  42  1   
 31  15  16  1   
 32  16  17  am  
 33  16  43  1   
 34  17  18  2   
 35  17  19  2   
 36  17  20  1   
 37  20  21  ar  
 38  20  22  ar  
 39  21  23  ar  
 40  21  44  1   
 41  22  24  ar  
 42  22  45  1   
 43  23  25  ar  
 44  23  26  1   
 45  24  25  ar  
 46  24  46  1   
 47  25  27  1   
 48  26  47  1   
 49  26  48  1   
 50  26  49  1   
 51  27  28  1   
 52  28  50  1   
 53  28  51  1   
 54  28  52  1   
@<TRIPOS>SUBSTRUCTURE
  1 ****   5 GROUP 4 **** **** 0

# MOE 2024.06 (io_trps.svl 2023.06)
