@<TRIPOS>MOLECULE
NONAME
42 44 1 0 0 
SMALL
USER_CHARGES


@<TRIPOS>ATOM
  1 O        1.7800    -1.3220    -0.5170 O.2   1 <1>  -0.5700 
  2 C        0.7980    -1.8600    -0.0710 C.2   1 <1>   0.5690 
  3 N        0.6900    -2.3720     1.1830 N.am  1 <1>  -0.4200 
  4 C       -0.4960    -2.0230    -0.8420 C.3   1 <1>  -0.0190 
  5 C       -0.5540    -2.8750     1.4080 C.2   1 <1>   0.5690 
  6 C        1.8060    -2.4440     2.1600 C.3   1 <1>   0.1400 
  7 C       -1.4340    -2.7150     0.1840 C.3   1 <1>  -0.0190 
  8 C       -0.2850    -2.7550    -2.1820 C.3   1 <1>  -0.0220 
  9 O       -0.9290    -3.3790     2.4350 O.2   1 <1>  -0.5700 
 10 C        2.2920    -1.0450     2.5620 C.3   1 <1>  -0.0990 
 11 C       -2.0680    -4.0490    -0.2560 C.3   1 <1>  -0.0220 
 12 C       -1.5550    -3.4560    -2.6200 C.2   1 <1>  -0.2880 
 13 C        3.7700    -0.8940     2.2850 C.2   1 <1>   0.5690 
 14 C       -2.3670    -4.0460    -1.7420 C.2   1 <1>  -0.2880 
 15 O        4.5250    -0.9280     3.2230 O.2   1 <1>  -0.5700 
 16 N        4.1680    -0.7500     0.9900 N.am  1 <1>  -0.5470 
 17 C        5.4090    -0.6060     0.4060 C.ar  1 <1>   0.4270 
 18 N        5.3700    -0.7040    -0.9140 N.ar  1 <1>  -0.6200 
 19 C        6.5860    -0.3720     1.1160 C.ar  1 <1>  -0.1500 
 20 C        6.5200    -0.5770    -1.5520 C.ar  1 <1>   0.1670 
 21 C        7.7800    -0.2420     0.4450 C.ar  1 <1>  -0.1500 
 22 C        7.7350    -0.3500    -0.9290 C.ar  1 <1>  -0.1500 
 23 C        6.4490    -0.6960    -3.0600 C.3   1 <1>  -0.0970 
 24 H       -0.8860    -1.0430    -1.0520 H     1 <1>   0.0800 
 25 H        2.6090    -3.0090     1.7180 H     1 <1>   0.0800 
 26 H        1.4830    -2.9760     3.0400 H     1 <1>   0.0800 
 27 H       -2.2270    -2.0320     0.4320 H     1 <1>   0.0800 
 28 H        0.4970    -3.4900    -2.0920 H     1 <1>   0.0800 
 29 H        0.0200    -2.0410    -2.9270 H     1 <1>   0.0800 
 30 H        2.1290    -0.9080     3.6160 H     1 <1>   0.0800 
 31 H        1.7570    -0.2690     2.0450 H     1 <1>   0.0800 
 32 H       -2.9730    -4.2080     0.3040 H     1 <1>   0.0800 
 33 H       -1.4040    -4.8700    -0.0460 H     1 <1>   0.0800 
 34 H       -1.7210    -3.4530    -3.6850 H     1 <1>   0.1500 
 35 H       -3.2660    -4.5740    -2.0160 H     1 <1>   0.1500 
 36 H        3.4370    -0.8290     0.2720 H     1 <1>   0.3700 
 37 H        6.5710    -0.2910     2.1850 H     1 <1>   0.1500 
 38 H        8.7030    -0.0640     0.9680 H     1 <1>   0.1500 
 39 H        8.6370    -0.2560    -1.5040 H     1 <1>   0.1500 
 40 H        6.0420    -1.6550    -3.3250 H     1 <1>   0.0800 
 41 H        7.4210    -0.5950    -3.5050 H     1 <1>   0.0800 
 42 H        5.8050     0.0710    -3.4490 H     1 <1>   0.0800 
@<TRIPOS>BOND
  1   1   2  2   
  2   2   3  am  
  3   2   4  1   
  4   3   5  am  
  5   3   6  1   
  6   4   7  1   
  7   4   8  1   
  8   4  24  1   
  9   5   7  1   
 10   5   9  2   
 11   6  10  1   
 12   6  25  1   
 13   6  26  1   
 14   7  11  1   
 15   7  27  1   
 16   8  12  1   
 17   8  28  1   
 18   8  29  1   
 19  10  13  1   
 20  10  30  1   
 21  10  31  1   
 22  11  14  1   
 23  11  32  1   
 24  11  33  1   
 25  12  14  2   
 26  12  34  1   
 27  13  15  2   
 28  13  16  am  
 29  14  35  1   
 30  16  17  1   
 31  16  36  1   
 32  17  18  ar  
 33  17  19  ar  
 34  18  20  ar  
 35  19  21  ar  
 36  19  37  1   
 37  20  22  ar  
 38  20  23  1   
 39  21  22  ar  
 40  21  38  1   
 41  22  39  1   
 42  23  40  1   
 43  23  41  1   
 44  23  42  1   
@<TRIPOS>SUBSTRUCTURE
  1 ****   1 GROUP 4 **** **** 0

# MOE 2024.06 (io_trps.svl 2023.06)
