@<TRIPOS>MOLECULE
NONAME
43 44 1 0 0 
SMALL
USER_CHARGES


@<TRIPOS>ATOM
  1 O        0.0180    -0.5990    -0.5760 O.3   1 <1>  -0.5600 
  2 C        1.0380     0.1560    -1.1570 C.3   1 <1>   0.1200 
  3 C        0.3150    -1.0270     0.7200 C.3   1 <1>   0.1200 
  4 C        2.3370    -0.6690    -1.2270 C.3   1 <1>   0.1100 
  5 C        1.5910    -1.8900     0.7170 C.3   1 <1>   0.1100 
  6 N        2.7350    -1.1660     0.1140 N.3   1 <1>  -0.8100 
  7 C        3.9330    -2.0080     0.0770 C.3   1 <1>   0.1100 
  8 C        5.1840    -1.1290    -0.0590 C.3   1 <1>   0.3430 
  9 N        6.4360    -1.9340     0.0630 N.4   1 <1>  -0.9060 
 10 C        7.6650    -1.1300    -0.0790 C.3   1 <1>   0.4230 
 11 C        8.8500    -2.0820    -0.3190 C.3   1 <1>  -0.1600 
 12 C        7.8860    -0.2600     1.1640 C.3   1 <1>  -0.1600 
 13 C       10.2010    -1.5190     0.1720 C.3   1 <1>  -0.0800 
 14 C        9.1290     0.6360     0.9980 C.3   1 <1>  -0.1600 
 15 C       10.2170     0.0140     0.1030 C.3   1 <1>  -0.1600 
 16 C       11.3630    -2.1160    -0.6290 C.3   1 <1>  -0.2400 
 17 H        1.1840     1.0490    -0.5730 H     1 <1>   0.0800 
 18 H        0.7170     0.4350    -2.1450 H     1 <1>   0.0800 
 19 H       -0.5230    -1.6000     1.0770 H     1 <1>   0.0800 
 20 H        0.4400    -0.1640     1.3510 H     1 <1>   0.0800 
 21 H        3.1130    -0.0480    -1.6370 H     1 <1>   0.0800 
 22 H        2.1760    -1.4970    -1.8970 H     1 <1>   0.0800 
 23 H        1.3910    -2.7940     0.1670 H     1 <1>   0.0800 
 24 H        1.8260    -2.1580     1.7320 H     1 <1>   0.0800 
 25 H        3.8630    -2.7110    -0.7360 H     1 <1>   0.0800 
 26 H        3.9990    -2.5530     1.0040 H     1 <1>   0.0800 
 27 H        5.1530    -0.3810     0.7160 H     1 <1>   0.0800 
 28 H        5.1610    -0.6320    -1.0140 H     1 <1>   0.0800 
 29 H        6.4460    -2.6670    -0.6550 H     1 <1>   0.4500 
 30 H        6.4640    -2.4010     0.9770 H     1 <1>   0.4500 
 31 H        7.5780    -0.4780    -0.9350 H     1 <1>   0.0800 
 32 H        8.9080    -2.2670    -1.3770 H     1 <1>   0.0800 
 33 H        8.6940    -3.0250     0.1760 H     1 <1>   0.0800 
 34 H        8.0350    -0.8960     2.0200 H     1 <1>   0.0800 
 35 H        7.0390     0.3740     1.3570 H     1 <1>   0.0800 
 36 H       10.3380    -1.8010     1.2050 H     1 <1>   0.0800 
 37 H        9.5420     0.8340     1.9740 H     1 <1>   0.0800 
 38 H        8.8440     1.5870     0.5780 H     1 <1>   0.0800 
 39 H       10.0670     0.3240    -0.9180 H     1 <1>   0.0800 
 40 H       11.1800     0.3880     0.4100 H     1 <1>   0.0800 
 41 H       11.3010    -1.8360    -1.6670 H     1 <1>   0.0800 
 42 H       11.3560    -3.1900    -0.5610 H     1 <1>   0.0800 
 43 H       12.3030    -1.7640    -0.2400 H     1 <1>   0.0800 
@<TRIPOS>BOND
  1   1   2  1   
  2   1   3  1   
  3   2   4  1   
  4   2  17  1   
  5   2  18  1   
  6   3   5  1   
  7   3  19  1   
  8   3  20  1   
  9   4   6  1   
 10   4  21  1   
 11   4  22  1   
 12   5   6  1   
 13   5  23  1   
 14   5  24  1   
 15   6   7  1   
 16   7   8  1   
 17   7  25  1   
 18   7  26  1   
 19   8   9  1   
 20   8  27  1   
 21   8  28  1   
 22   9  10  1   
 23   9  29  1   
 24   9  30  1   
 25  10  11  1   
 26  10  12  1   
 27  10  31  1   
 28  11  13  1   
 29  11  32  1   
 30  11  33  1   
 31  12  14  1   
 32  12  34  1   
 33  12  35  1   
 34  13  15  1   
 35  13  16  1   
 36  13  36  1   
 37  14  15  1   
 38  14  37  1   
 39  14  38  1   
 40  15  39  1   
 41  15  40  1   
 42  16  41  1   
 43  16  42  1   
 44  16  43  1   
@<TRIPOS>SUBSTRUCTURE
  1 ****   8 GROUP 4 **** **** 0

# MOE 2024.06 (io_trps.svl 2023.06)
