@<TRIPOS>MOLECULE
NONAME
43 44 1 0 0 
SMALL
USER_CHARGES


@<TRIPOS>ATOM
  1 S        0.5050    -0.4300    -0.6390 S.3   1 <1>  -0.0800 
  2 C        1.7430    -0.7800     0.5240 C.2   1 <1>   0.4420 
  3 C       -0.5910    -1.3030     0.3730 C.2   1 <1>   0.1980 
  4 N        1.2950    -1.4660     1.5130 N.2   1 <1>  -0.3380 
  5 N        3.0000    -0.2810     0.2510 N.am  1 <1>  -0.4940 
  6 N       -0.0370    -1.7610     1.4190 N.2   1 <1>  -0.3380 
  7 C       -2.0310    -1.4260    -0.0720 C.3   1 <1>  -0.0600 
  8 C        4.1880    -0.4780     0.9110 C.2   1 <1>   0.5440 
  9 O        4.2740    -1.3210     1.7770 O.2   1 <1>  -0.5700 
 10 C        5.3510     0.3020     0.5330 C.ar  1 <1>   0.0860 
 11 C        6.6280    -0.2500     0.6140 C.ar  1 <1>  -0.1500 
 12 C        5.2470     1.6180     0.0780 C.ar  1 <1>  -0.1500 
 13 C        7.7670     0.4500     0.2450 C.ar  1 <1>   0.1170 
 14 C        6.3690     2.3350    -0.2950 C.ar  1 <1>  -0.1500 
 15 N        9.0150    -0.1790     0.3660 N.am  1 <1>  -0.5470 
 16 C        7.6200     1.7540    -0.2130 C.ar  1 <1>  -0.1500 
 17 C       10.1940     0.0440    -0.2940 C.2   1 <1>   0.5690 
 18 O       10.3130     0.8640    -1.1720 O.2   1 <1>  -0.5700 
 19 C       11.4040    -0.8070     0.1020 C.3   1 <1>  -0.0190 
 20 C       12.5610     0.1000     0.5910 C.3   1 <1>  -0.1600 
 21 C       11.7940    -1.7180    -1.0860 C.3   1 <1>  -0.1600 
 22 C       13.3680    -0.4990     1.7530 C.3   1 <1>  -0.2400 
 23 C       12.9080    -2.7280    -0.7860 C.3   1 <1>  -0.2400 
 24 H        3.0570     0.2890    -0.5870 H     1 <1>   0.3700 
 25 H       -2.4700    -0.4500    -0.1650 H     1 <1>   0.0800 
 26 H       -2.5870    -1.9920     0.6530 H     1 <1>   0.0800 
 27 H       -2.0790    -1.9300    -1.0200 H     1 <1>   0.0800 
 28 H        6.7250    -1.2590     0.9740 H     1 <1>   0.1500 
 29 H        4.2860     2.0970     0.0230 H     1 <1>   0.1500 
 30 H        6.2750     3.3490    -0.6460 H     1 <1>   0.1500 
 31 H        9.0350    -0.9540     1.0260 H     1 <1>   0.3700 
 32 H        8.4850     2.3250    -0.5010 H     1 <1>   0.1500 
 33 H       11.1020    -1.4370     0.9190 H     1 <1>   0.0800 
 34 H       12.1500     1.0350     0.9370 H     1 <1>   0.0800 
 35 H       13.2130     0.3350    -0.2320 H     1 <1>   0.0800 
 36 H       12.0930    -1.1050    -1.9200 H     1 <1>   0.0800 
 37 H       10.9190    -2.2640    -1.3950 H     1 <1>   0.0800 
 38 H       12.7320    -0.6740     2.6020 H     1 <1>   0.0800 
 39 H       14.1410     0.1890     2.0480 H     1 <1>   0.0800 
 40 H       13.8350    -1.4260     1.4760 H     1 <1>   0.0800 
 41 H       13.8490    -2.2270    -0.6520 H     1 <1>   0.0800 
 42 H       13.0120    -3.4090    -1.6130 H     1 <1>   0.0800 
 43 H       12.6790    -3.2980     0.0970 H     1 <1>   0.0800 
@<TRIPOS>BOND
  1   1   2  1   
  2   1   3  1   
  3   2   4  2   
  4   2   5  1   
  5   3   6  2   
  6   3   7  1   
  7   4   6  1   
  8   5   8  am  
  9   5  24  1   
 10   7  25  1   
 11   7  26  1   
 12   7  27  1   
 13   8   9  2   
 14   8  10  1   
 15  10  11  ar  
 16  10  12  ar  
 17  11  13  ar  
 18  11  28  1   
 19  12  14  ar  
 20  12  29  1   
 21  13  15  1   
 22  13  16  ar  
 23  14  16  ar  
 24  14  30  1   
 25  15  17  am  
 26  15  31  1   
 27  16  32  1   
 28  17  18  2   
 29  17  19  1   
 30  19  20  1   
 31  19  21  1   
 32  19  33  1   
 33  20  22  1   
 34  20  34  1   
 35  20  35  1   
 36  21  23  1   
 37  21  36  1   
 38  21  37  1   
 39  22  38  1   
 40  22  39  1   
 41  22  40  1   
 42  23  41  1   
 43  23  42  1   
 44  23  43  1   
@<TRIPOS>SUBSTRUCTURE
  1 ****  11 GROUP 4 **** **** 0

# MOE 2024.06 (io_trps.svl 2023.06)
