@<TRIPOS>MOLECULE
NONAME
37 41 1 0 0 
SMALL
USER_CHARGES


@<TRIPOS>ATOM
  1 O       -0.1780    -1.2980     2.3250 O.2   1 <1>  -0.5700 
  2 C       -0.3450    -1.5480     1.1600 C.2   1 <1>   0.5690 
  3 N        0.4300    -2.3250     0.3140 N.am  1 <1>  -0.2370 
  4 C       -1.4960    -1.0420     0.3430 C.3   1 <1>  -0.0190 
  5 C        1.7960    -2.6230     0.4920 C.ar  1 <1>   0.1170 
  6 C       -0.3180    -2.6420    -0.8100 C.2   1 <1>   0.5690 
  7 C       -2.8970    -0.4170     0.4720 C.3   1 <1>   0.1530 
  8 C       -1.7470    -2.2940    -0.5050 C.3   1 <1>  -0.0190 
  9 C        2.7000    -1.6270     0.8390 C.ar  1 <1>  -0.1500 
 10 C        2.2670    -3.9170     0.3080 C.ar  1 <1>  -0.1500 
 11 O        0.0460    -3.1440    -1.8420 O.2   1 <1>  -0.5700 
 12 C       -3.9720    -1.4370     0.8290 C.2   1 <1>  -0.2880 
 13 C       -3.1670    -0.4300    -1.0400 C.3   1 <1>  -0.1900 
 14 C       -3.0610    -1.9410    -1.2460 C.3   1 <1>   0.1530 
 15 C        4.0640    -1.8780     0.9970 C.ar  1 <1>  -0.1790 
 16 C        3.6100    -4.2010     0.4710 C.ar  1 <1>  -0.1500 
 17 C       -4.1080    -2.2890    -0.1930 C.2   1 <1>  -0.2880 
 18 C       -4.1920     0.4210    -1.7140 C.3   1 <1>  -0.2000 
 19 C       -2.7220     0.6000    -2.0290 C.3   1 <1>  -0.2000 
 20 C        4.9990    -0.8110     1.3340 C.2   1 <1>   0.9790 
 21 C        4.4930    -3.1930     0.8110 C.ar  1 <1>  -0.1500 
 22 O        4.6200     0.3740     1.3700 O.co2 1 <1>  -0.9000 
 23 O        6.1920    -1.0650     1.5780 O.co2 1 <1>  -0.9000 
 24 H       -0.9700    -0.3080    -0.2500 H     1 <1>   0.0800 
 25 H       -2.9690     0.5560     0.9260 H     1 <1>   0.0800 
 26 H       -2.0070    -3.1170     0.1430 H     1 <1>   0.0800 
 27 H        2.3550    -0.6180     0.9910 H     1 <1>   0.1500 
 28 H        1.5860    -4.7010     0.0330 H     1 <1>   0.1500 
 29 H       -4.4840    -1.3770     1.7740 H     1 <1>   0.1500 
 30 H       -3.2230    -2.3280    -2.2370 H     1 <1>   0.0800 
 31 H        3.9740    -5.2030     0.3300 H     1 <1>   0.1500 
 32 H       -4.7680    -3.1280    -0.3320 H     1 <1>   0.1500 
 33 H       -4.6960     1.1770    -1.1370 H     1 <1>   0.1000 
 34 H       -4.8320    -0.0280    -2.4530 H     1 <1>   0.1000 
 35 H       -2.3650     0.2820    -2.9930 H     1 <1>   0.1000 
 36 H       -2.2380     1.4970    -1.6830 H     1 <1>   0.1000 
 37 H        5.5420    -3.4110     0.9350 H     1 <1>   0.1500 
@<TRIPOS>BOND
  1   1   2  2   
  2   2   3  am  
  3   2   4  1   
  4   3   5  1   
  5   3   6  am  
  6   4   7  1   
  7   4   8  1   
  8   4  24  1   
  9   5   9  ar  
 10   5  10  ar  
 11   6   8  1   
 12   6  11  2   
 13   7  12  1   
 14   7  13  1   
 15   7  25  1   
 16   8  14  1   
 17   8  26  1   
 18   9  15  ar  
 19   9  27  1   
 20  10  16  ar  
 21  10  28  1   
 22  12  17  2   
 23  12  29  1   
 24  13  14  1   
 25  13  18  1   
 26  13  19  1   
 27  14  17  1   
 28  14  30  1   
 29  15  20  1   
 30  15  21  ar  
 31  16  21  ar  
 32  16  31  1   
 33  17  32  1   
 34  18  19  1   
 35  18  33  1   
 36  18  34  1   
 37  19  35  1   
 38  19  36  1   
 39  20  22  ar  
 40  20  23  ar  
 41  21  37  1   
@<TRIPOS>SUBSTRUCTURE
  1 ****   3 GROUP 4 **** **** 0

# MOE 2024.06 (io_trps.svl 2023.06)
