@<TRIPOS>MOLECULE
NONAME
36 36 1 0 0 
SMALL
USER_CHARGES


@<TRIPOS>ATOM
  1 O       -3.2840    -0.1070     1.2790 O.co2 1 <1>  -0.9000 
  2 C       -3.9980    -0.3830     0.3270 C.2   1 <1>   0.9060 
  3 O       -4.3250    -1.5340     0.0190 O.co2 1 <1>  -0.9000 
  4 C       -4.8140     0.7010    -0.2670 C.3   1 <1>  -0.2660 
  5 C       -6.0510     0.6990     0.5980 C.3   1 <1>   0.5660 
  6 N       -6.7520    -0.5760     0.4390 N.4   1 <1>  -0.8530 
  7 C       -7.0390     1.8010     0.2470 C.ar  1 <1>  -0.1440 
  8 C       -7.5010     1.9830    -1.0520 C.ar  1 <1>  -0.1500 
  9 C       -7.5030     2.6400     1.2520 C.ar  1 <1>  -0.1500 
 10 C       -8.4180     2.9800    -1.3320 C.ar  1 <1>  -0.1500 
 11 C       -8.4210     3.6380     0.9710 C.ar  1 <1>  -0.1500 
 12 C       -8.8860     3.8110    -0.3290 C.ar  1 <1>   0.0820 
 13 O       -9.7840     4.7570    -0.6930 O.3   1 <1>  -0.3620 
 14 C      -10.2720     5.7100     0.2290 C.3   1 <1>   0.1200 
 15 C      -11.2160     6.6830    -0.4950 C.3   1 <1>  -0.0800 
 16 C      -10.4960     7.4510    -1.6120 C.3   1 <1>  -0.2400 
 17 C      -11.8230     7.6740     0.5070 C.3   1 <1>  -0.2400 
 18 H       -5.0160     0.4960    -1.3000 H     1 <1>   0.0800 
 19 H       -4.2860     1.6310    -0.1730 H     1 <1>   0.0800 
 20 H       -5.7350     0.8080     1.6250 H     1 <1>   0.0800 
 21 H       -7.2860    -0.5780    -0.4260 H     1 <1>   0.4500 
 22 H       -7.3280    -0.7950     1.2470 H     1 <1>   0.4500 
 23 H       -5.9900    -1.2930     0.3500 H     1 <1>   0.4500 
 24 H       -7.1540     1.3640    -1.8610 H     1 <1>   0.1500 
 25 H       -7.1540     2.5270     2.2650 H     1 <1>   0.1500 
 26 H       -8.7780     3.1260    -2.3350 H     1 <1>   0.1500 
 27 H       -8.7600     4.2700     1.7700 H     1 <1>   0.1500 
 28 H       -9.4330     6.2410     0.6440 H     1 <1>   0.0800 
 29 H      -10.7990     5.1850     1.0060 H     1 <1>   0.0800 
 30 H      -12.0190     6.1090    -0.9270 H     1 <1>   0.0800 
 31 H       -9.6770     8.0240    -1.2130 H     1 <1>   0.0800 
 32 H      -11.1770     8.1210    -2.1060 H     1 <1>   0.0800 
 33 H      -10.1070     6.7670    -2.3460 H     1 <1>   0.0800 
 34 H      -11.0530     8.2700     0.9660 H     1 <1>   0.0800 
 35 H      -12.3580     7.1480     1.2770 H     1 <1>   0.0800 
 36 H      -12.5120     8.3320     0.0070 H     1 <1>   0.0800 
@<TRIPOS>BOND
  1   1   2  ar  
  2   2   3  ar  
  3   2   4  1   
  4   4   5  1   
  5   4  18  1   
  6   4  19  1   
  7   5   6  1   
  8   5   7  1   
  9   5  20  1   
 10   6  21  1   
 11   6  22  1   
 12   6  23  1   
 13   7   8  ar  
 14   7   9  ar  
 15   8  10  ar  
 16   8  24  1   
 17   9  11  ar  
 18   9  25  1   
 19  10  12  ar  
 20  10  26  1   
 21  11  12  ar  
 22  11  27  1   
 23  12  13  1   
 24  13  14  1   
 25  14  15  1   
 26  14  28  1   
 27  14  29  1   
 28  15  16  1   
 29  15  17  1   
 30  15  30  1   
 31  16  31  1   
 32  16  32  1   
 33  16  33  1   
 34  17  34  1   
 35  17  35  1   
 36  17  36  1   
@<TRIPOS>SUBSTRUCTURE
  1 ****   7 GROUP 4 **** **** 0

# MOE 2024.06 (io_trps.svl 2023.06)
