@<TRIPOS>MOLECULE
NONAME
35 37 1 0 0 
SMALL
USER_CHARGES


@<TRIPOS>ATOM
  1 O      -11.2850     1.0180    -0.2740 O.2   1 <1>  -0.5700 
  2 C      -11.3600    -0.1800    -0.0840 C.2   1 <1>   0.6340 
  3 O      -12.5700    -0.7440     0.0010 O.3   1 <1>  -0.4300 
  4 C      -10.1920    -1.0280     0.0550 C.ar  1 <1>   0.0860 
  5 C      -13.7560     0.0160    -0.1250 C.3   1 <1>   0.0400 
  6 C       -8.9130    -0.4900    -0.0170 C.ar  1 <1>  -0.1500 
  7 C      -10.3050    -2.4210     0.2670 C.ar  1 <1>  -0.1500 
  8 C       -7.7830    -1.2970     0.1140 C.ar  1 <1>   0.0000 
  9 C       -9.2040    -3.2330     0.3990 C.ar  1 <1>  -0.1500 
 10 C       -7.9320    -2.6650     0.3220 C.ar  1 <1>  -0.1520 
 11 C       -6.3920    -1.0590     0.0860 C.2   1 <1>  -0.1810 
 12 N       -6.6900    -3.2370     0.4190 N.pl3 1 <1>   0.0330 
 13 C       -5.7650    -2.2400     0.2760 C.2   1 <1>  -0.3320 
 14 C       -5.6900     0.2660    -0.1170 C.3   1 <1>   0.5240 
 15 C       -4.2570    -2.3910     0.3160 C.3   1 <1>   0.0200 
 16 N       -4.2840    -0.0220    -0.5580 N.4   1 <1>  -0.9590 
 17 C       -3.5980    -0.9960     0.3650 C.3   1 <1>   0.3430 
 18 C       -3.4990     1.2330    -0.7410 C.3   1 <1>   0.2630 
 19 H      -13.7750     0.7620     0.6500 H     1 <1>   0.0800 
 20 H      -14.5980    -0.6460    -0.0230 H     1 <1>   0.0800 
 21 H      -13.7680     0.4850    -1.0930 H     1 <1>   0.0800 
 22 H       -8.7920     0.5660    -0.1750 H     1 <1>   0.1500 
 23 H      -11.2880    -2.8560     0.3260 H     1 <1>   0.1500 
 24 H       -9.3130    -4.2920     0.5600 H     1 <1>   0.1500 
 25 H       -6.5150    -4.2360     0.5760 H     1 <1>   0.2700 
 26 H       -5.6940     0.8200     0.8070 H     1 <1>   0.0800 
 27 H       -6.2080     0.8370    -0.8700 H     1 <1>   0.0800 
 28 H       -3.9210    -2.9230    -0.5570 H     1 <1>   0.0800 
 29 H       -3.9600    -2.9530     1.1850 H     1 <1>   0.0800 
 30 H       -4.3930    -0.5040    -1.4610 H     1 <1>   0.4500 
 31 H       -2.5570    -1.0900     0.1010 H     1 <1>   0.0800 
 32 H       -3.6540    -0.6230     1.3750 H     1 <1>   0.0800 
 33 H       -3.3930     1.7510     0.1990 H     1 <1>   0.0800 
 34 H       -3.9940     1.8870    -1.4420 H     1 <1>   0.0800 
 35 H       -2.5160     1.0060    -1.1220 H     1 <1>   0.0800 
@<TRIPOS>BOND
  1   1   2  2   
  2   2   3  1   
  3   2   4  1   
  4   3   5  1   
  5   4   6  ar  
  6   4   7  ar  
  7   5  19  1   
  8   5  20  1   
  9   5  21  1   
 10   6   8  ar  
 11   6  22  1   
 12   7   9  ar  
 13   7  23  1   
 14   8  10  ar  
 15   8  11  1   
 16   9  10  ar  
 17   9  24  1   
 18  10  12  1   
 19  11  13  2   
 20  11  14  1   
 21  12  13  1   
 22  12  25  1   
 23  13  15  1   
 24  14  16  1   
 25  14  26  1   
 26  14  27  1   
 27  15  17  1   
 28  15  28  1   
 29  15  29  1   
 30  16  17  1   
 31  16  18  1   
 32  16  30  1   
 33  17  31  1   
 34  17  32  1   
 35  18  33  1   
 36  18  34  1   
 37  18  35  1   
@<TRIPOS>SUBSTRUCTURE
  1 ****   8 GROUP 4 **** **** 0

# MOE 2024.06 (io_trps.svl 2023.06)
