@<TRIPOS>MOLECULE
NONAME
52 55 1 0 0 
SMALL
USER_CHARGES


@<TRIPOS>ATOM
  1 O      -11.2950     3.3810     0.3170 O.2   1 <1>  -0.5700 
  2 C      -11.8520     2.4910    -0.2840 C.2   1 <1>   0.5690 
  3 N      -11.1200     1.6470    -1.0650 N.am  1 <1>  -0.7300 
  4 C      -13.3790     2.2900    -0.1780 C.3   1 <1>   0.0610 
  5 C       -9.6650     1.8080    -1.3310 C.3   1 <1>   0.1400 
  6 C      -14.0390     2.4270    -1.5740 C.3   1 <1>  -0.1600 
  7 C      -14.0310     3.3390     0.7630 C.3   1 <1>  -0.1600 
  8 C      -13.7010     0.8810     0.3820 C.3   1 <1>  -0.1600 
  9 C       -8.8370     1.8150    -0.0210 C.3   1 <1>   0.4230 
 10 C      -15.5620     2.2090    -1.4880 C.3   1 <1>  -0.0800 
 11 C      -15.5530     3.1290     0.8600 C.3   1 <1>  -0.0800 
 12 C      -15.2230     0.6590     0.4740 C.3   1 <1>  -0.0800 
 13 N       -7.4280     2.2820    -0.2470 N.4   1 <1>  -0.9590 
 14 C       -8.7220     0.4180     0.5950 C.3   1 <1>  -0.1600 
 15 C      -16.1710     3.2610    -0.5440 C.3   1 <1>  -0.1600 
 16 C      -15.8420     0.8020    -0.9280 C.3   1 <1>  -0.1600 
 17 C      -15.8340     1.7190     1.4090 C.3   1 <1>  -0.1600 
 18 C       -6.5150     1.3180     0.4220 C.3   1 <1>   0.3430 
 19 C       -7.1970     3.6670     0.2470 C.3   1 <1>   0.3430 
 20 C       -7.2680     0.0030     0.4060 C.3   1 <1>  -0.1600 
 21 C       -7.9100     4.6780    -0.6420 C.3   1 <1>  -0.2400 
 22 H      -11.6210     0.9440    -1.6170 H     1 <1>   0.3700 
 23 H       -9.5310     2.7410    -1.8490 H     1 <1>   0.0800 
 24 H       -9.3330     1.0090    -1.9700 H     1 <1>   0.0800 
 25 H      -13.8400     3.4070    -1.9720 H     1 <1>   0.0800 
 26 H      -13.6230     1.7090    -2.2580 H     1 <1>   0.0800 
 27 H      -13.8300     4.3310     0.3960 H     1 <1>   0.0800 
 28 H      -13.5970     3.2660     1.7450 H     1 <1>   0.0800 
 29 H      -13.2650     0.7740     1.3600 H     1 <1>   0.0800 
 30 H      -13.2760     0.1210    -0.2480 H     1 <1>   0.0800 
 31 H       -9.3130     2.4710     0.6890 H     1 <1>   0.0800 
 32 H      -16.0000     2.3050    -2.4670 H     1 <1>   0.0800 
 33 H      -15.9810     3.8670     1.5170 H     1 <1>   0.0800 
 34 H      -15.4250    -0.3250     0.8620 H     1 <1>   0.0800 
 35 H       -7.2390     2.2550    -1.2550 H     1 <1>   0.4500 
 36 H       -9.4060    -0.2890     0.1580 H     1 <1>   0.0800 
 37 H       -8.9510     0.4930     1.6440 H     1 <1>   0.0800 
 38 H      -17.2380     3.1250    -0.4860 H     1 <1>   0.0800 
 39 H      -15.9900     4.2490    -0.9300 H     1 <1>   0.0800 
 40 H      -15.4320     0.0570    -1.5880 H     1 <1>   0.0800 
 41 H      -16.9040     0.6390    -0.8740 H     1 <1>   0.0800 
 42 H      -16.8960     1.5650     1.4890 H     1 <1>   0.0800 
 43 H      -15.4160     1.6220     2.3950 H     1 <1>   0.0800 
 44 H       -6.3510     1.6190     1.4450 H     1 <1>   0.0800 
 45 H       -5.5650     1.2450    -0.0850 H     1 <1>   0.0800 
 46 H       -6.1400     3.8810     0.2360 H     1 <1>   0.0800 
 47 H       -7.5490     3.7620     1.2630 H     1 <1>   0.0800 
 48 H       -7.1330    -0.4780    -0.5470 H     1 <1>   0.0800 
 49 H       -6.9280    -0.6600     1.1830 H     1 <1>   0.0800 
 50 H       -7.6230     4.5630    -1.6710 H     1 <1>   0.0800 
 51 H       -7.6370     5.6710    -0.3300 H     1 <1>   0.0800 
 52 H       -8.9780     4.5970    -0.5440 H     1 <1>   0.0800 
@<TRIPOS>BOND
  1   1   2  2   
  2   2   3  am  
  3   2   4  1   
  4   3   5  1   
  5   3  22  1   
  6   4   6  1   
  7   4   7  1   
  8   4   8  1   
  9   5   9  1   
 10   5  23  1   
 11   5  24  1   
 12   6  10  1   
 13   6  25  1   
 14   6  26  1   
 15   7  11  1   
 16   7  27  1   
 17   7  28  1   
 18   8  12  1   
 19   8  29  1   
 20   8  30  1   
 21   9  13  1   
 22   9  14  1   
 23   9  31  1   
 24  10  15  1   
 25  10  16  1   
 26  10  32  1   
 27  11  15  1   
 28  11  17  1   
 29  11  33  1   
 30  12  16  1   
 31  12  17  1   
 32  12  34  1   
 33  13  18  1   
 34  13  19  1   
 35  13  35  1   
 36  14  20  1   
 37  14  36  1   
 38  14  37  1   
 39  15  38  1   
 40  15  39  1   
 41  16  40  1   
 42  16  41  1   
 43  17  42  1   
 44  17  43  1   
 45  18  20  1   
 46  18  44  1   
 47  18  45  1   
 48  19  21  1   
 49  19  46  1   
 50  19  47  1   
 51  20  48  1   
 52  20  49  1   
 53  21  50  1   
 54  21  51  1   
 55  21  52  1   
@<TRIPOS>SUBSTRUCTURE
  1 ****   2 GROUP 4 **** **** 0

# MOE 2024.06 (io_trps.svl 2023.06)
