@<TRIPOS>MOLECULE
NONAME
38 40 1 0 0 
SMALL
USER_CHARGES


@<TRIPOS>ATOM
  1 O        2.5870     2.3030     1.3300 O.co2 1 <1>  -0.9000 
  2 C        2.1330     1.3220     0.7340 C.2   1 <1>   0.9060 
  3 O        2.3070     0.1620     1.1130 O.co2 1 <1>  -0.9000 
  4 C        1.3090     1.5670    -0.5030 C.3   1 <1>  -0.2660 
  5 C       -0.1380     1.9710    -0.1450 C.3   1 <1>  -0.0990 
  6 C       -0.7080     3.0300    -1.0740 C.2   1 <1>   0.5690 
  7 O       -1.5400     2.7180    -1.8890 O.2   1 <1>  -0.5700 
  8 N       -0.3060     4.3200    -0.9900 N.am  1 <1>  -0.7300 
  9 C        0.7230     4.9120    -0.1010 C.3   1 <1>   0.2200 
 10 C        0.1050     6.0310     0.7640 C.3   1 <1>  -0.0800 
 11 C        1.8860     5.4900    -0.9350 C.3   1 <1>  -0.0800 
 12 C       -0.3710     7.2100    -0.1130 C.3   1 <1>  -0.1600 
 13 C        1.1900     6.5430     1.7350 C.3   1 <1>  -0.1600 
 14 C        1.4070     6.6710    -1.8100 C.3   1 <1>  -0.1600 
 15 C        2.9660     6.0000     0.0400 C.3   1 <1>  -0.1600 
 16 C        0.8120     7.7790    -0.9200 C.3   1 <1>  -0.0800 
 17 C        2.3840     7.1080     0.9400 C.3   1 <1>  -0.0800 
 18 C        1.8970     8.2730     0.0570 C.3   1 <1>  -0.1600 
 19 H        1.3100     0.6800    -1.1050 H     1 <1>   0.0800 
 20 H        1.7970     2.3460    -1.0550 H     1 <1>   0.0800 
 21 H       -0.1750     2.3520     0.8590 H     1 <1>   0.0800 
 22 H       -0.7640     1.0980    -0.1710 H     1 <1>   0.0800 
 23 H       -0.7220     4.9660    -1.6550 H     1 <1>   0.3700 
 24 H        1.1170     4.1550     0.5530 H     1 <1>   0.0800 
 25 H       -0.7150     5.6280     1.3310 H     1 <1>   0.0800 
 26 H        2.3050     4.7120    -1.5480 H     1 <1>   0.0800 
 27 H       -0.7860     7.9800     0.5130 H     1 <1>   0.0800 
 28 H       -1.1490     6.8860    -0.7810 H     1 <1>   0.0800 
 29 H        0.7810     7.3040     2.3760 H     1 <1>   0.0800 
 30 H        1.5260     5.7320     2.3610 H     1 <1>   0.0800 
 31 H        2.2380     7.0620    -2.3710 H     1 <1>   0.0800 
 32 H        0.6720     6.3330    -2.5190 H     1 <1>   0.0800 
 33 H        3.8090     6.3770    -0.5120 H     1 <1>   0.0800 
 34 H        3.3150     5.1800     0.6480 H     1 <1>   0.0800 
 35 H        0.4760     8.5980    -1.5330 H     1 <1>   0.0800 
 36 H        3.1420     7.4560     1.6220 H     1 <1>   0.0800 
 37 H        1.4990     9.0570     0.6780 H     1 <1>   0.0800 
 38 H        2.7250     8.6820    -0.4940 H     1 <1>   0.0800 
@<TRIPOS>BOND
  1   1   2  ar  
  2   2   3  ar  
  3   2   4  1   
  4   4   5  1   
  5   4  19  1   
  6   4  20  1   
  7   5   6  1   
  8   5  21  1   
  9   5  22  1   
 10   6   7  2   
 11   6   8  am  
 12   8   9  1   
 13   8  23  1   
 14   9  10  1   
 15   9  11  1   
 16   9  24  1   
 17  10  12  1   
 18  10  13  1   
 19  10  25  1   
 20  11  14  1   
 21  11  15  1   
 22  11  26  1   
 23  12  16  1   
 24  12  27  1   
 25  12  28  1   
 26  13  17  1   
 27  13  29  1   
 28  13  30  1   
 29  14  16  1   
 30  14  31  1   
 31  14  32  1   
 32  15  17  1   
 33  15  33  1   
 34  15  34  1   
 35  16  18  1   
 36  16  35  1   
 37  17  18  1   
 38  17  36  1   
 39  18  37  1   
 40  18  38  1   
@<TRIPOS>SUBSTRUCTURE
  1 ****   9 GROUP 4 **** **** 0

# MOE 2024.06 (io_trps.svl 2023.06)
