@<TRIPOS>MOLECULE
NONAME
37 37 1 0 0 
SMALL
USER_CHARGES


@<TRIPOS>ATOM
  1 BR       1.4890    -0.4410    -1.5580 Br    1 <1>  -0.1110 
  2 C        0.5690    -1.9860    -0.8750 C.ar  1 <1>   0.1110 
  3 C       -0.6490    -2.3300    -1.4280 C.ar  1 <1>  -0.1500 
  4 C        1.1480    -2.7090     0.1490 C.ar  1 <1>  -0.1500 
  5 C       -1.3160    -3.4430    -0.9360 C.ar  1 <1>  -0.1440 
  6 C        0.4810    -3.8180     0.6380 C.ar  1 <1>  -0.1500 
  7 C       -0.7520    -4.1900     0.0990 C.ar  1 <1>   0.0830 
  8 C       -2.6490    -3.8460    -1.5260 C.3   1 <1>   0.4870 
  9 O       -1.4540    -5.2680     0.5490 O.3   1 <1>  -0.3630 
 10 N       -3.6340    -3.7860    -0.4200 N.4   1 <1>  -0.9060 
 11 C       -0.8170    -6.2560     1.3400 C.3   1 <1>   0.0400 
 12 C       -4.9860    -4.3310    -0.7730 C.3   1 <1>   0.3430 
 13 C       -5.9760    -4.3550     0.4290 C.3   1 <1>   0.3430 
 14 N       -7.3590    -4.8690     0.1010 N.4   1 <1>  -0.9590 
 15 C       -8.2740    -4.6720     1.2770 C.3   1 <1>   0.2630 
 16 C       -7.3890    -6.3210    -0.2910 C.3   1 <1>   0.2630 
 17 H       -1.0420    -1.7260    -2.2290 H     1 <1>   0.1500 
 18 H        2.1000    -2.4070     0.5520 H     1 <1>   0.1500 
 19 H        0.9390    -4.3710     1.4380 H     1 <1>   0.1500 
 20 H       -2.5740    -4.8500    -1.9140 H     1 <1>   0.0800 
 21 H       -2.9250    -3.1770    -2.3250 H     1 <1>   0.0800 
 22 H       -3.6450    -2.8130    -0.0860 H     1 <1>   0.4500 
 23 H       -3.1620    -4.3350     0.3250 H     1 <1>   0.4500 
 24 H       -1.4930    -7.0830     1.4670 H     1 <1>   0.0800 
 25 H       -0.5720    -5.8390     2.3010 H     1 <1>   0.0800 
 26 H        0.0720    -6.5930     0.8350 H     1 <1>   0.0800 
 27 H       -4.8690    -5.3370    -1.1430 H     1 <1>   0.0800 
 28 H       -5.4100    -3.7290    -1.5600 H     1 <1>   0.0800 
 29 H       -6.0670    -3.3500     0.8090 H     1 <1>   0.0800 
 30 H       -5.5570    -4.9670     1.2110 H     1 <1>   0.0800 
 31 H       -7.7720    -4.3200    -0.6750 H     1 <1>   0.4500 
 32 H       -7.9240    -5.2350     2.1280 H     1 <1>   0.0800 
 33 H       -9.2720    -5.0040     1.0370 H     1 <1>   0.0800 
 34 H       -8.3220    -3.6300     1.5500 H     1 <1>   0.0800 
 35 H       -6.9980    -6.9360     0.5040 H     1 <1>   0.0800 
 36 H       -6.8050    -6.4920    -1.1810 H     1 <1>   0.0800 
 37 H       -8.4030    -6.6320    -0.4910 H     1 <1>   0.0800 
@<TRIPOS>BOND
  1   1   2  1   
  2   2   3  ar  
  3   2   4  ar  
  4   3   5  ar  
  5   3  17  1   
  6   4   6  ar  
  7   4  18  1   
  8   5   7  ar  
  9   5   8  1   
 10   6   7  ar  
 11   6  19  1   
 12   7   9  1   
 13   8  10  1   
 14   8  20  1   
 15   8  21  1   
 16   9  11  1   
 17  10  12  1   
 18  10  22  1   
 19  10  23  1   
 20  11  24  1   
 21  11  25  1   
 22  11  26  1   
 23  12  13  1   
 24  12  27  1   
 25  12  28  1   
 26  13  14  1   
 27  13  29  1   
 28  13  30  1   
 29  14  15  1   
 30  14  16  1   
 31  14  31  1   
 32  15  32  1   
 33  15  33  1   
 34  15  34  1   
 35  16  35  1   
 36  16  36  1   
 37  16  37  1   
@<TRIPOS>SUBSTRUCTURE
  1 ****  10 GROUP 4 **** **** 0

# MOE 2024.06 (io_trps.svl 2023.06)
