@<TRIPOS>MOLECULE
NONAME
44 45 1 0 0 
SMALL
USER_CHARGES


@<TRIPOS>ATOM
  1 S       -0.1090     0.0620     0.2290 S.o2  1 <1>   1.3330 
  2 O        0.1470    -0.6370    -1.0100 O.2   1 <1>  -0.6500 
  3 O        0.2720    -0.5400     1.4880 O.2   1 <1>  -0.6500 
  4 N       -1.7660     0.4050     0.2970 N.am  1 <1>  -0.8490 
  5 C        0.6240     1.7000     0.1520 C.3   1 <1>  -0.0550 
  6 C       -2.5150    -0.6550     1.0070 C.3   1 <1>   0.1960 
  7 C       -2.3640     0.6010    -1.0420 C.3   1 <1>   0.1960 
  8 C        2.1600     1.6870     0.0860 C.3   1 <1>  -0.1600 
  9 C       -4.0180    -0.3320     1.1330 C.3   1 <1>   0.2090 
 10 C       -3.8560     0.9790    -0.9650 C.3   1 <1>   0.2090 
 11 C        2.7270     3.1100     0.0190 C.3   1 <1>  -0.1600 
 12 N       -4.6310    -0.0400    -0.1980 N.pl3 1 <1>  -0.8380 
 13 C        4.2560     3.0870    -0.0460 C.3   1 <1>  -0.2400 
 14 C       -6.0140     0.0670    -0.2390 C.ar  1 <1>   0.1000 
 15 C       -6.6830     1.1270     0.3620 C.ar  1 <1>  -0.1500 
 16 C       -6.7540    -0.9030    -0.8970 C.ar  1 <1>  -0.1500 
 17 C       -8.0690     1.2320     0.3120 C.ar  1 <1>  -0.1440 
 18 C       -8.1320    -0.8200    -0.9550 C.ar  1 <1>  -0.1500 
 19 C       -8.7860     0.2410    -0.3530 C.ar  1 <1>  -0.1500 
 20 C       -8.8060     2.4030     0.9780 C.3   1 <1>   1.1630 
 21 F       -9.7990     2.8710     0.2300 F     1 <1>  -0.3400 
 22 F       -8.0150     3.4400     1.2320 F     1 <1>  -0.3400 
 23 F       -9.3470     2.0550     2.1380 F     1 <1>  -0.3400 
 24 H        0.3190     2.2530     1.0190 H     1 <1>   0.0800 
 25 H        0.2470     2.2110    -0.7120 H     1 <1>   0.0800 
 26 H       -2.1160    -0.7770     1.9990 H     1 <1>   0.0800 
 27 H       -2.3990    -1.5920     0.4870 H     1 <1>   0.0800 
 28 H       -2.2730    -0.3030    -1.6210 H     1 <1>   0.0800 
 29 H       -1.8370     1.3800    -1.5630 H     1 <1>   0.0800 
 30 H        2.4720     1.1310    -0.7830 H     1 <1>   0.0800 
 31 H        2.5460     1.1830     0.9570 H     1 <1>   0.0800 
 32 H       -4.1410     0.5170     1.7810 H     1 <1>   0.0800 
 33 H       -4.5250    -1.1700     1.5790 H     1 <1>   0.0800 
 34 H       -4.2580     1.0500    -1.9610 H     1 <1>   0.0800 
 35 H       -3.9550     1.9400    -0.4920 H     1 <1>   0.0800 
 36 H        2.4200     3.6650     0.8900 H     1 <1>   0.0800 
 37 H        2.3450     3.6140    -0.8520 H     1 <1>   0.0800 
 38 H        4.6630     2.6070     0.8270 H     1 <1>   0.0800 
 39 H        4.6380     4.0920    -0.0920 H     1 <1>   0.0800 
 40 H        4.5890     2.5550    -0.9200 H     1 <1>   0.0800 
 41 H       -6.0950     1.8700     0.8710 H     1 <1>   0.1500 
 42 H       -6.2350    -1.7220    -1.3600 H     1 <1>   0.1500 
 43 H       -8.6950    -1.5810    -1.4680 H     1 <1>   0.1500 
 44 H       -9.8610     0.2910    -0.4070 H     1 <1>   0.1500 
@<TRIPOS>BOND
  1   1   2  2   
  2   1   3  2   
  3   1   4  am  
  4   1   5  1   
  5   4   6  1   
  6   4   7  1   
  7   5   8  1   
  8   5  24  1   
  9   5  25  1   
 10   6   9  1   
 11   6  26  1   
 12   6  27  1   
 13   7  10  1   
 14   7  28  1   
 15   7  29  1   
 16   8  11  1   
 17   8  30  1   
 18   8  31  1   
 19   9  12  1   
 20   9  32  1   
 21   9  33  1   
 22  10  12  1   
 23  10  34  1   
 24  10  35  1   
 25  11  13  1   
 26  11  36  1   
 27  11  37  1   
 28  12  14  1   
 29  13  38  1   
 30  13  39  1   
 31  13  40  1   
 32  14  15  ar  
 33  14  16  ar  
 34  15  17  ar  
 35  15  41  1   
 36  16  18  ar  
 37  16  42  1   
 38  17  19  ar  
 39  17  20  1   
 40  18  19  ar  
 41  18  43  1   
 42  19  44  1   
 43  20  21  1   
 44  20  22  1   
 45  20  23  1   
@<TRIPOS>SUBSTRUCTURE
  1 ****  10 GROUP 4 **** **** 0

# MOE 2024.06 (io_trps.svl 2023.06)
