@<TRIPOS>MOLECULE
NONAME
32 32 1 0 0 
SMALL
USER_CHARGES


@<TRIPOS>ATOM
  1 S        0.1750    -0.3170    -0.5310 S.3   1 <1>  -0.0800 
  2 C       -0.2600     1.3310    -0.1280 C.2   1 <1>   0.1040 
  3 C       -1.4620    -0.8830    -0.2810 C.2   1 <1>  -0.1400 
  4 N        0.7170     2.3180    -0.1490 N.am  1 <1>  -0.4940 
  5 C       -1.5940     1.4270     0.1740 C.2   1 <1>  -0.0860 
  6 C       -2.2640     0.1370     0.0850 C.2   1 <1>  -0.1810 
  7 C       -1.6560    -2.3700    -0.5140 C.3   1 <1>  -0.0600 
  8 C        2.0520     2.3330    -0.4620 C.2   1 <1>   0.5690 
  9 C       -2.2040     2.6890     0.5290 C.2   1 <1>   0.8060 
 10 C       -3.7470    -0.0440     0.3870 C.3   1 <1>  -0.0590 
 11 O        2.6830     1.3710    -0.8290 O.2   1 <1>  -0.5700 
 12 C        2.7850     3.6650    -0.3350 C.3   1 <1>   0.1810 
 13 O       -1.5590     3.7070     0.7140 O.2   1 <1>  -0.5700 
 14 O       -3.5350     2.7760     0.6570 O.3   1 <1>  -0.4300 
 15 O        1.9190     4.7000     0.0660 O.3   1 <1>  -0.5600 
 16 C       -4.1820     3.9890     0.9910 C.3   1 <1>   0.0400 
 17 C        2.5390     5.9380     0.2020 C.3   1 <1>   0.0400 
 18 H        0.3890     3.2540     0.1330 H     1 <1>   0.3700 
 19 H       -1.3720    -2.6170    -1.5210 H     1 <1>   0.0800 
 20 H       -2.6770    -2.6660    -0.3650 H     1 <1>   0.0800 
 21 H       -1.0350    -2.9260     0.1650 H     1 <1>   0.0800 
 22 H       -4.0420    -1.0740     0.3250 H     1 <1>   0.0800 
 23 H       -4.3380     0.5120    -0.3170 H     1 <1>   0.0800 
 24 H       -3.9660     0.2990     1.3820 H     1 <1>   0.0800 
 25 H        3.2110     3.9220    -1.2880 H     1 <1>   0.0800 
 26 H        3.5670     3.5660     0.3960 H     1 <1>   0.0800 
 27 H       -5.2420     3.8100     1.0340 H     1 <1>   0.0800 
 28 H       -3.9610     4.7230     0.2340 H     1 <1>   0.0800 
 29 H       -3.8240     4.3240     1.9490 H     1 <1>   0.0800 
 30 H        1.7950     6.6520     0.5100 H     1 <1>   0.0800 
 31 H        2.9560     6.2340    -0.7450 H     1 <1>   0.0800 
 32 H        3.3080     5.8710     0.9530 H     1 <1>   0.0800 
@<TRIPOS>BOND
  1   1   2  1   
  2   1   3  1   
  3   2   4  1   
  4   2   5  2   
  5   3   6  2   
  6   3   7  1   
  7   4   8  am  
  8   4  18  1   
  9   5   6  1   
 10   5   9  1   
 11   6  10  1   
 12   7  19  1   
 13   7  20  1   
 14   7  21  1   
 15   8  11  2   
 16   8  12  1   
 17   9  13  2   
 18   9  14  1   
 19  10  22  1   
 20  10  23  1   
 21  10  24  1   
 22  12  15  1   
 23  12  25  1   
 24  12  26  1   
 25  14  16  1   
 26  15  17  1   
 27  16  27  1   
 28  16  28  1   
 29  16  29  1   
 30  17  30  1   
 31  17  31  1   
 32  17  32  1   
@<TRIPOS>SUBSTRUCTURE
  1 ****   2 GROUP 4 **** **** 0

# MOE 2024.06 (io_trps.svl 2023.06)
