@<TRIPOS>MOLECULE
NONAME
51 51 1 0 0 
SMALL
USER_CHARGES


@<TRIPOS>ATOM
  1 O       -0.1360    -1.1920     1.6630 O.2   1 <1>  -0.5700 
  2 C        0.0590    -1.8440     0.6590 C.2   1 <1>   0.7800 
  3 O       -0.8850    -2.6630     0.1970 O.3   1 <1>  -0.4300 
  4 N        1.2470    -1.7940    -0.0240 N.am  1 <1>  -0.6600 
  5 C       -2.1360    -2.7570     0.8410 C.3   1 <1>   0.1200 
  6 C        2.3660    -0.9170     0.4300 C.3   1 <1>   0.1400 
  7 C        1.5750    -2.6950    -1.1670 C.3   1 <1>   0.1400 
  8 C       -2.9860    -3.7690     0.0790 C.3   1 <1>  -0.2400 
  9 C        3.6200    -1.7580     0.7290 C.3   1 <1>   0.3430 
 10 C        2.8420    -3.5160    -0.8560 C.3   1 <1>   0.3430 
 11 N        3.9990    -2.6480    -0.4310 N.4   1 <1>  -0.9590 
 12 C        5.1980    -3.4850    -0.1300 C.3   1 <1>   0.3430 
 13 C        6.4840    -2.6460    -0.0100 C.3   1 <1>  -0.0800 
 14 C        7.6590    -3.6090     0.2580 C.3   1 <1>  -0.1600 
 15 C        6.7350    -1.7900    -1.2680 C.3   1 <1>  -0.2400 
 16 C        8.9820    -2.9130     0.6050 C.3   1 <1>  -0.0220 
 17 C       10.0140    -3.9620     0.9840 C.2   1 <1>  -0.2880 
 18 C       11.0680    -4.3890     0.2770 C.2   1 <1>  -0.2760 
 19 C       12.0130    -5.4460     0.8270 C.3   1 <1>  -0.1020 
 20 C       11.4780    -3.9250    -1.1150 C.3   1 <1>  -0.1020 
 21 H       -1.9760    -3.0750     1.8580 H     1 <1>   0.0800 
 22 H       -2.5980    -1.7830     0.8360 H     1 <1>   0.0800 
 23 H        2.5830    -0.1930    -0.3360 H     1 <1>   0.0800 
 24 H        2.0880    -0.3740     1.3180 H     1 <1>   0.0800 
 25 H        0.7610    -3.3710    -1.3680 H     1 <1>   0.0800 
 26 H        1.7290    -2.1040    -2.0520 H     1 <1>   0.0800 
 27 H       -2.5120    -4.7340     0.0850 H     1 <1>   0.0800 
 28 H       -3.1310    -3.4430    -0.9350 H     1 <1>   0.0800 
 29 H       -3.9480    -3.8590     0.5490 H     1 <1>   0.0800 
 30 H        3.4230    -2.3620     1.6000 H     1 <1>   0.0800 
 31 H        4.4350    -1.0940     0.9660 H     1 <1>   0.0800 
 32 H        3.1120    -4.0870    -1.7300 H     1 <1>   0.0800 
 33 H        2.6060    -4.2140    -0.0690 H     1 <1>   0.0800 
 34 H        4.2430    -2.0410    -1.2250 H     1 <1>   0.4500 
 35 H        5.0400    -4.0340     0.7840 H     1 <1>   0.0800 
 36 H        5.3390    -4.2020    -0.9230 H     1 <1>   0.0800 
 37 H        6.3990    -1.9980     0.8460 H     1 <1>   0.0800 
 38 H        7.4040    -4.2520     1.0840 H     1 <1>   0.0800 
 39 H        7.8220    -4.2400    -0.6000 H     1 <1>   0.0800 
 40 H        6.8520    -2.4140    -2.1380 H     1 <1>   0.0800 
 41 H        7.6300    -1.2030    -1.1570 H     1 <1>   0.0800 
 42 H        5.9340    -1.0960    -1.4430 H     1 <1>   0.0800 
 43 H        8.8490    -2.2450     1.4380 H     1 <1>   0.0800 
 44 H        9.3310    -2.3290    -0.2240 H     1 <1>   0.0800 
 45 H        9.8070    -4.3680     1.9600 H     1 <1>   0.1500 
 46 H       12.0170    -6.3090     0.1860 H     1 <1>   0.0800 
 47 H       11.7110    -5.7560     1.8110 H     1 <1>   0.0800 
 48 H       13.0120    -5.0530     0.8880 H     1 <1>   0.0800 
 49 H       12.4400    -3.4470    -1.0720 H     1 <1>   0.0800 
 50 H       10.7780    -3.2320    -1.5380 H     1 <1>   0.0800 
 51 H       11.5440    -4.7700    -1.7770 H     1 <1>   0.0800 
@<TRIPOS>BOND
  1   1   2  2   
  2   2   3  1   
  3   2   4  am  
  4   3   5  1   
  5   4   6  1   
  6   4   7  1   
  7   5   8  1   
  8   5  21  1   
  9   5  22  1   
 10   6   9  1   
 11   6  23  1   
 12   6  24  1   
 13   7  10  1   
 14   7  25  1   
 15   7  26  1   
 16   8  27  1   
 17   8  28  1   
 18   8  29  1   
 19   9  11  1   
 20   9  30  1   
 21   9  31  1   
 22  10  11  1   
 23  10  32  1   
 24  10  33  1   
 25  11  12  1   
 26  11  34  1   
 27  12  13  1   
 28  12  35  1   
 29  12  36  1   
 30  13  14  1   
 31  13  15  1   
 32  13  37  1   
 33  14  16  1   
 34  14  38  1   
 35  14  39  1   
 36  15  40  1   
 37  15  41  1   
 38  15  42  1   
 39  16  17  1   
 40  16  43  1   
 41  16  44  1   
 42  17  18  2   
 43  17  45  1   
 44  18  19  1   
 45  18  20  1   
 46  19  46  1   
 47  19  47  1   
 48  19  48  1   
 49  20  49  1   
 50  20  50  1   
 51  20  51  1   
@<TRIPOS>SUBSTRUCTURE
  1 ****  11 GROUP 4 **** **** 0

# MOE 2024.06 (io_trps.svl 2023.06)
