@<TRIPOS>MOLECULE
NONAME
48 49 1 0 0 
SMALL
USER_CHARGES


@<TRIPOS>ATOM
  1 O       -1.9220    -8.2570    -0.1920 O.3   1 <1>  -0.3630 
  2 C       -3.1440    -7.6880    -0.0400 C.ar  1 <1>   0.0830 
  3 C       -0.7460    -7.5020    -0.0370 C.3   1 <1>   0.1200 
  4 C       -3.3410    -6.3480     0.2780 C.ar  1 <1>  -0.1500 
  5 C       -4.2430    -8.5140    -0.2170 C.ar  1 <1>  -0.1500 
  6 C        0.4390    -8.4400    -0.2770 C.3   1 <1>  -0.1600 
  7 C       -4.6220    -5.8410     0.4170 C.ar  1 <1>   0.0830 
  8 C       -5.5250    -8.0130    -0.0800 C.ar  1 <1>  -0.1500 
  9 C        1.7820    -7.7100    -0.1400 C.3   1 <1>  -0.1600 
 10 O       -4.7230    -4.5240     0.7280 O.3   1 <1>  -0.3630 
 11 C       -5.7190    -6.6800     0.2360 C.ar  1 <1>  -0.1500 
 12 C        2.9420    -8.6800    -0.3760 C.3   1 <1>   0.3430 
 13 C       -5.9790    -3.9050     0.8930 C.3   1 <1>   0.0400 
 14 N        4.2440    -7.9860    -0.1850 N.4   1 <1>  -0.9590 
 15 C        4.5700    -7.0680    -1.3090 C.3   1 <1>   0.3430 
 16 C        5.3460    -8.9690     0.0000 C.3   1 <1>   0.3430 
 17 C        5.1260    -5.7490    -0.7720 C.3   1 <1>  -0.1600 
 18 C        6.4970    -8.3630     0.8090 C.3   1 <1>  -0.1600 
 19 C        6.1480    -5.8570     0.3750 C.3   1 <1>  -0.1600 
 20 C        7.1020    -7.0570     0.2610 C.3   1 <1>  -0.1600 
 21 H       -0.7290    -7.1040     0.9630 H     1 <1>   0.0800 
 22 H       -0.7600    -6.7030    -0.7590 H     1 <1>   0.0800 
 23 H       -2.5220    -5.6730     0.4250 H     1 <1>   0.1500 
 24 H       -4.0850    -9.5480    -0.4620 H     1 <1>   0.1500 
 25 H        0.3490    -8.8560    -1.2660 H     1 <1>   0.0800 
 26 H        0.3860    -9.2440     0.4390 H     1 <1>   0.0800 
 27 H       -6.3720    -8.6630    -0.2200 H     1 <1>   0.1500 
 28 H        1.8550    -7.2960     0.8510 H     1 <1>   0.0800 
 29 H        1.8120    -6.9070    -0.8560 H     1 <1>   0.0800 
 30 H       -6.7230    -6.3160     0.3370 H     1 <1>   0.1500 
 31 H        2.8830    -9.0930    -1.3710 H     1 <1>   0.0800 
 32 H        2.8590    -9.4910     0.3290 H     1 <1>   0.0800 
 33 H       -5.8120    -2.8700     1.1330 H     1 <1>   0.0800 
 34 H       -6.5030    -4.3880     1.6980 H     1 <1>   0.0800 
 35 H       -6.5290    -3.9820    -0.0280 H     1 <1>   0.0800 
 36 H        4.1970    -7.4180     0.6700 H     1 <1>   0.4500 
 37 H        3.6920    -6.8640    -1.9000 H     1 <1>   0.0800 
 38 H        5.3010    -7.5290    -1.9540 H     1 <1>   0.0800 
 39 H        5.7090    -9.3000    -0.9610 H     1 <1>   0.0800 
 40 H        4.9780    -9.8330     0.5300 H     1 <1>   0.0800 
 41 H        4.3100    -5.1230    -0.4570 H     1 <1>   0.0800 
 42 H        5.5950    -5.2440    -1.5990 H     1 <1>   0.0800 
 43 H        7.2820    -9.0990     0.8480 H     1 <1>   0.0800 
 44 H        6.1730    -8.2130     1.8240 H     1 <1>   0.0800 
 45 H        5.6390    -5.8910     1.3230 H     1 <1>   0.0800 
 46 H        6.7340    -4.9530     0.3790 H     1 <1>   0.0800 
 47 H        7.4380    -7.1820    -0.7540 H     1 <1>   0.0800 
 48 H        7.9760    -6.8350     0.8510 H     1 <1>   0.0800 
@<TRIPOS>BOND
  1   1   2  1   
  2   1   3  1   
  3   2   4  ar  
  4   2   5  ar  
  5   3   6  1   
  6   3  21  1   
  7   3  22  1   
  8   4   7  ar  
  9   4  23  1   
 10   5   8  ar  
 11   5  24  1   
 12   6   9  1   
 13   6  25  1   
 14   6  26  1   
 15   7  10  1   
 16   7  11  ar  
 17   8  11  ar  
 18   8  27  1   
 19   9  12  1   
 20   9  28  1   
 21   9  29  1   
 22  10  13  1   
 23  11  30  1   
 24  12  14  1   
 25  12  31  1   
 26  12  32  1   
 27  13  33  1   
 28  13  34  1   
 29  13  35  1   
 30  14  15  1   
 31  14  16  1   
 32  14  36  1   
 33  15  17  1   
 34  15  37  1   
 35  15  38  1   
 36  16  18  1   
 37  16  39  1   
 38  16  40  1   
 39  17  19  1   
 40  17  41  1   
 41  17  42  1   
 42  18  20  1   
 43  18  43  1   
 44  18  44  1   
 45  19  20  1   
 46  19  45  1   
 47  19  46  1   
 48  20  47  1   
 49  20  48  1   
@<TRIPOS>SUBSTRUCTURE
  1 ****   3 GROUP 4 **** **** 0

# MOE 2024.06 (io_trps.svl 2023.06)
