@<TRIPOS>MOLECULE
NONAME
40 42 1 0 0 
SMALL
USER_CHARGES


@<TRIPOS>ATOM
  1 CL       0.9510     0.3480    -2.4320 Cl    1 <1>  -0.1770 
  2 C       -0.5530     0.9950    -1.8090 C.ar  1 <1>   0.1770 
  3 C       -0.5210     1.9180    -0.7620 C.ar  1 <1>   0.1170 
  4 C       -1.7380     0.5630    -2.3790 C.ar  1 <1>  -0.1500 
  5 N        0.7170     2.3190    -0.2280 N.am  1 <1>  -0.5470 
  6 C       -1.7380     2.4090    -0.2970 C.ar  1 <1>  -0.1500 
  7 C       -2.9390     1.0600    -1.9020 C.ar  1 <1>  -0.1500 
  8 C        1.0780     2.9710     0.9150 C.2   1 <1>   0.5690 
  9 C       -2.9210     1.9780    -0.8660 C.ar  1 <1>   0.1770 
 10 O        0.2950     3.3740     1.7420 O.2   1 <1>  -0.5700 
 11 C        2.5780     3.1830     1.1330 C.3   1 <1>   0.1710 
 12 CL      -4.4360     2.6050    -0.2690 Cl    1 <1>  -0.1770 
 13 N        3.4350     2.2830     0.3020 N.3   1 <1>  -0.8100 
 14 C        4.8000     2.8210     0.1950 C.3   1 <1>   0.1100 
 15 C        3.4550     0.9160     0.8620 C.3   1 <1>   0.1100 
 16 C        5.6180     1.9660    -0.7730 C.3   1 <1>  -0.1600 
 17 C        4.2160    -0.0150    -0.0800 C.3   1 <1>  -0.1600 
 18 C        5.6270     0.5080    -0.3140 C.3   1 <1>   0.5600 
 19 O        6.2660    -0.2970    -1.2450 O.3   1 <1>  -0.5600 
 20 O        6.3650     0.3740     0.8580 O.3   1 <1>  -0.5600 
 21 C        7.6050    -0.3820    -0.9210 C.3   1 <1>   0.1200 
 22 C        7.6620     0.0150     0.5420 C.3   1 <1>   0.1200 
 23 H       -1.7160    -0.1510    -3.1830 H     1 <1>   0.1500 
 24 H        1.5520     1.9970    -0.7390 H     1 <1>   0.3700 
 25 H       -1.7760     3.1250     0.5030 H     1 <1>   0.1500 
 26 H       -3.8780     0.7450    -2.3230 H     1 <1>   0.1500 
 27 H        2.8040     3.0510     2.1760 H     1 <1>   0.0800 
 28 H        2.7840     4.2070     0.8780 H     1 <1>   0.0800 
 29 H        5.2710     2.8290     1.1650 H     1 <1>   0.0800 
 30 H        4.7640     3.8310    -0.1770 H     1 <1>   0.0800 
 31 H        2.4510     0.5460     0.9820 H     1 <1>   0.0800 
 32 H        3.9310     0.9210     1.8300 H     1 <1>   0.0800 
 33 H        6.6190     2.3440    -0.8370 H     1 <1>   0.0800 
 34 H        5.1670     2.0240    -1.7470 H     1 <1>   0.0800 
 35 H        3.6950    -0.0640    -1.0170 H     1 <1>   0.0800 
 36 H        4.2660    -1.0030     0.3370 H     1 <1>   0.0800 
 37 H        8.1590     0.3030    -1.5380 H     1 <1>   0.0800 
 38 H        7.9450    -1.3900    -1.0830 H     1 <1>   0.0800 
 39 H        7.9560    -0.8080     1.1690 H     1 <1>   0.0800 
 40 H        8.3120     0.8570     0.7010 H     1 <1>   0.0800 
@<TRIPOS>BOND
  1   1   2  1   
  2   2   3  ar  
  3   2   4  ar  
  4   3   5  1   
  5   3   6  ar  
  6   4   7  ar  
  7   4  23  1   
  8   5   8  am  
  9   5  24  1   
 10   6   9  ar  
 11   6  25  1   
 12   7   9  ar  
 13   7  26  1   
 14   8  10  2   
 15   8  11  1   
 16   9  12  1   
 17  11  13  1   
 18  11  27  1   
 19  11  28  1   
 20  13  14  1   
 21  13  15  1   
 22  14  16  1   
 23  14  29  1   
 24  14  30  1   
 25  15  17  1   
 26  15  31  1   
 27  15  32  1   
 28  16  18  1   
 29  16  33  1   
 30  16  34  1   
 31  17  18  1   
 32  17  35  1   
 33  17  36  1   
 34  18  19  1   
 35  18  20  1   
 36  19  21  1   
 37  20  22  1   
 38  21  22  1   
 39  21  37  1   
 40  21  38  1   
 41  22  39  1   
 42  22  40  1   
@<TRIPOS>SUBSTRUCTURE
  1 ****   5 GROUP 4 **** **** 0

# MOE 2024.06 (io_trps.svl 2023.06)
