@<TRIPOS>MOLECULE
NONAME
55 57 1 0 0 
SMALL
USER_CHARGES


@<TRIPOS>ATOM
  1 O        0.3710    -0.5050     0.6030 O.2   1 <1>  -0.5700 
  2 C        0.5280     0.1520    -0.3980 C.2   1 <1>   0.5690 
  3 N       -0.1800     1.2720    -0.7400 N.am  1 <1>  -0.2370 
  4 C        1.5670    -0.1890    -1.4690 C.3   1 <1>   0.2810 
  5 C       -1.0880     1.9470     0.1110 C.ar  1 <1>   0.1170 
  6 C        0.1980     1.6920    -1.9880 C.2   1 <1>   0.5690 
  7 N        3.0240    -0.0770    -1.0690 N.am  1 <1>  -0.6600 
  8 C        1.2500     0.8010    -2.5940 C.3   1 <1>  -0.0990 
  9 C       -2.1080     1.2550     0.7580 C.ar  1 <1>  -0.1500 
 10 C       -0.9760     3.3170     0.3290 C.ar  1 <1>  -0.1500 
 11 O       -0.2160     2.6600    -2.5700 O.2   1 <1>  -0.5700 
 12 C        3.9390    -0.7640    -1.8300 C.2   1 <1>   0.5690 
 13 C        3.3590     0.6680     0.1910 C.3   1 <1>   0.1400 
 14 C       -2.9910     1.9080     1.6000 C.ar  1 <1>  -0.1500 
 15 C       -1.8560     3.9730     1.1700 C.ar  1 <1>  -0.1500 
 16 O        3.6070    -1.2890    -2.8660 O.2   1 <1>  -0.5700 
 17 C        5.4020    -0.9090    -1.4270 C.3   1 <1>  -0.0990 
 18 C        3.2780     2.1850    -0.0140 C.3   1 <1>  -0.0170 
 19 C       -2.8680     3.2780     1.8110 C.ar  1 <1>   0.0830 
 20 C        6.2520     0.3310    -1.7480 C.3   1 <1>  -0.2400 
 21 C        3.5450     2.8980     1.2980 C.ar  1 <1>  -0.1430 
 22 O       -3.6880     3.9980     2.6190 O.3   1 <1>  -0.3630 
 23 C        2.5230     3.0490     2.2230 C.ar  1 <1>  -0.1500 
 24 C        4.8050     3.3980     1.5860 C.ar  1 <1>  -0.1500 
 25 C       -4.7630     3.3900     3.2950 C.3   1 <1>   0.1200 
 26 C        2.7580     3.6960     3.4240 C.ar  1 <1>  -0.1500 
 27 C        5.0410     4.0450     2.7870 C.ar  1 <1>  -0.1500 
 28 C       -5.4860     4.4680     4.0970 C.3   1 <1>  -0.2400 
 29 C        4.0180     4.1950     3.7060 C.ar  1 <1>  -0.1500 
 30 H        1.3710    -1.1930    -1.8060 H     1 <1>   0.0800 
 31 H        0.8400     0.2910    -3.4460 H     1 <1>   0.0800 
 32 H        2.1070     1.3770    -2.8910 H     1 <1>   0.0800 
 33 H       -2.2090     0.1950     0.6070 H     1 <1>   0.1500 
 34 H       -0.2020     3.8790    -0.1630 H     1 <1>   0.1500 
 35 H        2.6990     0.3690     0.9870 H     1 <1>   0.0800 
 36 H        4.3520     0.4310     0.5240 H     1 <1>   0.0800 
 37 H       -3.7610     1.3360     2.0810 H     1 <1>   0.1500 
 38 H       -1.7660     5.0320     1.3340 H     1 <1>   0.1500 
 39 H        5.8080    -1.7450    -1.9690 H     1 <1>   0.0800 
 40 H        5.4730    -1.1570    -0.3850 H     1 <1>   0.0800 
 41 H        3.9960     2.4930    -0.7510 H     1 <1>   0.0800 
 42 H        2.3050     2.4740    -0.3600 H     1 <1>   0.0800 
 43 H        7.2850     0.1390    -1.5150 H     1 <1>   0.0800 
 44 H        6.1760     0.5670    -2.7950 H     1 <1>   0.0800 
 45 H        5.9270     1.1810    -1.1780 H     1 <1>   0.0800 
 46 H        1.5370     2.6650     2.0190 H     1 <1>   0.1500 
 47 H        5.6090     3.2900     0.8800 H     1 <1>   0.1500 
 48 H       -4.3700     2.6300     3.9480 H     1 <1>   0.0800 
 49 H       -5.4220     2.9530     2.5640 H     1 <1>   0.0800 
 50 H        1.9600     3.8110     4.1370 H     1 <1>   0.1500 
 51 H        6.0200     4.4330     3.0060 H     1 <1>   0.1500 
 52 H       -4.8150     4.9080     4.8120 H     1 <1>   0.0800 
 53 H       -6.3160     4.0340     4.6250 H     1 <1>   0.0800 
 54 H       -5.8590     5.2300     3.4360 H     1 <1>   0.0800 
 55 H        4.2000     4.6980     4.6400 H     1 <1>   0.1500 
@<TRIPOS>BOND
  1   1   2  2   
  2   2   3  am  
  3   2   4  1   
  4   3   5  1   
  5   3   6  am  
  6   4   7  1   
  7   4   8  1   
  8   4  30  1   
  9   5   9  ar  
 10   5  10  ar  
 11   6   8  1   
 12   6  11  2   
 13   7  12  am  
 14   7  13  1   
 15   8  31  1   
 16   8  32  1   
 17   9  14  ar  
 18   9  33  1   
 19  10  15  ar  
 20  10  34  1   
 21  12  16  2   
 22  12  17  1   
 23  13  18  1   
 24  13  35  1   
 25  13  36  1   
 26  14  19  ar  
 27  14  37  1   
 28  15  19  ar  
 29  15  38  1   
 30  17  20  1   
 31  17  39  1   
 32  17  40  1   
 33  18  21  1   
 34  18  41  1   
 35  18  42  1   
 36  19  22  1   
 37  20  43  1   
 38  20  44  1   
 39  20  45  1   
 40  21  23  ar  
 41  21  24  ar  
 42  22  25  1   
 43  23  26  ar  
 44  23  46  1   
 45  24  27  ar  
 46  24  47  1   
 47  25  28  1   
 48  25  48  1   
 49  25  49  1   
 50  26  29  ar  
 51  26  50  1   
 52  27  29  ar  
 53  27  51  1   
 54  28  52  1   
 55  28  53  1   
 56  28  54  1   
 57  29  55  1   
@<TRIPOS>SUBSTRUCTURE
  1 ****   3 GROUP 4 **** **** 0

# MOE 2024.06 (io_trps.svl 2023.06)
