@<TRIPOS>MOLECULE
NONAME
39 40 1 0 0 
SMALL
USER_CHARGES


@<TRIPOS>ATOM
  1 S       -0.1620     0.5920     0.8900 S.3   1 <1>  -0.2860 
  2 C       -1.5940    -0.4590     0.6250 C.2   1 <1>   0.2420 
  3 C        1.2070    -0.6420     1.1340 C.3   1 <1>   0.1310 
  4 N       -1.5370    -1.7420     0.6110 N.2   1 <1>  -0.3380 
  5 N       -2.8190     0.0240     0.4250 N.pl3 1 <1>   0.0480 
  6 C        2.5590     0.0500     1.2010 C.2   1 <1>   0.5690 
  7 N       -2.7870    -2.1560     0.3870 N.2   1 <1>  -0.3380 
  8 C       -3.5340    -1.1030     0.2750 C.2   1 <1>   0.0060 
  9 C       -3.2450     1.4370     0.3970 C.3   1 <1>   0.2340 
 10 O        3.4240    -0.4030     1.9040 O.2   1 <1>  -0.5700 
 11 N        2.8000     1.1570     0.4700 N.am  1 <1>  -0.8000 
 12 C       -5.0410    -1.1260     0.0170 C.3   1 <1>   0.1000 
 13 C       -3.1620     1.9910    -1.0170 C.2   1 <1>  -0.2880 
 14 C       -5.8080    -1.1240     1.3500 C.3   1 <1>  -0.1600 
 15 C       -5.4620    -2.3330    -0.8400 C.3   1 <1>  -0.1600 
 16 C       -2.4220     3.0390    -1.3890 C.2   1 <1>  -0.3000 
 17 C       -7.3280    -1.1470     1.1270 C.3   1 <1>  -0.1600 
 18 C       -6.9790    -2.3550    -1.0750 C.3   1 <1>  -0.1600 
 19 C       -7.7420    -2.3400     0.2560 C.3   1 <1>  -0.1600 
 20 H        1.1770    -1.3250     0.3060 H     1 <1>   0.0800 
 21 H        1.0030    -1.1670     2.0490 H     1 <1>   0.0800 
 22 H       -2.6150     2.0060     1.0570 H     1 <1>   0.0800 
 23 H       -4.2540     1.5080     0.7600 H     1 <1>   0.0800 
 24 H        3.7080     1.6180     0.5340 H     1 <1>   0.3700 
 25 H        2.0830     1.6150    -0.0940 H     1 <1>   0.3700 
 26 H       -5.3080    -0.2400    -0.5310 H     1 <1>   0.0800 
 27 H       -3.7720     1.4410    -1.7150 H     1 <1>   0.1500 
 28 H       -5.5440    -0.2550     1.9250 H     1 <1>   0.0800 
 29 H       -5.5190    -1.9920     1.9190 H     1 <1>   0.0800 
 30 H       -5.1700    -3.2430    -0.3440 H     1 <1>   0.0800 
 31 H       -4.9480    -2.2980    -1.7850 H     1 <1>   0.0800 
 32 H       -2.3770     3.4130    -2.3990 H     1 <1>   0.1500 
 33 H       -1.7970     3.6130    -0.7260 H     1 <1>   0.1500 
 34 H       -7.6350    -0.2330     0.6480 H     1 <1>   0.0800 
 35 H       -7.8300    -1.2060     2.0780 H     1 <1>   0.0800 
 36 H       -7.2430    -3.2390    -1.6310 H     1 <1>   0.0800 
 37 H       -7.2650    -1.4990    -1.6620 H     1 <1>   0.0800 
 38 H       -8.8010    -2.2980     0.0650 H     1 <1>   0.0800 
 39 H       -7.5410    -3.2550     0.7890 H     1 <1>   0.0800 
@<TRIPOS>BOND
  1   1   2  1   
  2   1   3  1   
  3   2   4  2   
  4   2   5  1   
  5   3   6  1   
  6   3  20  1   
  7   3  21  1   
  8   4   7  1   
  9   5   8  1   
 10   5   9  1   
 11   6  10  2   
 12   6  11  am  
 13   7   8  2   
 14   8  12  1   
 15   9  13  1   
 16   9  22  1   
 17   9  23  1   
 18  11  24  1   
 19  11  25  1   
 20  12  14  1   
 21  12  15  1   
 22  12  26  1   
 23  13  16  2   
 24  13  27  1   
 25  14  17  1   
 26  14  28  1   
 27  14  29  1   
 28  15  18  1   
 29  15  30  1   
 30  15  31  1   
 31  16  32  1   
 32  16  33  1   
 33  17  19  1   
 34  17  34  1   
 35  17  35  1   
 36  18  19  1   
 37  18  36  1   
 38  18  37  1   
 39  19  38  1   
 40  19  39  1   
@<TRIPOS>SUBSTRUCTURE
  1 ****   5 GROUP 4 **** **** 0

# MOE 2024.06 (io_trps.svl 2023.06)
