@<TRIPOS>MOLECULE
NONAME
39 41 1 0 0 
SMALL
USER_CHARGES


@<TRIPOS>ATOM
  1 O       -8.9860    -0.6470     2.1030 O.3   1 <1>  -0.6800 
  2 C       -8.2100    -0.1910     1.0700 C.3   1 <1>   0.2800 
  3 C       -6.7700    -0.6530     1.3210 C.3   1 <1>  -0.1600 
  4 C       -8.7260    -0.7820    -0.2480 C.3   1 <1>  -0.1600 
  5 C       -8.2750     1.3390     1.0290 C.3   1 <1>  -0.1600 
  6 C       -5.8340    -0.1710     0.1810 C.3   1 <1>   0.0000 
  7 C       -7.8350    -0.2860    -1.4020 C.3   1 <1>  -0.0800 
  8 C       -7.3840     1.8430    -0.1200 C.3   1 <1>  -0.0800 
  9 C       -4.3610    -0.5940     0.4760 C.3   1 <1>   0.4230 
 10 C       -6.3820    -0.7420    -1.1590 C.3   1 <1>  -0.1600 
 11 C       -5.9350     1.3810     0.1220 C.3   1 <1>  -0.1600 
 12 C       -7.8850     1.2530    -1.4510 C.3   1 <1>  -0.1600 
 13 N       -3.4590    -0.1090    -0.5860 N.4   1 <1>  -0.8530 
 14 C       -4.1150    -2.1080     0.6390 C.3   1 <1>  -0.1600 
 15 C       -2.6490    -2.4790     0.9240 C.3   1 <1>  -0.2400 
 16 H       -9.9110    -0.3700     1.9660 H     1 <1>   0.4000 
 17 H       -6.4370    -0.2640     2.2670 H     1 <1>   0.0800 
 18 H       -6.7800    -1.7260     1.3800 H     1 <1>   0.0800 
 19 H       -9.7420    -0.4720    -0.4200 H     1 <1>   0.0800 
 20 H       -8.7030    -1.8570    -0.2040 H     1 <1>   0.0800 
 21 H       -7.9340     1.7480     1.9640 H     1 <1>   0.0800 
 22 H       -9.2880     1.6630     0.8660 H     1 <1>   0.0800 
 23 H       -8.1950    -0.6900    -2.3340 H     1 <1>   0.0800 
 24 H       -7.4250     2.9200    -0.1610 H     1 <1>   0.0800 
 25 H       -4.0770    -0.1230     1.4050 H     1 <1>   0.0800 
 26 H       -6.3680    -1.8180    -1.1460 H     1 <1>   0.0800 
 27 H       -5.7840    -0.4160    -1.9910 H     1 <1>   0.0800 
 28 H       -5.3300     1.7800    -0.6730 H     1 <1>   0.0800 
 29 H       -5.5850     1.8090     1.0460 H     1 <1>   0.0800 
 30 H       -7.2820     1.6160    -2.2660 H     1 <1>   0.0800 
 31 H       -8.8960     1.5770    -1.6330 H     1 <1>   0.0800 
 32 H       -3.7170    -0.5400    -1.4770 H     1 <1>   0.4500 
 33 H       -2.4930    -0.3670    -0.3650 H     1 <1>   0.4500 
 34 H       -3.5260     0.9080    -0.6780 H     1 <1>   0.4500 
 35 H       -4.4530    -2.6460    -0.2280 H     1 <1>   0.0800 
 36 H       -4.6940    -2.4630     1.4740 H     1 <1>   0.0800 
 37 H       -2.0140    -2.3100     0.0730 H     1 <1>   0.0800 
 38 H       -2.5880    -3.5270     1.1660 H     1 <1>   0.0800 
 39 H       -2.2690    -1.9280     1.7690 H     1 <1>   0.0800 
@<TRIPOS>BOND
  1   1   2  1   
  2   1  16  1   
  3   2   3  1   
  4   2   4  1   
  5   2   5  1   
  6   3   6  1   
  7   3  17  1   
  8   3  18  1   
  9   4   7  1   
 10   4  19  1   
 11   4  20  1   
 12   5   8  1   
 13   5  21  1   
 14   5  22  1   
 15   6   9  1   
 16   6  10  1   
 17   6  11  1   
 18   7  10  1   
 19   7  12  1   
 20   7  23  1   
 21   8  11  1   
 22   8  12  1   
 23   8  24  1   
 24   9  13  1   
 25   9  14  1   
 26   9  25  1   
 27  10  26  1   
 28  10  27  1   
 29  11  28  1   
 30  11  29  1   
 31  12  30  1   
 32  12  31  1   
 33  13  32  1   
 34  13  33  1   
 35  13  34  1   
 36  14  15  1   
 37  14  35  1   
 38  14  36  1   
 39  15  37  1   
 40  15  38  1   
 41  15  39  1   
@<TRIPOS>SUBSTRUCTURE
  1 ****   6 GROUP 4 **** **** 0

# MOE 2024.06 (io_trps.svl 2023.06)
