@<TRIPOS>MOLECULE
NONAME
36 36 1 0 0 
SMALL
USER_CHARGES


@<TRIPOS>ATOM
  1 S       -1.9850     3.0540     1.7350 S.3   1 <1>  -0.3710 
  2 C       -0.3900     3.3920     1.0160 C.2   1 <1>   0.6510 
  3 C       -2.9590     4.5680     1.2600 C.3   1 <1>   0.0700 
  4 N       -0.3010     4.4450     0.3110 N.2   1 <1>  -0.6210 
  5 N        0.6020     2.5020     1.2390 N.am  1 <1>  -0.4900 
  6 C       -3.1670     4.5880    -0.2670 C.3   1 <1>   0.3430 
  7 C        0.8780     4.7050    -0.3130 C.2   1 <1>   0.0210 
  8 C        1.8210     2.7260     0.6650 C.2   1 <1>   0.6160 
  9 N       -3.2530     5.9780    -0.8330 N.4   1 <1>  -0.9590 
 10 O        0.8660     5.7140    -1.0240 O.3   1 <1>  -0.8500 
 11 C        1.9720     3.8560    -0.1410 C.2   1 <1>  -0.1240 
 12 O        2.6940     1.8810     0.9120 O.2   1 <1>  -0.5700 
 13 C       -3.8310     5.9440    -2.2040 C.3   1 <1>   0.2630 
 14 C       -1.8670     6.5690    -0.9260 C.3   1 <1>   0.2630 
 15 C        3.2990     4.1610    -0.8230 C.3   1 <1>  -0.0220 
 16 C        4.2150     4.9610     0.1100 C.3   1 <1>  -0.1600 
 17 C        5.5600     5.2790    -0.5530 C.3   1 <1>  -0.2400 
 18 H       -2.3800     5.4100     1.5960 H     1 <1>   0.0800 
 19 H       -3.8950     4.5240     1.7870 H     1 <1>   0.0800 
 20 H        0.4880     1.6840     1.8200 H     1 <1>   0.3700 
 21 H       -4.0670     4.0430    -0.4940 H     1 <1>   0.0800 
 22 H       -2.3470     4.0760    -0.7440 H     1 <1>   0.0800 
 23 H       -3.8190     6.5720    -0.2170 H     1 <1>   0.4500 
 24 H       -3.2120     5.3410    -2.8500 H     1 <1>   0.0800 
 25 H       -3.8820     6.9410    -2.6120 H     1 <1>   0.0800 
 26 H       -4.8240     5.5260    -2.1840 H     1 <1>   0.0800 
 27 H       -1.2500     5.9730    -1.5790 H     1 <1>   0.0800 
 28 H       -1.3830     6.5860     0.0370 H     1 <1>   0.0800 
 29 H       -1.8970     7.5740    -1.3110 H     1 <1>   0.0800 
 30 H        3.1110     4.7300    -1.7180 H     1 <1>   0.0800 
 31 H        3.7770     3.2420    -1.1110 H     1 <1>   0.0800 
 32 H        4.3810     4.4000     1.0130 H     1 <1>   0.0800 
 33 H        3.7160     5.8790     0.3720 H     1 <1>   0.0800 
 34 H        6.0740     4.3700    -0.8100 H     1 <1>   0.0800 
 35 H        6.1760     5.8470     0.1220 H     1 <1>   0.0800 
 36 H        5.4040     5.8580    -1.4460 H     1 <1>   0.0800 
@<TRIPOS>BOND
  1   1   2  1   
  2   1   3  1   
  3   2   4  2   
  4   2   5  1   
  5   3   6  1   
  6   3  18  1   
  7   3  19  1   
  8   4   7  1   
  9   5   8  am  
 10   5  20  1   
 11   6   9  1   
 12   6  21  1   
 13   6  22  1   
 14   7  10  1   
 15   7  11  2   
 16   8  11  1   
 17   8  12  2   
 18   9  13  1   
 19   9  14  1   
 20   9  23  1   
 21  11  15  1   
 22  13  24  1   
 23  13  25  1   
 24  13  26  1   
 25  14  27  1   
 26  14  28  1   
 27  14  29  1   
 28  15  16  1   
 29  15  30  1   
 30  15  31  1   
 31  16  17  1   
 32  16  32  1   
 33  16  33  1   
 34  17  34  1   
 35  17  35  1   
 36  17  36  1   
@<TRIPOS>SUBSTRUCTURE
  1 ****   4 GROUP 4 **** **** 0

# MOE 2024.06 (io_trps.svl 2023.06)
