@<TRIPOS>MOLECULE
NONAME
44 46 1 0 0 
SMALL
USER_CHARGES


@<TRIPOS>ATOM
  1 CL       2.7060    -0.3000    -2.1530 Cl    1 <1>  -0.1770 
  2 C        1.4780    -1.3490    -1.4750 C.ar  1 <1>   0.1770 
  3 C        1.6080    -1.8240    -0.1720 C.ar  1 <1>   0.1170 
  4 C        0.3950    -1.6880    -2.2650 C.ar  1 <1>  -0.1500 
  5 N        2.7100    -1.4720     0.6280 N.am  1 <1>  -0.2370 
  6 C        0.6180    -2.6650     0.3220 C.ar  1 <1>  -0.1500 
  7 C       -0.5840    -2.5240    -1.7550 C.ar  1 <1>  -0.1500 
  8 C        3.8490    -2.2140     0.7540 C.2   1 <1>   0.5690 
  9 C        2.8760    -0.2670     1.2490 C.2   1 <1>   0.5690 
 10 C       -0.4700    -3.0110    -0.4630 C.ar  1 <1>  -0.1500 
 11 O        3.9340    -3.4010     0.5440 O.2   1 <1>  -0.5700 
 12 C        4.9940    -1.3430     1.2880 C.3   1 <1>   0.2510 
 13 O        2.0800     0.6340     1.2850 O.2   1 <1>  -0.5700 
 14 C        4.2090    -0.1930     1.9470 C.3   1 <1>  -0.0990 
 15 N        5.9370    -0.9650     0.1710 N.3   1 <1>  -0.8100 
 16 C        7.2750    -1.6220     0.2150 C.3   1 <1>   0.1900 
 17 C        5.9570     0.4620    -0.2230 C.3   1 <1>   0.1100 
 18 C        8.0630    -1.3320    -1.0820 C.3   1 <1>  -0.1600 
 19 C        7.1390    -3.1530     0.3930 C.3   1 <1>  -0.1600 
 20 C        6.6810     0.6730    -1.5480 C.3   1 <1>  -0.1600 
 21 C        8.1090     0.1490    -1.4570 C.3   1 <1>  -0.1600 
 22 C        8.4690    -3.9090     0.3300 C.3   1 <1>   0.1200 
 23 O        8.2450    -5.2120     0.7270 O.3   1 <1>  -0.6800 
 24 H        0.3230    -1.3030    -3.2660 H     1 <1>   0.1500 
 25 H        0.7010    -3.0520     1.3220 H     1 <1>   0.1500 
 26 H       -1.4320    -2.7950    -2.3610 H     1 <1>   0.1500 
 27 H       -1.2310    -3.6630    -0.0670 H     1 <1>   0.1500 
 28 H        5.5190    -1.8630     2.0660 H     1 <1>   0.0800 
 29 H        4.0400    -0.4270     2.9820 H     1 <1>   0.0800 
 30 H        4.6530     0.7810     1.8970 H     1 <1>   0.0800 
 31 H        7.8260    -1.2180     1.0490 H     1 <1>   0.0800 
 32 H        6.4430     1.0430     0.5430 H     1 <1>   0.0800 
 33 H        4.9500     0.8220    -0.3510 H     1 <1>   0.0800 
 34 H        7.6130    -1.8810    -1.8910 H     1 <1>   0.0800 
 35 H        9.0770    -1.6730    -0.9800 H     1 <1>   0.0800 
 36 H        6.4910    -3.5320    -0.3780 H     1 <1>   0.0800 
 37 H        6.7100    -3.3780     1.3490 H     1 <1>   0.0800 
 38 H        6.6930     1.7220    -1.7850 H     1 <1>   0.0800 
 39 H        6.1430     0.1630    -2.3290 H     1 <1>   0.0800 
 40 H        8.6060     0.2730    -2.4040 H     1 <1>   0.0800 
 41 H        8.6550     0.6990    -0.7110 H     1 <1>   0.0800 
 42 H        9.1940    -3.4810     1.0020 H     1 <1>   0.0800 
 43 H        8.8680    -3.9290    -0.6690 H     1 <1>   0.0800 
 44 H        7.4970    -5.5930     0.2250 H     1 <1>   0.4000 
@<TRIPOS>BOND
  1   1   2  1   
  2   2   3  ar  
  3   2   4  ar  
  4   3   5  1   
  5   3   6  ar  
  6   4   7  ar  
  7   4  24  1   
  8   5   8  am  
  9   5   9  am  
 10   6  10  ar  
 11   6  25  1   
 12   7  10  ar  
 13   7  26  1   
 14   8  11  2   
 15   8  12  1   
 16   9  13  2   
 17   9  14  1   
 18  10  27  1   
 19  12  14  1   
 20  12  15  1   
 21  12  28  1   
 22  14  29  1   
 23  14  30  1   
 24  15  16  1   
 25  15  17  1   
 26  16  18  1   
 27  16  19  1   
 28  16  31  1   
 29  17  20  1   
 30  17  32  1   
 31  17  33  1   
 32  18  21  1   
 33  18  34  1   
 34  18  35  1   
 35  19  22  1   
 36  19  36  1   
 37  19  37  1   
 38  20  21  1   
 39  20  38  1   
 40  20  39  1   
 41  21  40  1   
 42  21  41  1   
 43  22  23  1   
 44  22  42  1   
 45  22  43  1   
 46  23  44  1   
@<TRIPOS>SUBSTRUCTURE
  1 ****   8 GROUP 4 **** **** 0

# MOE 2024.06 (io_trps.svl 2023.06)
