@<TRIPOS>MOLECULE
NONAME
32 33 1 0 0 
SMALL
USER_CHARGES


@<TRIPOS>ATOM
  1 CL       2.0690     2.0060     0.2590 Cl    1 <1>  -0.1770 
  2 C        2.3950     0.2860     0.3220 C.ar  1 <1>   0.1770 
  3 C        3.3310    -0.3010    -0.5310 C.ar  1 <1>   0.0820 
  4 C        1.6880    -0.4750     1.2330 C.ar  1 <1>  -0.1500 
  5 O        4.0390     0.4150    -1.4370 O.3   1 <1>  -0.3630 
  6 C        3.5360    -1.6730    -0.4800 C.ar  1 <1>  -0.1500 
  7 C        1.9180    -1.8380     1.2760 C.ar  1 <1>   0.1770 
  8 C        5.0370     1.2930    -0.9600 C.3   1 <1>   0.1200 
  9 C        2.8300    -2.4450     0.4290 C.ar  1 <1>  -0.1500 
 10 CL       1.0360    -2.8150     2.4220 Cl    1 <1>  -0.1770 
 11 C        6.3370     0.5090    -0.7550 C.3   1 <1>  -0.1600 
 12 C        7.4740     1.4360    -0.3030 C.3   1 <1>  -0.1600 
 13 C        8.7790     0.6570    -0.0990 C.3   1 <1>   0.0960 
 14 N        9.8560     1.5660     0.3360 N.pl3 1 <1>   0.0480 
 15 C       10.2330     1.8620     1.6000 C.2   1 <1>   0.0360 
 16 C       10.6780     2.2920    -0.4430 C.2   1 <1>  -0.3020 
 17 N       11.2120     2.7040     1.6750 N.2   1 <1>  -0.5650 
 18 C       11.4950     2.9760     0.3880 C.2   1 <1>   0.0770 
 19 H        0.9710    -0.0200     1.8900 H     1 <1>   0.1500 
 20 H        4.2430    -2.1270    -1.1510 H     1 <1>   0.1500 
 21 H        4.7090     1.7490    -0.0430 H     1 <1>   0.0800 
 22 H        5.1710     2.0590    -1.7040 H     1 <1>   0.0800 
 23 H        2.9800    -3.5090     0.4830 H     1 <1>   0.1500 
 24 H        6.6060     0.0350    -1.6830 H     1 <1>   0.0800 
 25 H        6.1770    -0.2500    -0.0090 H     1 <1>   0.0800 
 26 H        7.1990     1.9150     0.6220 H     1 <1>   0.0800 
 27 H        7.6310     2.1980    -1.0480 H     1 <1>   0.0800 
 28 H        9.0800     0.1850    -1.0170 H     1 <1>   0.0800 
 29 H        8.6470    -0.1040     0.6500 H     1 <1>   0.0800 
 30 H        9.7490     1.4260     2.4560 H     1 <1>   0.1500 
 31 H       10.6420     2.2860    -1.5160 H     1 <1>   0.1500 
 32 H       12.2840     3.6620     0.1240 H     1 <1>   0.1500 
@<TRIPOS>BOND
  1   1   2  1   
  2   2   3  ar  
  3   2   4  ar  
  4   3   5  1   
  5   3   6  ar  
  6   4   7  ar  
  7   4  19  1   
  8   5   8  1   
  9   6   9  ar  
 10   6  20  1   
 11   7   9  ar  
 12   7  10  1   
 13   8  11  1   
 14   8  21  1   
 15   8  22  1   
 16   9  23  1   
 17  11  12  1   
 18  11  24  1   
 19  11  25  1   
 20  12  13  1   
 21  12  26  1   
 22  12  27  1   
 23  13  14  1   
 24  13  28  1   
 25  13  29  1   
 26  14  15  1   
 27  14  16  1   
 28  15  17  2   
 29  15  30  1   
 30  16  18  2   
 31  16  31  1   
 32  17  18  1   
 33  18  32  1   
@<TRIPOS>SUBSTRUCTURE
  1 ****  11 GROUP 4 **** **** 0

# MOE 2024.06 (io_trps.svl 2023.06)
