@<TRIPOS>MOLECULE
NONAME
31 32 1 0 0 
SMALL
USER_CHARGES


@<TRIPOS>ATOM
  1 CL       0.0540     0.7430    -0.6770 Cl    1 <1>  -0.1770 
  2 C        1.7210     0.4220    -0.2860 C.ar  1 <1>   0.1770 
  3 C        2.0260    -0.5140     0.6830 C.ar  1 <1>  -0.1500 
  4 C        2.7200     1.1060    -0.9510 C.ar  1 <1>  -0.1500 
  5 C        3.3520    -0.7610     0.9900 C.ar  1 <1>  -0.1500 
  6 C        4.0430     0.8500    -0.6370 C.ar  1 <1>  -0.1500 
  7 C        4.3920    -0.0840     0.3460 C.ar  1 <1>   0.0860 
  8 C        5.7770    -0.3510     0.6910 C.2   1 <1>   0.4690 
  9 O        6.0820    -1.4870     1.0070 O.2   1 <1>  -0.5700 
 10 C        6.7200     0.7240     0.7040 C.2   1 <1>  -0.1360 
 11 C        8.0750     0.8170     0.5990 C.2   1 <1>  -0.0500 
 12 N        9.0390    -0.1390     0.3620 N.pl3 1 <1>  -0.8380 
 13 C        8.7780    -1.5320    -0.1220 C.3   1 <1>   0.2090 
 14 C       10.4750     0.1110     0.6920 C.3   1 <1>   0.2090 
 15 C        9.8420    -1.9990    -1.1350 C.3   1 <1>   0.1200 
 16 C       11.4070    -0.4230    -0.4080 C.3   1 <1>   0.1200 
 17 O       11.1450    -1.7720    -0.6730 O.3   1 <1>  -0.5600 
 18 H        1.2340    -1.0400     1.1860 H     1 <1>   0.1500 
 19 H        2.4580     1.8260    -1.7060 H     1 <1>   0.1500 
 20 H        3.5960    -1.4940     1.7420 H     1 <1>   0.1500 
 21 H        4.8170     1.3770    -1.1680 H     1 <1>   0.1500 
 22 H        6.2260     1.6650     0.8470 H     1 <1>   0.1500 
 23 H        8.4840     1.8070     0.7220 H     1 <1>   0.1500 
 24 H        8.7550    -2.2030     0.7180 H     1 <1>   0.0800 
 25 H        7.8250    -1.5740    -0.6140 H     1 <1>   0.0800 
 26 H       10.6450     1.1650     0.8230 H     1 <1>   0.0800 
 27 H       10.7110    -0.3820     1.6190 H     1 <1>   0.0800 
 28 H        9.7160    -1.4770    -2.0670 H     1 <1>   0.0800 
 29 H        9.7360    -3.0540    -1.3150 H     1 <1>   0.0800 
 30 H       12.4330    -0.3440    -0.0950 H     1 <1>   0.0800 
 31 H       11.2770     0.1390    -1.3160 H     1 <1>   0.0800 
@<TRIPOS>BOND
  1   1   2  1   
  2   2   3  ar  
  3   2   4  ar  
  4   3   5  ar  
  5   3  18  1   
  6   4   6  ar  
  7   4  19  1   
  8   5   7  ar  
  9   5  20  1   
 10   6   7  ar  
 11   6  21  1   
 12   7   8  1   
 13   8   9  2   
 14   8  10  1   
 15  10  11  2   
 16  10  22  1   
 17  11  12  1   
 18  11  23  1   
 19  12  13  1   
 20  12  14  1   
 21  13  15  1   
 22  13  24  1   
 23  13  25  1   
 24  14  16  1   
 25  14  26  1   
 26  14  27  1   
 27  15  17  1   
 28  15  28  1   
 29  15  29  1   
 30  16  17  1   
 31  16  30  1   
 32  16  31  1   
@<TRIPOS>SUBSTRUCTURE
  1 ****   8 GROUP 4 **** **** 0

# MOE 2024.06 (io_trps.svl 2023.06)
