@<TRIPOS>MOLECULE
NONAME
38 39 1 0 0 
SMALL
USER_CHARGES


@<TRIPOS>ATOM
  1 O       -0.3340     0.5070     0.2760 O.2   1 <1>  -0.5700 
  2 C       -1.4810     0.8520     0.3270 C.2   1 <1>   0.6590 
  3 O       -2.4410     0.3260    -0.4050 O.3   1 <1>  -0.4300 
  4 C       -2.0070     1.9290     1.2290 C.3   1 <1>  -0.0990 
  5 C       -3.6940     0.9160    -0.1780 C.3   1 <1>   0.2800 
  6 C       -3.5150     1.6650     1.1580 C.3   1 <1>  -0.0190 
  7 C       -4.7310    -0.2060    -0.1010 C.3   1 <1>  -0.2400 
  8 C       -3.9660     1.8240    -1.3840 C.3   1 <1>  -0.2400 
  9 C       -4.4430     2.8600     1.3250 C.2   1 <1>   0.5690 
 10 O       -5.5890     2.6510     1.6350 O.2   1 <1>  -0.5700 
 11 N       -3.9840     4.1190     1.1180 N.am  1 <1>  -0.7300 
 12 C       -4.7840     5.3620     1.1700 C.3   1 <1>   0.1400 
 13 C       -4.4960     6.2050    -0.0780 C.3   1 <1>  -0.0170 
 14 C       -3.0000     6.2840    -0.3630 C.ar  1 <1>  -0.1440 
 15 C       -2.1680     7.0290     0.4580 C.ar  1 <1>  -0.1500 
 16 C       -2.4550     5.5890    -1.4320 C.ar  1 <1>  -0.1500 
 17 C       -0.8050     7.0690     0.2200 C.ar  1 <1>  -0.1500 
 18 C       -1.0930     5.6260    -1.6700 C.ar  1 <1>  -0.1500 
 19 C       -0.2660     6.3660    -0.8430 C.ar  1 <1>  -0.1500 
 20 H       -1.7190     2.8760     0.8120 H     1 <1>   0.0800 
 21 H       -1.6210     1.8250     2.2260 H     1 <1>   0.0800 
 22 H       -3.7560     0.9810     1.9530 H     1 <1>   0.0800 
 23 H       -4.4830    -0.9000     0.6820 H     1 <1>   0.0800 
 24 H       -4.7780    -0.7370    -1.0350 H     1 <1>   0.0800 
 25 H       -5.7030     0.2060     0.1060 H     1 <1>   0.0800 
 26 H       -3.2270     2.6010    -1.4520 H     1 <1>   0.0800 
 27 H       -4.9360     2.2810    -1.2990 H     1 <1>   0.0800 
 28 H       -3.9490     1.2470    -2.2910 H     1 <1>   0.0800 
 29 H       -3.0200     4.2830     0.8110 H     1 <1>   0.3700 
 30 H       -4.5050     5.9130     2.0520 H     1 <1>   0.0800 
 31 H       -5.8350     5.1310     1.2310 H     1 <1>   0.0800 
 32 H       -4.8930     7.1940     0.0620 H     1 <1>   0.0800 
 33 H       -5.0100     5.7690    -0.9160 H     1 <1>   0.0800 
 34 H       -2.5750     7.5790     1.2880 H     1 <1>   0.1500 
 35 H       -3.0880     5.0130    -2.0850 H     1 <1>   0.1500 
 36 H       -0.1630     7.6480     0.8610 H     1 <1>   0.1500 
 37 H       -0.6740     5.0830    -2.5010 H     1 <1>   0.1500 
 38 H        0.7940     6.3960    -1.0280 H     1 <1>   0.1500 
@<TRIPOS>BOND
  1   1   2  2   
  2   2   3  1   
  3   2   4  1   
  4   3   5  1   
  5   4   6  1   
  6   4  20  1   
  7   4  21  1   
  8   5   6  1   
  9   5   7  1   
 10   5   8  1   
 11   6   9  1   
 12   6  22  1   
 13   7  23  1   
 14   7  24  1   
 15   7  25  1   
 16   8  26  1   
 17   8  27  1   
 18   8  28  1   
 19   9  10  2   
 20   9  11  am  
 21  11  12  1   
 22  11  29  1   
 23  12  13  1   
 24  12  30  1   
 25  12  31  1   
 26  13  14  1   
 27  13  32  1   
 28  13  33  1   
 29  14  15  ar  
 30  14  16  ar  
 31  15  17  ar  
 32  15  34  1   
 33  16  18  ar  
 34  16  35  1   
 35  17  19  ar  
 36  17  36  1   
 37  18  19  ar  
 38  18  37  1   
 39  19  38  1   
@<TRIPOS>SUBSTRUCTURE
  1 ****  11 GROUP 4 **** **** 0

# MOE 2024.06 (io_trps.svl 2023.06)
