@<TRIPOS>MOLECULE
NONAME
46 48 1 0 0 
SMALL
USER_CHARGES


@<TRIPOS>ATOM
  1 F        0.3890     0.3270    -0.1170 F     1 <1>  -0.1900 
  2 C        1.5230     0.9730    -0.0310 C.ar  1 <1>   0.1900 
  3 C        1.9190     1.7710    -1.0880 C.ar  1 <1>  -0.1500 
  4 C        2.2840     0.8340     1.1150 C.ar  1 <1>  -0.1500 
  5 C        3.1200     2.4520    -0.9900 C.ar  1 <1>  -0.1500 
  6 C        3.4830     1.5210     1.1980 C.ar  1 <1>  -0.1500 
  7 C        3.9120     2.3330     0.1520 C.ar  1 <1>   0.1000 
  8 N        5.1210     3.0080     0.2690 N.pl3 1 <1>  -0.8380 
  9 C        5.0400     4.4880     0.4140 C.3   1 <1>   0.2090 
 10 C        6.2280     2.5410    -0.6120 C.3   1 <1>   0.2090 
 11 C        6.4020     5.0720     0.8480 C.3   1 <1>   0.3430 
 12 C        7.5760     3.1450    -0.1660 C.3   1 <1>   0.3430 
 13 N        7.5500     4.6580    -0.0540 N.4   1 <1>  -0.9590 
 14 C        8.8640     5.2280     0.3860 C.3   1 <1>   0.4230 
 15 C        8.7830     6.7660     0.4500 C.3   1 <1>  -0.1600 
 16 C        9.9820     4.8000    -0.5850 C.3   1 <1>  -0.1600 
 17 C       10.1370     7.4040     0.7950 C.3   1 <1>  -0.1600 
 18 C       11.3320     5.4440    -0.2370 C.3   1 <1>  -0.1600 
 19 C       11.2300     6.9740    -0.1900 C.3   1 <1>  -0.0800 
 20 C       12.5780     7.5860     0.2060 C.3   1 <1>  -0.2400 
 21 H        1.2970     1.8520    -1.9610 H     1 <1>   0.1500 
 22 H        1.9430     0.2040     1.9160 H     1 <1>   0.1500 
 23 H        3.4440     3.0760    -1.8010 H     1 <1>   0.1500 
 24 H        4.0960     1.4320     2.0760 H     1 <1>   0.1500 
 25 H        4.2970     4.7290     1.1550 H     1 <1>   0.0800 
 26 H        4.7320     4.9300    -0.5180 H     1 <1>   0.0800 
 27 H        6.0220     2.8140    -1.6320 H     1 <1>   0.0800 
 28 H        6.2850     1.4660    -0.5630 H     1 <1>   0.0800 
 29 H        6.6000     4.7390     1.8540 H     1 <1>   0.0800 
 30 H        6.3140     6.1440     0.8680 H     1 <1>   0.0800 
 31 H        8.3280     2.8390    -0.8720 H     1 <1>   0.0800 
 32 H        7.8310     2.7200     0.7910 H     1 <1>   0.0800 
 33 H        7.3570     5.0340    -0.9890 H     1 <1>   0.4500 
 34 H        9.1060     4.8570     1.3690 H     1 <1>   0.0800 
 35 H        8.0900     7.0790     1.2080 H     1 <1>   0.0800 
 36 H        8.4570     7.1530    -0.4990 H     1 <1>   0.0800 
 37 H        9.7190     5.0830    -1.5900 H     1 <1>   0.0800 
 38 H       10.1280     3.7360    -0.5530 H     1 <1>   0.0800 
 39 H       10.4240     7.1220     1.7950 H     1 <1>   0.0800 
 40 H       10.0410     8.4770     0.7760 H     1 <1>   0.0800 
 41 H       12.0650     5.1570    -0.9730 H     1 <1>   0.0800 
 42 H       11.6700     5.0770     0.7180 H     1 <1>   0.0800 
 43 H       10.9750     7.3360    -1.1740 H     1 <1>   0.0800 
 44 H       12.8790     7.2550     1.1840 H     1 <1>   0.0800 
 45 H       12.5130     8.6610     0.2140 H     1 <1>   0.0800 
 46 H       13.3390     7.3040    -0.5000 H     1 <1>   0.0800 
@<TRIPOS>BOND
  1   1   2  1   
  2   2   3  ar  
  3   2   4  ar  
  4   3   5  ar  
  5   3  21  1   
  6   4   6  ar  
  7   4  22  1   
  8   5   7  ar  
  9   5  23  1   
 10   6   7  ar  
 11   6  24  1   
 12   7   8  1   
 13   8   9  1   
 14   8  10  1   
 15   9  11  1   
 16   9  25  1   
 17   9  26  1   
 18  10  12  1   
 19  10  27  1   
 20  10  28  1   
 21  11  13  1   
 22  11  29  1   
 23  11  30  1   
 24  12  13  1   
 25  12  31  1   
 26  12  32  1   
 27  13  14  1   
 28  13  33  1   
 29  14  15  1   
 30  14  16  1   
 31  14  34  1   
 32  15  17  1   
 33  15  35  1   
 34  15  36  1   
 35  16  18  1   
 36  16  37  1   
 37  16  38  1   
 38  17  19  1   
 39  17  39  1   
 40  17  40  1   
 41  18  19  1   
 42  18  41  1   
 43  18  42  1   
 44  19  20  1   
 45  19  43  1   
 46  20  44  1   
 47  20  45  1   
 48  20  46  1   
@<TRIPOS>SUBSTRUCTURE
  1 ****  11 GROUP 4 **** **** 0

# MOE 2024.06 (io_trps.svl 2023.06)
