@<TRIPOS>MOLECULE
NONAME
46 48 1 0 0 
SMALL
USER_CHARGES


@<TRIPOS>ATOM
  1 O       -1.1200     1.3260     2.7720 O.2   1 <1>  -0.5700 
  2 C       -1.9240     1.0890     1.8980 C.2   1 <1>   0.5690 
  3 N       -2.6860    -0.0450     1.8020 N.am  1 <1>  -0.4690 
  4 C       -2.2380     2.0130     0.7140 C.3   1 <1>   0.4810 
  5 C       -3.4250    -0.0140     0.6380 C.2   1 <1>  -0.0290 
  6 C       -2.5770    -1.1840     2.7470 C.3   1 <1>   0.0600 
  7 C       -0.9440     2.3730    -0.0350 C.2   1 <1>  -0.1240 
  8 C       -2.9890     3.2380     1.2470 C.ar  1 <1>  -0.1440 
  9 C       -3.2320     1.1330    -0.0680 C.2   1 <1>  -0.1240 
 10 C       -4.3020    -1.2140     0.3080 C.3   1 <1>  -0.1020 
 11 C       -0.5980     3.6920    -0.1550 C.2   1 <1>   0.1770 
 12 C       -0.1870     1.2730    -0.5360 C.2   1 <1>   0.7060 
 13 C       -2.4740     4.5080     1.0370 C.ar  1 <1>   0.0820 
 14 C       -4.1870     3.1130     1.9440 C.ar  1 <1>  -0.1500 
 15 C       -3.8070     1.5660    -1.3090 C.2   1 <1>   0.4950 
 16 O       -1.3240     4.6900     0.3570 O.3   1 <1>  -0.1590 
 17 N        0.5020     4.1660    -0.8030 N.pl3 1 <1>  -0.9000 
 18 O       -0.5730     0.1160    -0.5200 O.2   1 <1>  -0.5700 
 19 O        1.0220     1.4920    -1.0770 O.3   1 <1>  -0.4300 
 20 C       -3.1330     5.6310     1.5100 C.ar  1 <1>  -0.1500 
 21 C       -4.8500     4.2340     2.4150 C.ar  1 <1>  -0.1500 
 22 O       -4.6660     0.9440    -1.8810 O.2   1 <1>  -0.5700 
 23 C       -3.3860     2.8470    -2.0070 C.3   1 <1>  -0.1790 
 24 C        1.8180     0.4370    -1.5710 C.3   1 <1>   0.1200 
 25 C       -4.3230     5.4950     2.2000 C.ar  1 <1>  -0.1500 
 26 C        3.1110     1.0360    -2.1130 C.3   1 <1>  -0.2400 
 27 H       -1.9830    -0.9040     3.5990 H     1 <1>   0.0800 
 28 H       -2.1070    -2.0160     2.2530 H     1 <1>   0.0800 
 29 H       -3.5560    -1.4720     3.0850 H     1 <1>   0.0800 
 30 H       -3.6970    -2.1000     0.2430 H     1 <1>   0.0800 
 31 H       -4.8130    -1.1000    -0.6280 H     1 <1>   0.0800 
 32 H       -5.0420    -1.3510     1.0750 H     1 <1>   0.0800 
 33 H       -4.6180     2.1440     2.1300 H     1 <1>   0.1500 
 34 H        1.2240     3.5310    -1.1700 H     1 <1>   0.4000 
 35 H        0.7550     5.1590    -0.7920 H     1 <1>   0.4000 
 36 H       -2.7140     6.6060     1.3370 H     1 <1>   0.1500 
 37 H       -5.7760     4.1230     2.9530 H     1 <1>   0.1500 
 38 H       -3.5550     3.6980    -1.3770 H     1 <1>   0.0800 
 39 H       -3.9710     2.9790    -2.8990 H     1 <1>   0.0800 
 40 H       -2.3550     2.7980    -2.2970 H     1 <1>   0.0800 
 41 H        1.2710    -0.0700    -2.3490 H     1 <1>   0.0800 
 42 H        2.0170    -0.2480    -0.7630 H     1 <1>   0.0800 
 43 H       -4.8380     6.3650     2.5690 H     1 <1>   0.1500 
 44 H        2.8970     1.7210    -2.9130 H     1 <1>   0.0800 
 45 H        3.7400     0.2520    -2.4940 H     1 <1>   0.0800 
 46 H        3.6410     1.5470    -1.3290 H     1 <1>   0.0800 
@<TRIPOS>BOND
  1   1   2  2   
  2   2   3  am  
  3   2   4  1   
  4   3   5  1   
  5   3   6  1   
  6   4   7  1   
  7   4   8  1   
  8   4   9  1   
  9   5   9  2   
 10   5  10  1   
 11   6  27  1   
 12   6  28  1   
 13   6  29  1   
 14   7  11  2   
 15   7  12  1   
 16   8  13  ar  
 17   8  14  ar  
 18   9  15  1   
 19  10  30  1   
 20  10  31  1   
 21  10  32  1   
 22  11  16  1   
 23  11  17  1   
 24  12  18  2   
 25  12  19  1   
 26  13  16  1   
 27  13  20  ar  
 28  14  21  ar  
 29  14  33  1   
 30  15  22  2   
 31  15  23  1   
 32  17  34  1   
 33  17  35  1   
 34  19  24  1   
 35  20  25  ar  
 36  20  36  1   
 37  21  25  ar  
 38  21  37  1   
 39  23  38  1   
 40  23  39  1   
 41  23  40  1   
 42  24  26  1   
 43  24  41  1   
 44  24  42  1   
 45  25  43  1   
 46  26  44  1   
 47  26  45  1   
 48  26  46  1   
@<TRIPOS>SUBSTRUCTURE
  1 ****   4 GROUP 4 **** **** 0

# MOE 2024.06 (io_trps.svl 2023.06)
