@<TRIPOS>MOLECULE
NONAME
35 37 1 0 0 
SMALL
USER_CHARGES


@<TRIPOS>ATOM
  1 O      -12.4710     2.2440    -0.9230 O.3   1 <1>  -0.3630 
  2 C      -11.3780     2.0440    -0.1820 C.ar  1 <1>   0.0830 
  3 C      -13.3240     1.1200    -0.7050 C.3   1 <1>   0.4000 
  4 C      -11.4750     0.8620     0.4900 C.ar  1 <1>   0.0830 
  5 C      -10.2710     2.8590    -0.0590 C.ar  1 <1>  -0.1500 
  6 O      -12.6340     0.2630     0.2030 O.3   1 <1>  -0.3630 
  7 C      -10.4680     0.4260     1.3270 C.ar  1 <1>  -0.1500 
  8 C       -9.2390     2.4380     0.7750 C.ar  1 <1>  -0.1440 
  9 C       -9.3430     1.2280     1.4650 C.ar  1 <1>  -0.1500 
 10 C       -7.9970     3.2870     0.9190 C.3   1 <1>   0.4870 
 11 N       -7.0470     2.8070    -0.0970 N.4   1 <1>  -0.9060 
 12 C       -5.7090     3.4570    -0.0940 C.3   1 <1>   0.3430 
 13 C       -4.6710     2.4580    -0.6380 C.3   1 <1>   0.2000 
 14 O       -5.0410     1.1690    -0.2500 O.3   1 <1>  -0.5600 
 15 C       -3.2650     2.6300    -0.0830 C.3   1 <1>  -0.1600 
 16 C       -3.9310     0.3220    -0.2880 C.3   1 <1>   0.1200 
 17 C       -2.7020     1.2190    -0.1470 C.3   1 <1>  -0.1600 
 18 H      -13.4890     0.6040    -1.6350 H     1 <1>   0.0800 
 19 H      -14.2480     1.4480    -0.2620 H     1 <1>   0.0800 
 20 H      -10.2430     3.7850    -0.6050 H     1 <1>   0.1500 
 21 H      -10.5690    -0.5100     1.8490 H     1 <1>   0.1500 
 22 H       -8.5530     0.8940     2.1170 H     1 <1>   0.1500 
 23 H       -7.5850     3.1730     1.9080 H     1 <1>   0.0800 
 24 H       -8.2380     4.3250     0.7540 H     1 <1>   0.0800 
 25 H       -7.4850     2.8210    -1.0230 H     1 <1>   0.4500 
 26 H       -6.8460     1.8040     0.0790 H     1 <1>   0.4500 
 27 H       -5.4320     3.7090     0.9170 H     1 <1>   0.0800 
 28 H       -5.7090     4.3620    -0.6800 H     1 <1>   0.0800 
 29 H       -4.6500     2.4790    -1.7160 H     1 <1>   0.0800 
 30 H       -3.3020     2.9600     0.9420 H     1 <1>   0.0800 
 31 H       -2.6830     3.3280    -0.6600 H     1 <1>   0.0800 
 32 H       -3.9300    -0.1970    -1.2320 H     1 <1>   0.0800 
 33 H       -4.0100    -0.3870     0.5200 H     1 <1>   0.0800 
 34 H       -2.1400     0.9720     0.7370 H     1 <1>   0.0800 
 35 H       -2.0660     1.0930    -1.0060 H     1 <1>   0.0800 
@<TRIPOS>BOND
  1   1   2  1   
  2   1   3  1   
  3   2   4  ar  
  4   2   5  ar  
  5   3   6  1   
  6   3  18  1   
  7   3  19  1   
  8   4   6  1   
  9   4   7  ar  
 10   5   8  ar  
 11   5  20  1   
 12   7   9  ar  
 13   7  21  1   
 14   8   9  ar  
 15   8  10  1   
 16   9  22  1   
 17  10  11  1   
 18  10  23  1   
 19  10  24  1   
 20  11  12  1   
 21  11  25  1   
 22  11  26  1   
 23  12  13  1   
 24  12  27  1   
 25  12  28  1   
 26  13  14  1   
 27  13  15  1   
 28  13  29  1   
 29  14  16  1   
 30  15  17  1   
 31  15  30  1   
 32  15  31  1   
 33  16  17  1   
 34  16  32  1   
 35  16  33  1   
 36  17  34  1   
 37  17  35  1   
@<TRIPOS>SUBSTRUCTURE
  1 ****   8 GROUP 4 **** **** 0

# MOE 2024.06 (io_trps.svl 2023.06)
