@<TRIPOS>MOLECULE
NONAME
34 35 1 0 0 
SMALL
USER_CHARGES


@<TRIPOS>ATOM
  1 S       -0.0530    -0.4140     0.9400 S.o2  1 <1>   1.4470 
  2 O       -0.9750     0.5520     0.3810 O.2   1 <1>  -0.6500 
  3 O       -0.0840    -0.6690     2.3630 O.2   1 <1>  -0.6500 
  4 N       -0.4000    -1.8920     0.1840 N.am  1 <1>  -0.8490 
  5 C        1.6720    -0.0750     0.4440 C.ar  1 <1>  -0.0090 
  6 C       -1.5940    -2.5270     0.7120 C.3   1 <1>   0.1960 
  7 C       -0.6140    -1.8060    -1.2520 C.3   1 <1>   0.1960 
  8 C        2.1850     1.2140     0.2780 C.ar  1 <1>  -0.1440 
  9 C        2.5380    -1.1460     0.2480 C.ar  1 <1>  -0.1500 
 10 C       -1.9540    -3.5880    -0.3220 C.3   1 <1>  -0.1600 
 11 C       -1.2630    -3.1370    -1.6090 C.3   1 <1>  -0.1600 
 12 C        3.5050     1.3900    -0.1050 C.ar  1 <1>  -0.1500 
 13 C        1.3360     2.4580     0.5110 C.3   1 <1>  -0.0970 
 14 C        3.8720    -0.9960    -0.1270 C.ar  1 <1>   0.0860 
 15 C        4.3320     0.3040    -0.3090 C.ar  1 <1>  -0.1500 
 16 C        4.7530    -2.1360    -0.3240 C.2   1 <1>   0.5440 
 17 O        5.7380    -2.0660    -1.0250 O.2   1 <1>  -0.5700 
 18 N        4.5320    -3.3290     0.2740 N.am  1 <1>  -0.8000 
 19 H       -2.3910    -1.8040     0.7870 H     1 <1>   0.0800 
 20 H       -1.4070    -2.9540     1.6840 H     1 <1>   0.0800 
 21 H        0.3130    -1.6550    -1.7800 H     1 <1>   0.0800 
 22 H       -1.2960    -1.0040    -1.4860 H     1 <1>   0.0800 
 23 H        2.1570    -2.1420     0.3880 H     1 <1>   0.1500 
 24 H       -3.0210    -3.6540    -0.4390 H     1 <1>   0.0800 
 25 H       -1.5760    -4.5460    -0.0090 H     1 <1>   0.0800 
 26 H       -0.5020    -3.8430    -1.8910 H     1 <1>   0.0800 
 27 H       -1.9550    -3.0210    -2.4250 H     1 <1>   0.0800 
 28 H        3.9030     2.3810    -0.2480 H     1 <1>   0.1500 
 29 H        0.8160     2.3910     1.4500 H     1 <1>   0.0800 
 30 H        0.6160     2.5680    -0.2800 H     1 <1>   0.0800 
 31 H        1.9450     3.3440     0.5360 H     1 <1>   0.0800 
 32 H        5.3540     0.4590    -0.6100 H     1 <1>   0.1500 
 33 H        5.2090    -4.0790     0.1250 H     1 <1>   0.3700 
 34 H        3.8240    -3.4870     0.9890 H     1 <1>   0.3700 
@<TRIPOS>BOND
  1   1   2  2   
  2   1   3  2   
  3   1   4  am  
  4   1   5  1   
  5   4   6  1   
  6   4   7  1   
  7   5   8  ar  
  8   5   9  ar  
  9   6  10  1   
 10   6  19  1   
 11   6  20  1   
 12   7  11  1   
 13   7  21  1   
 14   7  22  1   
 15   8  12  ar  
 16   8  13  1   
 17   9  14  ar  
 18   9  23  1   
 19  10  11  1   
 20  10  24  1   
 21  10  25  1   
 22  11  26  1   
 23  11  27  1   
 24  12  15  ar  
 25  12  28  1   
 26  13  29  1   
 27  13  30  1   
 28  13  31  1   
 29  14  15  ar  
 30  14  16  1   
 31  15  32  1   
 32  16  17  2   
 33  16  18  am  
 34  18  33  1   
 35  18  34  1   
@<TRIPOS>SUBSTRUCTURE
  1 ****   5 GROUP 4 **** **** 0

# MOE 2024.06 (io_trps.svl 2023.06)
