@<TRIPOS>MOLECULE
NONAME
35 35 1 0 0 
SMALL
USER_CHARGES


@<TRIPOS>ATOM
  1 O       -0.9740     5.2570    -0.0410 O.3   1 <1>  -0.3630 
  2 C        0.2400     5.8640    -0.0440 C.ar  1 <1>   0.0830 
  3 C       -2.1620     6.0030    -0.0560 C.3   1 <1>   0.1200 
  4 C        1.3480     5.0330    -0.0220 C.ar  1 <1>  -0.1500 
  5 C        0.4170     7.2450    -0.0670 C.ar  1 <1>  -0.1500 
  6 C       -3.3170     5.0010    -0.0440 C.3   1 <1>   0.3430 
  7 C        2.6260     5.5630    -0.0220 C.ar  1 <1>  -0.1440 
  8 C        1.6940     7.7830    -0.0680 C.ar  1 <1>  -0.1440 
  9 N       -4.6480     5.6820    -0.0580 N.4   1 <1>  -0.9060 
 10 C        2.7920     6.9380    -0.0440 C.ar  1 <1>  -0.1500 
 11 C        3.8420     4.6540     0.0040 C.3   1 <1>  -0.0970 
 12 C        1.9000     9.2870    -0.0900 C.3   1 <1>  -0.0970 
 13 C       -5.7620     4.6850    -0.0450 C.3   1 <1>   0.3430 
 14 C       -7.1380     5.3610    -0.0590 C.3   1 <1>   0.1200 
 15 O       -8.0880     4.3590    -0.0460 O.3   1 <1>  -0.6800 
 16 H       -2.1700     6.5960    -0.9540 H     1 <1>   0.0800 
 17 H       -2.1750     6.6250     0.8220 H     1 <1>   0.0800 
 18 H        1.2030     3.9690    -0.0030 H     1 <1>   0.1500 
 19 H       -0.4170     7.9170    -0.0830 H     1 <1>   0.1500 
 20 H       -3.2320     4.3900     0.8410 H     1 <1>   0.0800 
 21 H       -3.2270     4.3630    -0.9080 H     1 <1>   0.0800 
 22 H       -4.7260     6.2700    -0.8980 H     1 <1>   0.4500 
 23 H       -4.7310     6.2960     0.7640 H     1 <1>   0.4500 
 24 H        3.7840     7.3530    -0.0400 H     1 <1>   0.1500 
 25 H        3.5730     3.6490    -0.2700 H     1 <1>   0.0800 
 26 H        4.2640     4.6410     0.9930 H     1 <1>   0.0800 
 27 H        4.5840     5.0080    -0.6880 H     1 <1>   0.0800 
 28 H        1.0540     9.7820    -0.5310 H     1 <1>   0.0800 
 29 H        2.7730     9.5350    -0.6670 H     1 <1>   0.0800 
 30 H        2.0330     9.6500     0.9130 H     1 <1>   0.0800 
 31 H       -5.6910     4.0720     0.8390 H     1 <1>   0.0800 
 32 H       -5.6860     4.0440    -0.9090 H     1 <1>   0.0800 
 33 H       -7.2820     5.9420    -0.9550 H     1 <1>   0.0800 
 34 H       -7.2860     5.9700     0.8160 H     1 <1>   0.0800 
 35 H       -9.0030     4.7170    -0.0540 H     1 <1>   0.4000 
@<TRIPOS>BOND
  1   1   2  1   
  2   1   3  1   
  3   2   4  ar  
  4   2   5  ar  
  5   3   6  1   
  6   3  16  1   
  7   3  17  1   
  8   4   7  ar  
  9   4  18  1   
 10   5   8  ar  
 11   5  19  1   
 12   6   9  1   
 13   6  20  1   
 14   6  21  1   
 15   7  10  ar  
 16   7  11  1   
 17   8  10  ar  
 18   8  12  1   
 19   9  13  1   
 20   9  22  1   
 21   9  23  1   
 22  10  24  1   
 23  11  25  1   
 24  11  26  1   
 25  11  27  1   
 26  12  28  1   
 27  12  29  1   
 28  12  30  1   
 29  13  14  1   
 30  13  31  1   
 31  13  32  1   
 32  14  15  1   
 33  14  33  1   
 34  14  34  1   
 35  15  35  1   
@<TRIPOS>SUBSTRUCTURE
  1 ****   1 GROUP 4 **** **** 0

# MOE 2024.06 (io_trps.svl 2023.06)
