@<TRIPOS>MOLECULE
NONAME
45 46 1 0 0 
SMALL
USER_CHARGES


@<TRIPOS>ATOM
  1 CL       0.7330     0.9030    -0.1850 Cl    1 <1>  -0.1770 
  2 C       -0.7000     1.8880    -0.3450 C.ar  1 <1>   0.1770 
  3 C       -1.9240     1.3680     0.0230 C.ar  1 <1>  -0.1500 
  4 C       -0.5790     3.1720    -0.8380 C.ar  1 <1>  -0.1500 
  5 C       -3.0720     2.1440    -0.1000 C.ar  1 <1>   0.1170 
  6 C       -1.7120     3.9570    -0.9650 C.ar  1 <1>  -0.1500 
  7 N       -4.3540     1.6830     0.2560 N.am  1 <1>  -0.5470 
  8 C       -2.9570     3.4500    -0.5970 C.ar  1 <1>   0.0830 
  9 C       -4.8390     0.4810     0.6920 C.2   1 <1>   0.5690 
 10 O       -4.1090     4.1800    -0.6980 O.3   1 <1>  -0.3630 
 11 O       -4.1500    -0.4960     0.8540 O.2   1 <1>  -0.5700 
 12 C       -6.3220     0.3630     1.0060 C.3   1 <1>   0.1310 
 13 C       -4.0990     5.5060    -1.1830 C.3   1 <1>   0.0400 
 14 S       -7.3190     1.6580     0.1160 S.3   1 <1>  -0.2860 
 15 C       -8.9840     1.3450     0.7120 C.2   1 <1>   0.2420 
 16 N       -9.2690     0.4420     1.5800 N.2   1 <1>  -0.3380 
 17 N      -10.0410     2.0340     0.2870 N.pl3 1 <1>   0.0480 
 18 N      -10.5920     0.5170     1.7540 N.2   1 <1>  -0.3380 
 19 C      -11.0340     1.4550     0.9820 C.2   1 <1>   0.0060 
 20 C      -10.0740     3.1340    -0.6980 C.3   1 <1>   0.0160 
 21 C      -12.5030     1.8420     0.8870 C.3   1 <1>   0.0200 
 22 C      -13.1480     1.4350    -0.4530 C.3   1 <1>  -0.0800 
 23 C      -14.6040     1.9150    -0.5100 C.3   1 <1>  -0.2400 
 24 C      -13.0980    -0.0850    -0.6650 C.3   1 <1>  -0.2400 
 25 H       -1.9660     0.3660     0.4020 H     1 <1>   0.1500 
 26 H        0.3900     3.5470    -1.1170 H     1 <1>   0.1500 
 27 H       -1.6000     4.9530    -1.3490 H     1 <1>   0.1500 
 28 H       -5.0680     2.4020     0.1090 H     1 <1>   0.3700 
 29 H       -6.4940     0.4940     2.0580 H     1 <1>   0.0800 
 30 H       -6.6970    -0.5940     0.6940 H     1 <1>   0.0800 
 31 H       -5.1080     5.8750    -1.1700 H     1 <1>   0.0800 
 32 H       -3.7230     5.5070    -2.1910 H     1 <1>   0.0800 
 33 H       -3.4820     6.1090    -0.5400 H     1 <1>   0.0800 
 34 H       -9.2240     3.7760    -0.5470 H     1 <1>   0.0800 
 35 H      -10.9730     3.7090    -0.5780 H     1 <1>   0.0800 
 36 H      -10.0380     2.7220    -1.6900 H     1 <1>   0.0800 
 37 H      -12.5930     2.9040     1.0300 H     1 <1>   0.0800 
 38 H      -13.0340     1.3660     1.6930 H     1 <1>   0.0800 
 39 H      -12.6100     1.9040    -1.2580 H     1 <1>   0.0800 
 40 H      -15.1850     1.4590     0.2730 H     1 <1>   0.0800 
 41 H      -15.0450     1.6560    -1.4570 H     1 <1>   0.0800 
 42 H      -14.6540     2.9840    -0.3980 H     1 <1>   0.0800 
 43 H      -13.6110    -0.5960     0.1310 H     1 <1>   0.0800 
 44 H      -12.0800    -0.4330    -0.6890 H     1 <1>   0.0800 
 45 H      -13.5630    -0.3500    -1.5980 H     1 <1>   0.0800 
@<TRIPOS>BOND
  1   1   2  1   
  2   2   3  ar  
  3   2   4  ar  
  4   3   5  ar  
  5   3  25  1   
  6   4   6  ar  
  7   4  26  1   
  8   5   7  1   
  9   5   8  ar  
 10   6   8  ar  
 11   6  27  1   
 12   7   9  am  
 13   7  28  1   
 14   8  10  1   
 15   9  11  2   
 16   9  12  1   
 17  10  13  1   
 18  12  14  1   
 19  12  29  1   
 20  12  30  1   
 21  13  31  1   
 22  13  32  1   
 23  13  33  1   
 24  14  15  1   
 25  15  16  2   
 26  15  17  1   
 27  16  18  1   
 28  17  19  1   
 29  17  20  1   
 30  18  19  2   
 31  19  21  1   
 32  20  34  1   
 33  20  35  1   
 34  20  36  1   
 35  21  22  1   
 36  21  37  1   
 37  21  38  1   
 38  22  23  1   
 39  22  24  1   
 40  22  39  1   
 41  23  40  1   
 42  23  41  1   
 43  23  42  1   
 44  24  43  1   
 45  24  44  1   
 46  24  45  1   
@<TRIPOS>SUBSTRUCTURE
  1 ****  14 GROUP 4 **** **** 0

# MOE 2024.06 (io_trps.svl 2023.06)
