@<TRIPOS>MOLECULE
NONAME
34 36 1 0 0 
SMALL
USER_CHARGES


@<TRIPOS>ATOM
  1 O        0.7540     1.0410    -1.1330 O.2   1 <1>  -0.5700 
  2 C        0.1500     2.0230    -0.7860 C.2   1 <1>   0.5940 
  3 C       -1.2700     2.0770    -0.6600 C.2   1 <1>  -0.2370 
  4 C        0.8980     3.3120    -0.4710 C.3   1 <1>  -0.0990 
  5 N       -2.1430     1.0590    -0.9400 N.pl3 1 <1>   0.0330 
  6 C       -1.9850     3.1560    -0.2440 C.2   1 <1>  -0.1810 
  7 C        0.1460     4.2130     0.5410 C.3   1 <1>  -0.1600 
  8 C       -3.4160     1.5030    -0.7070 C.ar  1 <1>  -0.1520 
  9 C       -3.3510     2.8220    -0.2680 C.ar  1 <1>   0.0000 
 10 C       -1.3270     4.4640     0.1550 C.3   1 <1>   0.0210 
 11 C       -4.6490     0.8630    -0.8400 C.ar  1 <1>  -0.1500 
 12 C       -4.5270     3.5080     0.0380 C.ar  1 <1>  -0.1500 
 13 C       -5.7950     1.5550    -0.5330 C.ar  1 <1>  -0.1500 
 14 C       -5.7670     2.8980    -0.0850 C.ar  1 <1>   0.0860 
 15 C       -6.9860     3.6160     0.2350 C.2   1 <1>   0.6340 
 16 O       -6.9950     4.7700     0.6140 O.2   1 <1>  -0.5700 
 17 O       -8.1500     2.9690     0.1030 O.3   1 <1>  -0.4300 
 18 C       -9.4010     3.5730     0.3570 C.3   1 <1>   0.1200 
 19 C       -9.8620     4.3040    -0.9040 C.3   1 <1>  -0.2400 
 20 H        1.0370     3.8450    -1.3940 H     1 <1>   0.0800 
 21 H        1.8680     3.0630    -0.0820 H     1 <1>   0.0800 
 22 H       -1.8660     0.1280    -1.2710 H     1 <1>   0.2700 
 23 H        0.6580     5.1530     0.6460 H     1 <1>   0.0800 
 24 H        0.1610     3.7250     1.5010 H     1 <1>   0.0800 
 25 H       -1.8530     4.8990     0.9870 H     1 <1>   0.0800 
 26 H       -1.3810     5.1470    -0.6750 H     1 <1>   0.0800 
 27 H       -4.6890    -0.1580    -1.1800 H     1 <1>   0.1500 
 28 H       -4.4570     4.5270     0.3740 H     1 <1>   0.1500 
 29 H       -6.7470     1.0650    -0.6360 H     1 <1>   0.1500 
 30 H       -9.3110     4.2450     1.1940 H     1 <1>   0.0800 
 31 H      -10.0950     2.7910     0.6100 H     1 <1>   0.0800 
 32 H       -9.1740     5.0940    -1.1470 H     1 <1>   0.0800 
 33 H      -10.8310     4.7380    -0.7360 H     1 <1>   0.0800 
 34 H       -9.9300     3.6170    -1.7280 H     1 <1>   0.0800 
@<TRIPOS>BOND
  1   1   2  2   
  2   2   3  1   
  3   2   4  1   
  4   3   5  1   
  5   3   6  2   
  6   4   7  1   
  7   4  20  1   
  8   4  21  1   
  9   5   8  1   
 10   5  22  1   
 11   6   9  1   
 12   6  10  1   
 13   7  10  1   
 14   7  23  1   
 15   7  24  1   
 16   8   9  ar  
 17   8  11  ar  
 18   9  12  ar  
 19  10  25  1   
 20  10  26  1   
 21  11  13  ar  
 22  11  27  1   
 23  12  14  ar  
 24  12  28  1   
 25  13  14  ar  
 26  13  29  1   
 27  14  15  1   
 28  15  16  2   
 29  15  17  1   
 30  17  18  1   
 31  18  19  1   
 32  18  30  1   
 33  18  31  1   
 34  19  32  1   
 35  19  33  1   
 36  19  34  1   
@<TRIPOS>SUBSTRUCTURE
  1 ****   9 GROUP 4 **** **** 0

# MOE 2024.06 (io_trps.svl 2023.06)
