@<TRIPOS>MOLECULE
NONAME
48 50 1 0 0 
SMALL
USER_CHARGES


@<TRIPOS>ATOM
  1 CL       0.9460     0.3730     0.6300 Cl    1 <1>  -0.1770 
  2 C        1.9240    -1.0180     0.2440 C.ar  1 <1>   0.1770 
  3 C        2.6600    -1.0280    -0.9260 C.ar  1 <1>  -0.1500 
  4 C        1.9490    -2.0940     1.1110 C.ar  1 <1>  -0.1500 
  5 C        3.4370    -2.1330    -1.2250 C.ar  1 <1>  -0.1500 
  6 C        2.7290    -3.1940     0.8010 C.ar  1 <1>  -0.1500 
  7 C        3.4950    -3.2300    -0.3660 C.ar  1 <1>   0.0530 
  8 C        4.3210    -4.3680    -0.6860 C.2   1 <1>   0.1330 
  9 N        4.2840    -5.0270    -1.8110 N.2   1 <1>  -0.3380 
 10 N        5.2430    -4.8960     0.1430 N.pl3 1 <1>   0.0480 
 11 N        5.1670    -6.0210    -1.7320 N.2   1 <1>  -0.3380 
 12 C        5.6980    -5.9280    -0.5660 C.2   1 <1>   0.2430 
 13 C        5.7330    -4.3350     1.4210 C.3   1 <1>   0.0160 
 14 S        6.9370    -7.0970     0.0130 S.3   1 <1>  -0.2860 
 15 C        6.3130    -7.7170     1.6520 C.3   1 <1>   0.1310 
 16 C        4.7900    -7.7440     1.7180 C.2   1 <1>   0.5690 
 17 O        4.2350    -6.8980     2.3760 O.2   1 <1>  -0.5700 
 18 N        4.0520    -8.6900     1.0930 N.am  1 <1>  -0.7300 
 19 C        4.4800    -9.7200     0.1270 C.3   1 <1>   0.2200 
 20 C        3.3600    -9.9680    -0.9060 C.3   1 <1>  -0.0800 
 21 C        4.8110   -11.0010     0.9040 C.3   1 <1>  -0.1600 
 22 C        3.7440   -11.1230    -1.8490 C.3   1 <1>  -0.1600 
 23 C        3.0470    -8.7150    -1.7400 C.3   1 <1>  -0.2400 
 24 C        5.1930   -12.1470    -0.0440 C.3   1 <1>  -0.1600 
 25 C        4.0850   -12.4010    -1.0720 C.3   1 <1>  -0.1600 
 26 H        2.6200    -0.1830    -1.5910 H     1 <1>   0.1500 
 27 H        1.3610    -2.0670     2.0110 H     1 <1>   0.1500 
 28 H        4.0090    -2.1570    -2.1370 H     1 <1>   0.1500 
 29 H        2.7390    -4.0420     1.4650 H     1 <1>   0.1500 
 30 H        5.8430    -3.2710     1.3220 H     1 <1>   0.0800 
 31 H        6.6860    -4.7630     1.6700 H     1 <1>   0.0800 
 32 H        5.0270    -4.5460     2.2040 H     1 <1>   0.0800 
 33 H        6.7050    -7.0630     2.4070 H     1 <1>   0.0800 
 34 H        6.7150    -8.7020     1.7880 H     1 <1>   0.0800 
 35 H        3.0390    -8.5960     1.1860 H     1 <1>   0.3700 
 36 H        5.3600    -9.3860    -0.3960 H     1 <1>   0.0800 
 37 H        2.4690   -10.2580    -0.3770 H     1 <1>   0.0800 
 38 H        3.9530   -11.2980     1.4830 H     1 <1>   0.0800 
 39 H        5.6270   -10.8190     1.5780 H     1 <1>   0.0800 
 40 H        4.5950   -10.8340    -2.4430 H     1 <1>   0.0800 
 41 H        2.9290   -11.3260    -2.5230 H     1 <1>   0.0800 
 42 H        3.9110    -8.4130    -2.3050 H     1 <1>   0.0800 
 43 H        2.7520    -7.8920    -1.1140 H     1 <1>   0.0800 
 44 H        2.2450    -8.9130    -2.4290 H     1 <1>   0.0800 
 45 H        5.3700   -13.0430     0.5250 H     1 <1>   0.0800 
 46 H        6.1060   -11.8970    -0.5580 H     1 <1>   0.0800 
 47 H        4.4010   -13.1670    -1.7600 H     1 <1>   0.0800 
 48 H        3.2030   -12.7570    -0.5660 H     1 <1>   0.0800 
@<TRIPOS>BOND
  1   1   2  1   
  2   2   3  ar  
  3   2   4  ar  
  4   3   5  ar  
  5   3  26  1   
  6   4   6  ar  
  7   4  27  1   
  8   5   7  ar  
  9   5  28  1   
 10   6   7  ar  
 11   6  29  1   
 12   7   8  1   
 13   8   9  2   
 14   8  10  1   
 15   9  11  1   
 16  10  12  1   
 17  10  13  1   
 18  11  12  2   
 19  12  14  1   
 20  13  30  1   
 21  13  31  1   
 22  13  32  1   
 23  14  15  1   
 24  15  16  1   
 25  15  33  1   
 26  15  34  1   
 27  16  17  2   
 28  16  18  am  
 29  18  19  1   
 30  18  35  1   
 31  19  20  1   
 32  19  21  1   
 33  19  36  1   
 34  20  22  1   
 35  20  23  1   
 36  20  37  1   
 37  21  24  1   
 38  21  38  1   
 39  21  39  1   
 40  22  25  1   
 41  22  40  1   
 42  22  41  1   
 43  23  42  1   
 44  23  43  1   
 45  23  44  1   
 46  24  25  1   
 47  24  45  1   
 48  24  46  1   
 49  25  47  1   
 50  25  48  1   
@<TRIPOS>SUBSTRUCTURE
  1 ****  12 GROUP 4 **** **** 0

# MOE 2024.06 (io_trps.svl 2023.06)
