@<TRIPOS>MOLECULE
NONAME
44 44 1 0 0 
SMALL
USER_CHARGES


@<TRIPOS>ATOM
  1 O        0.5120     0.4340     0.9550 O.2   1 <1>  -0.5700 
  2 C       -0.2620     1.3330     0.6720 C.2   1 <1>   0.5440 
  3 N       -1.5480     1.0260     0.3150 N.am  1 <1>  -0.7300 
  4 C        0.1680     2.7200     0.6860 C.ar  1 <1>   0.0860 
  5 C       -2.2150    -0.2790     0.2420 C.3   1 <1>   0.3000 
  6 C        1.4540     3.1040     0.2610 C.ar  1 <1>   0.1170 
  7 C       -0.7110     3.7170     1.1200 C.ar  1 <1>  -0.1500 
  8 C       -3.6590    -0.0020    -0.1750 C.3   1 <1>  -0.2400 
  9 C       -2.2020    -0.9520     1.6150 C.3   1 <1>  -0.2400 
 10 C       -1.5360    -1.1490    -0.8170 C.3   1 <1>  -0.2400 
 11 N        2.3650     2.1170    -0.1470 N.am  1 <1>  -0.5470 
 12 C        1.7980     4.4540     0.2690 C.ar  1 <1>  -0.1500 
 13 C       -0.3540     5.0500     1.1200 C.ar  1 <1>  -0.1500 
 14 C        3.5620     2.1390    -0.8030 C.2   1 <1>   0.5690 
 15 C        0.9060     5.4200     0.6900 C.ar  1 <1>  -0.1500 
 16 O        4.0880     3.1410    -1.2180 O.2   1 <1>  -0.5700 
 17 C        4.2500     0.8050    -1.0330 C.3   1 <1>  -0.0990 
 18 C        4.5500     0.0530     0.2750 C.3   1 <1>  -0.1600 
 19 C        5.2750    -1.2710     0.0020 C.3   1 <1>  -0.1600 
 20 C        5.5560    -2.0200     1.3070 C.3   1 <1>  -0.2400 
 21 H       -2.1310     1.7830    -0.0360 H     1 <1>   0.3700 
 22 H       -1.6910     3.4420     1.4700 H     1 <1>   0.1500 
 23 H       -3.6910     0.4780    -1.1370 H     1 <1>   0.0800 
 24 H       -4.1490     0.6220     0.5510 H     1 <1>   0.0800 
 25 H       -4.2050    -0.9250    -0.2450 H     1 <1>   0.0800 
 26 H       -2.6360    -0.3050     2.3550 H     1 <1>   0.0800 
 27 H       -1.1980    -1.1970     1.9100 H     1 <1>   0.0800 
 28 H       -2.7680    -1.8650     1.5850 H     1 <1>   0.0800 
 29 H       -1.5140    -0.6430    -1.7640 H     1 <1>   0.0800 
 30 H       -2.0720    -2.0730    -0.9350 H     1 <1>   0.0800 
 31 H       -0.5300    -1.3870    -0.5240 H     1 <1>   0.0800 
 32 H        2.0550     1.1730     0.1240 H     1 <1>   0.3700 
 33 H        2.7760     4.7630    -0.0510 H     1 <1>   0.1500 
 34 H       -1.0480     5.8010     1.4560 H     1 <1>   0.1500 
 35 H        1.1940     6.4570     0.6860 H     1 <1>   0.1500 
 36 H        5.1690     0.9850    -1.5610 H     1 <1>   0.0800 
 37 H        3.6210     0.2050    -1.6650 H     1 <1>   0.0800 
 38 H        3.6310    -0.1500     0.7990 H     1 <1>   0.0800 
 39 H        5.1630     0.6750     0.9060 H     1 <1>   0.0800 
 40 H        6.2060    -1.0780    -0.5040 H     1 <1>   0.0800 
 41 H        4.6690    -1.8910    -0.6370 H     1 <1>   0.0800 
 42 H        6.1770    -1.4270     1.9550 H     1 <1>   0.0800 
 43 H        6.0640    -2.9450     1.0990 H     1 <1>   0.0800 
 44 H        4.6360    -2.2430     1.8180 H     1 <1>   0.0800 
@<TRIPOS>BOND
  1   1   2  2   
  2   2   3  am  
  3   2   4  1   
  4   3   5  1   
  5   3  21  1   
  6   4   6  ar  
  7   4   7  ar  
  8   5   8  1   
  9   5   9  1   
 10   5  10  1   
 11   6  11  1   
 12   6  12  ar  
 13   7  13  ar  
 14   7  22  1   
 15   8  23  1   
 16   8  24  1   
 17   8  25  1   
 18   9  26  1   
 19   9  27  1   
 20   9  28  1   
 21  10  29  1   
 22  10  30  1   
 23  10  31  1   
 24  11  14  am  
 25  11  32  1   
 26  12  15  ar  
 27  12  33  1   
 28  13  15  ar  
 29  13  34  1   
 30  14  16  2   
 31  14  17  1   
 32  15  35  1   
 33  17  18  1   
 34  17  36  1   
 35  17  37  1   
 36  18  19  1   
 37  18  38  1   
 38  18  39  1   
 39  19  20  1   
 40  19  40  1   
 41  19  41  1   
 42  20  42  1   
 43  20  43  1   
 44  20  44  1   
@<TRIPOS>SUBSTRUCTURE
  1 ****   1 GROUP 4 **** **** 0

# MOE 2024.06 (io_trps.svl 2023.06)
