@<TRIPOS>MOLECULE
NONAME
29 29 1 0 0 
SMALL
USER_CHARGES


@<TRIPOS>ATOM
  1 O       -0.1490    -0.3640    -0.4360 O.2   1 <1>  -0.5700 
  2 C       -0.2500    -1.5780    -0.4510 C.2   1 <1>   0.5440 
  3 N        0.9320    -2.2330    -0.6520 N.am  1 <1>  -0.8000 
  4 C       -1.5320    -2.2970    -0.2670 C.ar  1 <1>   0.7060 
  5 N       -1.4810    -3.6140    -0.1960 N.ar  1 <1>  -0.6200 
  6 N       -2.6510    -1.6090    -0.1850 N.ar  1 <1>  -0.6200 
  7 C       -2.6340    -4.2130    -0.0380 C.ar  1 <1>   0.7200 
  8 C       -3.7410    -2.3120    -0.0280 C.ar  1 <1>   0.7200 
  9 N       -3.7880    -3.6130     0.0490 N.ar  1 <1>  -0.6200 
 10 N       -2.6230    -5.5890     0.0390 N.pl3 1 <1>  -0.8380 
 11 N       -4.9300    -1.6200     0.0630 N.pl3 1 <1>  -0.8380 
 12 C       -1.3900    -6.3720     0.3390 C.3   1 <1>   0.1290 
 13 C       -3.8680    -6.3980    -0.0950 C.3   1 <1>   0.1290 
 14 C       -4.9780    -0.1380     0.2240 C.3   1 <1>   0.1290 
 15 C       -6.2570    -2.2970     0.0040 C.3   1 <1>   0.1290 
 16 H        1.7920    -1.6990    -0.7790 H     1 <1>   0.3700 
 17 H        0.9860    -3.2520    -0.6890 H     1 <1>   0.3700 
 18 H       -0.6610    -5.7610     0.8410 H     1 <1>   0.0800 
 19 H       -0.9670    -6.7420    -0.5790 H     1 <1>   0.0800 
 20 H       -1.6290    -7.2040     0.9780 H     1 <1>   0.0800 
 21 H       -4.5880    -5.8870    -0.7100 H     1 <1>   0.0800 
 22 H       -4.2960    -6.5650     0.8780 H     1 <1>   0.0800 
 23 H       -3.6460    -7.3460    -0.5540 H     1 <1>   0.0800 
 24 H       -4.1040     0.2180     0.7420 H     1 <1>   0.0800 
 25 H       -5.8450     0.1460     0.7940 H     1 <1>   0.0800 
 26 H       -5.0220     0.3280    -0.7450 H     1 <1>   0.0800 
 27 H       -6.1920    -3.2180    -0.5490 H     1 <1>   0.0800 
 28 H       -6.9740    -1.6620    -0.4850 H     1 <1>   0.0800 
 29 H       -6.5950    -2.5120     1.0030 H     1 <1>   0.0800 
@<TRIPOS>BOND
  1   1   2  2   
  2   2   3  am  
  3   2   4  1   
  4   3  16  1   
  5   3  17  1   
  6   4   5  ar  
  7   4   6  ar  
  8   5   7  ar  
  9   6   8  ar  
 10   7   9  ar  
 11   7  10  1   
 12   8   9  ar  
 13   8  11  1   
 14  10  12  1   
 15  10  13  1   
 16  11  14  1   
 17  11  15  1   
 18  12  18  1   
 19  12  19  1   
 20  12  20  1   
 21  13  21  1   
 22  13  22  1   
 23  13  23  1   
 24  14  24  1   
 25  14  25  1   
 26  14  26  1   
 27  15  27  1   
 28  15  28  1   
 29  15  29  1   
@<TRIPOS>SUBSTRUCTURE
  1 ****   7 GROUP 4 **** **** 0

# MOE 2024.06 (io_trps.svl 2023.06)
