@<TRIPOS>MOLECULE
NONAME
38 39 1 0 0 
SMALL
USER_CHARGES


@<TRIPOS>ATOM
  1 O       -0.2060    -0.4220    -0.6540 O.2   1 <1>  -0.5700 
  2 C       -0.3610    -1.5700    -0.2830 C.2   1 <1>   0.6900 
  3 N       -1.5810    -2.0030     0.1580 N.am  1 <1>  -0.6600 
  4 N        0.6800    -2.4360    -0.3110 N.am  1 <1>  -0.7300 
  5 C       -2.7590    -1.0790     0.0810 C.3   1 <1>   0.3200 
  6 C       -1.7500    -3.2070     1.0160 C.3   1 <1>   0.1400 
  7 C        2.0360    -2.1200    -0.7900 C.3   1 <1>   0.1400 
  8 C       -4.0180    -1.7720    -0.4220 C.2   1 <1>   0.2980 
  9 C       -2.0120    -4.4390     0.1500 C.3   1 <1>  -0.2400 
 10 C        3.0400    -2.9350     0.0160 C.3   1 <1>  -0.2400 
 11 O       -4.0780    -2.1200    -1.6800 O.3   1 <1>  -0.0190 
 12 N       -5.0430    -2.0600     0.2730 N.2   1 <1>  -0.5650 
 13 N       -5.2400    -2.6810    -1.7970 N.2   1 <1>  -0.4100 
 14 C       -5.8150    -2.6490    -0.6470 C.2   1 <1>   0.4620 
 15 C       -7.1340    -3.1790    -0.3430 C.ar  1 <1>   0.0540 
 16 C       -7.6910    -3.0810     0.9350 C.ar  1 <1>  -0.1500 
 17 C       -7.9030    -3.8110    -1.3230 C.ar  1 <1>  -0.1500 
 18 C       -8.9460    -3.5870     1.2210 C.ar  1 <1>  -0.1500 
 19 C       -9.1590    -4.3200    -1.0440 C.ar  1 <1>  -0.1500 
 20 C       -9.6840    -4.2080     0.2300 C.ar  1 <1>  -0.1500 
 21 H        0.4660    -3.4190    -0.1700 H     1 <1>   0.3700 
 22 H       -2.5540    -0.2530    -0.5770 H     1 <1>   0.0800 
 23 H       -2.9480    -0.6790     1.0600 H     1 <1>   0.0800 
 24 H       -2.5710    -3.0600     1.6970 H     1 <1>   0.0800 
 25 H       -0.8610    -3.3570     1.6060 H     1 <1>   0.0800 
 26 H        2.2300    -1.0660    -0.6680 H     1 <1>   0.0800 
 27 H        2.1090    -2.3620    -1.8370 H     1 <1>   0.0800 
 28 H       -2.9400    -4.3380    -0.3830 H     1 <1>   0.0800 
 29 H       -2.0820    -5.3100     0.7750 H     1 <1>   0.0800 
 30 H       -1.2170    -4.5880    -0.5570 H     1 <1>   0.0800 
 31 H        2.9620    -2.6890     1.0600 H     1 <1>   0.0800 
 32 H        4.0360    -2.7040    -0.3140 H     1 <1>   0.0800 
 33 H        2.8690    -3.9870    -0.1220 H     1 <1>   0.0800 
 34 H       -7.1310    -2.6000     1.7180 H     1 <1>   0.1500 
 35 H       -7.5100    -3.9070    -2.3200 H     1 <1>   0.1500 
 36 H       -9.3490    -3.4970     2.2140 H     1 <1>   0.1500 
 37 H       -9.7290    -4.8020    -1.8190 H     1 <1>   0.1500 
 38 H      -10.6610    -4.6030     0.4500 H     1 <1>   0.1500 
@<TRIPOS>BOND
  1   1   2  2   
  2   2   3  am  
  3   2   4  am  
  4   3   5  1   
  5   3   6  1   
  6   4   7  1   
  7   4  21  1   
  8   5   8  1   
  9   5  22  1   
 10   5  23  1   
 11   6   9  1   
 12   6  24  1   
 13   6  25  1   
 14   7  10  1   
 15   7  26  1   
 16   7  27  1   
 17   8  11  1   
 18   8  12  2   
 19   9  28  1   
 20   9  29  1   
 21   9  30  1   
 22  10  31  1   
 23  10  32  1   
 24  10  33  1   
 25  11  13  1   
 26  12  14  1   
 27  13  14  2   
 28  14  15  1   
 29  15  16  ar  
 30  15  17  ar  
 31  16  18  ar  
 32  16  34  1   
 33  17  19  ar  
 34  17  35  1   
 35  18  20  ar  
 36  18  36  1   
 37  19  20  ar  
 38  19  37  1   
 39  20  38  1   
@<TRIPOS>SUBSTRUCTURE
  1 ****   8 GROUP 4 **** **** 0

# MOE 2024.06 (io_trps.svl 2023.06)
