@<TRIPOS>MOLECULE
NONAME
46 47 1 0 0 
SMALL
USER_CHARGES


@<TRIPOS>ATOM
  1 O        0.8730    -3.7600    -0.2030 O.3   1 <1>  -0.3630 
  2 C       -0.4760    -3.6920    -0.3340 C.ar  1 <1>   0.0830 
  3 C        1.5130    -4.9110     0.3060 C.3   1 <1>   0.1200 
  4 C       -1.3400    -4.7480    -0.0530 C.ar  1 <1>  -0.1500 
  5 C       -0.9910    -2.4830    -0.7770 C.ar  1 <1>  -0.1500 
  6 C        3.0240    -4.6450     0.3400 C.3   1 <1>   0.2000 
  7 C       -2.7130    -4.5830    -0.2180 C.ar  1 <1>   0.0830 
  8 C       -2.3540    -2.3180    -0.9410 C.ar  1 <1>  -0.1500 
  9 O        3.4340    -4.2020    -0.9200 O.3   1 <1>  -0.6800 
 10 C        3.8440    -5.8960     0.7240 C.3   1 <1>   0.3430 
 11 O       -3.6280    -5.5540     0.0300 O.3   1 <1>  -0.3620 
 12 C       -3.2100    -3.3670    -0.6610 C.ar  1 <1>  -0.1500 
 13 N        5.2460    -5.7880     0.1990 N.4   1 <1>  -0.9590 
 14 C       -3.2490    -6.8400     0.4640 C.3   1 <1>   0.0400 
 15 C        5.9350    -7.0820    -0.0830 C.3   1 <1>   0.4230 
 16 C        6.0600    -4.8690     1.0480 C.3   1 <1>   0.3430 
 17 C        7.2860    -6.8040    -0.7560 C.3   1 <1>  -0.1600 
 18 C        5.0820    -7.9580    -1.0020 C.3   1 <1>  -0.2400 
 19 C        7.3980    -4.5690     0.3740 C.3   1 <1>  -0.1600 
 20 C        8.1670    -5.8550     0.0640 C.3   1 <1>  -0.1600 
 21 H        1.2870    -5.7400    -0.3430 H     1 <1>   0.0800 
 22 H        1.1350    -5.1010     1.2950 H     1 <1>   0.0800 
 23 H       -0.9570    -5.6860     0.2870 H     1 <1>   0.1500 
 24 H       -0.3210    -1.6700    -0.9930 H     1 <1>   0.1500 
 25 H        3.2210    -3.8540     1.0440 H     1 <1>   0.0800 
 26 H       -2.7490    -1.3780    -1.2840 H     1 <1>   0.1500 
 27 H        2.7620    -3.5630    -1.2580 H     1 <1>   0.4000 
 28 H        3.3530    -6.7460     0.2840 H     1 <1>   0.0800 
 29 H        3.8440    -6.0340     1.7920 H     1 <1>   0.0800 
 30 H       -4.2720    -3.2510    -0.7840 H     1 <1>   0.1500 
 31 H        5.1180    -5.3040    -0.7090 H     1 <1>   0.4500 
 32 H       -4.1420    -7.4270     0.5820 H     1 <1>   0.0800 
 33 H       -2.7420    -6.7550     1.4080 H     1 <1>   0.0800 
 34 H       -2.6150    -7.2870    -0.2800 H     1 <1>   0.0800 
 35 H        6.1110    -7.6040     0.8440 H     1 <1>   0.0800 
 36 H        6.2380    -5.3240     2.0090 H     1 <1>   0.0800 
 37 H        5.5300    -3.9430     1.2010 H     1 <1>   0.0800 
 38 H        7.1230    -6.3850    -1.7340 H     1 <1>   0.0800 
 39 H        7.8120    -7.7340    -0.8910 H     1 <1>   0.0800 
 40 H        4.7700    -7.4120    -1.8750 H     1 <1>   0.0800 
 41 H        4.2240    -8.3490    -0.4890 H     1 <1>   0.0800 
 42 H        5.6590    -8.8060    -1.3280 H     1 <1>   0.0800 
 43 H        7.9890    -3.9470     1.0240 H     1 <1>   0.0800 
 44 H        7.2230    -4.0140    -0.5320 H     1 <1>   0.0800 
 45 H        9.0640    -5.6220    -0.4860 H     1 <1>   0.0800 
 46 H        8.4600    -6.3350     0.9830 H     1 <1>   0.0800 
@<TRIPOS>BOND
  1   1   2  1   
  2   1   3  1   
  3   2   4  ar  
  4   2   5  ar  
  5   3   6  1   
  6   3  21  1   
  7   3  22  1   
  8   4   7  ar  
  9   4  23  1   
 10   5   8  ar  
 11   5  24  1   
 12   6   9  1   
 13   6  10  1   
 14   6  25  1   
 15   7  11  1   
 16   7  12  ar  
 17   8  12  ar  
 18   8  26  1   
 19   9  27  1   
 20  10  13  1   
 21  10  28  1   
 22  10  29  1   
 23  11  14  1   
 24  12  30  1   
 25  13  15  1   
 26  13  16  1   
 27  13  31  1   
 28  14  32  1   
 29  14  33  1   
 30  14  34  1   
 31  15  17  1   
 32  15  18  1   
 33  15  35  1   
 34  16  19  1   
 35  16  36  1   
 36  16  37  1   
 37  17  20  1   
 38  17  38  1   
 39  17  39  1   
 40  18  40  1   
 41  18  41  1   
 42  18  42  1   
 43  19  20  1   
 44  19  43  1   
 45  19  44  1   
 46  20  45  1   
 47  20  46  1   
@<TRIPOS>SUBSTRUCTURE
  1 ****   3 GROUP 4 **** **** 0

# MOE 2024.06 (io_trps.svl 2023.06)
