@<TRIPOS>MOLECULE
NONAME
49 51 1 0 0 
SMALL
USER_CHARGES


@<TRIPOS>ATOM
  1 N        0.5040     1.3740     0.4320 N.pl3 1 <1>  -0.8380 
  2 C       -0.8290     1.0540     0.1770 C.ar  1 <1>   0.1000 
  3 C        1.1710     0.6730     1.5660 C.3   1 <1>   0.2090 
  4 C        1.3570     1.7480    -0.7330 C.3   1 <1>   0.2090 
  5 C       -1.8530     1.9300     0.5370 C.ar  1 <1>  -0.1440 
  6 C       -1.1570    -0.1500    -0.4400 C.ar  1 <1>  -0.1500 
  7 C        2.0980    -0.4580     1.0740 C.3   1 <1>   0.3430 
  8 C        2.2810     0.5890    -1.1620 C.3   1 <1>   0.3430 
  9 C       -3.1690     1.5910     0.2760 C.ar  1 <1>  -0.1500 
 10 C       -1.5420     3.2580     1.2130 C.3   1 <1>  -0.0970 
 11 C       -2.4720    -0.4870    -0.7000 C.ar  1 <1>  -0.1440 
 12 N        3.0530    -0.0050    -0.0080 N.4   1 <1>  -0.9590 
 13 C       -3.4790     0.3900    -0.3380 C.ar  1 <1>  -0.1500 
 14 C       -2.8320    -1.8000    -1.3740 C.3   1 <1>  -0.0970 
 15 C        3.9440    -1.1050    -0.4890 C.3   1 <1>   0.3430 
 16 C        4.9500    -1.5450     0.5760 C.3   1 <1>  -0.0170 
 17 C        5.8690    -2.5840    -0.0350 C.ar  1 <1>  -0.1440 
 18 C        7.0450    -2.1950    -0.6610 C.ar  1 <1>  -0.1500 
 19 C        5.5370    -3.9290     0.0150 C.ar  1 <1>  -0.1500 
 20 C        7.8750    -3.1420    -1.2360 C.ar  1 <1>  -0.1500 
 21 C        6.3670    -4.8750    -0.5600 C.ar  1 <1>  -0.1500 
 22 C        7.5360    -4.4820    -1.1870 C.ar  1 <1>  -0.1500 
 23 H        0.4200     0.2600     2.2190 H     1 <1>   0.0800 
 24 H        1.7370     1.3880     2.1360 H     1 <1>   0.0800 
 25 H        1.9460     2.6090    -0.4730 H     1 <1>   0.0800 
 26 H        0.7250     2.0260    -1.5610 H     1 <1>   0.0800 
 27 H       -0.3760    -0.8270    -0.7190 H     1 <1>   0.1500 
 28 H        1.4780    -1.2540     0.6960 H     1 <1>   0.0800 
 29 H        2.6470    -0.8420     1.9170 H     1 <1>   0.0800 
 30 H        2.9630     0.9500    -1.9140 H     1 <1>   0.0800 
 31 H        1.6690    -0.1730    -1.6150 H     1 <1>   0.0800 
 32 H       -3.9670     2.2590     0.5490 H     1 <1>   0.1500 
 33 H       -1.0340     3.0820     2.1440 H     1 <1>   0.0800 
 34 H       -2.4400     3.8130     1.4130 H     1 <1>   0.0800 
 35 H       -0.9070     3.8490     0.5790 H     1 <1>   0.0800 
 36 H        3.6330     0.7490     0.3850 H     1 <1>   0.4500 
 37 H       -4.5080     0.1440    -0.5330 H     1 <1>   0.1500 
 38 H       -1.9550    -2.3840    -1.5810 H     1 <1>   0.0800 
 39 H       -3.3410    -1.6050    -2.3010 H     1 <1>   0.0800 
 40 H       -3.4830    -2.3710    -0.7360 H     1 <1>   0.0800 
 41 H        4.4970    -0.7690    -1.3520 H     1 <1>   0.0800 
 42 H        3.3530    -1.9550    -0.7920 H     1 <1>   0.0800 
 43 H        4.4490    -1.9770     1.4240 H     1 <1>   0.0800 
 44 H        5.5340    -0.7060     0.9080 H     1 <1>   0.0800 
 45 H        7.3320    -1.1590    -0.7070 H     1 <1>   0.1500 
 46 H        4.6360    -4.2600     0.5020 H     1 <1>   0.1500 
 47 H        8.7880    -2.8390    -1.7200 H     1 <1>   0.1500 
 48 H        6.1090    -5.9200    -0.5190 H     1 <1>   0.1500 
 49 H        8.1820    -5.2180    -1.6330 H     1 <1>   0.1500 
@<TRIPOS>BOND
  1   1   2  1   
  2   1   3  1   
  3   1   4  1   
  4   2   5  ar  
  5   2   6  ar  
  6   3   7  1   
  7   3  23  1   
  8   3  24  1   
  9   4   8  1   
 10   4  25  1   
 11   4  26  1   
 12   5   9  ar  
 13   5  10  1   
 14   6  11  ar  
 15   6  27  1   
 16   7  12  1   
 17   7  28  1   
 18   7  29  1   
 19   8  12  1   
 20   8  30  1   
 21   8  31  1   
 22   9  13  ar  
 23   9  32  1   
 24  10  33  1   
 25  10  34  1   
 26  10  35  1   
 27  11  13  ar  
 28  11  14  1   
 29  12  15  1   
 30  12  36  1   
 31  13  37  1   
 32  14  38  1   
 33  14  39  1   
 34  14  40  1   
 35  15  16  1   
 36  15  41  1   
 37  15  42  1   
 38  16  17  1   
 39  16  43  1   
 40  16  44  1   
 41  17  18  ar  
 42  17  19  ar  
 43  18  20  ar  
 44  18  45  1   
 45  19  21  ar  
 46  19  46  1   
 47  20  22  ar  
 48  20  47  1   
 49  21  22  ar  
 50  21  48  1   
 51  22  49  1   
@<TRIPOS>SUBSTRUCTURE
  1 ****   7 GROUP 4 **** **** 0

# MOE 2024.06 (io_trps.svl 2023.06)
