@<TRIPOS>MOLECULE
NONAME
32 33 1 0 0 
SMALL
USER_CHARGES


@<TRIPOS>ATOM
  1 BR      -0.2290     0.2370    -0.6530 Br    1 <1>  -0.1110 
  2 C        1.5470     0.9280    -0.3760 C.ar  1 <1>   0.1110 
  3 C        1.6930     2.1850     0.1800 C.ar  1 <1>  -0.1500 
  4 C        2.6290     0.1490    -0.7410 C.ar  1 <1>  -0.1500 
  5 C        2.9740     2.6730     0.3760 C.ar  1 <1>  -0.1500 
  6 C        3.9060     0.6470    -0.5420 C.ar  1 <1>  -0.1500 
  7 C        4.0810     1.9140     0.0190 C.ar  1 <1>   0.0830 
  8 O        5.2950     2.4740     0.2470 O.3   1 <1>  -0.3630 
  9 C        6.4860     1.7960    -0.0750 C.3   1 <1>   0.1200 
 10 C        7.6600     2.6990     0.3050 C.3   1 <1>  -0.1600 
 11 C        9.0040     2.0310    -0.0180 C.3   1 <1>  -0.1600 
 12 C       10.1790     2.9400     0.3610 C.3   1 <1>   0.0960 
 13 N       11.4590     2.2810     0.0380 N.pl3 1 <1>   0.0480 
 14 C       12.1760     2.3790    -1.1040 C.2   1 <1>   0.0360 
 15 C       12.1660     1.4390     0.8130 C.2   1 <1>  -0.3020 
 16 N       13.2610     1.6740    -1.1070 N.2   1 <1>  -0.5650 
 17 C       13.2570     1.0810     0.1010 C.2   1 <1>   0.0770 
 18 H        0.8290     2.7630     0.4530 H     1 <1>   0.1500 
 19 H        2.4720    -0.8240    -1.1710 H     1 <1>   0.1500 
 20 H        3.1240     3.6470     0.8060 H     1 <1>   0.1500 
 21 H        4.7430     0.0400    -0.8260 H     1 <1>   0.1500 
 22 H        6.4870     1.5920    -1.1320 H     1 <1>   0.0800 
 23 H        6.5150     0.8760     0.4850 H     1 <1>   0.0800 
 24 H        7.6070     2.9130     1.3590 H     1 <1>   0.0800 
 25 H        7.5760     3.6240    -0.2400 H     1 <1>   0.0800 
 26 H        9.0500     1.8130    -1.0720 H     1 <1>   0.0800 
 27 H        9.0820     1.1050     0.5270 H     1 <1>   0.0800 
 28 H       10.1610     3.1540     1.4150 H     1 <1>   0.0800 
 29 H       10.1230     3.8680    -0.1780 H     1 <1>   0.0800 
 30 H       11.8560     2.9920    -1.9280 H     1 <1>   0.1500 
 31 H       11.8660     1.1460     1.8020 H     1 <1>   0.1500 
 32 H       14.0520     0.4180     0.3990 H     1 <1>   0.1500 
@<TRIPOS>BOND
  1   1   2  1   
  2   2   3  ar  
  3   2   4  ar  
  4   3   5  ar  
  5   3  18  1   
  6   4   6  ar  
  7   4  19  1   
  8   5   7  ar  
  9   5  20  1   
 10   6   7  ar  
 11   6  21  1   
 12   7   8  1   
 13   8   9  1   
 14   9  10  1   
 15   9  22  1   
 16   9  23  1   
 17  10  11  1   
 18  10  24  1   
 19  10  25  1   
 20  11  12  1   
 21  11  26  1   
 22  11  27  1   
 23  12  13  1   
 24  12  28  1   
 25  12  29  1   
 26  13  14  1   
 27  13  15  1   
 28  14  16  2   
 29  14  30  1   
 30  15  17  2   
 31  15  31  1   
 32  16  17  1   
 33  17  32  1   
@<TRIPOS>SUBSTRUCTURE
  1 ****   9 GROUP 4 **** **** 0

# MOE 2024.06 (io_trps.svl 2023.06)
