@<TRIPOS>MOLECULE
NONAME
47 48 1 0 0 
SMALL
USER_CHARGES


@<TRIPOS>ATOM
  1 F       -1.2240     0.9590     0.3330 F     1 <1>  -0.1900 
  2 C       -0.7640     2.1760     0.2110 C.ar  1 <1>   0.1900 
  3 C       -1.4810     3.0870    -0.5550 C.ar  1 <1>  -0.1440 
  4 C        0.4100     2.5020     0.8610 C.ar  1 <1>  -0.1500 
  5 C       -0.9930     4.3850    -0.6720 C.ar  1 <1>  -0.1500 
  6 C       -2.7610     2.6660    -1.2530 C.3   1 <1>   0.4870 
  7 C        0.8600     3.8000     0.7230 C.ar  1 <1>   0.1900 
  8 C        0.1830     4.7450    -0.0280 C.ar  1 <1>  -0.1500 
  9 N       -3.7900     2.3110    -0.2370 N.4   1 <1>  -0.9590 
 10 F        1.9630     4.1490     1.3250 F     1 <1>  -0.1900 
 11 C       -4.9870     1.6930    -0.8930 C.3   1 <1>   0.3430 
 12 C       -4.1590     3.4800     0.6160 C.3   1 <1>   0.3430 
 13 C       -6.0250     1.2350     0.1390 C.3   1 <1>  -0.0190 
 14 C       -5.1510     3.0370     1.6930 C.3   1 <1>  -0.1600 
 15 C       -7.2460     0.7170    -0.6160 C.2   1 <1>   0.5690 
 16 C       -6.4040     2.3930     1.0830 C.3   1 <1>  -0.1600 
 17 O       -7.4650     1.2260    -1.6910 O.2   1 <1>  -0.5700 
 18 N       -8.0470    -0.2740    -0.1060 N.am  1 <1>  -0.6600 
 19 C       -7.8680    -0.9350     1.2160 C.3   1 <1>   0.1400 
 20 C       -9.2340    -0.7430    -0.8750 C.3   1 <1>   0.1400 
 21 C       -7.0460    -2.2100     1.0430 C.3   1 <1>  -0.2400 
 22 C      -10.4630     0.0610    -0.4590 C.3   1 <1>  -0.2400 
 23 H        0.9530     1.7840     1.4490 H     1 <1>   0.1500 
 24 H       -1.5110     5.1250    -1.2610 H     1 <1>   0.1500 
 25 H       -2.5540     1.8110    -1.8770 H     1 <1>   0.0800 
 26 H       -3.1200     3.4650    -1.8810 H     1 <1>   0.0800 
 27 H        0.5780     5.7440    -0.1060 H     1 <1>   0.1500 
 28 H       -3.3530     1.6050     0.3730 H     1 <1>   0.4500 
 29 H       -4.6900     0.8470    -1.4910 H     1 <1>   0.0800 
 30 H       -5.4490     2.4140    -1.5500 H     1 <1>   0.0800 
 31 H       -4.6100     4.2480     0.0080 H     1 <1>   0.0800 
 32 H       -3.2790     3.8910     1.0860 H     1 <1>   0.0800 
 33 H       -5.5920     0.4300     0.7010 H     1 <1>   0.0800 
 34 H       -5.4420     3.8970     2.2720 H     1 <1>   0.0800 
 35 H       -4.6680     2.3480     2.3650 H     1 <1>   0.0800 
 36 H       -7.0500     2.0370     1.8670 H     1 <1>   0.0800 
 37 H       -6.9530     3.1370     0.5270 H     1 <1>   0.0800 
 38 H       -8.8320    -1.1800     1.6310 H     1 <1>   0.0800 
 39 H       -7.3810    -0.2730     1.9090 H     1 <1>   0.0800 
 40 H       -9.3990    -1.7920    -0.6950 H     1 <1>   0.0800 
 41 H       -9.0620    -0.6160    -1.9310 H     1 <1>   0.0800 
 42 H       -7.5570    -2.9020     0.3980 H     1 <1>   0.0800 
 43 H       -6.9080    -2.6830     1.9990 H     1 <1>   0.0800 
 44 H       -6.0790    -1.9900     0.6300 H     1 <1>   0.0800 
 45 H      -10.6760    -0.0750     0.5860 H     1 <1>   0.0800 
 46 H      -11.3160    -0.2670    -1.0250 H     1 <1>   0.0800 
 47 H      -10.3050     1.1060    -0.6600 H     1 <1>   0.0800 
@<TRIPOS>BOND
  1   1   2  1   
  2   2   3  ar  
  3   2   4  ar  
  4   3   5  ar  
  5   3   6  1   
  6   4   7  ar  
  7   4  23  1   
  8   5   8  ar  
  9   5  24  1   
 10   6   9  1   
 11   6  25  1   
 12   6  26  1   
 13   7   8  ar  
 14   7  10  1   
 15   8  27  1   
 16   9  11  1   
 17   9  12  1   
 18   9  28  1   
 19  11  13  1   
 20  11  29  1   
 21  11  30  1   
 22  12  14  1   
 23  12  31  1   
 24  12  32  1   
 25  13  15  1   
 26  13  16  1   
 27  13  33  1   
 28  14  16  1   
 29  14  34  1   
 30  14  35  1   
 31  15  17  2   
 32  15  18  am  
 33  16  36  1   
 34  16  37  1   
 35  18  19  1   
 36  18  20  1   
 37  19  21  1   
 38  19  38  1   
 39  19  39  1   
 40  20  22  1   
 41  20  40  1   
 42  20  41  1   
 43  21  42  1   
 44  21  43  1   
 45  21  44  1   
 46  22  45  1   
 47  22  46  1   
 48  22  47  1   
@<TRIPOS>SUBSTRUCTURE
  1 ****   9 GROUP 4 **** **** 0

# MOE 2024.06 (io_trps.svl 2023.06)
