@<TRIPOS>MOLECULE
NONAME
46 48 1 0 0 
SMALL
USER_CHARGES


@<TRIPOS>ATOM
  1 O       -2.1820     1.4580     2.9670 O.co2 1 <1>  -0.9000 
  2 C       -2.2110     1.3400     1.7420 C.2   1 <1>   0.9060 
  3 O       -2.9960     0.5640     1.1800 O.co2 1 <1>  -0.9000 
  4 C       -1.2830     2.2100     0.9050 C.3   1 <1>  -0.1860 
  5 C       -1.8700     3.5610     0.3660 C.3   1 <1>  -0.0190 
  6 C       -0.5470     1.4530    -0.2340 C.3   1 <1>  -0.0800 
  7 C       -3.3910     3.8040     0.3450 C.2   1 <1>   0.5690 
  8 C       -1.2790     3.8410    -1.0440 C.3   1 <1>  -0.0800 
  9 C        0.6880     2.2920    -0.6220 C.3   1 <1>  -0.1600 
 10 C       -1.4500     1.3560    -1.4840 C.3   1 <1>  -0.1600 
 11 O       -3.7570     4.9580     0.3800 O.2   1 <1>  -0.5700 
 12 N       -4.2750     2.7690     0.2310 N.am  1 <1>  -0.5470 
 13 C        0.2610     3.7340    -0.9810 C.3   1 <1>  -0.1600 
 14 C       -1.7810     2.7630    -2.0280 C.3   1 <1>  -0.1600 
 15 C       -5.6720     2.7320     0.1540 C.ar  1 <1>   0.1170 
 16 C       -6.4340     3.7720    -0.3620 C.ar  1 <1>  -0.1500 
 17 C       -6.3180     1.5900     0.6030 C.ar  1 <1>  -0.1500 
 18 C       -7.8210     3.6820    -0.4250 C.ar  1 <1>   0.0820 
 19 C       -7.6950     1.4800     0.5420 C.ar  1 <1>  -0.1500 
 20 O       -8.5950     4.6960    -0.9160 O.3   1 <1>  -0.3620 
 21 C       -8.4600     2.5240     0.0280 C.ar  1 <1>   0.0820 
 22 C       -8.0460     5.9710    -1.1620 C.3   1 <1>   0.0400 
 23 O       -9.8250     2.4650    -0.0510 O.3   1 <1>  -0.3630 
 24 C      -10.5390     1.3620     0.4600 C.3   1 <1>   0.0400 
 25 H       -0.5180     2.4830     1.6090 H     1 <1>   0.0800 
 26 H       -1.4920     4.3240     1.0230 H     1 <1>   0.0800 
 27 H       -0.2530     0.4710     0.0980 H     1 <1>   0.0800 
 28 H       -1.5700     4.8220    -1.3810 H     1 <1>   0.0800 
 29 H        1.1790     1.8360    -1.4640 H     1 <1>   0.0800 
 30 H        1.3900     2.3110     0.1940 H     1 <1>   0.0800 
 31 H       -2.3610     0.8400    -1.2350 H     1 <1>   0.0800 
 32 H       -0.9560     0.7800    -2.2460 H     1 <1>   0.0800 
 33 H       -3.8520     1.8400     0.4240 H     1 <1>   0.3700 
 34 H        0.6360     4.4190    -0.2400 H     1 <1>   0.0800 
 35 H        0.6870     4.0120    -1.9300 H     1 <1>   0.0800 
 36 H       -1.3050     2.9020    -2.9830 H     1 <1>   0.0800 
 37 H       -2.8420     2.8540    -2.1820 H     1 <1>   0.0800 
 38 H       -5.9180     4.6410    -0.7150 H     1 <1>   0.1500 
 39 H       -5.7230     0.7850     1.0070 H     1 <1>   0.1500 
 40 H       -8.1420     0.5740     0.9020 H     1 <1>   0.1500 
 41 H       -8.8480     6.6320    -1.4360 H     1 <1>   0.0800 
 42 H       -7.3400     5.8970    -1.9700 H     1 <1>   0.0800 
 43 H       -7.5690     6.3240    -0.2650 H     1 <1>   0.0800 
 44 H      -11.5870     1.5510     0.3160 H     1 <1>   0.0800 
 45 H      -10.3250     1.2650     1.5090 H     1 <1>   0.0800 
 46 H      -10.2480     0.4790    -0.0800 H     1 <1>   0.0800 
@<TRIPOS>BOND
  1   1   2  ar  
  2   2   3  ar  
  3   2   4  1   
  4   4   5  1   
  5   4   6  1   
  6   4  25  1   
  7   5   7  1   
  8   5   8  1   
  9   5  26  1   
 10   6   9  1   
 11   6  10  1   
 12   6  27  1   
 13   7  11  2   
 14   7  12  am  
 15   8  13  1   
 16   8  14  1   
 17   8  28  1   
 18   9  13  1   
 19   9  29  1   
 20   9  30  1   
 21  10  14  1   
 22  10  31  1   
 23  10  32  1   
 24  12  15  1   
 25  12  33  1   
 26  13  34  1   
 27  13  35  1   
 28  14  36  1   
 29  14  37  1   
 30  15  16  ar  
 31  15  17  ar  
 32  16  18  ar  
 33  16  38  1   
 34  17  19  ar  
 35  17  39  1   
 36  18  20  1   
 37  18  21  ar  
 38  19  21  ar  
 39  19  40  1   
 40  20  22  1   
 41  21  23  1   
 42  22  41  1   
 43  22  42  1   
 44  22  43  1   
 45  23  24  1   
 46  24  44  1   
 47  24  45  1   
 48  24  46  1   
@<TRIPOS>SUBSTRUCTURE
  1 ****  12 GROUP 4 **** **** 0

# MOE 2024.06 (io_trps.svl 2023.06)
