@<TRIPOS>MOLECULE
NONAME
42 43 1 0 0 
SMALL
USER_CHARGES


@<TRIPOS>ATOM
  1 S       -0.6690     1.4080    -0.9140 S.3   1 <1>  -0.0800 
  2 C       -1.6690     1.3170     0.5420 C.2   1 <1>  -0.0450 
  3 C        0.3460     0.0830    -0.3870 C.2   1 <1>  -0.1100 
  4 C       -2.7710     2.2280     0.7040 C.2   1 <1>   0.7150 
  5 C       -1.1960     0.3170     1.3290 C.2   1 <1>  -0.1500 
  6 C       -0.0640    -0.3760     0.8090 C.2   1 <1>  -0.1500 
  7 O       -3.5080     2.1530     1.6700 O.2   1 <1>  -0.5700 
  8 N       -3.0440     3.1760    -0.2350 N.am  1 <1>  -0.7300 
  9 C       -4.2110     4.1150    -0.1950 C.3   1 <1>   0.2010 
 10 C       -5.5410     3.4430    -0.5360 C.2   1 <1>   0.5690 
 11 O       -6.1160     3.7820    -1.5430 O.2   1 <1>  -0.5700 
 12 N       -6.0100     2.4860     0.3180 N.am  1 <1>  -0.5470 
 13 C       -7.1000     1.6180     0.1470 C.ar  1 <1>   0.1170 
 14 C       -8.4290     2.0680     0.1610 C.ar  1 <1>  -0.1430 
 15 C       -6.8350     0.2550    -0.0200 C.ar  1 <1>  -0.1430 
 16 C       -9.4520     1.1470    -0.0160 C.ar  1 <1>  -0.1500 
 17 C       -8.8020     3.5420     0.3750 C.3   1 <1>   0.0630 
 18 C       -7.8760    -0.6400    -0.1870 C.ar  1 <1>  -0.1500 
 19 C       -5.4060    -0.2780    -0.0300 C.3   1 <1>  -0.0970 
 20 C       -9.1830    -0.1970    -0.1890 C.ar  1 <1>  -0.1500 
 21 C       -9.6740     3.7170     1.6240 C.3   1 <1>  -0.2400 
 22 C       -9.5040     4.1150    -0.8610 C.3   1 <1>  -0.2400 
 23 H        1.1540    -0.2160    -1.0320 H     1 <1>   0.1500 
 24 H       -1.6230     0.0450     2.2800 H     1 <1>   0.1500 
 25 H        0.3900    -1.1860     1.3540 H     1 <1>   0.1500 
 26 H       -2.5150     3.1500    -1.1100 H     1 <1>   0.3700 
 27 H       -4.0410     4.9170    -0.8910 H     1 <1>   0.0800 
 28 H       -4.2880     4.5410     0.7890 H     1 <1>   0.0800 
 29 H       -5.3440     2.2070     1.0490 H     1 <1>   0.3700 
 30 H      -10.4770     1.4700    -0.0190 H     1 <1>   0.1500 
 31 H       -7.9170     4.1280     0.5360 H     1 <1>   0.0800 
 32 H       -7.6790    -1.6890    -0.3200 H     1 <1>   0.1500 
 33 H       -4.9530    -0.1320     0.9330 H     1 <1>   0.0800 
 34 H       -4.8260     0.2370    -0.7750 H     1 <1>   0.0800 
 35 H       -5.3860    -1.3280    -0.2580 H     1 <1>   0.0800 
 36 H       -9.9910    -0.8950    -0.3230 H     1 <1>   0.1500 
 37 H      -10.6240     3.2290     1.5050 H     1 <1>   0.0800 
 38 H       -9.8470     4.7610     1.8110 H     1 <1>   0.0800 
 39 H       -9.1750     3.2940     2.4770 H     1 <1>   0.0800 
 40 H      -10.4400     3.6190    -1.0400 H     1 <1>   0.0800 
 41 H       -8.8760     3.9820    -1.7240 H     1 <1>   0.0800 
 42 H       -9.6870     5.1660    -0.7320 H     1 <1>   0.0800 
@<TRIPOS>BOND
  1   1   2  1   
  2   1   3  1   
  3   2   4  1   
  4   2   5  2   
  5   3   6  2   
  6   3  23  1   
  7   4   7  2   
  8   4   8  am  
  9   5   6  1   
 10   5  24  1   
 11   6  25  1   
 12   8   9  1   
 13   8  26  1   
 14   9  10  1   
 15   9  27  1   
 16   9  28  1   
 17  10  11  2   
 18  10  12  am  
 19  12  13  1   
 20  12  29  1   
 21  13  14  ar  
 22  13  15  ar  
 23  14  16  ar  
 24  14  17  1   
 25  15  18  ar  
 26  15  19  1   
 27  16  20  ar  
 28  16  30  1   
 29  17  21  1   
 30  17  22  1   
 31  17  31  1   
 32  18  20  ar  
 33  18  32  1   
 34  19  33  1   
 35  19  34  1   
 36  19  35  1   
 37  20  36  1   
 38  21  37  1   
 39  21  38  1   
 40  21  39  1   
 41  22  40  1   
 42  22  41  1   
 43  22  42  1   
@<TRIPOS>SUBSTRUCTURE
  1 ****  12 GROUP 4 **** **** 0

# MOE 2024.06 (io_trps.svl 2023.06)
