@<TRIPOS>MOLECULE
NONAME
47 49 1 0 0 
SMALL
USER_CHARGES


@<TRIPOS>ATOM
  1 O        0.0890     0.0010    -0.1480 O.2   1 <1>  -0.5700 
  2 C        0.0250    -1.1930     0.0650 C.2   1 <1>   0.6340 
  3 O       -1.1650    -1.7860     0.2390 O.3   1 <1>  -0.2320 
  4 C        1.2040    -2.0360     0.1300 C.ar  1 <1>   0.0860 
  5 C       -2.3940    -1.2080     0.3140 C.ar  1 <1>   0.0830 
  6 C        2.4760    -1.5030    -0.0850 C.ar  1 <1>  -0.1500 
  7 C        1.1270    -3.4020     0.4080 C.ar  1 <1>  -0.1500 
  8 C       -3.4650    -1.9280    -0.1890 C.ar  1 <1>  -0.1500 
  9 C       -2.6160     0.0360     0.8870 C.ar  1 <1>  -0.1500 
 10 C        3.6230    -2.2860    -0.0370 C.ar  1 <1>   0.0830 
 11 C        2.2500    -4.2050     0.4710 C.ar  1 <1>   0.0830 
 12 C       -4.7520    -1.4180    -0.1390 C.ar  1 <1>  -0.1430 
 13 C       -3.8980     0.5510     0.9390 C.ar  1 <1>  -0.1500 
 14 O        4.8680    -1.7660    -0.2410 O.3   1 <1>  -0.3630 
 15 C        3.5130    -3.6540     0.2280 C.ar  1 <1>   0.0830 
 16 O        2.0200    -5.5140     0.7640 O.3   1 <1>  -0.3630 
 17 C       -4.9710    -0.1660     0.4300 C.ar  1 <1>  -0.1430 
 18 C       -5.8940    -2.2600    -0.6950 C.3   1 <1>  -0.0170 
 19 C        5.0870    -0.3760    -0.3460 C.3   1 <1>   0.0400 
 20 O        4.6260    -4.4300     0.2440 O.3   1 <1>  -0.3630 
 21 C        2.8790    -6.1930     1.6560 C.3   1 <1>   0.0400 
 22 C       -6.3610     0.4560     0.4950 C.3   1 <1>  -0.0170 
 23 C       -7.1680    -1.4440    -0.9420 C.3   1 <1>  -0.1600 
 24 C        5.1540    -4.7860    -1.0130 C.3   1 <1>   0.0400 
 25 C       -7.4810    -0.5660     0.2730 C.3   1 <1>  -0.1600 
 26 H        2.5420    -0.4520    -0.2960 H     1 <1>   0.1500 
 27 H        0.1720    -3.8640     0.5870 H     1 <1>   0.1500 
 28 H       -3.2850    -2.8950    -0.6210 H     1 <1>   0.1500 
 29 H       -1.8020     0.6060     1.2960 H     1 <1>   0.1500 
 30 H       -4.0590     1.5190     1.3780 H     1 <1>   0.1500 
 31 H       -6.1090    -3.0410     0.0120 H     1 <1>   0.0800 
 32 H       -5.5890    -2.7230    -1.6170 H     1 <1>   0.0800 
 33 H        6.1460    -0.2110    -0.4280 H     1 <1>   0.0800 
 34 H        4.7110     0.1060     0.5390 H     1 <1>   0.0800 
 35 H        4.5920    -0.0080    -1.2270 H     1 <1>   0.0800 
 36 H        2.3370    -7.0180     2.0820 H     1 <1>   0.0800 
 37 H        3.1920    -5.5160     2.4320 H     1 <1>   0.0800 
 38 H        3.7290    -6.5610     1.1100 H     1 <1>   0.0800 
 39 H       -6.4220     1.2150    -0.2650 H     1 <1>   0.0800 
 40 H       -6.5010     0.9330     1.4490 H     1 <1>   0.0800 
 41 H       -7.9900    -2.1100    -1.1370 H     1 <1>   0.0800 
 42 H       -7.0290    -0.8200    -1.8080 H     1 <1>   0.0800 
 43 H        5.9980    -5.4300    -0.8530 H     1 <1>   0.0800 
 44 H        5.4650    -3.8950    -1.5300 H     1 <1>   0.0800 
 45 H        4.3940    -5.3010    -1.5740 H     1 <1>   0.0800 
 46 H       -8.4140    -0.0510     0.1260 H     1 <1>   0.0800 
 47 H       -7.5750    -1.1860     1.1480 H     1 <1>   0.0800 
@<TRIPOS>BOND
  1   1   2  2   
  2   2   3  1   
  3   2   4  1   
  4   3   5  1   
  5   4   6  ar  
  6   4   7  ar  
  7   5   8  ar  
  8   5   9  ar  
  9   6  10  ar  
 10   6  26  1   
 11   7  11  ar  
 12   7  27  1   
 13   8  12  ar  
 14   8  28  1   
 15   9  13  ar  
 16   9  29  1   
 17  10  14  1   
 18  10  15  ar  
 19  11  15  ar  
 20  11  16  1   
 21  12  17  ar  
 22  12  18  1   
 23  13  17  ar  
 24  13  30  1   
 25  14  19  1   
 26  15  20  1   
 27  16  21  1   
 28  17  22  1   
 29  18  23  1   
 30  18  31  1   
 31  18  32  1   
 32  19  33  1   
 33  19  34  1   
 34  19  35  1   
 35  20  24  1   
 36  21  36  1   
 37  21  37  1   
 38  21  38  1   
 39  22  25  1   
 40  22  39  1   
 41  22  40  1   
 42  23  25  1   
 43  23  41  1   
 44  23  42  1   
 45  24  43  1   
 46  24  44  1   
 47  24  45  1   
 48  25  46  1   
 49  25  47  1   
@<TRIPOS>SUBSTRUCTURE
  1 ****   3 GROUP 4 **** **** 0

# MOE 2024.06 (io_trps.svl 2023.06)
