@<TRIPOS>MOLECULE
NONAME
40 42 1 0 0 
SMALL
USER_CHARGES


@<TRIPOS>ATOM
  1 S        0.1420    -0.0620    -0.8140 S.o2  1 <1>   1.3330 
  2 O       -0.5980    -0.4840    -1.9800 O.2   1 <1>  -0.6500 
  3 O        1.5840    -0.0390    -0.8480 O.2   1 <1>  -0.6500 
  4 N       -0.4070     1.5410    -0.4020 N.am  1 <1>  -0.5140 
  5 C       -0.3730    -1.0070     0.6040 C.3   1 <1>  -0.1350 
  6 N       -1.6600     1.8500     0.0610 N.2   1 <1>  -0.4300 
  7 C        0.1620     2.6200    -1.2140 C.3   1 <1>   0.4560 
  8 C       -2.0010     3.0190    -0.3180 C.2   1 <1>   0.3030 
  9 C        1.4570     3.1570    -0.6190 C.2   1 <1>  -0.1400 
 10 C       -0.9390     3.6750    -1.1750 C.3   1 <1>  -0.0990 
 11 C       -3.2440     3.6930    -0.0160 C.ar  1 <1>   0.0860 
 12 S        2.3130     4.3740    -1.5580 S.3   1 <1>  -0.0800 
 13 C        2.1250     2.8940     0.5210 C.2   1 <1>  -0.1500 
 14 C       -3.5260     4.9930    -0.4490 C.ar  1 <1>  -0.1500 
 15 C       -4.2330     3.0550     0.7360 C.ar  1 <1>  -0.1500 
 16 C        3.5760     4.4890    -0.3450 C.2   1 <1>  -0.1100 
 17 C        3.3290     3.6510     0.6770 C.2   1 <1>  -0.1500 
 18 C       -4.7240     5.6150    -0.1470 C.ar  1 <1>  -0.1500 
 19 C       -5.4320     3.6720     1.0400 C.ar  1 <1>  -0.1500 
 20 C       -5.6870     4.9600     0.6010 C.ar  1 <1>  -0.1430 
 21 C       -7.0040     5.6410     0.9340 C.3   1 <1>  -0.0170 
 22 C       -8.0420     5.3660    -0.1570 C.3   1 <1>  -0.2400 
 23 H       -0.0860    -2.0330     0.4870 H     1 <1>   0.0800 
 24 H       -1.4390    -0.9540     0.7110 H     1 <1>   0.0800 
 25 H        0.0830    -0.6160     1.4910 H     1 <1>   0.0800 
 26 H        0.3240     2.2710    -2.2200 H     1 <1>   0.0800 
 27 H       -1.3050     3.8670    -2.1650 H     1 <1>   0.0800 
 28 H       -0.5940     4.5860    -0.7220 H     1 <1>   0.0800 
 29 H        1.8190     2.1850     1.2700 H     1 <1>   0.1500 
 30 H       -2.8080     5.5400    -1.0310 H     1 <1>   0.1500 
 31 H       -4.0590     2.0530     1.0890 H     1 <1>   0.1500 
 32 H        4.3800     5.1790    -0.5300 H     1 <1>   0.1500 
 33 H        3.9490     3.5250     1.5480 H     1 <1>   0.1500 
 34 H       -4.9090     6.6160    -0.4970 H     1 <1>   0.1500 
 35 H       -6.1690     3.1450     1.6200 H     1 <1>   0.1500 
 36 H       -6.8510     6.7020     1.0270 H     1 <1>   0.0800 
 37 H       -7.3710     5.2810     1.8800 H     1 <1>   0.0800 
 38 H       -7.6930     5.7380    -1.1040 H     1 <1>   0.0800 
 39 H       -8.9710     5.8490     0.0850 H     1 <1>   0.0800 
 40 H       -8.2140     4.3070    -0.2450 H     1 <1>   0.0800 
@<TRIPOS>BOND
  1   1   2  2   
  2   1   3  2   
  3   1   4  am  
  4   1   5  1   
  5   4   6  1   
  6   4   7  1   
  7   5  23  1   
  8   5  24  1   
  9   5  25  1   
 10   6   8  2   
 11   7   9  1   
 12   7  10  1   
 13   7  26  1   
 14   8  10  1   
 15   8  11  1   
 16   9  12  1   
 17   9  13  2   
 18  10  27  1   
 19  10  28  1   
 20  11  14  ar  
 21  11  15  ar  
 22  12  16  1   
 23  13  17  1   
 24  13  29  1   
 25  14  18  ar  
 26  14  30  1   
 27  15  19  ar  
 28  15  31  1   
 29  16  17  2   
 30  16  32  1   
 31  17  33  1   
 32  18  20  ar  
 33  18  34  1   
 34  19  20  ar  
 35  19  35  1   
 36  20  21  1   
 37  21  22  1   
 38  21  36  1   
 39  21  37  1   
 40  22  38  1   
 41  22  39  1   
 42  22  40  1   
@<TRIPOS>SUBSTRUCTURE
  1 ****   8 GROUP 4 **** **** 0

# MOE 2024.06 (io_trps.svl 2023.06)
