@<TRIPOS>MOLECULE
NONAME
49 50 1 0 0 
SMALL
USER_CHARGES


@<TRIPOS>ATOM
  1 BR       5.9830     1.7490    -0.1260 Br    1 <1>  -0.1110 
  2 C        5.3270    -0.0510     0.0380 C.ar  1 <1>   0.1110 
  3 C        5.5250    -0.7270     1.2240 C.ar  1 <1>  -0.1500 
  4 C        4.6770    -0.6260    -1.0350 C.ar  1 <1>  -0.1500 
  5 C        5.0580    -2.0270     1.3280 C.ar  1 <1>  -0.1500 
  6 C        4.2160    -1.9260    -0.9080 C.ar  1 <1>  -0.1500 
  7 C        4.4050    -2.6510     0.2670 C.ar  1 <1>  -0.0090 
  8 S        3.8030    -4.3580     0.4310 S.o2  1 <1>   1.4470 
  9 O        4.5880    -5.0480     1.4310 O.2   1 <1>  -0.6500 
 10 O        2.3670    -4.3090     0.5970 O.2   1 <1>  -0.6500 
 11 N        4.1080    -5.0960    -1.0650 N.am  1 <1>  -0.8490 
 12 C        3.1940    -6.2010    -1.3750 C.3   1 <1>   0.3390 
 13 C        5.5340    -5.4690    -1.2740 C.3   1 <1>   0.2570 
 14 C        3.5730    -7.5110    -0.6880 C.ar  1 <1>  -0.1430 
 15 C        6.5060    -4.2830    -1.4120 C.2   1 <1>   0.5690 
 16 C        3.1970    -7.7590     0.6240 C.ar  1 <1>  -0.1500 
 17 C        4.2920    -8.4790    -1.3770 C.ar  1 <1>  -0.1500 
 18 O        6.3930    -3.6060    -2.4090 O.2   1 <1>  -0.5700 
 19 N        7.4580    -3.9920    -0.4590 N.am  1 <1>  -0.6600 
 20 C        3.5450    -8.9470     1.2420 C.ar  1 <1>  -0.1500 
 21 C        4.6400    -9.6680    -0.7600 C.ar  1 <1>  -0.1500 
 22 C        7.8370    -4.8880     0.6700 C.3   1 <1>   0.1400 
 23 C        8.1440    -2.6690    -0.4810 C.3   1 <1>   0.1400 
 24 C        4.2690    -9.9020     0.5510 C.ar  1 <1>  -0.1500 
 25 C        8.6840    -6.0520     0.1560 C.3   1 <1>  -0.2400 
 26 C        9.5420    -2.8040    -1.0770 C.3   1 <1>  -0.2400 
 27 H        6.0310    -0.2490     2.0440 H     1 <1>   0.1500 
 28 H        4.5390    -0.0760    -1.9490 H     1 <1>   0.1500 
 29 H        5.2050    -2.5700     2.2470 H     1 <1>   0.1500 
 30 H        3.7130    -2.3910    -1.7400 H     1 <1>   0.1500 
 31 H        3.2100    -6.3580    -2.4400 H     1 <1>   0.0800 
 32 H        2.1800    -5.9400    -1.1260 H     1 <1>   0.0800 
 33 H        5.6120    -6.0180    -2.1950 H     1 <1>   0.0800 
 34 H        5.8520    -6.1280    -0.4880 H     1 <1>   0.0800 
 35 H        2.6320    -7.0270     1.1770 H     1 <1>   0.1500 
 36 H        4.5840    -8.3160    -2.4000 H     1 <1>   0.1500 
 37 H        3.2530    -9.1250     2.2630 H     1 <1>   0.1500 
 38 H        5.1990   -10.4130    -1.3000 H     1 <1>   0.1500 
 39 H        6.9610    -5.2650     1.1630 H     1 <1>   0.0800 
 40 H        8.4010    -4.3330     1.4010 H     1 <1>   0.0800 
 41 H        8.2010    -2.2710     0.5180 H     1 <1>   0.0800 
 42 H        7.5730    -1.9710    -1.0710 H     1 <1>   0.0800 
 43 H        4.5390   -10.8250     1.0330 H     1 <1>   0.1500 
 44 H        8.1330    -6.6510    -0.5440 H     1 <1>   0.0800 
 45 H        8.9690    -6.6780     0.9820 H     1 <1>   0.0800 
 46 H        9.5780    -5.6890    -0.3170 H     1 <1>   0.0800 
 47 H       10.1690    -3.4070    -0.4470 H     1 <1>   0.0800 
 48 H        9.9890    -1.8310    -1.1680 H     1 <1>   0.0800 
 49 H        9.4810    -3.2440    -2.0570 H     1 <1>   0.0800 
@<TRIPOS>BOND
  1   1   2  1   
  2   2   3  ar  
  3   2   4  ar  
  4   3   5  ar  
  5   3  27  1   
  6   4   6  ar  
  7   4  28  1   
  8   5   7  ar  
  9   5  29  1   
 10   6   7  ar  
 11   6  30  1   
 12   7   8  1   
 13   8   9  2   
 14   8  10  2   
 15   8  11  am  
 16  11  12  1   
 17  11  13  1   
 18  12  14  1   
 19  12  31  1   
 20  12  32  1   
 21  13  15  1   
 22  13  33  1   
 23  13  34  1   
 24  14  16  ar  
 25  14  17  ar  
 26  15  18  2   
 27  15  19  am  
 28  16  20  ar  
 29  16  35  1   
 30  17  21  ar  
 31  17  36  1   
 32  19  22  1   
 33  19  23  1   
 34  20  24  ar  
 35  20  37  1   
 36  21  24  ar  
 37  21  38  1   
 38  22  25  1   
 39  22  39  1   
 40  22  40  1   
 41  23  26  1   
 42  23  41  1   
 43  23  42  1   
 44  24  43  1   
 45  25  44  1   
 46  25  45  1   
 47  25  46  1   
 48  26  47  1   
 49  26  48  1   
 50  26  49  1   
@<TRIPOS>SUBSTRUCTURE
  1 ****  13 GROUP 4 **** **** 0

# MOE 2024.06 (io_trps.svl 2023.06)
