@<TRIPOS>MOLECULE
NONAME
33 33 1 0 0 
SMALL
USER_CHARGES


@<TRIPOS>ATOM
  1 F        0.3260     1.0080    -0.6000 F     1 <1>  -0.3400 
  2 C        1.5640     1.3520    -0.2660 C.3   1 <1>   1.0200 
  3 F        1.8900     2.3670    -1.0560 F     1 <1>  -0.3400 
  4 F        1.4910     1.8360     0.9680 F     1 <1>  -0.3400 
  5 C        2.5230     0.1470    -0.3930 C.3   1 <1>   0.1200 
  6 O        3.8570     0.4370    -0.0540 O.3   1 <1>  -0.5600 
  7 C        4.7310    -0.6470    -0.1660 C.3   1 <1>   0.3010 
  8 C        6.1450    -0.2430     0.2180 C.2   1 <1>  -0.1810 
  9 C        7.2870    -0.9780     0.2540 C.2   1 <1>  -0.0400 
 10 C        6.5160     1.0440     0.6250 C.2   1 <1>  -0.1500 
 11 O        8.2860    -0.2130     0.6490 O.3   1 <1>  -0.2800 
 12 C        7.6430    -2.4420    -0.0560 C.3   1 <1>   0.1800 
 13 C        7.8500     1.0230     0.8830 C.2   1 <1>  -0.0920 
 14 C        8.6970    -2.4750    -1.1720 C.3   1 <1>  -0.2400 
 15 C        6.4360    -3.2760    -0.5100 C.3   1 <1>  -0.2400 
 16 C        8.2270    -3.0920     1.2070 C.3   1 <1>  -0.2400 
 17 C        8.7250     2.0970     1.3340 C.2   1 <1>   1.0320 
 18 O        8.2600     3.2370     1.5370 O.co2 1 <1>  -0.9000 
 19 O        9.9450     1.9240     1.5300 O.co2 1 <1>  -0.9000 
 20 H        2.5020    -0.1970    -1.4110 H     1 <1>   0.0800 
 21 H        2.1730    -0.6340     0.2570 H     1 <1>   0.0800 
 22 H        4.7180    -0.9870    -1.1860 H     1 <1>   0.0800 
 23 H        4.3880    -1.4260     0.4910 H     1 <1>   0.0800 
 24 H        5.8680     1.8980     0.7180 H     1 <1>   0.1500 
 25 H        8.3130    -1.9970    -2.0550 H     1 <1>   0.0800 
 26 H        8.9740    -3.4850    -1.4110 H     1 <1>   0.0800 
 27 H        9.5790    -1.9420    -0.8630 H     1 <1>   0.0800 
 28 H        6.0160    -2.8660    -1.4100 H     1 <1>   0.0800 
 29 H        5.6870    -3.3000     0.2590 H     1 <1>   0.0800 
 30 H        6.7380    -4.2870    -0.7130 H     1 <1>   0.0800 
 31 H        9.1080    -2.5600     1.5220 H     1 <1>   0.0800 
 32 H        8.4930    -4.1170     1.0260 H     1 <1>   0.0800 
 33 H        7.5110    -3.0500     2.0080 H     1 <1>   0.0800 
@<TRIPOS>BOND
  1   1   2  1   
  2   2   3  1   
  3   2   4  1   
  4   2   5  1   
  5   5   6  1   
  6   5  20  1   
  7   5  21  1   
  8   6   7  1   
  9   7   8  1   
 10   7  22  1   
 11   7  23  1   
 12   8   9  2   
 13   8  10  1   
 14   9  11  1   
 15   9  12  1   
 16  10  13  2   
 17  10  24  1   
 18  11  13  1   
 19  12  14  1   
 20  12  15  1   
 21  12  16  1   
 22  13  17  1   
 23  14  25  1   
 24  14  26  1   
 25  14  27  1   
 26  15  28  1   
 27  15  29  1   
 28  15  30  1   
 29  16  31  1   
 30  16  32  1   
 31  16  33  1   
 32  17  18  ar  
 33  17  19  ar  
@<TRIPOS>SUBSTRUCTURE
  1 ****   8 GROUP 4 **** **** 0

# MOE 2024.06 (io_trps.svl 2023.06)
