@<TRIPOS>MOLECULE
NONAME
51 53 1 0 0 
SMALL
USER_CHARGES


@<TRIPOS>ATOM
  1 O        0.0680     0.3550     1.3700 O.2   1 <1>  -0.5700 
  2 C        0.1090     0.9680     0.3220 C.2   1 <1>   0.6900 
  3 N       -1.0090     1.3830    -0.3350 N.am  1 <1>  -0.5470 
  4 N        1.3140     1.2600    -0.2310 N.am  1 <1>  -0.7300 
  5 C       -2.3690     1.1460    -0.0810 C.ar  1 <1>   0.1170 
  6 C        2.5890     0.9140     0.4100 C.3   1 <1>   0.2200 
  7 C       -3.3050     2.0280    -0.6040 C.ar  1 <1>  -0.1500 
  8 C       -2.8280     0.0570     0.6540 C.ar  1 <1>  -0.1500 
  9 C        3.6700     1.9060    -0.0100 C.3   1 <1>  -0.1600 
 10 C        2.9810    -0.5110     0.0250 C.3   1 <1>  -0.1600 
 11 C       -4.6620     1.8440    -0.4020 C.ar  1 <1>   0.0820 
 12 C       -4.1820    -0.1370     0.8650 C.ar  1 <1>  -0.1500 
 13 C        5.0110     1.5150     0.6090 C.3   1 <1>   0.3430 
 14 C        4.3220    -0.8770     0.6510 C.3   1 <1>   0.3430 
 15 O       -5.4910     2.7650    -0.9550 O.3   1 <1>  -0.3630 
 16 C       -5.1030     0.7520     0.3400 C.ar  1 <1>  -0.1500 
 17 N        5.3590     0.1100     0.2320 N.4   1 <1>  -0.9590 
 18 C       -6.8880     2.6850    -0.7850 C.3   1 <1>   0.0400 
 19 C        6.7040    -0.2720     0.7460 C.3   1 <1>   0.4860 
 20 C        7.7400     0.6100     0.0780 C.ar  1 <1>  -0.1430 
 21 C        8.3490     1.6340     0.7900 C.ar  1 <1>  -0.1500 
 22 C        8.0810     0.4050    -1.2520 C.ar  1 <1>  -0.1500 
 23 C        9.2790     2.4530     0.1730 C.ar  1 <1>  -0.1500 
 24 C        9.0110     1.2260    -1.8660 C.ar  1 <1>  -0.1500 
 25 C        9.6080     2.2500    -1.1550 C.ar  1 <1>  -0.1500 
 26 H       -0.8350     2.0680    -1.0610 H     1 <1>   0.3700 
 27 H        1.3460     1.6050    -1.1870 H     1 <1>   0.3700 
 28 H        2.4630     0.9670     1.4820 H     1 <1>   0.0800 
 29 H       -2.9880     2.8780    -1.1770 H     1 <1>   0.1500 
 30 H       -2.1300    -0.6480     1.0660 H     1 <1>   0.1500 
 31 H        3.4030     2.8900     0.3340 H     1 <1>   0.0800 
 32 H        3.7660     1.9350    -1.0810 H     1 <1>   0.0800 
 33 H        3.0360    -0.6140    -1.0440 H     1 <1>   0.0800 
 34 H        2.2320    -1.1930     0.3900 H     1 <1>   0.0800 
 35 H       -4.5160    -0.9830     1.4400 H     1 <1>   0.1500 
 36 H        4.9490     1.6010     1.6820 H     1 <1>   0.0800 
 37 H        5.7750     2.1930     0.2600 H     1 <1>   0.0800 
 38 H        4.6030    -1.8700     0.3390 H     1 <1>   0.0800 
 39 H        4.2250    -0.8740     1.7260 H     1 <1>   0.0800 
 40 H       -6.1470     0.5790     0.5180 H     1 <1>   0.1500 
 41 H        5.4360     0.0890    -0.7920 H     1 <1>   0.4500 
 42 H       -7.3350     3.5180    -1.2970 H     1 <1>   0.0800 
 43 H       -7.1150     2.7360     0.2650 H     1 <1>   0.0800 
 44 H       -7.2400     1.7620    -1.2120 H     1 <1>   0.0800 
 45 H        6.9150    -1.3030     0.5120 H     1 <1>   0.0800 
 46 H        6.7470    -0.1480     1.8160 H     1 <1>   0.0800 
 47 H        8.1160     1.8090     1.8270 H     1 <1>   0.1500 
 48 H        7.6390    -0.3910    -1.8260 H     1 <1>   0.1500 
 49 H        9.7530     3.2480     0.7250 H     1 <1>   0.1500 
 50 H        9.2760     1.0680    -2.8980 H     1 <1>   0.1500 
 51 H       10.3330     2.8880    -1.6330 H     1 <1>   0.1500 
@<TRIPOS>BOND
  1   1   2  2   
  2   2   3  am  
  3   2   4  am  
  4   3   5  1   
  5   3  26  1   
  6   4   6  1   
  7   4  27  1   
  8   5   7  ar  
  9   5   8  ar  
 10   6   9  1   
 11   6  10  1   
 12   6  28  1   
 13   7  11  ar  
 14   7  29  1   
 15   8  12  ar  
 16   8  30  1   
 17   9  13  1   
 18   9  31  1   
 19   9  32  1   
 20  10  14  1   
 21  10  33  1   
 22  10  34  1   
 23  11  15  1   
 24  11  16  ar  
 25  12  16  ar  
 26  12  35  1   
 27  13  17  1   
 28  13  36  1   
 29  13  37  1   
 30  14  17  1   
 31  14  38  1   
 32  14  39  1   
 33  15  18  1   
 34  16  40  1   
 35  17  19  1   
 36  17  41  1   
 37  18  42  1   
 38  18  43  1   
 39  18  44  1   
 40  19  20  1   
 41  19  45  1   
 42  19  46  1   
 43  20  21  ar  
 44  20  22  ar  
 45  21  23  ar  
 46  21  47  1   
 47  22  24  ar  
 48  22  48  1   
 49  23  25  ar  
 50  23  49  1   
 51  24  25  ar  
 52  24  50  1   
 53  25  51  1   
@<TRIPOS>SUBSTRUCTURE
  1 ****   4 GROUP 4 **** **** 0

# MOE 2024.06 (io_trps.svl 2023.06)
