@<TRIPOS>MOLECULE
NONAME
38 39 1 0 0 
SMALL
USER_CHARGES


@<TRIPOS>ATOM
  1 O        1.8310    -2.1790     0.4210 O.2   1 <1>  -0.5700 
  2 C        1.7180    -1.1630    -0.2120 C.2   1 <1>   0.5690 
  3 N        0.5660    -0.8870    -0.8470 N.am  1 <1>  -0.8000 
  4 C        2.8950    -0.2030    -0.2990 C.3   1 <1>  -0.0190 
  5 C        4.0940    -0.8160     0.4390 C.3   1 <1>   0.3430 
  6 C        2.5540     1.1930     0.2710 C.3   1 <1>  -0.1600 
  7 N        5.3240     0.0530     0.3870 N.4   1 <1>  -0.9590 
  8 C        3.8050     1.9880     0.6960 C.3   1 <1>  -0.1600 
  9 C        5.0810     1.4850     0.0190 C.3   1 <1>   0.3430 
 10 C        6.3840    -0.5540    -0.4630 C.3   1 <1>   0.4860 
 11 C        7.6710     0.2180    -0.2500 C.ar  1 <1>  -0.1430 
 12 C        8.4000     0.0550     0.9190 C.ar  1 <1>  -0.1500 
 13 C        8.1260     1.1010    -1.2180 C.ar  1 <1>  -0.1500 
 14 C        9.5620     0.7780     1.1210 C.ar  1 <1>  -0.1500 
 15 C        9.2890     1.8220    -1.0120 C.ar  1 <1>  -0.1500 
 16 C       10.0110     1.6650     0.1580 C.ar  1 <1>  -0.1430 
 17 C       11.2870     2.4580     0.3830 C.3   1 <1>  -0.0970 
 18 H       -0.2120    -1.5480    -0.7710 H     1 <1>   0.3700 
 19 H        0.3760    -0.0470    -1.3940 H     1 <1>   0.3700 
 20 H        3.1540    -0.1150    -1.3380 H     1 <1>   0.0800 
 21 H        4.3040    -1.7910     0.0290 H     1 <1>   0.0800 
 22 H        3.8060    -0.9600     1.4680 H     1 <1>   0.0800 
 23 H        1.9070     1.0910     1.1280 H     1 <1>   0.0800 
 24 H        2.0090     1.7480    -0.4740 H     1 <1>   0.0800 
 25 H        5.7210     0.0720     1.3350 H     1 <1>   0.4500 
 26 H        3.9330     1.9260     1.7630 H     1 <1>   0.0800 
 27 H        3.6640     3.0290     0.4570 H     1 <1>   0.0800 
 28 H        4.9690     1.5740    -1.0500 H     1 <1>   0.0800 
 29 H        5.9230     2.0900     0.3190 H     1 <1>   0.0800 
 30 H        6.0990    -0.5180    -1.5020 H     1 <1>   0.0800 
 31 H        6.5400    -1.5840    -0.1860 H     1 <1>   0.0800 
 32 H        8.0830    -0.6340     1.6840 H     1 <1>   0.1500 
 33 H        7.5900     1.2390    -2.1420 H     1 <1>   0.1500 
 34 H       10.1220     0.6470     2.0320 H     1 <1>   0.1500 
 35 H        9.6350     2.5060    -1.7680 H     1 <1>   0.1500 
 36 H       11.9730     1.9030     0.9970 H     1 <1>   0.0800 
 37 H       11.0590     3.3880     0.8720 H     1 <1>   0.0800 
 38 H       11.7700     2.6690    -0.5550 H     1 <1>   0.0800 
@<TRIPOS>BOND
  1   1   2  2   
  2   2   3  am  
  3   2   4  1   
  4   3  18  1   
  5   3  19  1   
  6   4   5  1   
  7   4   6  1   
  8   4  20  1   
  9   5   7  1   
 10   5  21  1   
 11   5  22  1   
 12   6   8  1   
 13   6  23  1   
 14   6  24  1   
 15   7   9  1   
 16   7  10  1   
 17   7  25  1   
 18   8   9  1   
 19   8  26  1   
 20   8  27  1   
 21   9  28  1   
 22   9  29  1   
 23  10  11  1   
 24  10  30  1   
 25  10  31  1   
 26  11  12  ar  
 27  11  13  ar  
 28  12  14  ar  
 29  12  32  1   
 30  13  15  ar  
 31  13  33  1   
 32  14  16  ar  
 33  14  34  1   
 34  15  16  ar  
 35  15  35  1   
 36  16  17  1   
 37  17  36  1   
 38  17  37  1   
 39  17  38  1   
@<TRIPOS>SUBSTRUCTURE
  1 ****   7 GROUP 4 **** **** 0

# MOE 2024.06 (io_trps.svl 2023.06)
