@<TRIPOS>MOLECULE
NONAME
39 40 1 0 0 
SMALL
USER_CHARGES


@<TRIPOS>ATOM
  1 S       -0.0440     0.3190    -0.5400 S.3   1 <1>  -0.3320 
  2 C       -1.4690    -0.7540    -0.2850 C.ar  1 <1>   0.1020 
  3 C        1.4070    -0.5450     0.2090 C.3   1 <1>   0.0700 
  4 C       -1.3760    -1.9580     0.3960 C.ar  1 <1>  -0.1500 
  5 C       -2.6780    -0.3250    -0.8030 C.ar  1 <1>  -0.1500 
  6 C        2.6360     0.3410     0.0140 C.3   1 <1>  -0.0990 
  7 C       -2.5110    -2.7360     0.5560 C.ar  1 <1>  -0.1500 
  8 C       -3.8100    -1.1060    -0.6400 C.ar  1 <1>  -0.1500 
  9 C        3.8800    -0.3500     0.5240 C.2   1 <1>   0.5690 
 10 C       -3.7250    -2.3110     0.0390 C.ar  1 <1>  -0.1500 
 11 O        3.8670    -0.8340     1.6290 O.2   1 <1>  -0.5700 
 12 N        4.9680    -0.4050    -0.2820 N.am  1 <1>  -0.7300 
 13 C        6.2500    -1.0390     0.0660 C.3   1 <1>   0.2200 
 14 C        7.3550     0.0220     0.0260 C.3   1 <1>  -0.1600 
 15 C        6.5280    -2.1720    -0.9260 C.3   1 <1>  -0.1600 
 16 C        8.7340    -0.6040     0.2780 C.3   1 <1>  -0.1600 
 17 C        7.9060    -2.8020    -0.6760 C.3   1 <1>  -0.1600 
 18 C        9.0170    -1.7430    -0.7120 C.3   1 <1>  -0.1600 
 19 H        1.5170    -1.4900    -0.2940 H     1 <1>   0.0800 
 20 H        1.1950    -0.6960     1.2540 H     1 <1>   0.0800 
 21 H       -0.4460    -2.3010     0.8040 H     1 <1>   0.1500 
 22 H       -2.7300     0.6120    -1.3270 H     1 <1>   0.1500 
 23 H        2.5070     1.2580     0.5580 H     1 <1>   0.0800 
 24 H        2.7480     0.5710    -1.0290 H     1 <1>   0.0800 
 25 H       -2.4510    -3.6720     1.0830 H     1 <1>   0.1500 
 26 H       -4.7530    -0.7780    -1.0410 H     1 <1>   0.1500 
 27 H       -4.6040    -2.9180     0.1650 H     1 <1>   0.1500 
 28 H        4.9400     0.0230    -1.2070 H     1 <1>   0.3700 
 29 H        6.1940    -1.4500     1.0620 H     1 <1>   0.0800 
 30 H        7.1600     0.7650     0.7790 H     1 <1>   0.0800 
 31 H        7.3600     0.5020    -0.9370 H     1 <1>   0.0800 
 32 H        6.4980    -1.7880    -1.9310 H     1 <1>   0.0800 
 33 H        5.7690    -2.9270    -0.8240 H     1 <1>   0.0800 
 34 H        8.7710    -0.9900     1.2830 H     1 <1>   0.0800 
 35 H        9.4960     0.1510     0.1870 H     1 <1>   0.0800 
 36 H        8.1010    -3.5550    -1.4210 H     1 <1>   0.0800 
 37 H        7.9070    -3.2850     0.2870 H     1 <1>   0.0800 
 38 H        9.9600    -2.2020    -0.4730 H     1 <1>   0.0800 
 39 H        9.0910    -1.3390    -1.7080 H     1 <1>   0.0800 
@<TRIPOS>BOND
  1   1   2  1   
  2   1   3  1   
  3   2   4  ar  
  4   2   5  ar  
  5   3   6  1   
  6   3  19  1   
  7   3  20  1   
  8   4   7  ar  
  9   4  21  1   
 10   5   8  ar  
 11   5  22  1   
 12   6   9  1   
 13   6  23  1   
 14   6  24  1   
 15   7  10  ar  
 16   7  25  1   
 17   8  10  ar  
 18   8  26  1   
 19   9  11  2   
 20   9  12  am  
 21  10  27  1   
 22  12  13  1   
 23  12  28  1   
 24  13  14  1   
 25  13  15  1   
 26  13  29  1   
 27  14  16  1   
 28  14  30  1   
 29  14  31  1   
 30  15  17  1   
 31  15  32  1   
 32  15  33  1   
 33  16  18  1   
 34  16  34  1   
 35  16  35  1   
 36  17  18  1   
 37  17  36  1   
 38  17  37  1   
 39  18  38  1   
 40  18  39  1   
@<TRIPOS>SUBSTRUCTURE
  1 ****   3 GROUP 4 **** **** 0

# MOE 2024.06 (io_trps.svl 2023.06)
