@<TRIPOS>MOLECULE
NONAME
32 32 1 0 0 
SMALL
USER_CHARGES


@<TRIPOS>ATOM
  1 O        4.5050     2.4690     1.6620 O.2   1 <1>  -0.5700 
  2 C        3.7600     2.4100     0.7320 C.2   1 <1>   0.4480 
  3 C        3.8190     1.3670    -0.4020 C.3   1 <1>   0.4840 
  4 C        2.5740     3.3450     0.6050 C.3   1 <1>  -0.0990 
  5 N        2.5500     0.5350    -0.4260 N.4   1 <1>  -0.9590 
  6 C        5.1230     0.5270    -0.5470 C.3   1 <1>  -0.0800 
  7 C        1.2640     2.5470     0.4280 C.3   1 <1>  -0.0800 
  8 C        1.3730     1.4410    -0.6510 C.3   1 <1>   0.3430 
  9 C        2.3410    -0.2810     0.8190 C.3   1 <1>   0.2630 
 10 C        5.5440    -0.3620     0.6430 C.3   1 <1>  -0.2400 
 11 C        6.3010     1.4520    -0.8990 C.3   1 <1>  -0.2400 
 12 C        0.1100     3.5020     0.0940 C.3   1 <1>  -0.2400 
 13 H        3.7970     1.9610    -1.3000 H     1 <1>   0.0800 
 14 H        2.7370     3.9930    -0.2380 H     1 <1>   0.0800 
 15 H        2.5130     3.9610     1.4860 H     1 <1>   0.0800 
 16 H        2.6190    -0.1130    -1.2240 H     1 <1>   0.4500 
 17 H        4.9910    -0.1190    -1.3980 H     1 <1>   0.0800 
 18 H        1.0240     2.0790     1.3680 H     1 <1>   0.0800 
 19 H        0.4620     0.8620    -0.6580 H     1 <1>   0.0800 
 20 H        1.4640     1.9110    -1.6180 H     1 <1>   0.0800 
 21 H        2.5260     0.3130     1.7000 H     1 <1>   0.0800 
 22 H        2.9980    -1.1320     0.8330 H     1 <1>   0.0800 
 23 H        1.3290    -0.6480     0.8590 H     1 <1>   0.0800 
 24 H        5.5710     0.1910     1.5650 H     1 <1>   0.0800 
 25 H        4.9030    -1.2120     0.7600 H     1 <1>   0.0800 
 26 H        6.5340    -0.7530     0.4750 H     1 <1>   0.0800 
 27 H        6.5500     2.0950    -0.0710 H     1 <1>   0.0800 
 28 H        6.0720     2.0650    -1.7530 H     1 <1>   0.0800 
 29 H        7.1760     0.8720    -1.1390 H     1 <1>   0.0800 
 30 H        0.2800     4.0090    -0.8410 H     1 <1>   0.0800 
 31 H        0.0050     4.2460     0.8660 H     1 <1>   0.0800 
 32 H       -0.8210     2.9650     0.0260 H     1 <1>   0.0800 
@<TRIPOS>BOND
  1   1   2  2   
  2   2   3  1   
  3   2   4  1   
  4   3   5  1   
  5   3   6  1   
  6   3  13  1   
  7   4   7  1   
  8   4  14  1   
  9   4  15  1   
 10   5   8  1   
 11   5   9  1   
 12   5  16  1   
 13   6  10  1   
 14   6  11  1   
 15   6  17  1   
 16   7   8  1   
 17   7  12  1   
 18   7  18  1   
 19   8  19  1   
 20   8  20  1   
 21   9  21  1   
 22   9  22  1   
 23   9  23  1   
 24  10  24  1   
 25  10  25  1   
 26  10  26  1   
 27  11  27  1   
 28  11  28  1   
 29  11  29  1   
 30  12  30  1   
 31  12  31  1   
 32  12  32  1   
@<TRIPOS>SUBSTRUCTURE
  1 ****   3 GROUP 4 **** **** 0

# MOE 2024.06 (io_trps.svl 2023.06)
