@<TRIPOS>MOLECULE
NONAME
53 56 1 0 0 
SMALL
USER_CHARGES


@<TRIPOS>ATOM
  1 S        0.7590     1.8180     2.3050 S.3   1 <1>  -0.0800 
  2 C        0.0910     1.7650     0.6780 C.2   1 <1>   0.3250 
  3 C       -0.7180     2.5120     2.8960 C.2   1 <1>  -0.1100 
  4 N       -1.1090     2.2320     0.6230 N.2   1 <1>  -0.5650 
  5 C        0.9100     1.2580    -0.3970 C.ar  1 <1>   0.0530 
  6 C       -1.5640     2.6530     1.8640 C.2   1 <1>   0.0460 
  7 C        1.4330    -0.0430    -0.4310 C.ar  1 <1>  -0.1440 
  8 C        1.1910     2.1030    -1.4700 C.ar  1 <1>  -0.1500 
  9 C       -2.9780     3.2160     1.9200 C.3   1 <1>   0.5240 
 10 C        2.2180    -0.4490    -1.4980 C.ar  1 <1>  -0.1500 
 11 C        1.1590    -1.0520     0.6770 C.3   1 <1>  -0.0970 
 12 C        1.9700     1.6910    -2.5330 C.ar  1 <1>  -0.1500 
 13 N       -3.8290     2.3820     1.0300 N.4   1 <1>  -0.9590 
 14 C        2.4880     0.4110    -2.5470 C.ar  1 <1>  -0.1500 
 15 C       -5.0840     3.0810     0.5730 C.3   1 <1>   0.3430 
 16 C       -4.1100     1.0220     1.6210 C.3   1 <1>   0.3430 
 17 C       -5.9460     2.1990    -0.3560 C.3   1 <1>   0.2090 
 18 C       -4.9600     0.1400     0.6850 C.3   1 <1>   0.2090 
 19 N       -6.1920     0.8700     0.2710 N.pl3 1 <1>  -0.8380 
 20 C       -7.2770     0.1430    -0.2130 C.ar  1 <1>   0.1000 
 21 C       -8.5530     0.4450     0.2390 C.ar  1 <1>  -0.1500 
 22 C       -7.1240    -0.8760    -1.1480 C.ar  1 <1>  -0.1500 
 23 C       -9.6590    -0.2450    -0.2220 C.ar  1 <1>   0.0830 
 24 C       -8.2220    -1.5750    -1.6140 C.ar  1 <1>  -0.1500 
 25 O      -10.8640     0.1280     0.2800 O.3   1 <1>  -0.3620 
 26 C       -9.4910    -1.2650    -1.1560 C.ar  1 <1>  -0.1500 
 27 C      -12.0510    -0.5280    -0.1050 C.3   1 <1>   0.0400 
 28 H       -0.7770     2.7350     3.9470 H     1 <1>   0.1500 
 29 H        0.7930     3.1020    -1.4680 H     1 <1>   0.1500 
 30 H       -2.9540     4.2280     1.5530 H     1 <1>   0.0800 
 31 H       -3.3540     3.2160     2.9290 H     1 <1>   0.0800 
 32 H        2.6290    -1.4430    -1.5250 H     1 <1>   0.1500 
 33 H        0.1400    -0.9850     1.0110 H     1 <1>   0.0800 
 34 H        1.8160    -0.8710     1.5090 H     1 <1>   0.0800 
 35 H        1.3270    -2.0550     0.3290 H     1 <1>   0.0800 
 36 H        2.1770     2.3630    -3.3490 H     1 <1>   0.1500 
 37 H       -3.2150     2.2160     0.2130 H     1 <1>   0.4500 
 38 H        3.0990     0.0840    -3.3710 H     1 <1>   0.1500 
 39 H       -4.8320     3.9910     0.0550 H     1 <1>   0.0800 
 40 H       -5.6840     3.3400     1.4300 H     1 <1>   0.0800 
 41 H       -4.6460     1.1340     2.5490 H     1 <1>   0.0800 
 42 H       -3.1820     0.5160     1.8310 H     1 <1>   0.0800 
 43 H       -5.4510     2.0650    -1.3020 H     1 <1>   0.0800 
 44 H       -6.8880     2.6870    -0.5420 H     1 <1>   0.0800 
 45 H       -5.2370    -0.7660     1.1960 H     1 <1>   0.0800 
 46 H       -4.3840    -0.1280    -0.1850 H     1 <1>   0.0800 
 47 H       -8.6900     1.2240     0.9630 H     1 <1>   0.1500 
 48 H       -6.1470    -1.1200    -1.5190 H     1 <1>   0.1500 
 49 H       -8.0920    -2.3620    -2.3370 H     1 <1>   0.1500 
 50 H      -10.3280    -1.8210    -1.5330 H     1 <1>   0.1500 
 51 H      -12.8700    -0.0740     0.4230 H     1 <1>   0.0800 
 52 H      -11.9770    -1.5680     0.1610 H     1 <1>   0.0800 
 53 H      -12.1880    -0.4090    -1.1650 H     1 <1>   0.0800 
@<TRIPOS>BOND
  1   1   2  1   
  2   1   3  1   
  3   2   4  2   
  4   2   5  1   
  5   3   6  2   
  6   3  28  1   
  7   4   6  1   
  8   5   7  ar  
  9   5   8  ar  
 10   6   9  1   
 11   7  10  ar  
 12   7  11  1   
 13   8  12  ar  
 14   8  29  1   
 15   9  13  1   
 16   9  30  1   
 17   9  31  1   
 18  10  14  ar  
 19  10  32  1   
 20  11  33  1   
 21  11  34  1   
 22  11  35  1   
 23  12  14  ar  
 24  12  36  1   
 25  13  15  1   
 26  13  16  1   
 27  13  37  1   
 28  14  38  1   
 29  15  17  1   
 30  15  39  1   
 31  15  40  1   
 32  16  18  1   
 33  16  41  1   
 34  16  42  1   
 35  17  19  1   
 36  17  43  1   
 37  17  44  1   
 38  18  19  1   
 39  18  45  1   
 40  18  46  1   
 41  19  20  1   
 42  20  21  ar  
 43  20  22  ar  
 44  21  23  ar  
 45  21  47  1   
 46  22  24  ar  
 47  22  48  1   
 48  23  25  1   
 49  23  26  ar  
 50  24  26  ar  
 51  24  49  1   
 52  25  27  1   
 53  26  50  1   
 54  27  51  1   
 55  27  52  1   
 56  27  53  1   
@<TRIPOS>SUBSTRUCTURE
  1 ****  16 GROUP 4 **** **** 0

# MOE 2024.06 (io_trps.svl 2023.06)
