@<TRIPOS>MOLECULE
NONAME
35 35 1 0 0 
SMALL
USER_CHARGES


@<TRIPOS>ATOM
  1 BR       0.7290     0.8020     1.5380 Br    1 <1>  -0.1110 
  2 C       -0.5410     1.9920     0.7050 C.ar  1 <1>   0.1110 
  3 C       -0.1180     2.8310    -0.3150 C.ar  1 <1>  -0.1440 
  4 C       -1.8440     1.9710     1.1630 C.ar  1 <1>  -0.1500 
  5 C       -1.0510     3.6890    -0.8810 C.ar  1 <1>  -0.1500 
  6 C        1.3150     2.8190    -0.7940 C.3   1 <1>   0.4870 
  7 C       -2.7680     2.8210     0.5820 C.ar  1 <1>   0.0820 
  8 C       -2.3630     3.7030    -0.4300 C.ar  1 <1>   0.0820 
  9 N        2.1170     3.5660     0.2000 N.4   1 <1>  -0.9060 
 10 O       -4.0410     2.7540     1.0310 O.3   1 <1>  -0.3620 
 11 O       -3.1980     4.5950    -1.0190 O.3   1 <1>  -0.3620 
 12 C        3.5650     3.6180    -0.1520 C.3   1 <1>   0.3430 
 13 C       -5.0040     2.2480     0.1300 C.3   1 <1>   0.3200 
 14 C       -3.8480     5.5380    -0.1900 C.3   1 <1>   0.0400 
 15 C        4.3810     4.3580     0.9150 C.3   1 <1>   0.1200 
 16 C       -6.3440     2.3360     0.7770 C.1   1 <1>  -0.2000 
 17 O        5.6970     4.3600     0.4960 O.3   1 <1>  -0.6800 
 18 C       -7.4130     2.4090     1.2930 C.1   1 <1>  -0.1770 
 19 H       -2.1430     1.3050     1.9540 H     1 <1>   0.1500 
 20 H       -0.7860     4.3640    -1.6780 H     1 <1>   0.1500 
 21 H        1.3840     3.2880    -1.7630 H     1 <1>   0.0800 
 22 H        1.6660     1.8020    -0.8760 H     1 <1>   0.0800 
 23 H        1.9850     3.1020     1.1090 H     1 <1>   0.4500 
 24 H        1.7230     4.5100     0.2870 H     1 <1>   0.4500 
 25 H        3.6940     4.1240    -1.0950 H     1 <1>   0.0800 
 26 H        3.9540     2.6160    -0.2440 H     1 <1>   0.0800 
 27 H       -4.7570     1.2250    -0.0910 H     1 <1>   0.0800 
 28 H       -4.9880     2.8300    -0.7730 H     1 <1>   0.0800 
 29 H       -4.2600     6.3080    -0.8170 H     1 <1>   0.0800 
 30 H       -3.1310     5.9640     0.4910 H     1 <1>   0.0800 
 31 H       -4.6400     5.0580     0.3550 H     1 <1>   0.0800 
 32 H        4.3350     3.8520     1.8640 H     1 <1>   0.0800 
 33 H        4.0620     5.3810     1.0140 H     1 <1>   0.0800 
 34 H        6.2870     4.8130     1.1380 H     1 <1>   0.4000 
 35 H       -8.3770     2.4750     1.7660 H     1 <1>   0.1770 
@<TRIPOS>BOND
  1   1   2  1   
  2   2   3  ar  
  3   2   4  ar  
  4   3   5  ar  
  5   3   6  1   
  6   4   7  ar  
  7   4  19  1   
  8   5   8  ar  
  9   5  20  1   
 10   6   9  1   
 11   6  21  1   
 12   6  22  1   
 13   7   8  ar  
 14   7  10  1   
 15   8  11  1   
 16   9  12  1   
 17   9  23  1   
 18   9  24  1   
 19  10  13  1   
 20  11  14  1   
 21  12  15  1   
 22  12  25  1   
 23  12  26  1   
 24  13  16  1   
 25  13  27  1   
 26  13  28  1   
 27  14  29  1   
 28  14  30  1   
 29  14  31  1   
 30  15  17  1   
 31  15  32  1   
 32  15  33  1   
 33  16  18  3   
 34  17  34  1   
 35  18  35  1   
@<TRIPOS>SUBSTRUCTURE
  1 ****   3 GROUP 4 **** **** 0

# MOE 2024.06 (io_trps.svl 2023.06)
