@<TRIPOS>MOLECULE
NONAME
35 35 1 0 0 
SMALL
USER_CHARGES


@<TRIPOS>ATOM
  1 CL       0.6060     0.2810     1.8030 Cl    1 <1>  -0.1770 
  2 C        1.8800    -0.6740     1.0960 C.ar  1 <1>   0.1770 
  3 C        2.3170    -0.3900    -0.1830 C.ar  1 <1>  -0.1500 
  4 C        2.4410    -1.7050     1.8250 C.ar  1 <1>  -0.1500 
  5 C        3.3280    -1.1540    -0.7370 C.ar  1 <1>  -0.1500 
  6 C        3.4530    -2.4630     1.2600 C.ar  1 <1>  -0.1500 
  7 C        3.9160    -2.2110    -0.0370 C.ar  1 <1>   0.0860 
  8 C        4.9680    -3.0080    -0.6450 C.2   1 <1>   0.5440 
  9 O        5.6860    -2.5390    -1.5050 O.2   1 <1>  -0.5700 
 10 N        5.1650    -4.3070    -0.2780 N.am  1 <1>  -0.7300 
 11 C        6.1690    -5.2300    -0.8920 C.3   1 <1>   0.2810 
 12 C        5.5390    -6.5540    -1.3600 C.2   1 <1>   0.6590 
 13 C        7.2840    -5.4600     0.1370 C.3   1 <1>  -0.1600 
 14 O        5.9170    -7.1230    -2.3530 O.2   1 <1>  -0.5700 
 15 O        4.5670    -7.0510    -0.5950 O.3   1 <1>  -0.4300 
 16 C        8.4390    -6.2780    -0.4480 C.3   1 <1>   0.0700 
 17 C        3.9240    -8.2680    -0.9120 C.3   1 <1>   0.0400 
 18 S        9.6680    -6.4950     0.8620 S.3   1 <1>  -0.4600 
 19 C       10.9790    -7.4420     0.0440 C.3   1 <1>  -0.0100 
 20 H        1.8710     0.4200    -0.7320 H     1 <1>   0.1500 
 21 H        2.0890    -1.9040     2.8210 H     1 <1>   0.1500 
 22 H        3.6750    -0.9350    -1.7340 H     1 <1>   0.1500 
 23 H        3.8940    -3.2550     1.8390 H     1 <1>   0.1500 
 24 H        4.4830    -4.7720     0.3240 H     1 <1>   0.3700 
 25 H        6.5980    -4.7590    -1.7590 H     1 <1>   0.0800 
 26 H        6.8850    -5.9770     0.9920 H     1 <1>   0.0800 
 27 H        7.6680    -4.5070     0.4540 H     1 <1>   0.0800 
 28 H        8.9200    -5.7630    -1.2620 H     1 <1>   0.0800 
 29 H        8.1300    -7.2610    -0.7590 H     1 <1>   0.0800 
 30 H        4.6570    -9.0570    -0.9250 H     1 <1>   0.0800 
 31 H        3.4620    -8.1760    -1.8810 H     1 <1>   0.0800 
 32 H        3.1780    -8.4680    -0.1640 H     1 <1>   0.0800 
 33 H       11.3470    -6.8570    -0.7800 H     1 <1>   0.0800 
 34 H       10.5570    -8.3700    -0.2970 H     1 <1>   0.0800 
 35 H       11.7550    -7.6160     0.7670 H     1 <1>   0.0800 
@<TRIPOS>BOND
  1   1   2  1   
  2   2   3  ar  
  3   2   4  ar  
  4   3   5  ar  
  5   3  20  1   
  6   4   6  ar  
  7   4  21  1   
  8   5   7  ar  
  9   5  22  1   
 10   6   7  ar  
 11   6  23  1   
 12   7   8  1   
 13   8   9  2   
 14   8  10  am  
 15  10  11  1   
 16  10  24  1   
 17  11  12  1   
 18  11  13  1   
 19  11  25  1   
 20  12  14  2   
 21  12  15  1   
 22  13  16  1   
 23  13  26  1   
 24  13  27  1   
 25  15  17  1   
 26  16  18  1   
 27  16  28  1   
 28  16  29  1   
 29  17  30  1   
 30  17  31  1   
 31  17  32  1   
 32  18  19  1   
 33  19  33  1   
 34  19  34  1   
 35  19  35  1   
@<TRIPOS>SUBSTRUCTURE
  1 ****  10 GROUP 4 **** **** 0

# MOE 2024.06 (io_trps.svl 2023.06)
