@<TRIPOS>MOLECULE
NONAME
41 43 1 0 0 
SMALL
USER_CHARGES


@<TRIPOS>ATOM
  1 S       -0.0080    -0.9620     1.0540 S.o2  1 <1>   1.3330 
  2 O        0.2120    -2.3020     0.5720 O.2   1 <1>  -0.6500 
  3 O       -0.8550    -0.6960     2.1880 O.2   1 <1>  -0.6500 
  4 N        1.5060    -0.2980     1.5090 N.am  1 <1>  -0.7570 
  5 C       -0.4980     0.1000    -0.2870 C.3   1 <1>  -0.1350 
  6 C        2.7460    -0.3860     0.8980 C.ar  1 <1>   0.1990 
  7 C        3.8330     0.2420     1.4940 C.ar  1 <1>  -0.1500 
  8 C        2.9660    -1.0660    -0.2970 C.ar  1 <1>  -0.1500 
  9 C        5.0890     0.1980     0.9200 C.ar  1 <1>  -0.1500 
 10 C        4.2220    -1.1080    -0.8680 C.ar  1 <1>  -0.1500 
 11 C        5.3220    -0.4840    -0.2770 C.ar  1 <1>   0.0860 
 12 C        6.6350    -0.5470    -0.8880 C.2   1 <1>   0.5440 
 13 O        6.7550    -0.6760    -2.0920 O.2   1 <1>  -0.5700 
 14 N        7.7640    -0.4780    -0.1210 N.am  1 <1>  -0.7300 
 15 C        9.1480    -0.5590    -0.6250 C.3   1 <1>   0.2200 
 16 C        9.8560    -1.8660    -0.2100 C.3   1 <1>  -0.0800 
 17 C       10.0300     0.5270     0.0130 C.3   1 <1>  -0.1600 
 18 C       11.3140    -1.4380    -0.2930 C.3   1 <1>  -0.1600 
 19 C        9.7280    -2.1160     1.3070 C.3   1 <1>  -0.1600 
 20 C       11.1580    -0.2800     0.6800 C.3   1 <1>  -0.0800 
 21 C       10.5840    -0.9920     1.9160 C.3   1 <1>  -0.1600 
 22 H        1.4430     0.0750     2.4520 H     1 <1>   0.4200 
 23 H       -1.4670    -0.1860    -0.6460 H     1 <1>   0.0800 
 24 H        0.2030     0.0290    -1.0940 H     1 <1>   0.0800 
 25 H       -0.5420     1.1190     0.0450 H     1 <1>   0.0800 
 26 H        3.6900     0.7760     2.4160 H     1 <1>   0.1500 
 27 H        2.1590    -1.5750    -0.7890 H     1 <1>   0.1500 
 28 H        5.9040     0.7070     1.4030 H     1 <1>   0.1500 
 29 H        4.3680    -1.6390    -1.7950 H     1 <1>   0.1500 
 30 H        7.6880    -0.5290     0.8920 H     1 <1>   0.3700 
 31 H        9.1650    -0.4580    -1.6980 H     1 <1>   0.0800 
 32 H        9.5990    -2.7080    -0.8280 H     1 <1>   0.0800 
 33 H        9.4980     1.1400     0.7180 H     1 <1>   0.0800 
 34 H       10.4380     1.1530    -0.7610 H     1 <1>   0.0800 
 35 H       11.6010    -1.1180    -1.2820 H     1 <1>   0.0800 
 36 H       11.9950    -2.1940     0.0620 H     1 <1>   0.0800 
 37 H       10.1540    -3.0740     1.5530 H     1 <1>   0.0800 
 38 H        8.7110    -2.0990     1.6570 H     1 <1>   0.0800 
 39 H       12.0530     0.2880     0.8720 H     1 <1>   0.0800 
 40 H       11.3790    -1.4110     2.5090 H     1 <1>   0.0800 
 41 H       10.0020    -0.3250     2.5280 H     1 <1>   0.0800 
@<TRIPOS>BOND
  1   1   2  2   
  2   1   3  2   
  3   1   4  am  
  4   1   5  1   
  5   4   6  1   
  6   4  22  1   
  7   5  23  1   
  8   5  24  1   
  9   5  25  1   
 10   6   7  ar  
 11   6   8  ar  
 12   7   9  ar  
 13   7  26  1   
 14   8  10  ar  
 15   8  27  1   
 16   9  11  ar  
 17   9  28  1   
 18  10  11  ar  
 19  10  29  1   
 20  11  12  1   
 21  12  13  2   
 22  12  14  am  
 23  14  15  1   
 24  14  30  1   
 25  15  16  1   
 26  15  17  1   
 27  15  31  1   
 28  16  18  1   
 29  16  19  1   
 30  16  32  1   
 31  17  20  1   
 32  17  33  1   
 33  17  34  1   
 34  18  20  1   
 35  18  35  1   
 36  18  36  1   
 37  19  21  1   
 38  19  37  1   
 39  19  38  1   
 40  20  21  1   
 41  20  39  1   
 42  21  40  1   
 43  21  41  1   
@<TRIPOS>SUBSTRUCTURE
  1 ****  11 GROUP 4 **** **** 0

# MOE 2024.06 (io_trps.svl 2023.06)
