@<TRIPOS>MOLECULE
NONAME
38 40 1 0 0 
SMALL
USER_CHARGES


@<TRIPOS>ATOM
  1 S        0.3490     0.2520    -0.8850 S.3   1 <1>  -0.2860 
  2 C       -1.4240     0.0690    -0.8250 C.2   1 <1>   0.5340 
  3 C        0.9200    -0.4800     0.7270 C.3   1 <1>   0.1310 
  4 O       -1.9440    -0.4970     0.2490 O.3   1 <1>  -0.2800 
  5 N       -2.2280     0.4440    -1.7430 N.2   1 <1>  -0.5650 
  6 C        2.4330    -0.4220     0.8780 C.2   1 <1>   0.5690 
  7 C       -3.2410    -0.4930     0.0090 C.ar  1 <1>   0.1400 
  8 C       -3.4350     0.0880    -1.2240 C.ar  1 <1>   0.2270 
  9 O        2.9170    -0.8690     1.8890 O.2   1 <1>  -0.5700 
 10 N        3.1970     0.1200    -0.1070 N.am  1 <1>  -0.7300 
 11 C       -4.2950    -0.9590     0.7830 C.ar  1 <1>  -0.1500 
 12 C       -4.7230     0.2220    -1.7300 C.ar  1 <1>  -0.1500 
 13 C        4.6620     0.2400    -0.0930 C.3   1 <1>   0.2200 
 14 C       -5.5740    -0.8250     0.2770 C.ar  1 <1>  -0.1500 
 15 C       -5.7860    -0.2370    -0.9740 C.ar  1 <1>  -0.1500 
 16 C        5.0380     1.7220    -0.1780 C.3   1 <1>  -0.1600 
 17 C        5.2340    -0.5480    -1.2760 C.3   1 <1>  -0.1600 
 18 C        6.5600     1.9050    -0.2780 C.3   1 <1>  -0.1600 
 19 C        6.7560    -0.3710    -1.3790 C.3   1 <1>  -0.1600 
 20 C        7.1360     1.1140    -1.4610 C.3   1 <1>  -0.1600 
 21 H        0.5860    -1.5000     0.7510 H     1 <1>   0.0800 
 22 H        0.4500     0.0780     1.5160 H     1 <1>   0.0800 
 23 H        2.7340     0.4850    -0.9420 H     1 <1>   0.3700 
 24 H       -4.1050    -1.4070     1.7420 H     1 <1>   0.1500 
 25 H       -4.8630     0.6770    -2.6940 H     1 <1>   0.1500 
 26 H        5.0520    -0.1710     0.8250 H     1 <1>   0.0800 
 27 H       -6.4200    -1.1740     0.8460 H     1 <1>   0.1500 
 28 H       -6.7910    -0.1430    -1.3490 H     1 <1>   0.1500 
 29 H        4.6770     2.2300     0.6990 H     1 <1>   0.0800 
 30 H        4.5760     2.1630    -1.0440 H     1 <1>   0.0800 
 31 H        4.7800    -0.2070    -2.1900 H     1 <1>   0.0800 
 32 H        5.0060    -1.5920    -1.1490 H     1 <1>   0.0800 
 33 H        7.0200     1.5650     0.6340 H     1 <1>   0.0800 
 34 H        6.7920     2.9490    -0.3950 H     1 <1>   0.0800 
 35 H        7.1220    -0.8870    -2.2490 H     1 <1>   0.0800 
 36 H        7.2240    -0.8100    -0.5140 H     1 <1>   0.0800 
 37 H        8.2090     1.2110    -1.4700 H     1 <1>   0.0800 
 38 H        6.7620     1.5270    -2.3820 H     1 <1>   0.0800 
@<TRIPOS>BOND
  1   1   2  1   
  2   1   3  1   
  3   2   4  1   
  4   2   5  2   
  5   3   6  1   
  6   3  21  1   
  7   3  22  1   
  8   4   7  1   
  9   5   8  1   
 10   6   9  2   
 11   6  10  am  
 12   7   8  ar  
 13   7  11  ar  
 14   8  12  ar  
 15  10  13  1   
 16  10  23  1   
 17  11  14  ar  
 18  11  24  1   
 19  12  15  ar  
 20  12  25  1   
 21  13  16  1   
 22  13  17  1   
 23  13  26  1   
 24  14  15  ar  
 25  14  27  1   
 26  15  28  1   
 27  16  18  1   
 28  16  29  1   
 29  16  30  1   
 30  17  19  1   
 31  17  31  1   
 32  17  32  1   
 33  18  20  1   
 34  18  33  1   
 35  18  34  1   
 36  19  20  1   
 37  19  35  1   
 38  19  36  1   
 39  20  37  1   
 40  20  38  1   
@<TRIPOS>SUBSTRUCTURE
  1 ****   1 GROUP 4 **** **** 0

# MOE 2024.06 (io_trps.svl 2023.06)
