@<TRIPOS>MOLECULE
NONAME
46 48 1 0 0 
SMALL
USER_CHARGES


@<TRIPOS>ATOM
  1 O       -0.4400     0.5230    -0.4740 O.2   1 <1>  -0.5700 
  2 C       -0.5540     1.7340    -0.4680 C.2   1 <1>   0.7800 
  3 O        0.5310     2.4980    -0.3240 O.3   1 <1>  -0.4300 
  4 N       -1.7630     2.3620    -0.5990 N.am  1 <1>  -0.6600 
  5 C        1.8090     1.9200    -0.1930 C.3   1 <1>   0.1200 
  6 C       -1.9490     3.8380    -0.5320 C.3   1 <1>   0.1400 
  7 C       -3.0400     1.6100    -0.7440 C.3   1 <1>   0.1400 
  8 C        2.8250     3.0480    -0.0440 C.3   1 <1>  -0.2400 
  9 C       -2.9670     4.1990     0.5640 C.3   1 <1>   0.1100 
 10 C       -4.0440     2.0250     0.3460 C.3   1 <1>   0.1100 
 11 N       -4.2540     3.4920     0.3810 N.3   1 <1>  -0.8100 
 12 C       -5.2280     3.9050     1.4240 C.3   1 <1>   0.2900 
 13 C       -6.6530     3.3960     1.2090 C.2   1 <1>   0.2980 
 14 O       -6.9380     2.1700     1.5630 O.3   1 <1>  -0.0190 
 15 N       -7.6270     4.0640     0.7390 N.2   1 <1>  -0.5650 
 16 N       -8.1950     2.0410     1.2810 N.2   1 <1>  -0.4100 
 17 C       -8.6080     3.1560     0.7890 C.2   1 <1>   0.4620 
 18 C       -9.9630     3.4350     0.3390 C.ar  1 <1>   0.0540 
 19 C      -10.3070     4.6560    -0.2450 C.ar  1 <1>  -0.1500 
 20 C      -10.9790     2.4870     0.4740 C.ar  1 <1>  -0.1500 
 21 C      -11.5960     4.9250    -0.6750 C.ar  1 <1>  -0.1440 
 22 C      -12.2690     2.7440     0.0510 C.ar  1 <1>  -0.1500 
 23 C      -12.5790     3.9630    -0.5230 C.ar  1 <1>  -0.1500 
 24 C      -11.9330     6.2650    -1.3040 C.3   1 <1>  -0.0970 
 25 H        2.0080     1.3320    -1.0730 H     1 <1>   0.0800 
 26 H        1.8070     1.2820     0.6760 H     1 <1>   0.0800 
 27 H       -2.3120     4.1900    -1.4810 H     1 <1>   0.0800 
 28 H       -1.0170     4.3330    -0.3280 H     1 <1>   0.0800 
 29 H       -2.8640     0.5500    -0.6820 H     1 <1>   0.0800 
 30 H       -3.4630     1.8190    -1.7110 H     1 <1>   0.0800 
 31 H        2.8060     3.6800    -0.9130 H     1 <1>   0.0800 
 32 H        3.8120     2.6340     0.0590 H     1 <1>   0.0800 
 33 H        2.6050     3.6310     0.8320 H     1 <1>   0.0800 
 34 H       -3.1360     5.2620     0.5340 H     1 <1>   0.0800 
 35 H       -2.5450     3.9530     1.5230 H     1 <1>   0.0800 
 36 H       -3.6850     1.6790     1.3000 H     1 <1>   0.0800 
 37 H       -4.9750     1.5280     0.1370 H     1 <1>   0.0800 
 38 H       -5.2760     4.9800     1.4380 H     1 <1>   0.0800 
 39 H       -4.8850     3.5800     2.3910 H     1 <1>   0.0800 
 40 H       -9.5460     5.4070    -0.3640 H     1 <1>   0.1500 
 41 H      -10.7550     1.5330     0.9180 H     1 <1>   0.1500 
 42 H      -13.0340     1.9960     0.1680 H     1 <1>   0.1500 
 43 H      -13.5860     4.1590    -0.8490 H     1 <1>   0.1500 
 44 H      -11.0550     6.7120    -1.7350 H     1 <1>   0.0800 
 45 H      -12.3270     6.9290    -0.5550 H     1 <1>   0.0800 
 46 H      -12.6650     6.1400    -2.0800 H     1 <1>   0.0800 
@<TRIPOS>BOND
  1   1   2  2   
  2   2   3  1   
  3   2   4  am  
  4   3   5  1   
  5   4   6  1   
  6   4   7  1   
  7   5   8  1   
  8   5  25  1   
  9   5  26  1   
 10   6   9  1   
 11   6  27  1   
 12   6  28  1   
 13   7  10  1   
 14   7  29  1   
 15   7  30  1   
 16   8  31  1   
 17   8  32  1   
 18   8  33  1   
 19   9  11  1   
 20   9  34  1   
 21   9  35  1   
 22  10  11  1   
 23  10  36  1   
 24  10  37  1   
 25  11  12  1   
 26  12  13  1   
 27  12  38  1   
 28  12  39  1   
 29  13  14  1   
 30  13  15  2   
 31  14  16  1   
 32  15  17  1   
 33  16  17  2   
 34  17  18  1   
 35  18  19  ar  
 36  18  20  ar  
 37  19  21  ar  
 38  19  40  1   
 39  20  22  ar  
 40  20  41  1   
 41  21  23  ar  
 42  21  24  1   
 43  22  23  ar  
 44  22  42  1   
 45  23  43  1   
 46  24  44  1   
 47  24  45  1   
 48  24  46  1   
@<TRIPOS>SUBSTRUCTURE
  1 ****  13 GROUP 4 **** **** 0

# MOE 2024.06 (io_trps.svl 2023.06)
