@<TRIPOS>MOLECULE
NONAME
53 57 1 0 0 
SMALL
USER_CHARGES


@<TRIPOS>ATOM
  1 S        0.1030     0.9480     1.7660 S.o2  1 <1>   1.4970 
  2 O        0.8670    -0.2340     1.4270 O.2   1 <1>  -0.6500 
  3 O       -0.2560     1.2480     3.1360 O.2   1 <1>  -0.6500 
  4 N        0.8160     2.3000     1.0670 N.2   1 <1>  -0.6380 
  5 C       -1.3500     1.0410     0.7390 C.ar  1 <1>  -0.0090 
  6 C        0.0540     2.7940     0.1750 C.2   1 <1>   0.4140 
  7 C       -1.2040     2.1220    -0.0970 C.ar  1 <1>   0.0860 
  8 C       -2.4780     0.2370     0.6870 C.ar  1 <1>  -0.1500 
  9 N        0.4160     3.9430    -0.4960 N.pl3 1 <1>  -0.7880 
 10 C       -2.1950     2.4000    -1.0330 C.ar  1 <1>  -0.1500 
 11 C       -3.4710     0.5250    -0.2360 C.ar  1 <1>  -0.1500 
 12 C        1.8700     4.2350    -0.7080 C.3   1 <1>   0.2090 
 13 C       -0.4110     5.1780    -0.3090 C.3   1 <1>   0.2090 
 14 C       -3.3270     1.6030    -1.0960 C.ar  1 <1>  -0.1500 
 15 C        2.4340     5.1360     0.4060 C.3   1 <1>   0.1400 
 16 C        0.1650     6.0740     0.8010 C.3   1 <1>   0.1400 
 17 N        1.6110     6.3800     0.5550 N.am  1 <1>  -0.6600 
 18 C        2.0500     7.6730     0.4190 C.2   1 <1>   0.5690 
 19 O        1.2750     8.6000     0.4410 O.2   1 <1>  -0.5700 
 20 C        3.5310     7.9850     0.2210 C.3   1 <1>  -0.0190 
 21 C        3.9280     9.4270     0.5710 C.3   1 <1>   0.1400 
 22 C        4.0020     7.8070    -1.2290 C.3   1 <1>  -0.0990 
 23 N        5.0630     9.7260    -0.3280 N.am  1 <1>  -0.4770 
 24 C        5.1050     8.8200    -1.3490 C.2   1 <1>   0.5690 
 25 C        5.9370    10.8010    -0.0670 C.ar  1 <1>   0.1170 
 26 O        5.9040     8.7700    -2.2520 O.2   1 <1>  -0.5700 
 27 C        7.2960    10.7100    -0.3550 C.ar  1 <1>  -0.1500 
 28 C        5.4660    11.9830     0.5000 C.ar  1 <1>  -0.1500 
 29 C        8.1570    11.7580    -0.0820 C.ar  1 <1>  -0.1500 
 30 C        6.3240    13.0330     0.7770 C.ar  1 <1>  -0.1500 
 31 C        7.6720    12.9220     0.4870 C.ar  1 <1>  -0.1500 
 32 H       -2.5760    -0.6020     1.3550 H     1 <1>   0.1500 
 33 H       -2.0760     3.2280    -1.7090 H     1 <1>   0.1500 
 34 H       -4.3530    -0.0910    -0.2880 H     1 <1>   0.1500 
 35 H        1.9960     4.7220    -1.6590 H     1 <1>   0.0800 
 36 H        2.4270     3.3130    -0.7380 H     1 <1>   0.0800 
 37 H       -1.4210     4.9130    -0.0510 H     1 <1>   0.0800 
 38 H       -0.4390     5.7310    -1.2320 H     1 <1>   0.0800 
 39 H       -4.0970     1.8180    -1.8180 H     1 <1>   0.1500 
 40 H        3.4580     5.3630     0.1820 H     1 <1>   0.0800 
 41 H        2.4170     4.5900     1.3340 H     1 <1>   0.0800 
 42 H        0.0710     5.5660     1.7460 H     1 <1>   0.0800 
 43 H       -0.4150     6.9780     0.8590 H     1 <1>   0.0800 
 44 H        4.1090     7.3480     0.8640 H     1 <1>   0.0800 
 45 H        4.2210     9.5140     1.6040 H     1 <1>   0.0800 
 46 H        3.1330    10.1220     0.3600 H     1 <1>   0.0800 
 47 H        3.2250     8.0620    -1.9270 H     1 <1>   0.0800 
 48 H        4.3680     6.8170    -1.4250 H     1 <1>   0.0800 
 49 H        7.6850     9.8110    -0.7980 H     1 <1>   0.1500 
 50 H        4.4220    12.0930     0.7220 H     1 <1>   0.1500 
 51 H        9.2030    11.6660    -0.3140 H     1 <1>   0.1500 
 52 H        5.9420    13.9390     1.2150 H     1 <1>   0.1500 
 53 H        8.3410    13.7380     0.7000 H     1 <1>   0.1500 
@<TRIPOS>BOND
  1   1   2  2   
  2   1   3  2   
  3   1   4  1   
  4   1   5  1   
  5   4   6  2   
  6   5   7  ar  
  7   5   8  ar  
  8   6   7  1   
  9   6   9  1   
 10   7  10  ar  
 11   8  11  ar  
 12   8  32  1   
 13   9  12  1   
 14   9  13  1   
 15  10  14  ar  
 16  10  33  1   
 17  11  14  ar  
 18  11  34  1   
 19  12  15  1   
 20  12  35  1   
 21  12  36  1   
 22  13  16  1   
 23  13  37  1   
 24  13  38  1   
 25  14  39  1   
 26  15  17  1   
 27  15  40  1   
 28  15  41  1   
 29  16  17  1   
 30  16  42  1   
 31  16  43  1   
 32  17  18  am  
 33  18  19  2   
 34  18  20  1   
 35  20  21  1   
 36  20  22  1   
 37  20  44  1   
 38  21  23  1   
 39  21  45  1   
 40  21  46  1   
 41  22  24  1   
 42  22  47  1   
 43  22  48  1   
 44  23  24  am  
 45  23  25  1   
 46  24  26  2   
 47  25  27  ar  
 48  25  28  ar  
 49  27  29  ar  
 50  27  49  1   
 51  28  30  ar  
 52  28  50  1   
 53  29  31  ar  
 54  29  51  1   
 55  30  31  ar  
 56  30  52  1   
 57  31  53  1   
@<TRIPOS>SUBSTRUCTURE
  1 ****  17 GROUP 4 **** **** 0

# MOE 2024.06 (io_trps.svl 2023.06)
