@<TRIPOS>MOLECULE
NONAME
42 43 1 0 0 
SMALL
USER_CHARGES


@<TRIPOS>ATOM
  1 O       -7.3700     1.8490     2.4630 O.co2 1 <1>  -0.9000 
  2 C       -8.3910     1.1650     2.2210 C.2   1 <1>   1.0320 
  3 O       -8.5470     0.1130     2.8540 O.co2 1 <1>  -0.9000 
  4 C       -9.2730     1.5960     1.1430 C.2   1 <1>  -0.0920 
  5 O      -10.4110     0.9660     0.8620 O.3   1 <1>  -0.2800 
  6 C       -9.1360     2.6270     0.2560 C.2   1 <1>  -0.1810 
  7 C      -11.0040     1.5540    -0.1560 C.2   1 <1>  -0.0400 
  8 C      -10.2580     2.5990    -0.5770 C.2   1 <1>  -0.1500 
  9 C       -7.9970     3.6250     0.1580 C.3   1 <1>   0.5240 
 10 C      -12.3420     0.9960    -0.6480 C.3   1 <1>   0.1800 
 11 N       -6.7000     2.9120     0.1240 N.4   1 <1>  -0.9590 
 12 C      -12.1510    -0.4600    -1.0930 C.3   1 <1>  -0.2400 
 13 C      -12.8720     1.8130    -1.8340 C.3   1 <1>  -0.2400 
 14 C      -13.3650     1.0520     0.4930 C.3   1 <1>  -0.2400 
 15 C       -5.5280     3.8100     0.1880 C.3   1 <1>   0.3430 
 16 C       -6.6180     1.8460    -0.9090 C.3   1 <1>   0.3430 
 17 C       -4.2660     2.9820     0.4330 C.3   1 <1>  -0.1600 
 18 C       -5.3620     1.0060    -0.6720 C.3   1 <1>  -0.1600 
 19 C       -4.0960     1.8710    -0.6120 C.3   1 <1>  -0.1600 
 20 H      -10.4680     3.2790    -1.3830 H     1 <1>   0.1500 
 21 H       -8.0300     4.2710     1.0210 H     1 <1>   0.0800 
 22 H       -8.1140     4.2220    -0.7300 H     1 <1>   0.0800 
 23 H       -6.7140     2.4040     1.0460 H     1 <1>   0.4500 
 24 H      -11.4220    -0.5160    -1.8810 H     1 <1>   0.0800 
 25 H      -13.0780    -0.8770    -1.4440 H     1 <1>   0.0800 
 26 H      -11.7990    -1.0550    -0.2680 H     1 <1>   0.0800 
 27 H      -13.8120     1.4160    -2.1750 H     1 <1>   0.0800 
 28 H      -13.0220     2.8380    -1.5440 H     1 <1>   0.0800 
 29 H      -12.1740     1.7830    -2.6520 H     1 <1>   0.0800 
 30 H      -13.0220     0.4650     1.3270 H     1 <1>   0.0800 
 31 H      -14.3170     0.6690     0.1730 H     1 <1>   0.0800 
 32 H      -13.4920     2.0660     0.8280 H     1 <1>   0.0800 
 33 H       -5.6520     4.5140     0.9950 H     1 <1>   0.0800 
 34 H       -5.4330     4.3540    -0.7370 H     1 <1>   0.0800 
 35 H       -6.5830     2.2890    -1.8900 H     1 <1>   0.0800 
 36 H       -7.4840     1.2060    -0.8500 H     1 <1>   0.0800 
 37 H       -4.3240     2.5470     1.4170 H     1 <1>   0.0800 
 38 H       -3.4070     3.6290     0.4160 H     1 <1>   0.0800 
 39 H       -5.2700     0.2790    -1.4590 H     1 <1>   0.0800 
 40 H       -5.4810     0.4670     0.2540 H     1 <1>   0.0800 
 41 H       -3.2490     1.2560    -0.3550 H     1 <1>   0.0800 
 42 H       -3.9080     2.3070    -1.5790 H     1 <1>   0.0800 
@<TRIPOS>BOND
  1   1   2  ar  
  2   2   3  ar  
  3   2   4  1   
  4   4   5  1   
  5   4   6  2   
  6   5   7  1   
  7   6   8  1   
  8   6   9  1   
  9   7   8  2   
 10   7  10  1   
 11   8  20  1   
 12   9  11  1   
 13   9  21  1   
 14   9  22  1   
 15  10  12  1   
 16  10  13  1   
 17  10  14  1   
 18  11  15  1   
 19  11  16  1   
 20  11  23  1   
 21  12  24  1   
 22  12  25  1   
 23  12  26  1   
 24  13  27  1   
 25  13  28  1   
 26  13  29  1   
 27  14  30  1   
 28  14  31  1   
 29  14  32  1   
 30  15  17  1   
 31  15  33  1   
 32  15  34  1   
 33  16  18  1   
 34  16  35  1   
 35  16  36  1   
 36  17  19  1   
 37  17  37  1   
 38  17  38  1   
 39  18  19  1   
 40  18  39  1   
 41  18  40  1   
 42  19  41  1   
 43  19  42  1   
@<TRIPOS>SUBSTRUCTURE
  1 ****   6 GROUP 4 **** **** 0

# MOE 2024.06 (io_trps.svl 2023.06)
