@<TRIPOS>MOLECULE
NONAME
52 54 1 0 0 
SMALL
USER_CHARGES


@<TRIPOS>ATOM
  1 O       -0.0150     0.6600     0.8220 O.2   1 <1>  -0.5700 
  2 C       -0.1610     1.8350     1.0660 C.2   1 <1>   0.5690 
  3 N        0.8030     2.7950     0.7850 N.am  1 <1>  -0.2980 
  4 C       -1.4710     2.2310     1.7190 C.3   1 <1>  -0.1790 
  5 N        2.0560     2.5490     0.2700 N.2   1 <1>  -0.5120 
  6 C        0.6190     4.2400     1.0440 C.3   1 <1>   0.3640 
  7 C        2.7380     3.6190     0.1840 C.2   1 <1>   0.3030 
  8 C       -0.4940     4.8540     0.1910 C.ar  1 <1>  -0.1440 
  9 C        1.9760     4.8290     0.6750 C.3   1 <1>  -0.0990 
 10 C        4.0920     3.7310    -0.3130 C.ar  1 <1>   0.0860 
 11 C       -1.3150     5.8430     0.7260 C.ar  1 <1>   0.0830 
 12 C       -0.6940     4.4400    -1.1200 C.ar  1 <1>  -0.1500 
 13 C        4.7750     2.5950    -0.7530 C.ar  1 <1>  -0.1500 
 14 C        4.7770     4.9480    -0.3800 C.ar  1 <1>  -0.1500 
 15 O       -1.0800     6.2300     2.0090 O.3   1 <1>  -0.3630 
 16 C       -2.3270     6.3960    -0.0520 C.ar  1 <1>  -0.1500 
 17 C       -1.7010     4.9920    -1.8910 C.ar  1 <1>  -0.1500 
 18 C        6.0760     2.6560    -1.2380 C.ar  1 <1>   0.0830 
 19 C        6.0710     5.0280    -0.8590 C.ar  1 <1>  -0.1500 
 20 C       -1.8660     7.2210     2.6350 C.3   1 <1>   0.0400 
 21 C       -2.5250     5.9760    -1.3550 C.ar  1 <1>   0.0830 
 22 O        6.7490     1.5490    -1.6690 O.3   1 <1>  -0.3630 
 23 C        6.7350     3.8860    -1.2930 C.ar  1 <1>   0.0830 
 24 O       -3.5360     6.5680    -2.0390 O.3   1 <1>  -0.3630 
 25 C        6.1640     0.2660    -1.6390 C.3   1 <1>   0.0400 
 26 O        8.0110     3.9150    -1.7720 O.3   1 <1>  -0.3630 
 27 C       -3.8320     6.2050    -3.3690 C.3   1 <1>   0.0400 
 28 C        8.7520     5.1110    -1.8590 C.3   1 <1>   0.0400 
 29 H       -1.2960     2.8530     2.5750 H     1 <1>   0.0800 
 30 H       -1.9930     1.3480     2.0400 H     1 <1>   0.0800 
 31 H       -2.0880     2.7510     1.0110 H     1 <1>   0.0800 
 32 H        0.4380     4.3760     2.0950 H     1 <1>   0.0800 
 33 H        2.4450     5.2550     1.5420 H     1 <1>   0.0800 
 34 H        1.8840     5.5710    -0.0970 H     1 <1>   0.0800 
 35 H       -0.0640     3.6780    -1.5510 H     1 <1>   0.1500 
 36 H        4.2550     1.6570    -0.7050 H     1 <1>   0.1500 
 37 H        4.3010     5.8540    -0.0560 H     1 <1>   0.1500 
 38 H       -2.9810     7.1580     0.3250 H     1 <1>   0.1500 
 39 H       -1.8270     4.6440    -2.8980 H     1 <1>   0.1500 
 40 H        6.5480     5.9890    -0.8880 H     1 <1>   0.1500 
 41 H       -1.5000     7.3560     3.6370 H     1 <1>   0.0800 
 42 H       -2.8890     6.8910     2.6620 H     1 <1>   0.0800 
 43 H       -1.7730     8.1410     2.0850 H     1 <1>   0.0800 
 44 H        6.8820    -0.4370    -2.0200 H     1 <1>   0.0800 
 45 H        5.2870     0.2660    -2.2620 H     1 <1>   0.0800 
 46 H        5.9150     0.0180    -0.6220 H     1 <1>   0.0800 
 47 H       -4.6660     6.7980    -3.6990 H     1 <1>   0.0800 
 48 H       -4.0920     5.1620    -3.3970 H     1 <1>   0.0800 
 49 H       -2.9750     6.4070    -3.9850 H     1 <1>   0.0800 
 50 H        9.7190     4.8730    -2.2630 H     1 <1>   0.0800 
 51 H        8.8610     5.5260    -0.8730 H     1 <1>   0.0800 
 52 H        8.2400     5.7920    -2.5140 H     1 <1>   0.0800 
@<TRIPOS>BOND
  1   1   2  2   
  2   2   3  am  
  3   2   4  1   
  4   3   5  1   
  5   3   6  1   
  6   4  29  1   
  7   4  30  1   
  8   4  31  1   
  9   5   7  2   
 10   6   8  1   
 11   6   9  1   
 12   6  32  1   
 13   7   9  1   
 14   7  10  1   
 15   8  11  ar  
 16   8  12  ar  
 17   9  33  1   
 18   9  34  1   
 19  10  13  ar  
 20  10  14  ar  
 21  11  15  1   
 22  11  16  ar  
 23  12  17  ar  
 24  12  35  1   
 25  13  18  ar  
 26  13  36  1   
 27  14  19  ar  
 28  14  37  1   
 29  15  20  1   
 30  16  21  ar  
 31  16  38  1   
 32  17  21  ar  
 33  17  39  1   
 34  18  22  1   
 35  18  23  ar  
 36  19  23  ar  
 37  19  40  1   
 38  20  41  1   
 39  20  42  1   
 40  20  43  1   
 41  21  24  1   
 42  22  25  1   
 43  23  26  1   
 44  24  27  1   
 45  25  44  1   
 46  25  45  1   
 47  25  46  1   
 48  26  28  1   
 49  27  47  1   
 50  27  48  1   
 51  27  49  1   
 52  28  50  1   
 53  28  51  1   
 54  28  52  1   
@<TRIPOS>SUBSTRUCTURE
  1 ****   7 GROUP 4 **** **** 0

# MOE 2024.06 (io_trps.svl 2023.06)
