@<TRIPOS>MOLECULE
NONAME
53 55 1 0 0 
SMALL
USER_CHARGES


@<TRIPOS>ATOM
  1 S        0.3230    -0.7060     1.4110 S.o2  1 <1>   1.3330 
  2 O        1.7240    -1.0040     1.5780 O.2   1 <1>  -0.6500 
  3 O       -0.6340    -1.1050     2.4160 O.2   1 <1>  -0.6500 
  4 N        0.1800     1.0040     1.2020 N.am  1 <1>  -0.6930 
  5 C       -0.2050    -1.3200    -0.1750 C.3   1 <1>  -0.1350 
  6 C        1.1850     1.7530     0.6220 C.ar  1 <1>   0.1990 
  7 C       -1.0400     1.6610     1.7100 C.3   1 <1>   0.3390 
  8 C        2.3010     2.1280     1.3590 C.ar  1 <1>  -0.1500 
  9 C        1.1070     2.1480    -0.7080 C.ar  1 <1>  -0.1500 
 10 C       -2.2020     1.4390     0.7520 C.ar  1 <1>  -0.1430 
 11 C        3.3080     2.8790     0.7830 C.ar  1 <1>  -0.1500 
 12 C        2.1150     2.8980    -1.2810 C.ar  1 <1>  -0.1500 
 13 C       -3.1070     0.4100     0.9680 C.ar  1 <1>  -0.1500 
 14 C       -2.3730     2.2670    -0.3470 C.ar  1 <1>  -0.1500 
 15 C        3.2450     3.2740    -0.5550 C.ar  1 <1>   0.0860 
 16 C       -4.1550     0.2020     0.0890 C.ar  1 <1>  -0.1500 
 17 C       -3.4220     2.0590    -1.2260 C.ar  1 <1>  -0.1500 
 18 C        4.3020     4.0500    -1.1700 C.2   1 <1>   0.5440 
 19 C       -4.3160     1.0230    -1.0150 C.ar  1 <1>  -0.1430 
 20 O        4.0180     5.0830    -1.7500 O.2   1 <1>  -0.5700 
 21 N        5.6230     3.6550    -1.1320 N.am  1 <1>  -0.6600 
 22 C       -5.4670     0.7950    -1.9780 C.3   1 <1>  -0.0970 
 23 C        6.7000     4.6090    -1.5350 C.3   1 <1>   0.1400 
 24 C        6.0700     2.2700    -0.8200 C.3   1 <1>   0.1400 
 25 C        8.0910     4.1400    -1.0760 C.3   1 <1>  -0.1600 
 26 C        7.0770     2.2870     0.3400 C.3   1 <1>  -0.1600 
 27 C        8.0300     3.4990     0.3180 C.3   1 <1>  -0.1600 
 28 H       -0.1710    -2.3910    -0.1830 H     1 <1>   0.0800 
 29 H        0.4410    -0.9500    -0.9460 H     1 <1>   0.0800 
 30 H       -1.2070    -1.0060    -0.3860 H     1 <1>   0.0800 
 31 H       -0.8590     2.7170     1.8110 H     1 <1>   0.0800 
 32 H       -1.2820     1.2790     2.6870 H     1 <1>   0.0800 
 33 H        2.3730     1.8190     2.3860 H     1 <1>   0.1500 
 34 H        0.2520     1.8600    -1.2910 H     1 <1>   0.1500 
 35 H        4.1620     3.1680     1.3690 H     1 <1>   0.1500 
 36 H        2.0410     3.2060    -2.3110 H     1 <1>   0.1500 
 37 H       -3.0010    -0.2380     1.8230 H     1 <1>   0.1500 
 38 H       -1.6920     3.0810    -0.5230 H     1 <1>   0.1500 
 39 H       -4.8470    -0.6010     0.2720 H     1 <1>   0.1500 
 40 H       -3.5410     2.7100    -2.0740 H     1 <1>   0.1500 
 41 H       -5.7450    -0.2430    -1.9950 H     1 <1>   0.0800 
 42 H       -5.1870     1.0870    -2.9740 H     1 <1>   0.0800 
 43 H       -6.3170     1.3770    -1.6710 H     1 <1>   0.0800 
 44 H        6.4860     5.5660    -1.0900 H     1 <1>   0.0800 
 45 H        6.6840     4.7320    -2.6050 H     1 <1>   0.0800 
 46 H        6.5480     1.8680    -1.6980 H     1 <1>   0.0800 
 47 H        5.2400     1.6280    -0.5840 H     1 <1>   0.0800 
 48 H        8.7600     4.9830    -1.0660 H     1 <1>   0.0800 
 49 H        8.4780     3.4310    -1.7860 H     1 <1>   0.0800 
 50 H        7.6520     1.3790     0.2950 H     1 <1>   0.0800 
 51 H        6.5430     2.2750     1.2740 H     1 <1>   0.0800 
 52 H        7.6710     4.2370     1.0150 H     1 <1>   0.0800 
 53 H        9.0140     3.1990     0.6350 H     1 <1>   0.0800 
@<TRIPOS>BOND
  1   1   2  2   
  2   1   3  2   
  3   1   4  am  
  4   1   5  1   
  5   4   6  1   
  6   4   7  1   
  7   5  28  1   
  8   5  29  1   
  9   5  30  1   
 10   6   8  ar  
 11   6   9  ar  
 12   7  10  1   
 13   7  31  1   
 14   7  32  1   
 15   8  11  ar  
 16   8  33  1   
 17   9  12  ar  
 18   9  34  1   
 19  10  13  ar  
 20  10  14  ar  
 21  11  15  ar  
 22  11  35  1   
 23  12  15  ar  
 24  12  36  1   
 25  13  16  ar  
 26  13  37  1   
 27  14  17  ar  
 28  14  38  1   
 29  15  18  1   
 30  16  19  ar  
 31  16  39  1   
 32  17  19  ar  
 33  17  40  1   
 34  18  20  2   
 35  18  21  am  
 36  19  22  1   
 37  21  23  1   
 38  21  24  1   
 39  22  41  1   
 40  22  42  1   
 41  22  43  1   
 42  23  25  1   
 43  23  44  1   
 44  23  45  1   
 45  24  26  1   
 46  24  46  1   
 47  24  47  1   
 48  25  27  1   
 49  25  48  1   
 50  25  49  1   
 51  26  27  1   
 52  26  50  1   
 53  26  51  1   
 54  27  52  1   
 55  27  53  1   
@<TRIPOS>SUBSTRUCTURE
  1 ****   6 GROUP 4 **** **** 0

# MOE 2024.06 (io_trps.svl 2023.06)
