@<TRIPOS>MOLECULE
NONAME
44 47 1 0 0 
SMALL
USER_CHARGES


@<TRIPOS>ATOM
  1 S       -0.7090    -0.2650    -0.4490 S.3   1 <1>  -0.0800 
  2 C        0.9880     0.1420    -0.1920 C.ar  1 <1>   0.2970 
  3 C       -1.1550     1.4380    -0.4560 C.2   1 <1>  -0.1400 
  4 N        1.9260    -0.7740    -0.0840 N.ar  1 <1>  -0.5670 
  5 C        1.1630     1.5060    -0.1310 C.ar  1 <1>   0.0000 
  6 C       -0.0860     2.2270    -0.2640 C.2   1 <1>  -0.1810 
  7 C       -2.5990     1.8400    -0.6530 C.3   1 <1>   0.0200 
  8 C        3.1230    -0.2550     0.0950 C.ar  1 <1>   0.4770 
  9 C        2.4910     1.9080     0.0410 C.ar  1 <1>   0.4100 
 10 C       -0.2370     3.7400    -0.1950 C.3   1 <1>   0.0210 
 11 C       -2.6630     3.3520    -0.9360 C.3   1 <1>  -0.1600 
 12 N        3.4630     1.0230     0.1630 N.ar  1 <1>  -0.6200 
 13 C        4.2630    -1.2340     0.2400 C.3   1 <1>  -0.0960 
 14 N        2.8400     3.2350     0.0680 N.pl3 1 <1>  -0.8690 
 15 C       -1.7140     4.1480    -0.0170 C.3   1 <1>  -0.1600 
 16 C        4.2060     3.7680     0.1970 C.3   1 <1>   0.2890 
 17 C        4.1560     5.0290     1.0630 C.3   1 <1>  -0.1600 
 18 C        4.7500     4.0750    -1.2020 C.3   1 <1>  -0.1600 
 19 C        5.5320     5.7060     1.1430 C.3   1 <1>  -0.1600 
 20 C        6.1270     4.7510    -1.1290 C.3   1 <1>  -0.1600 
 21 C        6.0810     6.0140    -0.2570 C.3   1 <1>  -0.1600 
 22 H       -3.1500     1.6060     0.2410 H     1 <1>   0.0800 
 23 H       -3.0280     1.2950    -1.4750 H     1 <1>   0.0800 
 24 H        0.1500     4.1670    -1.1040 H     1 <1>   0.0800 
 25 H        0.3270     4.1250     0.6360 H     1 <1>   0.0800 
 26 H       -3.6740     3.6970    -0.8100 H     1 <1>   0.0800 
 27 H       -2.3790     3.5250    -1.9600 H     1 <1>   0.0800 
 28 H        3.9060    -2.2450     0.1680 H     1 <1>   0.0800 
 29 H        4.7330    -1.0950     1.1950 H     1 <1>   0.0800 
 30 H        4.9830    -1.0600    -0.5370 H     1 <1>   0.0800 
 31 H        2.1520     3.9090    -0.2560 H     1 <1>   0.4000 
 32 H       -1.8180     5.2020    -0.2100 H     1 <1>   0.0800 
 33 H       -1.9990     3.9740     1.0060 H     1 <1>   0.0800 
 34 H        4.8440     3.0430     0.6750 H     1 <1>   0.0800 
 35 H        3.8310     4.7620     2.0530 H     1 <1>   0.0800 
 36 H        3.4490     5.7240     0.6450 H     1 <1>   0.0800 
 37 H        4.8310     3.1560    -1.7540 H     1 <1>   0.0800 
 38 H        4.0660     4.7250    -1.7180 H     1 <1>   0.0800 
 39 H        5.4540     6.6180     1.7090 H     1 <1>   0.0800 
 40 H        6.2190     5.0560     1.6590 H     1 <1>   0.0800 
 41 H        6.4560     5.0080    -2.1220 H     1 <1>   0.0800 
 42 H        6.8400     4.0580    -0.7150 H     1 <1>   0.0800 
 43 H        7.0700     6.4300    -0.1740 H     1 <1>   0.0800 
 44 H        5.4540     6.7500    -0.7310 H     1 <1>   0.0800 
@<TRIPOS>BOND
  1   1   2  1   
  2   1   3  1   
  3   2   4  ar  
  4   2   5  ar  
  5   3   6  2   
  6   3   7  1   
  7   4   8  ar  
  8   5   6  1   
  9   5   9  ar  
 10   6  10  1   
 11   7  11  1   
 12   7  22  1   
 13   7  23  1   
 14   8  12  ar  
 15   8  13  1   
 16   9  12  ar  
 17   9  14  1   
 18  10  15  1   
 19  10  24  1   
 20  10  25  1   
 21  11  15  1   
 22  11  26  1   
 23  11  27  1   
 24  13  28  1   
 25  13  29  1   
 26  13  30  1   
 27  14  16  1   
 28  14  31  1   
 29  15  32  1   
 30  15  33  1   
 31  16  17  1   
 32  16  18  1   
 33  16  34  1   
 34  17  19  1   
 35  17  35  1   
 36  17  36  1   
 37  18  20  1   
 38  18  37  1   
 39  18  38  1   
 40  19  21  1   
 41  19  39  1   
 42  19  40  1   
 43  20  21  1   
 44  20  41  1   
 45  20  42  1   
 46  21  43  1   
 47  21  44  1   
@<TRIPOS>SUBSTRUCTURE
  1 ****   9 GROUP 4 **** **** 0

# MOE 2024.06 (io_trps.svl 2023.06)
