@<TRIPOS>MOLECULE
NONAME
43 45 1 0 0 
SMALL
USER_CHARGES


@<TRIPOS>ATOM
  1 O       -1.9060     0.1810     1.9270 O.3   1 <1>  -0.3630 
  2 C       -2.4860     0.8770     0.9190 C.ar  1 <1>   0.0830 
  3 C       -2.3380    -1.1110     2.2930 C.3   1 <1>   0.0400 
  4 C       -1.8590     2.0510     0.5400 C.ar  1 <1>  -0.1500 
  5 C       -3.6500     0.4720     0.2710 C.ar  1 <1>  -0.1500 
  6 C       -2.3830     2.8240    -0.4890 C.ar  1 <1>   0.0830 
  7 C       -4.1830     1.2450    -0.7510 C.ar  1 <1>  -0.1430 
  8 O       -1.8350     3.9840    -0.9210 O.3   1 <1>  -0.3630 
  9 C       -3.5380     2.4120    -1.1310 C.ar  1 <1>  -0.1500 
 10 C       -5.4670     0.8380    -1.4450 C.3   1 <1>   0.4860 
 11 C       -0.6100     4.4520    -0.3950 C.3   1 <1>   0.0400 
 12 N       -6.6070     1.1600    -0.5490 N.4   1 <1>  -0.9590 
 13 C       -7.8940     0.6230    -1.0630 C.3   1 <1>   0.4860 
 14 C       -6.7330     2.6230    -0.2670 C.3   1 <1>   0.3430 
 15 C       -9.0100     0.9130    -0.0740 C.ar  1 <1>  -0.1430 
 16 C       -7.6860     2.8470     0.9090 C.3   1 <1>  -0.0170 
 17 C       -8.9210     1.9590     0.8400 C.ar  1 <1>  -0.1430 
 18 C      -10.1470     0.1180    -0.0950 C.ar  1 <1>  -0.1500 
 19 C       -9.9660     2.1960     1.7180 C.ar  1 <1>  -0.1500 
 20 C      -11.1860     0.3600     0.7850 C.ar  1 <1>  -0.1500 
 21 C      -11.0960     1.4000     1.6920 C.ar  1 <1>  -0.1500 
 22 H       -1.6790    -1.4770     3.0610 H     1 <1>   0.0800 
 23 H       -2.2860    -1.7550     1.4330 H     1 <1>   0.0800 
 24 H       -3.3410    -1.0510     2.6750 H     1 <1>   0.0800 
 25 H       -0.9660     2.3360     1.0620 H     1 <1>   0.1500 
 26 H       -4.1370    -0.4390     0.5640 H     1 <1>   0.1500 
 27 H       -3.9140     3.0290    -1.9290 H     1 <1>   0.1500 
 28 H       -5.4390    -0.2210    -1.6490 H     1 <1>   0.0800 
 29 H       -5.5620     1.3650    -2.3800 H     1 <1>   0.0800 
 30 H       -0.3530     5.3630    -0.9050 H     1 <1>   0.0800 
 31 H        0.1500     3.7110    -0.5670 H     1 <1>   0.0800 
 32 H       -0.7300     4.6440     0.6570 H     1 <1>   0.0800 
 33 H       -6.4350     0.7050     0.3550 H     1 <1>   0.4500 
 34 H       -7.8190    -0.4430    -1.2080 H     1 <1>   0.0800 
 35 H       -8.1350     1.0800    -2.0090 H     1 <1>   0.0800 
 36 H       -7.1160     3.1280    -1.1390 H     1 <1>   0.0800 
 37 H       -5.7720     3.0480    -0.0230 H     1 <1>   0.0800 
 38 H       -7.9810     3.8810     0.9250 H     1 <1>   0.0800 
 39 H       -7.1620     2.6470     1.8280 H     1 <1>   0.0800 
 40 H      -10.2440    -0.6960    -0.7930 H     1 <1>   0.1500 
 41 H       -9.9090     3.0000     2.4320 H     1 <1>   0.1500 
 42 H      -12.0680    -0.2580     0.7670 H     1 <1>   0.1500 
 43 H      -11.9050     1.5890     2.3770 H     1 <1>   0.1500 
@<TRIPOS>BOND
  1   1   2  1   
  2   1   3  1   
  3   2   4  ar  
  4   2   5  ar  
  5   3  22  1   
  6   3  23  1   
  7   3  24  1   
  8   4   6  ar  
  9   4  25  1   
 10   5   7  ar  
 11   5  26  1   
 12   6   8  1   
 13   6   9  ar  
 14   7   9  ar  
 15   7  10  1   
 16   8  11  1   
 17   9  27  1   
 18  10  12  1   
 19  10  28  1   
 20  10  29  1   
 21  11  30  1   
 22  11  31  1   
 23  11  32  1   
 24  12  13  1   
 25  12  14  1   
 26  12  33  1   
 27  13  15  1   
 28  13  34  1   
 29  13  35  1   
 30  14  16  1   
 31  14  36  1   
 32  14  37  1   
 33  15  17  ar  
 34  15  18  ar  
 35  16  17  1   
 36  16  38  1   
 37  16  39  1   
 38  17  19  ar  
 39  18  20  ar  
 40  18  40  1   
 41  19  21  ar  
 42  19  41  1   
 43  20  21  ar  
 44  20  42  1   
 45  21  43  1   
@<TRIPOS>SUBSTRUCTURE
  1 ****  12 GROUP 4 **** **** 0

# MOE 2024.06 (io_trps.svl 2023.06)
