@<TRIPOS>MOLECULE
NONAME
51 52 1 0 0 
SMALL
USER_CHARGES


@<TRIPOS>ATOM
  1 CL      -0.0190     0.2280     0.1140 Cl    1 <1>  -0.1770 
  2 C        1.7350     0.2590     0.1440 C.ar  1 <1>   0.1770 
  3 C        2.3990     1.4120    -0.2550 C.ar  1 <1>  -0.1440 
  4 C        2.4240    -0.8700     0.5670 C.ar  1 <1>  -0.1440 
  5 C        3.7850     1.4290    -0.2280 C.ar  1 <1>  -0.1500 
  6 C        1.6260     2.6400    -0.7140 C.3   1 <1>  -0.0960 
  7 C        3.8080    -0.8330     0.5860 C.ar  1 <1>  -0.1500 
  8 C        1.6860    -2.1280     1.0020 C.3   1 <1>  -0.0960 
  9 C        4.4940     0.3050     0.1920 C.ar  1 <1>   0.0830 
 10 O        5.8490     0.2440     0.2460 O.3   1 <1>  -0.3630 
 11 C        6.6540     1.3270    -0.1680 C.3   1 <1>   0.1200 
 12 C        8.1260     0.9320     0.0090 C.3   1 <1>   0.2000 
 13 O        8.3140     0.4500     1.3080 O.3   1 <1>  -0.6800 
 14 C        9.0940     2.1090    -0.2490 C.3   1 <1>   0.3430 
 15 N       10.3440     1.9520     0.5650 N.4   1 <1>  -0.9590 
 16 C       10.6190     3.1680     1.3750 C.3   1 <1>   0.4230 
 17 C       11.5360     1.4620    -0.1770 C.3   1 <1>   0.4230 
 18 C       11.7990     3.9940     0.8240 C.3   1 <1>  -0.1600 
 19 C       10.8770     2.7200     2.8080 C.3   1 <1>  -0.2400 
 20 C       11.9860     2.5060    -1.2150 C.3   1 <1>  -0.1600 
 21 C       11.2730     0.0970    -0.8070 C.3   1 <1>  -0.2400 
 22 C       11.8700     3.9570    -0.7090 C.3   1 <1>  -0.1600 
 23 H        4.2930     2.3220    -0.5360 H     1 <1>   0.1500 
 24 H        0.9840     2.9860     0.0760 H     1 <1>   0.0800 
 25 H        1.0190     2.3940    -1.5680 H     1 <1>   0.0800 
 26 H        2.2890     3.4410    -0.9880 H     1 <1>   0.0800 
 27 H        4.3700    -1.6920     0.9070 H     1 <1>   0.1500 
 28 H        1.0820    -2.4980     0.1920 H     1 <1>   0.0800 
 29 H        1.0470    -1.9080     1.8380 H     1 <1>   0.0800 
 30 H        2.3740    -2.9010     1.2930 H     1 <1>   0.0800 
 31 H        6.4130     2.1810     0.4400 H     1 <1>   0.0800 
 32 H        6.4370     1.5360    -1.2020 H     1 <1>   0.0800 
 33 H        8.3500     0.1270    -0.6700 H     1 <1>   0.0800 
 34 H        7.5510    -0.1340     1.5330 H     1 <1>   0.4000 
 35 H        8.5950     3.0210     0.0340 H     1 <1>   0.0800 
 36 H        9.3240     2.1770    -1.2990 H     1 <1>   0.0800 
 37 H       10.0700     1.2160     1.2430 H     1 <1>   0.4500 
 38 H        9.7410     3.7930     1.3750 H     1 <1>   0.0800 
 39 H       12.3370     1.3450     0.5360 H     1 <1>   0.0800 
 40 H       12.7270     3.6240     1.2260 H     1 <1>   0.0800 
 41 H       11.6990     5.0110     1.1600 H     1 <1>   0.0800 
 42 H       11.7370     2.0770     2.8660 H     1 <1>   0.0800 
 43 H       10.0180     2.2040     3.2000 H     1 <1>   0.0800 
 44 H       11.0560     3.5790     3.4290 H     1 <1>   0.0800 
 45 H       11.4280     2.4000    -2.1290 H     1 <1>   0.0800 
 46 H       13.0150     2.3010    -1.4550 H     1 <1>   0.0800 
 47 H       10.5620     0.1570    -1.6100 H     1 <1>   0.0800 
 48 H       10.9270    -0.5990    -0.0650 H     1 <1>   0.0800 
 49 H       12.1920    -0.2860    -1.2140 H     1 <1>   0.0800 
 50 H       12.7100     4.5360    -1.0570 H     1 <1>   0.0800 
 51 H       10.9780     4.4080    -1.1120 H     1 <1>   0.0800 
@<TRIPOS>BOND
  1   1   2  1   
  2   2   3  ar  
  3   2   4  ar  
  4   3   5  ar  
  5   3   6  1   
  6   4   7  ar  
  7   4   8  1   
  8   5   9  ar  
  9   5  23  1   
 10   6  24  1   
 11   6  25  1   
 12   6  26  1   
 13   7   9  ar  
 14   7  27  1   
 15   8  28  1   
 16   8  29  1   
 17   8  30  1   
 18   9  10  1   
 19  10  11  1   
 20  11  12  1   
 21  11  31  1   
 22  11  32  1   
 23  12  13  1   
 24  12  14  1   
 25  12  33  1   
 26  13  34  1   
 27  14  15  1   
 28  14  35  1   
 29  14  36  1   
 30  15  16  1   
 31  15  17  1   
 32  15  37  1   
 33  16  18  1   
 34  16  19  1   
 35  16  38  1   
 36  17  20  1   
 37  17  21  1   
 38  17  39  1   
 39  18  22  1   
 40  18  40  1   
 41  18  41  1   
 42  19  42  1   
 43  19  43  1   
 44  19  44  1   
 45  20  22  1   
 46  20  45  1   
 47  20  46  1   
 48  21  47  1   
 49  21  48  1   
 50  21  49  1   
 51  22  50  1   
 52  22  51  1   
@<TRIPOS>SUBSTRUCTURE
  1 ****  11 GROUP 4 **** **** 0

# MOE 2024.06 (io_trps.svl 2023.06)
