@<TRIPOS>MOLECULE
NONAME
46 48 1 0 0 
SMALL
USER_CHARGES


@<TRIPOS>ATOM
  1 S        0.1490     0.1020     1.5780 S.o2  1 <1>   1.4470 
  2 O       -0.1350    -1.1280     2.2870 O.2   1 <1>  -0.6500 
  3 O        0.1980     1.3210     2.3580 O.2   1 <1>  -0.6500 
  4 N       -1.1110     0.3160     0.4650 N.am  1 <1>  -0.8490 
  5 C        1.6430     0.0330     0.5470 C.ar  1 <1>  -0.0090 
  6 C       -1.4520    -0.9010    -0.2790 C.3   1 <1>   0.1960 
  7 C       -2.3070     0.9040     1.1000 C.3   1 <1>   0.1960 
  8 C        2.1380    -1.1600     0.0180 C.ar  1 <1>   0.0830 
  9 C        2.3190     1.2080     0.2460 C.ar  1 <1>  -0.1500 
 10 C       -2.5460    -0.6310    -1.3380 C.3   1 <1>   0.1200 
 11 C       -3.6380     0.5390     0.4040 C.3   1 <1>   0.1200 
 12 O        1.4690    -2.3050     0.2800 O.3   1 <1>  -0.3630 
 13 C        3.2880    -1.1520    -0.7670 C.ar  1 <1>  -0.1500 
 14 C        3.4740     1.2430    -0.5310 C.ar  1 <1>   0.0860 
 15 O       -3.4640     0.3680    -0.9710 O.3   1 <1>  -0.5600 
 16 C        2.0030    -3.5840     0.0200 C.3   1 <1>   0.0400 
 17 C        3.9420     0.0330    -1.0350 C.ar  1 <1>  -0.1500 
 18 C        4.1520     2.4950    -0.8030 C.2   1 <1>   0.5440 
 19 O        3.5280     3.4260    -1.2760 O.2   1 <1>  -0.5700 
 20 N        5.4900     2.6620    -0.5330 N.am  1 <1>  -0.6600 
 21 C        6.2960     1.7870     0.3480 C.3   1 <1>   0.1400 
 22 C        6.1850     3.9440    -0.7830 C.3   1 <1>   0.1400 
 23 C        7.3970     2.6920     0.8880 C.3   1 <1>  -0.1600 
 24 C        7.5750     3.7620    -0.1860 C.3   1 <1>  -0.1600 
 25 H       -1.7980    -1.6600     0.4040 H     1 <1>   0.0800 
 26 H       -0.5820    -1.2860    -0.7790 H     1 <1>   0.0800 
 27 H       -2.1950     1.9750     1.1050 H     1 <1>   0.0800 
 28 H       -2.3750     0.5880     2.1280 H     1 <1>   0.0800 
 29 H        1.9410     2.1440     0.6250 H     1 <1>   0.1500 
 30 H       -3.0950    -1.5340    -1.5380 H     1 <1>   0.0800 
 31 H       -2.0840    -0.3090    -2.2540 H     1 <1>   0.0800 
 32 H       -4.3630     1.3180     0.5550 H     1 <1>   0.0800 
 33 H       -4.0330    -0.3770     0.8080 H     1 <1>   0.0800 
 34 H        3.6830    -2.0580    -1.1860 H     1 <1>   0.1500 
 35 H        1.3270    -4.3160     0.4230 H     1 <1>   0.0800 
 36 H        2.9600    -3.6690     0.5040 H     1 <1>   0.0800 
 37 H        2.0940    -3.7180    -1.0440 H     1 <1>   0.0800 
 38 H        4.8250     0.0340    -1.6500 H     1 <1>   0.1500 
 39 H        6.7220     0.9930    -0.2400 H     1 <1>   0.0800 
 40 H        5.6990     1.3760     1.1450 H     1 <1>   0.0800 
 41 H        5.6540     4.7350    -0.2790 H     1 <1>   0.0800 
 42 H        6.2250     4.1540    -1.8390 H     1 <1>   0.0800 
 43 H        8.3050     2.1480     1.0820 H     1 <1>   0.0800 
 44 H        7.0570     3.1460     1.8030 H     1 <1>   0.0800 
 45 H        7.9620     4.6830     0.2120 H     1 <1>   0.0800 
 46 H        8.2400     3.4050    -0.9530 H     1 <1>   0.0800 
@<TRIPOS>BOND
  1   1   2  2   
  2   1   3  2   
  3   1   4  am  
  4   1   5  1   
  5   4   6  1   
  6   4   7  1   
  7   5   8  ar  
  8   5   9  ar  
  9   6  10  1   
 10   6  25  1   
 11   6  26  1   
 12   7  11  1   
 13   7  27  1   
 14   7  28  1   
 15   8  12  1   
 16   8  13  ar  
 17   9  14  ar  
 18   9  29  1   
 19  10  15  1   
 20  10  30  1   
 21  10  31  1   
 22  11  15  1   
 23  11  32  1   
 24  11  33  1   
 25  12  16  1   
 26  13  17  ar  
 27  13  34  1   
 28  14  17  ar  
 29  14  18  1   
 30  16  35  1   
 31  16  36  1   
 32  16  37  1   
 33  17  38  1   
 34  18  19  2   
 35  18  20  am  
 36  20  21  1   
 37  20  22  1   
 38  21  23  1   
 39  21  39  1   
 40  21  40  1   
 41  22  24  1   
 42  22  41  1   
 43  22  42  1   
 44  23  24  1   
 45  23  43  1   
 46  23  44  1   
 47  24  45  1   
 48  24  46  1   
@<TRIPOS>SUBSTRUCTURE
  1 ****   9 GROUP 4 **** **** 0

# MOE 2024.06 (io_trps.svl 2023.06)
