@<TRIPOS>MOLECULE
NONAME
40 40 1 0 0 
SMALL
USER_CHARGES


@<TRIPOS>ATOM
  1 O        0.2600     4.5060    -1.9020 O.2   1 <1>  -0.5700 
  2 C        0.0970     3.7860    -0.9410 C.2   1 <1>   0.7060 
  3 O        1.1680     3.2010    -0.3940 O.3   1 <1>  -0.4300 
  4 C       -1.1750     3.5210    -0.3490 C.2   1 <1>  -0.1360 
  5 C        2.4550     3.4170    -0.9350 C.3   1 <1>   0.1200 
  6 C       -2.3760     4.0070    -0.7410 C.2   1 <1>  -0.1050 
  7 C        3.4760     2.6440    -0.0930 C.3   1 <1>   0.3430 
  8 C       -3.6460     3.7380    -0.1450 C.2   1 <1>   0.0950 
  9 N        4.8730     2.6980    -0.6630 N.4   1 <1>  -0.9590 
 10 O       -4.7330     4.2980    -0.6540 O.3   1 <1>  -0.2800 
 11 C       -4.0100     2.9690     0.9190 C.2   1 <1>  -0.1500 
 12 C        5.8160     1.7260    -0.0300 C.3   1 <1>   0.5030 
 13 C        5.3810     4.1160    -0.6670 C.3   1 <1>   0.2630 
 14 C       -5.7760     3.9130     0.0470 C.2   1 <1>  -0.0100 
 15 C       -5.3940     3.0840     1.0420 C.2   1 <1>  -0.1500 
 16 C        5.9980     2.0200     1.4630 C.3   1 <1>  -0.2400 
 17 C        5.2730     0.3060    -0.2170 C.3   1 <1>  -0.2400 
 18 C        7.1710     1.8070    -0.7410 C.3   1 <1>  -0.2400 
 19 H       -1.1250     2.8600     0.4940 H     1 <1>   0.1500 
 20 H        2.4480     3.0640    -1.9520 H     1 <1>   0.0800 
 21 H        2.6460     4.4760    -0.9100 H     1 <1>   0.0800 
 22 H       -2.4260     4.6710    -1.5890 H     1 <1>   0.1500 
 23 H        3.1430     1.6220    -0.0460 H     1 <1>   0.0800 
 24 H        3.4780     3.0440     0.9080 H     1 <1>   0.0800 
 25 H        4.8140     2.3900    -1.6420 H     1 <1>   0.4500 
 26 H       -3.3780     2.3790     1.5570 H     1 <1>   0.1500 
 27 H        5.4780     4.4840     0.3410 H     1 <1>   0.0800 
 28 H        4.7030     4.7600    -1.2030 H     1 <1>   0.0800 
 29 H        6.3420     4.1750    -1.1500 H     1 <1>   0.0800 
 30 H       -6.7520     4.2730    -0.2270 H     1 <1>   0.1500 
 31 H       -6.0050     2.6010     1.7850 H     1 <1>   0.1500 
 32 H        6.6850     1.3090     1.8870 H     1 <1>   0.0800 
 33 H        5.0730     1.9290     2.0020 H     1 <1>   0.0800 
 34 H        6.4110     2.9980     1.6270 H     1 <1>   0.0800 
 35 H        6.0070    -0.4110     0.1060 H     1 <1>   0.0800 
 36 H        5.0570     0.1060    -1.2510 H     1 <1>   0.0800 
 37 H        4.3940     0.1280     0.3750 H     1 <1>   0.0800 
 38 H        7.6770     2.7330    -0.5410 H     1 <1>   0.0800 
 39 H        7.0590     1.6800    -1.8030 H     1 <1>   0.0800 
 40 H        7.8170     1.0230    -0.3860 H     1 <1>   0.0800 
@<TRIPOS>BOND
  1   1   2  2   
  2   2   3  1   
  3   2   4  1   
  4   3   5  1   
  5   4   6  2   
  6   4  19  1   
  7   5   7  1   
  8   5  20  1   
  9   5  21  1   
 10   6   8  1   
 11   6  22  1   
 12   7   9  1   
 13   7  23  1   
 14   7  24  1   
 15   8  10  1   
 16   8  11  2   
 17   9  12  1   
 18   9  13  1   
 19   9  25  1   
 20  10  14  1   
 21  11  15  1   
 22  11  26  1   
 23  12  16  1   
 24  12  17  1   
 25  12  18  1   
 26  13  27  1   
 27  13  28  1   
 28  13  29  1   
 29  14  15  2   
 30  14  30  1   
 31  15  31  1   
 32  16  32  1   
 33  16  33  1   
 34  16  34  1   
 35  17  35  1   
 36  17  36  1   
 37  17  37  1   
 38  18  38  1   
 39  18  39  1   
 40  18  40  1   
@<TRIPOS>SUBSTRUCTURE
  1 ****   3 GROUP 4 **** **** 0

# MOE 2024.06 (io_trps.svl 2023.06)
