@<TRIPOS>MOLECULE
NONAME
32 32 1 0 0 
SMALL
USER_CHARGES


@<TRIPOS>ATOM
  1 S       -0.0400     2.7230     1.0270 S.3   1 <1>  -0.4600 
  2 C       -1.4780     1.8450     1.7170 C.3   1 <1>   0.2140 
  3 C        1.4050     1.7970     1.6650 C.3   1 <1>   0.1310 
  4 C       -1.9590     0.8190     0.7030 C.ar  1 <1>  -0.1440 
  5 C        1.2290     0.2840     1.5800 C.2   1 <1>   0.5690 
  6 C       -1.9690    -0.5300     1.0180 C.ar  1 <1>  -0.1500 
  7 C       -2.3960     1.2230    -0.5500 C.ar  1 <1>  -0.1500 
  8 O        1.0570    -0.3300     2.6040 O.2   1 <1>  -0.5700 
  9 N        1.2620    -0.3840     0.4010 N.am  1 <1>  -0.7300 
 10 C       -2.4040    -1.4630     0.0930 C.ar  1 <1>  -0.1500 
 11 C       -2.8310     0.2900    -1.4750 C.ar  1 <1>  -0.1500 
 12 C        1.1610     0.1700    -0.9620 C.3   1 <1>   0.1400 
 13 C       -2.8340    -1.0590    -1.1600 C.ar  1 <1>  -0.1430 
 14 C        2.1050    -0.6060    -1.8710 C.3   1 <1>  -0.2400 
 15 C       -3.3120    -2.0830    -2.1740 C.3   1 <1>  -0.0970 
 16 H       -2.2380     2.5820     1.9030 H     1 <1>   0.0800 
 17 H       -1.1750     1.3920     2.6450 H     1 <1>   0.0800 
 18 H        1.5340     2.0910     2.6900 H     1 <1>   0.0800 
 19 H        2.2590     2.1080     1.0940 H     1 <1>   0.0800 
 20 H       -1.6320    -0.8630     1.9850 H     1 <1>   0.1500 
 21 H       -2.3940     2.2670    -0.8080 H     1 <1>   0.1500 
 22 H        1.0750    -1.3860     0.4700 H     1 <1>   0.3700 
 23 H       -2.4040    -2.5060     0.3550 H     1 <1>   0.1500 
 24 H       -3.1670     0.6200    -2.4420 H     1 <1>   0.1500 
 25 H        1.4200     1.2150    -0.9690 H     1 <1>   0.0800 
 26 H        0.1450     0.0690    -1.3100 H     1 <1>   0.0800 
 27 H        3.1180    -0.5110    -1.5230 H     1 <1>   0.0800 
 28 H        2.0470    -0.2130    -2.8700 H     1 <1>   0.0800 
 29 H        1.8280    -1.6450    -1.8980 H     1 <1>   0.0800 
 30 H       -2.8020    -3.0190    -2.0310 H     1 <1>   0.0800 
 31 H       -3.1180    -1.7400    -3.1740 H     1 <1>   0.0800 
 32 H       -4.3690    -2.2410    -2.0590 H     1 <1>   0.0800 
@<TRIPOS>BOND
  1   1   2  1   
  2   1   3  1   
  3   2   4  1   
  4   2  16  1   
  5   2  17  1   
  6   3   5  1   
  7   3  18  1   
  8   3  19  1   
  9   4   6  ar  
 10   4   7  ar  
 11   5   8  2   
 12   5   9  am  
 13   6  10  ar  
 14   6  20  1   
 15   7  11  ar  
 16   7  21  1   
 17   9  12  1   
 18   9  22  1   
 19  10  13  ar  
 20  10  23  1   
 21  11  13  ar  
 22  11  24  1   
 23  12  14  1   
 24  12  25  1   
 25  12  26  1   
 26  13  15  1   
 27  14  27  1   
 28  14  28  1   
 29  14  29  1   
 30  15  30  1   
 31  15  31  1   
 32  15  32  1   
@<TRIPOS>SUBSTRUCTURE
  1 ****   4 GROUP 4 **** **** 0

# MOE 2024.06 (io_trps.svl 2023.06)
