@<TRIPOS>MOLECULE
NONAME
39 40 1 0 0 
SMALL
USER_CHARGES


@<TRIPOS>ATOM
  1 BR      -0.0890    -0.1380     1.1650 Br    1 <1>  -0.1110 
  2 C        1.6700    -0.9000     0.9810 C.ar  1 <1>   0.1110 
  3 C        1.8430    -2.2450     1.2440 C.ar  1 <1>  -0.1500 
  4 C        2.7130    -0.0800     0.5930 C.ar  1 <1>  -0.1500 
  5 C        3.1110    -2.7870     1.1090 C.ar  1 <1>  -0.1500 
  6 C        3.9770    -0.6310     0.4620 C.ar  1 <1>  -0.1500 
  7 C        4.1760    -1.9870     0.7140 C.ar  1 <1>   0.0830 
  8 O        5.3940    -2.5820     0.6100 O.3   1 <1>  -0.2320 
  9 C        6.3760    -2.2910    -0.2430 C.2   1 <1>   0.6590 
 10 O        6.2760    -1.4720    -1.1210 O.2   1 <1>  -0.5700 
 11 C        7.6540    -3.0900    -0.0480 C.3   1 <1>  -0.0190 
 12 C        8.8810    -2.2160    -0.3440 C.3   1 <1>   0.1960 
 13 C        7.6610    -4.3600    -0.9190 C.3   1 <1>  -0.1600 
 14 N       10.1230    -2.9810    -0.1430 N.am  1 <1>  -0.8490 
 15 C        9.0120    -5.0770    -0.7950 C.3   1 <1>  -0.1600 
 16 S       11.4920    -1.9870    -0.2660 S.o2  1 <1>   1.3330 
 17 C       10.1770    -4.1190    -1.0690 C.3   1 <1>   0.1960 
 18 O       11.1930    -0.7340     0.3900 O.2   1 <1>  -0.6500 
 19 O       11.9090    -1.9940    -1.6510 O.2   1 <1>  -0.6500 
 20 C       12.7100    -2.8570     0.7330 C.3   1 <1>  -0.0550 
 21 C       14.0800    -2.1600     0.8150 C.3   1 <1>  -0.2400 
 22 H        1.0070    -2.8500     1.5460 H     1 <1>   0.1500 
 23 H        2.5410     0.9630     0.3980 H     1 <1>   0.1500 
 24 H        3.2740    -3.8310     1.3090 H     1 <1>   0.1500 
 25 H        4.7960     0.0020     0.1680 H     1 <1>   0.1500 
 26 H        7.7060    -3.3750     0.9880 H     1 <1>   0.0800 
 27 H        8.8610    -1.3680     0.3220 H     1 <1>   0.0800 
 28 H        8.8440    -1.8430    -1.3550 H     1 <1>   0.0800 
 29 H        7.4980    -4.0860    -1.9480 H     1 <1>   0.0800 
 30 H        6.8660    -5.0200    -0.6180 H     1 <1>   0.0800 
 31 H        9.0520    -5.8930    -1.4950 H     1 <1>   0.0800 
 32 H        9.1220    -5.4850     0.1940 H     1 <1>   0.0800 
 33 H       11.1050    -4.6510    -0.9440 H     1 <1>   0.0800 
 34 H       10.1290    -3.7670    -2.0880 H     1 <1>   0.0800 
 35 H       12.8540    -3.8410     0.3320 H     1 <1>   0.0800 
 36 H       12.3220    -2.9650     1.7270 H     1 <1>   0.0800 
 37 H       14.5030    -2.0590    -0.1700 H     1 <1>   0.0800 
 38 H       14.7540    -2.7330     1.4270 H     1 <1>   0.0800 
 39 H       13.9690    -1.1790     1.2440 H     1 <1>   0.0800 
@<TRIPOS>BOND
  1   1   2  1   
  2   2   3  ar  
  3   2   4  ar  
  4   3   5  ar  
  5   3  22  1   
  6   4   6  ar  
  7   4  23  1   
  8   5   7  ar  
  9   5  24  1   
 10   6   7  ar  
 11   6  25  1   
 12   7   8  1   
 13   8   9  1   
 14   9  10  2   
 15   9  11  1   
 16  11  12  1   
 17  11  13  1   
 18  11  26  1   
 19  12  14  1   
 20  12  27  1   
 21  12  28  1   
 22  13  15  1   
 23  13  29  1   
 24  13  30  1   
 25  14  16  am  
 26  14  17  1   
 27  15  17  1   
 28  15  31  1   
 29  15  32  1   
 30  16  18  2   
 31  16  19  2   
 32  16  20  1   
 33  17  33  1   
 34  17  34  1   
 35  20  21  1   
 36  20  35  1   
 37  20  36  1   
 38  21  37  1   
 39  21  38  1   
 40  21  39  1   
@<TRIPOS>SUBSTRUCTURE
  1 ****   9 GROUP 4 **** **** 0

# MOE 2024.06 (io_trps.svl 2023.06)
