@<TRIPOS>MOLECULE
NONAME
25 25 1 0 0 
SMALL
USER_CHARGES


@<TRIPOS>ATOM
  1 CL      -0.1660     0.5120    -1.9100 Cl    1 <1>  -0.1770 
  2 C       -1.5000     1.1080    -0.9530 C.ar  1 <1>   0.1770 
  3 C       -1.3320     2.2530    -0.1830 C.ar  1 <1>  -0.1440 
  4 C       -2.6890     0.4050    -0.9770 C.ar  1 <1>  -0.1500 
  5 C       -2.4030     2.6890     0.5950 C.ar  1 <1>  -0.1500 
  6 C        0.0140     2.9630    -0.2280 C.3   1 <1>   0.5660 
  7 C       -3.7350     0.8630    -0.2020 C.ar  1 <1>   0.1770 
  8 C       -3.6030     1.9940     0.5830 C.ar  1 <1>  -0.1500 
  9 N        0.8490     2.3790     0.8190 N.4   1 <1>  -0.8530 
 10 C       -0.0620     4.4830    -0.0310 C.3   1 <1>  -0.1600 
 11 CL      -5.2480    -0.0020    -0.2080 Cl    1 <1>  -0.1770 
 12 C        1.2500     5.2160    -0.3440 C.3   1 <1>   0.1200 
 13 O        2.2730     4.6710     0.4190 O.3   1 <1>  -0.6800 
 14 H       -2.8030    -0.4770    -1.5810 H     1 <1>   0.1500 
 15 H       -2.3380     3.5670     1.2160 H     1 <1>   0.1500 
 16 H        0.4730     2.7830    -1.1880 H     1 <1>   0.0800 
 17 H       -4.4400     2.3230     1.1770 H     1 <1>   0.1500 
 18 H        0.3490     2.3550     1.7090 H     1 <1>   0.4500 
 19 H        1.6680     3.0080     0.9150 H     1 <1>   0.4500 
 20 H        1.1600     1.4400     0.5620 H     1 <1>   0.4500 
 21 H       -0.3730     4.7280     0.9690 H     1 <1>   0.0800 
 22 H       -0.8120     4.8710    -0.6980 H     1 <1>   0.0800 
 23 H        1.1640     6.2630    -0.0990 H     1 <1>   0.0800 
 24 H        1.5150     5.1190    -1.3850 H     1 <1>   0.0800 
 25 H        3.0760     5.2410     0.3570 H     1 <1>   0.4000 
@<TRIPOS>BOND
  1   1   2  1   
  2   2   3  ar  
  3   2   4  ar  
  4   3   5  ar  
  5   3   6  1   
  6   4   7  ar  
  7   4  14  1   
  8   5   8  ar  
  9   5  15  1   
 10   6   9  1   
 11   6  10  1   
 12   6  16  1   
 13   7   8  ar  
 14   7  11  1   
 15   8  17  1   
 16   9  18  1   
 17   9  19  1   
 18   9  20  1   
 19  10  12  1   
 20  10  21  1   
 21  10  22  1   
 22  12  13  1   
 23  12  23  1   
 24  12  24  1   
 25  13  25  1   
@<TRIPOS>SUBSTRUCTURE
  1 ****   3 GROUP 4 **** **** 0

# MOE 2024.06 (io_trps.svl 2023.06)
