@<TRIPOS>MOLECULE
NONAME
39 40 1 0 0 
SMALL
USER_CHARGES


@<TRIPOS>ATOM
  1 O       -0.1280    -0.2880    -1.6190 O.2   1 <1>  -0.5700 
  2 C       -0.1580    -1.2790    -0.9320 C.2   1 <1>   0.5690 
  3 N        0.9030    -1.6840    -0.1960 N.am  1 <1>  -0.7300 
  4 C       -1.4250    -2.1000    -0.8790 C.3   1 <1>  -0.0990 
  5 C        2.2250    -1.0370    -0.1540 C.3   1 <1>   0.2200 
  6 C       -2.3600    -1.5910     0.2220 C.3   1 <1>  -0.0160 
  7 C        3.2990    -2.1110    -0.4590 C.3   1 <1>   0.2000 
  8 C        2.3540    -0.3800     1.2230 C.3   1 <1>  -0.2400 
  9 C       -3.6120    -2.4490     0.2940 C.ar  1 <1>  -0.1440 
 10 O        3.2040    -3.1830     0.4350 O.3   1 <1>  -0.5600 
 11 C        4.7570    -1.6730    -0.3860 C.3   1 <1>  -0.1600 
 12 C       -3.6700    -3.5350     1.1540 C.ar  1 <1>  -0.1500 
 13 C       -4.7060    -2.1550    -0.5050 C.ar  1 <1>  -0.1500 
 14 C        4.4240    -3.8490     0.5520 C.3   1 <1>   0.1200 
 15 C        5.4690    -2.9930    -0.1610 C.3   1 <1>  -0.1600 
 16 C       -4.8090    -4.3180     1.2150 C.ar  1 <1>  -0.1500 
 17 C       -5.8460    -2.9370    -0.4450 C.ar  1 <1>  -0.1500 
 18 C       -5.8980    -4.0190     0.4150 C.ar  1 <1>  -0.1500 
 19 H        0.8850    -2.5670     0.3200 H     1 <1>   0.3700 
 20 H       -1.1790    -3.1310    -0.7040 H     1 <1>   0.0800 
 21 H       -1.9200    -2.0330    -1.8310 H     1 <1>   0.0800 
 22 H        2.2720    -0.2730    -0.9120 H     1 <1>   0.0800 
 23 H       -2.6290    -0.5680     0.0200 H     1 <1>   0.0800 
 24 H       -1.8500    -1.6110     1.1700 H     1 <1>   0.0800 
 25 H        3.1110    -2.5080    -1.4420 H     1 <1>   0.0800 
 26 H        2.3910    -1.1280     1.9950 H     1 <1>   0.0800 
 27 H        1.5150     0.2700     1.3970 H     1 <1>   0.0800 
 28 H        3.2460     0.2150     1.2760 H     1 <1>   0.0800 
 29 H        4.9230    -1.0270     0.4560 H     1 <1>   0.0800 
 30 H        5.0740    -1.1780    -1.2860 H     1 <1>   0.0800 
 31 H       -2.8290    -3.7760     1.7800 H     1 <1>   0.1500 
 32 H       -4.6720    -1.3150    -1.1780 H     1 <1>   0.1500 
 33 H        4.3320    -4.8230     0.1040 H     1 <1>   0.0800 
 34 H        4.6450    -3.9460     1.6010 H     1 <1>   0.0800 
 35 H        6.3640    -2.8830     0.4250 H     1 <1>   0.0800 
 36 H        5.7190    -3.4510    -1.1020 H     1 <1>   0.0800 
 37 H       -4.8480    -5.1590     1.8840 H     1 <1>   0.1500 
 38 H       -6.6910    -2.7030    -1.0680 H     1 <1>   0.1500 
 39 H       -6.7850    -4.6280     0.4620 H     1 <1>   0.1500 
@<TRIPOS>BOND
  1   1   2  2   
  2   2   3  am  
  3   2   4  1   
  4   3   5  1   
  5   3  19  1   
  6   4   6  1   
  7   4  20  1   
  8   4  21  1   
  9   5   7  1   
 10   5   8  1   
 11   5  22  1   
 12   6   9  1   
 13   6  23  1   
 14   6  24  1   
 15   7  10  1   
 16   7  11  1   
 17   7  25  1   
 18   8  26  1   
 19   8  27  1   
 20   8  28  1   
 21   9  12  ar  
 22   9  13  ar  
 23  10  14  1   
 24  11  15  1   
 25  11  29  1   
 26  11  30  1   
 27  12  16  ar  
 28  12  31  1   
 29  13  17  ar  
 30  13  32  1   
 31  14  15  1   
 32  14  33  1   
 33  14  34  1   
 34  15  35  1   
 35  15  36  1   
 36  16  18  ar  
 37  16  37  1   
 38  17  18  ar  
 39  17  38  1   
 40  18  39  1   
@<TRIPOS>SUBSTRUCTURE
  1 ****   2 GROUP 4 **** **** 0

# MOE 2024.06 (io_trps.svl 2023.06)
