@<TRIPOS>MOLECULE
NONAME
33 34 1 0 0 
SMALL
USER_CHARGES


@<TRIPOS>ATOM
  1 O        0.7120     2.4990     1.8170 O.2   1 <1>  -0.5700 
  2 C        0.9260     2.0520     0.7050 C.2   1 <1>   0.5440 
  3 N       -0.1520     1.8470    -0.1150 N.am  1 <1>  -0.7300 
  4 C        2.2780     1.7490     0.2430 C.ar  1 <1>   0.3960 
  5 C       -1.5510     2.0910     0.2500 C.3   1 <1>   0.2200 
  6 N        2.4560     1.2870    -1.0080 N.ar  1 <1>  -0.6200 
  7 C        3.3630     1.9440     1.1080 C.ar  1 <1>   0.1600 
  8 C       -2.4470     1.0750    -0.4510 C.3   1 <1>  -0.1600 
  9 C       -1.9260     3.5160    -0.1460 C.3   1 <1>  -0.1600 
 10 C        3.7230     1.0540    -1.2990 C.ar  1 <1>   0.1600 
 11 N        4.6320     1.7100     0.8130 N.ar  1 <1>  -0.6200 
 12 C       -3.9140     1.3710    -0.1520 C.3   1 <1>   0.3430 
 13 C       -3.3970     3.7790     0.1530 C.3   1 <1>   0.3430 
 14 C        4.7780     1.2580    -0.4190 C.ar  1 <1>   0.1600 
 15 N       -4.2450     2.7720    -0.5560 N.4   1 <1>  -0.9590 
 16 C       -5.6950     3.0580    -0.3390 C.3   1 <1>   0.2630 
 17 H        0.0540     1.4990    -1.0580 H     1 <1>   0.3700 
 18 H       -1.6580     1.9800     1.3180 H     1 <1>   0.0800 
 19 H        3.1580     2.3150     2.0970 H     1 <1>   0.1500 
 20 H       -2.2110     0.0880    -0.0930 H     1 <1>   0.0800 
 21 H       -2.2860     1.0960    -1.5140 H     1 <1>   0.0800 
 22 H       -1.7310     3.6840    -1.1910 H     1 <1>   0.0800 
 23 H       -1.3280     4.2070     0.4220 H     1 <1>   0.0800 
 24 H        3.9440     0.6830    -2.2850 H     1 <1>   0.1500 
 25 H       -4.0970     1.2450     0.9040 H     1 <1>   0.0800 
 26 H       -4.5380     0.6740    -0.6880 H     1 <1>   0.0800 
 27 H       -3.6560     4.7750    -0.1690 H     1 <1>   0.0800 
 28 H       -3.5630     3.7130     1.2160 H     1 <1>   0.0800 
 29 H        5.7790     1.0390    -0.7480 H     1 <1>   0.1500 
 30 H       -4.0450     2.8580    -1.5640 H     1 <1>   0.4500 
 31 H       -5.9410     2.9780     0.7080 H     1 <1>   0.0800 
 32 H       -6.3020     2.3570    -0.8890 H     1 <1>   0.0800 
 33 H       -5.9350     4.0540    -0.6740 H     1 <1>   0.0800 
@<TRIPOS>BOND
  1   1   2  2   
  2   2   3  am  
  3   2   4  1   
  4   3   5  1   
  5   3  17  1   
  6   4   6  ar  
  7   4   7  ar  
  8   5   8  1   
  9   5   9  1   
 10   5  18  1   
 11   6  10  ar  
 12   7  11  ar  
 13   7  19  1   
 14   8  12  1   
 15   8  20  1   
 16   8  21  1   
 17   9  13  1   
 18   9  22  1   
 19   9  23  1   
 20  10  14  ar  
 21  10  24  1   
 22  11  14  ar  
 23  12  15  1   
 24  12  25  1   
 25  12  26  1   
 26  13  15  1   
 27  13  27  1   
 28  13  28  1   
 29  14  29  1   
 30  15  16  1   
 31  15  30  1   
 32  16  31  1   
 33  16  32  1   
 34  16  33  1   
@<TRIPOS>SUBSTRUCTURE
  1 ****   3 GROUP 4 **** **** 0

# MOE 2024.06 (io_trps.svl 2023.06)
