@<TRIPOS>MOLECULE
Structure416
38 40 1 0 0 
SMALL
USER_CHARGES


@<TRIPOS>ATOM
  1 CL      -0.6210     0.1310    -1.4010 Cl    1 <1>  -0.1770 
  2 C       -1.9850     0.8180    -0.5710 C.ar  1 <1>   0.7970 
  3 N       -3.1060     0.1350    -0.6730 N.ar  1 <1>  -0.6200 
  4 N       -1.7420     1.9500     0.0700 N.ar  1 <1>  -0.6200 
  5 C       -4.1370     0.6620    -0.0460 C.ar  1 <1>   0.4100 
  6 C       -2.7870     2.4510     0.6970 C.ar  1 <1>   0.1600 
  7 N       -5.3440     0.0060    -0.1220 N.pl3 1 <1>  -0.8380 
  8 C       -4.0100     1.8390     0.6680 C.ar  1 <1>  -0.1500 
  9 C       -5.3900    -1.4690    -0.3120 C.3   1 <1>   0.2090 
 10 C       -6.5550     0.7160    -0.6040 C.3   1 <1>   0.2090 
 11 C       -6.6120    -2.0350     0.4160 C.3   1 <1>  -0.1600 
 12 C       -7.7850     0.1770     0.1300 C.3   1 <1>  -0.1600 
 13 C       -7.9170    -1.3500    -0.0290 C.3   1 <1>  -0.0800 
 14 C       -9.1160    -1.9070     0.7600 C.3   1 <1>  -0.0170 
 15 C      -10.4370    -1.3080     0.2970 C.ar  1 <1>  -0.1440 
 16 C      -11.0020    -1.7110    -0.9030 C.ar  1 <1>  -0.1500 
 17 C      -11.0870    -0.3550     1.0670 C.ar  1 <1>  -0.1500 
 18 C      -12.2000    -1.1650    -1.3310 C.ar  1 <1>  -0.1500 
 19 C      -12.2850     0.1920     0.6410 C.ar  1 <1>  -0.1500 
 20 C      -12.8410    -0.2120    -0.5600 C.ar  1 <1>  -0.1500 
 21 H       -2.6510     3.3690     1.2430 H     1 <1>   0.1500 
 22 H       -4.8550     2.2450     1.1880 H     1 <1>   0.1500 
 23 H       -4.4950    -1.9200     0.0840 H     1 <1>   0.0800 
 24 H       -5.4440    -1.6890    -1.3640 H     1 <1>   0.0800 
 25 H       -6.6610     0.5490    -1.6630 H     1 <1>   0.0800 
 26 H       -6.4650     1.7750    -0.4400 H     1 <1>   0.0800 
 27 H       -6.4670    -1.8990     1.4740 H     1 <1>   0.0800 
 28 H       -6.6700    -3.0920     0.2250 H     1 <1>   0.0800 
 29 H       -8.6580     0.6650    -0.2660 H     1 <1>   0.0800 
 30 H       -7.7060     0.4350     1.1710 H     1 <1>   0.0800 
 31 H       -8.0700    -1.5670    -1.0720 H     1 <1>   0.0800 
 32 H       -8.9780    -1.7150     1.8100 H     1 <1>   0.0800 
 33 H       -9.1620    -2.9750     0.6350 H     1 <1>   0.0800 
 34 H      -10.5110    -2.4510    -1.5090 H     1 <1>   0.1500 
 35 H      -10.6630    -0.0330     2.0020 H     1 <1>   0.1500 
 36 H      -12.6320    -1.4820    -2.2640 H     1 <1>   0.1500 
 37 H      -12.7830     0.9310     1.2430 H     1 <1>   0.1500 
 38 H      -13.7720     0.2120    -0.8920 H     1 <1>   0.1500 
@<TRIPOS>BOND
  1   1   2  1   
  2   2   3  ar  
  3   2   4  ar  
  4   3   5  ar  
  5   4   6  ar  
  6   5   7  1   
  7   5   8  ar  
  8   6   8  ar  
  9   6  21  1   
 10   7   9  1   
 11   7  10  1   
 12   8  22  1   
 13   9  11  1   
 14   9  23  1   
 15   9  24  1   
 16  10  12  1   
 17  10  25  1   
 18  10  26  1   
 19  11  13  1   
 20  11  27  1   
 21  11  28  1   
 22  12  13  1   
 23  12  29  1   
 24  12  30  1   
 25  13  14  1   
 26  13  31  1   
 27  14  15  1   
 28  14  32  1   
 29  14  33  1   
 30  15  16  ar  
 31  15  17  ar  
 32  16  18  ar  
 33  16  34  1   
 34  17  19  ar  
 35  17  35  1   
 36  18  20  ar  
 37  18  36  1   
 38  19  20  ar  
 39  19  37  1   
 40  20  38  1   
@<TRIPOS>SUBSTRUCTURE
  1 ****  12 GROUP 4 **** **** 0

# MOE 2024.06 (io_trps.svl 2023.06)
