@<TRIPOS>MOLECULE
NONAME
33 35 1 0 0 
SMALL
USER_CHARGES


@<TRIPOS>ATOM
  1 S       -0.8010     0.2330     2.3580 S.3   1 <1>  -0.0800 
  2 C       -1.0420     1.3780     1.0290 C.2   1 <1>   0.0400 
  3 C        0.9440     0.3070     2.2110 C.2   1 <1>  -0.1100 
  4 C       -2.3560     1.7970     0.6110 C.2   1 <1>   0.1860 
  5 C        0.1780     1.7490     0.5660 C.2   1 <1>  -0.1500 
  6 C        1.2920     1.1490     1.2220 C.2   1 <1>  -0.1500 
  7 N       -2.5510     2.8670    -0.1160 N.2   1 <1>  -0.3380 
  8 N       -3.5420     1.1940     0.8720 N.pl3 1 <1>   0.0480 
  9 N       -3.8560     2.9970    -0.3320 N.2   1 <1>  -0.3380 
 10 C       -4.4070     2.0010     0.2610 C.2   1 <1>   0.2420 
 11 C       -3.8470    -0.0680     1.5840 C.3   1 <1>   0.0160 
 12 S       -6.1810     1.7290     0.2560 S.3   1 <1>  -0.2860 
 13 C       -6.8090     3.1420    -0.7820 C.3   1 <1>   0.1310 
 14 C       -8.3260     3.1390    -0.8860 C.2   1 <1>   0.5690 
 15 O       -8.8390     3.8090    -1.7510 O.2   1 <1>  -0.5700 
 16 N       -9.0600     2.4020    -0.0090 N.am  1 <1>  -0.5790 
 17 C      -10.5250     2.3020     0.0230 C.3   1 <1>   0.0490 
 18 C      -11.1880     2.1360     1.3500 C.3   1 <1>  -0.2000 
 19 C      -11.1300     0.9870     0.3880 C.3   1 <1>  -0.2000 
 20 H        1.5290    -0.2920     2.8870 H     1 <1>   0.1500 
 21 H        0.3240     2.4500    -0.2390 H     1 <1>   0.1500 
 22 H        2.3010     1.3780     0.9240 H     1 <1>   0.1500 
 23 H       -3.7100     0.0770     2.6400 H     1 <1>   0.0800 
 24 H       -3.1900    -0.8430     1.2340 H     1 <1>   0.0800 
 25 H       -4.8620    -0.3670     1.3980 H     1 <1>   0.0800 
 26 H       -6.3680     3.0400    -1.7570 H     1 <1>   0.0800 
 27 H       -6.4690     4.0520    -0.3250 H     1 <1>   0.0800 
 28 H       -8.5670     1.8320     0.6800 H     1 <1>   0.3700 
 29 H      -11.0110     2.9060    -0.7280 H     1 <1>   0.1000 
 30 H      -12.1370     2.6150     1.5130 H     1 <1>   0.1000 
 31 H      -10.5790     2.1110     2.2360 H     1 <1>   0.1000 
 32 H      -10.4800     0.1570     0.5990 H     1 <1>   0.1000 
 33 H      -12.0400     0.6870    -0.1010 H     1 <1>   0.1000 
@<TRIPOS>BOND
  1   1   2  1   
  2   1   3  1   
  3   2   4  1   
  4   2   5  2   
  5   3   6  2   
  6   3  20  1   
  7   4   7  2   
  8   4   8  1   
  9   5   6  1   
 10   5  21  1   
 11   6  22  1   
 12   7   9  1   
 13   8  10  1   
 14   8  11  1   
 15   9  10  2   
 16  10  12  1   
 17  11  23  1   
 18  11  24  1   
 19  11  25  1   
 20  12  13  1   
 21  13  14  1   
 22  13  26  1   
 23  13  27  1   
 24  14  15  2   
 25  14  16  am  
 26  16  17  1   
 27  16  28  1   
 28  17  18  1   
 29  17  19  1   
 30  17  29  1   
 31  18  19  1   
 32  18  30  1   
 33  18  31  1   
 34  19  32  1   
 35  19  33  1   
@<TRIPOS>SUBSTRUCTURE
  1 ****  10 GROUP 4 **** **** 0

# MOE 2024.06 (io_trps.svl 2023.06)
