@<TRIPOS>MOLECULE
NONAME
54 56 1 0 0 
SMALL
USER_CHARGES


@<TRIPOS>ATOM
  1 O       -4.9530     2.8280    -0.6320 O.2   1 <1>  -0.5740 
  2 C       -6.0790     3.2580    -0.7200 C.2   1 <1>   0.4180 
  3 C       -6.5300     4.4540    -0.0420 C.ar  1 <1>   0.0790 
  4 C       -7.0630     2.4310    -1.5520 C.3   1 <1>   0.4100 
  5 C       -7.5030     5.3130    -0.5670 C.ar  1 <1>  -0.1570 
  6 C       -5.9880     4.7900     1.2000 C.ar  1 <1>  -0.1570 
  7 N       -7.4730     1.1470    -0.8860 N.pl3 1 <1>  -0.7670 
  8 C       -7.9310     6.4270     0.1310 C.ar  1 <1>  -0.1570 
  9 C       -6.4120     5.9040     1.9000 C.ar  1 <1>  -0.1570 
 10 C       -6.6960     0.1340    -0.5000 C.cat 1 <1>   1.0690 
 11 C       -8.7870     0.7940    -0.6100 C.ar  1 <1>   0.3030 
 12 C       -7.3900     6.7220     1.3680 C.ar  1 <1>  -0.1570 
 13 N       -5.3860     0.1420    -0.5580 N.pl3 1 <1>  -0.8390 
 14 N       -7.4250    -0.8900    -0.0390 N.pl3 1 <1>  -0.7670 
 15 C       -8.7580    -0.4820    -0.0720 C.ar  1 <1>   0.3030 
 16 C       -9.9950     1.4670    -0.7710 C.ar  1 <1>  -0.1160 
 17 C       -6.9730    -2.1990     0.5110 C.3   1 <1>   0.3480 
 18 C       -9.9340    -1.1120     0.3260 C.ar  1 <1>  -0.1160 
 19 C      -11.1620     0.8380    -0.3840 C.ar  1 <1>  -0.1570 
 20 C       -7.3150    -3.3660    -0.4520 C.3   1 <1>   0.3370 
 21 C      -11.1320    -0.4440     0.1630 C.ar  1 <1>  -0.1570 
 22 N       -6.8490    -4.7350    -0.0170 N.4   1 <1>  -0.9610 
 23 C       -7.0980    -5.7130    -1.1130 C.3   1 <1>   0.3370 
 24 C       -7.4810    -5.2110     1.2480 C.3   1 <1>   0.3370 
 25 C       -6.1810    -6.9160    -0.9320 C.3   1 <1>  -0.2460 
 26 C       -6.4750    -5.0590     2.3800 C.3   1 <1>  -0.2460 
 27 H       -6.5910     2.1970    -2.4910 H     1 <1>   0.0730 
 28 H       -7.9380     3.0090    -1.7760 H     1 <1>   0.0730 
 29 H       -7.9340     5.1390    -1.5350 H     1 <1>   0.1430 
 30 H       -5.2190     4.1700     1.6280 H     1 <1>   0.1430 
 31 H       -8.6840     7.0740    -0.2860 H     1 <1>   0.1430 
 32 H       -5.9810     6.1380     2.8590 H     1 <1>   0.1430 
 33 H       -7.7230     7.5900     1.9130 H     1 <1>   0.1430 
 34 H       -4.7690    -0.5810    -0.2100 H     1 <1>   0.4450 
 35 H       -4.9030     1.0360    -0.7400 H     1 <1>   0.4450 
 36 H      -10.0300     2.4580    -1.1850 H     1 <1>   0.1430 
 37 H       -7.4610    -2.3550     1.4580 H     1 <1>   0.0730 
 38 H       -5.9110    -2.1750     0.6790 H     1 <1>   0.0730 
 39 H       -9.9220    -2.0940     0.7580 H     1 <1>   0.1430 
 40 H      -12.1110     1.3390    -0.4990 H     1 <1>   0.1430 
 41 H       -6.8710    -3.1440    -1.4080 H     1 <1>   0.0730 
 42 H       -8.3840    -3.3940    -0.5880 H     1 <1>   0.0730 
 43 H      -12.0600    -0.9080     0.4620 H     1 <1>   0.1430 
 44 H       -5.8290    -4.7480     0.1290 H     1 <1>   0.4450 
 45 H       -6.8840    -5.2590    -2.0680 H     1 <1>   0.0730 
 46 H       -8.1310    -6.0270    -1.1120 H     1 <1>   0.0730 
 47 H       -7.7480    -6.2520     1.1610 H     1 <1>   0.0730 
 48 H       -8.3790    -4.6530     1.4590 H     1 <1>   0.0730 
 49 H       -5.1480    -6.6180    -0.9450 H     1 <1>   0.0730 
 50 H       -6.3350    -7.6000    -1.7480 H     1 <1>   0.0730 
 51 H       -6.3930    -7.4460    -0.0210 H     1 <1>   0.0730 
 52 H       -5.5990    -5.6540     2.1910 H     1 <1>   0.0730 
 53 H       -6.9200    -5.4180     3.2920 H     1 <1>   0.0730 
 54 H       -6.1910    -4.0360     2.5360 H     1 <1>   0.0730 
@<TRIPOS>BOND
  1   1   2  2   
  2   2   3  1   
  3   2   4  1   
  4   3   5  ar  
  5   3   6  ar  
  6   4   7  1   
  7   4  27  1   
  8   4  28  1   
  9   5   8  ar  
 10   5  29  1   
 11   6   9  ar  
 12   6  30  1   
 13   7  10  ar  
 14   7  11  1   
 15   8  12  ar  
 16   8  31  1   
 17   9  12  ar  
 18   9  32  1   
 19  10  13  ar  
 20  10  14  ar  
 21  11  15  ar  
 22  11  16  ar  
 23  12  33  1   
 24  13  34  1   
 25  13  35  1   
 26  14  15  1   
 27  14  17  1   
 28  15  18  ar  
 29  16  19  ar  
 30  16  36  1   
 31  17  20  1   
 32  17  37  1   
 33  17  38  1   
 34  18  21  ar  
 35  18  39  1   
 36  19  21  ar  
 37  19  40  1   
 38  20  22  1   
 39  20  41  1   
 40  20  42  1   
 41  21  43  1   
 42  22  23  1   
 43  22  24  1   
 44  22  44  1   
 45  23  25  1   
 46  23  45  1   
 47  23  46  1   
 48  24  26  1   
 49  24  47  1   
 50  24  48  1   
 51  25  49  1   
 52  25  50  1   
 53  25  51  1   
 54  26  52  1   
 55  26  53  1   
 56  26  54  1   
@<TRIPOS>SUBSTRUCTURE
  1 ****  10 GROUP 4 **** **** 0

# MOE 2024.06 (io_trps.svl 2023.06)
