@<TRIPOS>MOLECULE
NONAME
48 48 1 0 0 
SMALL
USER_CHARGES


@<TRIPOS>ATOM
  1 N        0.0140     0.1500    -0.8970 N.4   1 <1>  -0.9590 
  2 C       -1.1700     1.0030    -0.5830 C.3   1 <1>   0.3430 
  3 C        0.1180    -1.0610    -0.0320 C.3   1 <1>   0.3430 
  4 C        1.2730     0.9620    -0.7960 C.3   1 <1>   0.2630 
  5 C       -2.4580     0.1820    -0.6960 C.3   1 <1>  -0.1600 
  6 C       -1.1580    -1.8970    -0.1490 C.3   1 <1>  -0.1600 
  7 C       -2.3980    -1.0670     0.1900 C.3   1 <1>   0.4230 
  8 N       -3.6060    -1.9120    -0.0080 N.4   1 <1>  -0.9060 
  9 C       -4.8810    -1.3580     0.5610 C.3   1 <1>   0.3430 
 10 C       -6.0960    -2.3140     0.3830 C.3   1 <1>   0.0000 
 11 C       -7.3150    -1.5930     1.0580 C.3   1 <1>   0.3430 
 12 C       -5.7820    -3.6530     1.0940 C.3   1 <1>  -0.2400 
 13 C       -6.3170    -2.5880    -1.1220 C.3   1 <1>  -0.2400 
 14 N       -8.7330    -2.0480     0.7800 N.4   1 <1>  -0.9590 
 15 C       -9.0090    -3.5100     0.9550 C.3   1 <1>   0.2630 
 16 C       -9.2900    -1.5580    -0.5250 C.3   1 <1>   0.2630 
 17 H       -0.0520    -0.1550    -1.8830 H     1 <1>   0.4500 
 18 H       -1.2120     1.8380    -1.2660 H     1 <1>   0.0800 
 19 H       -1.0750     1.3980     0.4170 H     1 <1>   0.0800 
 20 H        0.2670    -0.7620     0.9940 H     1 <1>   0.0800 
 21 H        0.9690    -1.6540    -0.3330 H     1 <1>   0.0800 
 22 H        1.4140     1.3190     0.2120 H     1 <1>   0.0800 
 23 H        1.2260     1.8140    -1.4570 H     1 <1>   0.0800 
 24 H        2.1290     0.3670    -1.0710 H     1 <1>   0.0800 
 25 H       -2.6040    -0.0880    -1.7270 H     1 <1>   0.0800 
 26 H       -3.2750     0.8130    -0.3940 H     1 <1>   0.0800 
 27 H       -1.0750    -2.7250     0.5340 H     1 <1>   0.0800 
 28 H       -1.2210    -2.2920    -1.1490 H     1 <1>   0.0800 
 29 H       -2.3370    -0.7660     1.2260 H     1 <1>   0.0800 
 30 H       -3.4400    -2.8300     0.4280 H     1 <1>   0.4500 
 31 H       -3.7360    -2.1060    -1.0100 H     1 <1>   0.4500 
 32 H       -5.1050    -0.4190     0.0800 H     1 <1>   0.0800 
 33 H       -4.7420    -1.1640     1.6130 H     1 <1>   0.0800 
 34 H       -7.2630    -0.5490     0.7940 H     1 <1>   0.0800 
 35 H       -7.1600    -1.6410     2.1240 H     1 <1>   0.0800 
 36 H       -5.6310    -3.5050     2.1510 H     1 <1>   0.0800 
 37 H       -4.9020    -4.1240     0.6920 H     1 <1>   0.0800 
 38 H       -6.5730    -4.3670     0.9730 H     1 <1>   0.0800 
 39 H       -6.5270    -1.6770    -1.6570 H     1 <1>   0.0800 
 40 H       -7.1370    -3.2660    -1.2720 H     1 <1>   0.0800 
 41 H       -5.4590    -3.0530    -1.5740 H     1 <1>   0.0800 
 42 H       -9.3130    -1.5840     1.5020 H     1 <1>   0.4500 
 43 H       -8.5210    -4.0830     0.1830 H     1 <1>   0.0800 
 44 H      -10.0690    -3.6990     0.8960 H     1 <1>   0.0800 
 45 H       -8.6570    -3.8480     1.9160 H     1 <1>   0.0800 
 46 H       -8.8100    -2.0440    -1.3570 H     1 <1>   0.0800 
 47 H       -9.1530    -0.4920    -0.6180 H     1 <1>   0.0800 
 48 H      -10.3470    -1.7670    -0.5790 H     1 <1>   0.0800 
@<TRIPOS>BOND
  1   1   2  1   
  2   1   3  1   
  3   1   4  1   
  4   1  17  1   
  5   2   5  1   
  6   2  18  1   
  7   2  19  1   
  8   3   6  1   
  9   3  20  1   
 10   3  21  1   
 11   4  22  1   
 12   4  23  1   
 13   4  24  1   
 14   5   7  1   
 15   5  25  1   
 16   5  26  1   
 17   6   7  1   
 18   6  27  1   
 19   6  28  1   
 20   7   8  1   
 21   7  29  1   
 22   8   9  1   
 23   8  30  1   
 24   8  31  1   
 25   9  10  1   
 26   9  32  1   
 27   9  33  1   
 28  10  11  1   
 29  10  12  1   
 30  10  13  1   
 31  11  14  1   
 32  11  34  1   
 33  11  35  1   
 34  12  36  1   
 35  12  37  1   
 36  12  38  1   
 37  13  39  1   
 38  13  40  1   
 39  13  41  1   
 40  14  15  1   
 41  14  16  1   
 42  14  42  1   
 43  15  43  1   
 44  15  44  1   
 45  15  45  1   
 46  16  46  1   
 47  16  47  1   
 48  16  48  1   
@<TRIPOS>SUBSTRUCTURE
  1 ****   8 GROUP 4 **** **** 0

# MOE 2024.06 (io_trps.svl 2023.06)
