@<TRIPOS>MOLECULE
NONAME
46 48 1 0 0 
SMALL
USER_CHARGES


@<TRIPOS>ATOM
  1 O       -0.0920    -4.4510     0.9870 O.2   1 <1>  -0.5700 
  2 C       -0.2640    -3.4930     0.2760 C.2   1 <1>   0.5690 
  3 N       -1.4680    -3.1340    -0.2570 N.am  1 <1>  -0.5470 
  4 C        0.9380    -2.6260    -0.0330 C.3   1 <1>  -0.0990 
  5 C       -2.7340    -3.7360    -0.1620 C.ar  1 <1>   0.1170 
  6 C        2.2140    -3.3810     0.3480 C.3   1 <1>   0.3430 
  7 C       -3.8510    -2.9720    -0.4720 C.ar  1 <1>  -0.1500 
  8 C       -2.9270    -5.0630     0.2130 C.ar  1 <1>  -0.1500 
  9 N        3.4440    -2.5930     0.0470 N.4   1 <1>  -0.9590 
 10 C       -5.1280    -3.5020    -0.4090 C.ar  1 <1>   0.0820 
 11 C       -4.1990    -5.6040     0.2800 C.ar  1 <1>  -0.1500 
 12 C        4.6450    -3.4760     0.0890 C.3   1 <1>   0.4860 
 13 C        3.6580    -1.4400     0.9760 C.3   1 <1>   0.3430 
 14 O       -6.1480    -2.6680    -0.7320 O.3   1 <1>  -0.3620 
 15 C       -5.3030    -4.8290    -0.0290 C.ar  1 <1>  -0.1500 
 16 C        5.8820    -2.6840    -0.2960 C.ar  1 <1>  -0.1430 
 17 C        4.7630    -0.5260     0.4380 C.3   1 <1>  -0.0170 
 18 C       -7.4890    -3.1020    -0.6830 C.3   1 <1>   0.0400 
 19 C        5.9450    -1.3050    -0.1220 C.ar  1 <1>  -0.1430 
 20 C        6.9740    -3.3580    -0.8240 C.ar  1 <1>  -0.1500 
 21 C        7.0960    -0.6190    -0.4750 C.ar  1 <1>  -0.1500 
 22 C        8.1190    -2.6670    -1.1760 C.ar  1 <1>  -0.1500 
 23 C        8.1800    -1.2970    -1.0000 C.ar  1 <1>  -0.1500 
 24 H       -1.4860    -2.2590    -0.7800 H     1 <1>   0.3700 
 25 H        0.8470    -1.7200     0.5350 H     1 <1>   0.0800 
 26 H        0.9430    -2.4010    -1.0830 H     1 <1>   0.0800 
 27 H        2.2320    -4.3090    -0.2020 H     1 <1>   0.0800 
 28 H        2.1820    -3.6300     1.3980 H     1 <1>   0.0800 
 29 H       -3.7450    -1.9460    -0.7650 H     1 <1>   0.1500 
 30 H       -2.0890    -5.6900     0.4520 H     1 <1>   0.1500 
 31 H        3.4120    -2.2280    -0.9140 H     1 <1>   0.4500 
 32 H       -4.3270    -6.6310     0.5740 H     1 <1>   0.1500 
 33 H        4.5220    -4.2980    -0.5990 H     1 <1>   0.0800 
 34 H        4.7750    -3.8790     1.0800 H     1 <1>   0.0800 
 35 H        3.9460    -1.8110     1.9470 H     1 <1>   0.0800 
 36 H        2.7520    -0.8680     1.0890 H     1 <1>   0.0800 
 37 H       -6.2780    -5.2720     0.0310 H     1 <1>   0.1500 
 38 H        5.0980     0.1200     1.2310 H     1 <1>   0.0800 
 39 H        4.3590     0.0990    -0.3380 H     1 <1>   0.0800 
 40 H       -8.1170    -2.2770    -0.9700 H     1 <1>   0.0800 
 41 H       -7.7220    -3.4060     0.3220 H     1 <1>   0.0800 
 42 H       -7.6180    -3.9160    -1.3740 H     1 <1>   0.0800 
 43 H        6.9520    -4.4250    -0.9680 H     1 <1>   0.1500 
 44 H        7.1600     0.4480    -0.3470 H     1 <1>   0.1500 
 45 H        8.9660    -3.1920    -1.5850 H     1 <1>   0.1500 
 46 H        9.0730    -0.7600    -1.2730 H     1 <1>   0.1500 
@<TRIPOS>BOND
  1   1   2  2   
  2   2   3  am  
  3   2   4  1   
  4   3   5  1   
  5   3  24  1   
  6   4   6  1   
  7   4  25  1   
  8   4  26  1   
  9   5   7  ar  
 10   5   8  ar  
 11   6   9  1   
 12   6  27  1   
 13   6  28  1   
 14   7  10  ar  
 15   7  29  1   
 16   8  11  ar  
 17   8  30  1   
 18   9  12  1   
 19   9  13  1   
 20   9  31  1   
 21  10  14  1   
 22  10  15  ar  
 23  11  15  ar  
 24  11  32  1   
 25  12  16  1   
 26  12  33  1   
 27  12  34  1   
 28  13  17  1   
 29  13  35  1   
 30  13  36  1   
 31  14  18  1   
 32  15  37  1   
 33  16  19  ar  
 34  16  20  ar  
 35  17  19  1   
 36  17  38  1   
 37  17  39  1   
 38  18  40  1   
 39  18  41  1   
 40  18  42  1   
 41  19  21  ar  
 42  20  22  ar  
 43  20  43  1   
 44  21  23  ar  
 45  21  44  1   
 46  22  23  ar  
 47  22  45  1   
 48  23  46  1   
@<TRIPOS>SUBSTRUCTURE
  1 ****   4 GROUP 4 **** **** 0

# MOE 2024.06 (io_trps.svl 2023.06)
