@<TRIPOS>MOLECULE
NONAME
46 48 1 0 0 
SMALL
USER_CHARGES


@<TRIPOS>ATOM
  1 O        0.6250     0.2030     0.4500 O.2   1 <1>  -0.5700 
  2 C        0.3050     1.3290     0.1730 C.2   1 <1>   0.6590 
  3 O       -0.9540     1.7350     0.1660 O.3   1 <1>  -0.4300 
  4 C        1.3410     2.3770    -0.1970 C.3   1 <1>  -0.0190 
  5 C       -2.0130     0.8650     0.4950 C.3   1 <1>   0.1200 
  6 C        2.6750     1.6810    -0.5310 C.3   1 <1>   0.3430 
  7 C        1.5110     3.4390     0.9070 C.3   1 <1>  -0.1600 
  8 C       -3.3170     1.6510     0.3960 C.3   1 <1>  -0.2400 
  9 N        3.8760     2.5200    -0.1970 N.4   1 <1>  -0.9590 
 10 C        2.5660     4.4910     0.5080 C.3   1 <1>  -0.1600 
 11 C        3.6530     3.9730    -0.4440 C.3   1 <1>   0.3430 
 12 C        5.1040     2.0070    -0.8630 C.3   1 <1>   0.4860 
 13 C        6.3030     2.7300    -0.2810 C.ar  1 <1>  -0.1440 
 14 C        6.9770     3.6760    -1.0070 C.ar  1 <1>  -0.1500 
 15 C        6.7240     2.4320     1.0250 C.ar  1 <1>  -0.1500 
 16 C        8.0750     4.3760    -0.4680 C.ar  1 <1>   0.0000 
 17 C        7.7870     3.0960     1.5710 C.ar  1 <1>  -0.1500 
 18 C        8.4850     4.0840     0.8500 C.ar  1 <1>   0.0000 
 19 C        8.7780     5.3590    -1.1940 C.ar  1 <1>  -0.1500 
 20 C        9.5780     4.7900     1.3920 C.ar  1 <1>  -0.1500 
 21 C        9.8350     6.0280    -0.6420 C.ar  1 <1>  -0.1500 
 22 C       10.2390     5.7410     0.6660 C.ar  1 <1>  -0.1500 
 23 H        0.9860     2.8620    -1.0880 H     1 <1>   0.0800 
 24 H       -1.8590     0.5000     1.4970 H     1 <1>   0.0800 
 25 H       -2.0070     0.0380    -0.1950 H     1 <1>   0.0800 
 26 H        2.6760     1.4320    -1.5800 H     1 <1>   0.0800 
 27 H        2.7450     0.7550     0.0190 H     1 <1>   0.0800 
 28 H        1.8180     2.9510     1.8180 H     1 <1>   0.0800 
 29 H        0.5700     3.9260     1.1060 H     1 <1>   0.0800 
 30 H       -3.3080     2.4770     1.0840 H     1 <1>   0.0800 
 31 H       -4.1440     1.0100     0.6430 H     1 <1>   0.0800 
 32 H       -3.4570     2.0160    -0.6060 H     1 <1>   0.0800 
 33 H        4.0460     2.4390     0.8130 H     1 <1>   0.4500 
 34 H        3.0310     4.8820     1.3980 H     1 <1>   0.0800 
 35 H        2.0780     5.3220     0.0280 H     1 <1>   0.0800 
 36 H        3.3380     4.1190    -1.4650 H     1 <1>   0.0800 
 37 H        4.5610     4.5330    -0.2860 H     1 <1>   0.0800 
 38 H        5.0510     2.1780    -1.9260 H     1 <1>   0.0800 
 39 H        5.2100     0.9480    -0.6900 H     1 <1>   0.0800 
 40 H        6.6890     3.9180    -2.0150 H     1 <1>   0.1500 
 41 H        6.2180     1.6770     1.6020 H     1 <1>   0.1500 
 42 H        8.1170     2.8730     2.5710 H     1 <1>   0.1500 
 43 H        8.4710     5.5790    -2.2010 H     1 <1>   0.1500 
 44 H        9.8870     4.5650     2.3970 H     1 <1>   0.1500 
 45 H       10.3690     6.7780    -1.2000 H     1 <1>   0.1500 
 46 H       11.0730     6.2770     1.0850 H     1 <1>   0.1500 
@<TRIPOS>BOND
  1   1   2  2   
  2   2   3  1   
  3   2   4  1   
  4   3   5  1   
  5   4   6  1   
  6   4   7  1   
  7   4  23  1   
  8   5   8  1   
  9   5  24  1   
 10   5  25  1   
 11   6   9  1   
 12   6  26  1   
 13   6  27  1   
 14   7  10  1   
 15   7  28  1   
 16   7  29  1   
 17   8  30  1   
 18   8  31  1   
 19   8  32  1   
 20   9  11  1   
 21   9  12  1   
 22   9  33  1   
 23  10  11  1   
 24  10  34  1   
 25  10  35  1   
 26  11  36  1   
 27  11  37  1   
 28  12  13  1   
 29  12  38  1   
 30  12  39  1   
 31  13  14  ar  
 32  13  15  ar  
 33  14  16  ar  
 34  14  40  1   
 35  15  17  ar  
 36  15  41  1   
 37  16  18  ar  
 38  16  19  ar  
 39  17  18  ar  
 40  17  42  1   
 41  18  20  ar  
 42  19  21  ar  
 43  19  43  1   
 44  20  22  ar  
 45  20  44  1   
 46  21  22  ar  
 47  21  45  1   
 48  22  46  1   
@<TRIPOS>SUBSTRUCTURE
  1 ****   9 GROUP 4 **** **** 0

# MOE 2024.06 (io_trps.svl 2023.06)
