@<TRIPOS>MOLECULE
NONAME
43 45 1 0 0 
SMALL
USER_CHARGES


@<TRIPOS>ATOM
  1 N       -0.0970    -0.3140    -0.4120 N.1   1 <1>  -0.5570 
  2 C       -0.1550    -1.4460    -0.2980 C.1   1 <1>   0.4840 
  3 C       -0.1350    -2.8700    -0.1630 C.ar  1 <1>   0.0730 
  4 C        1.1040    -3.5220    -0.1740 C.ar  1 <1>   0.4100 
  5 C       -1.2880    -3.6290    -0.0220 C.ar  1 <1>  -0.1440 
  6 N        1.2540    -4.8250    -0.0420 N.ar  1 <1>  -0.6200 
  7 N        2.3050    -2.8440    -0.3030 N.pl3 1 <1>  -0.8690 
  8 C       -1.1320    -5.0000     0.1190 C.ar  1 <1>  -0.1430 
  9 C       -2.6690    -2.9630    -0.0080 C.3   1 <1>  -0.0170 
 10 C        0.1520    -5.5540     0.1000 C.ar  1 <1>   0.3100 
 11 C        3.3370    -3.2810    -1.3000 C.3   1 <1>   0.2090 
 12 C       -2.3450    -5.9250     0.2790 C.3   1 <1>  -0.0160 
 13 C       -3.8130    -3.9540    -0.2320 C.3   1 <1>  -0.1600 
 14 C        0.3690    -6.9760     0.2320 C.ar  1 <1>   0.0000 
 15 C        4.5210    -3.9750    -0.5950 C.3   1 <1>   0.3430 
 16 C       -3.6280    -5.1820     0.6590 C.3   1 <1>  -0.1600 
 17 C        0.5760    -7.5560     1.4820 C.ar  1 <1>  -0.1500 
 18 C        0.3890    -7.8050    -0.8870 C.ar  1 <1>  -0.1500 
 19 N        4.0050    -4.9500     0.3970 N.4   1 <1>  -0.8530 
 20 C        0.7970    -8.9150     1.6100 C.ar  1 <1>  -0.1500 
 21 C        0.6100    -9.1650    -0.7640 C.ar  1 <1>  -0.1500 
 22 C        0.8150    -9.7210     0.4860 C.ar  1 <1>  -0.1500 
 23 H        2.2100    -1.8160    -0.2760 H     1 <1>   0.4000 
 24 H       -2.7310    -2.2030    -0.7680 H     1 <1>   0.0800 
 25 H       -2.8070    -2.4830     0.9470 H     1 <1>   0.0800 
 26 H        3.6950    -2.4260    -1.8490 H     1 <1>   0.0800 
 27 H        2.8940    -3.9600    -2.0110 H     1 <1>   0.0800 
 28 H       -2.1540    -6.6690     1.0320 H     1 <1>   0.0800 
 29 H       -2.5030    -6.4390    -0.6540 H     1 <1>   0.0800 
 30 H       -3.8310    -4.2580    -1.2650 H     1 <1>   0.0800 
 31 H       -4.7520    -3.4770    -0.0090 H     1 <1>   0.0800 
 32 H        5.0990    -3.2190    -0.0880 H     1 <1>   0.0800 
 33 H        5.1580    -4.4620    -1.3150 H     1 <1>   0.0800 
 34 H       -3.5750    -4.8750     1.6900 H     1 <1>   0.0800 
 35 H       -4.4710    -5.8430     0.5530 H     1 <1>   0.0800 
 36 H        0.5590    -6.9350     2.3610 H     1 <1>   0.1500 
 37 H        0.2270    -7.3790    -1.8620 H     1 <1>   0.1500 
 38 H        3.0510    -4.6020     0.6360 H     1 <1>   0.4500 
 39 H        4.5560    -5.0230     1.2550 H     1 <1>   0.4500 
 40 H        3.8270    -5.8750    -0.0060 H     1 <1>   0.4500 
 41 H        0.9520    -9.3500     2.5830 H     1 <1>   0.1500 
 42 H        0.6190    -9.7940    -1.6380 H     1 <1>   0.1500 
 43 H        0.9840   -10.7800     0.5840 H     1 <1>   0.1500 
@<TRIPOS>BOND
  1   1   2  3   
  2   2   3  1   
  3   3   4  ar  
  4   3   5  ar  
  5   4   6  ar  
  6   4   7  1   
  7   5   8  ar  
  8   5   9  1   
  9   6  10  ar  
 10   7  11  1   
 11   7  23  1   
 12   8  10  ar  
 13   8  12  1   
 14   9  13  1   
 15   9  24  1   
 16   9  25  1   
 17  10  14  1   
 18  11  15  1   
 19  11  26  1   
 20  11  27  1   
 21  12  16  1   
 22  12  28  1   
 23  12  29  1   
 24  13  16  1   
 25  13  30  1   
 26  13  31  1   
 27  14  17  ar  
 28  14  18  ar  
 29  15  19  1   
 30  15  32  1   
 31  15  33  1   
 32  16  34  1   
 33  16  35  1   
 34  17  20  ar  
 35  17  36  1   
 36  18  21  ar  
 37  18  37  1   
 38  19  38  1   
 39  19  39  1   
 40  19  40  1   
 41  20  22  ar  
 42  20  41  1   
 43  21  22  ar  
 44  21  42  1   
 45  22  43  1   
@<TRIPOS>SUBSTRUCTURE
  1 ****  10 GROUP 4 **** **** 0

# MOE 2024.06 (io_trps.svl 2023.06)
