@<TRIPOS>MOLECULE
NONAME
30 31 1 0 0 
SMALL
USER_CHARGES


@<TRIPOS>ATOM
  1 O        4.1110    -4.0350    -0.4240 O.2   1 <1>  -0.5700 
  2 C        2.9340    -3.8780    -0.1550 C.2   1 <1>   0.6900 
  3 N        2.0990    -4.9880    -0.0710 N.am  1 <1>  -0.4200 
  4 N        2.4260    -2.6090     0.0560 N.am  1 <1>  -0.4230 
  5 C        0.7510    -4.8310     0.1770 C.2   1 <1>   0.7150 
  6 C        2.6850    -6.3450    -0.2830 C.3   1 <1>   0.0600 
  7 C        1.0850    -2.4650     0.3920 C.2   1 <1>   0.2900 
  8 C        3.2770    -1.3900    -0.0060 C.3   1 <1>   0.0600 
  9 O       -0.0310    -5.7660     0.0890 O.2   1 <1>  -0.5700 
 10 C        0.2640    -3.5340     0.4700 C.2   1 <1>  -0.2370 
 11 N        0.4510    -1.3230     0.6770 N.2   1 <1>  -0.5650 
 12 N       -0.9480    -3.0430     0.8480 N.pl3 1 <1>   0.0480 
 13 C       -0.7530    -1.7100     0.9530 C.2   1 <1>   0.0360 
 14 C       -2.2040    -3.7610     1.1730 C.3   1 <1>   0.0960 
 15 C       -3.0100    -4.0950    -0.0940 C.3   1 <1>   0.3430 
 16 N       -2.6140    -5.3960    -0.7090 N.4   1 <1>  -0.8530 
 17 H        3.6090    -6.4310     0.2630 H     1 <1>   0.0800 
 18 H        2.8900    -6.4880    -1.3300 H     1 <1>   0.0800 
 19 H        2.0170    -7.1160     0.0570 H     1 <1>   0.0800 
 20 H        4.2580    -1.6200    -0.3810 H     1 <1>   0.0800 
 21 H        3.3680    -0.9680     0.9790 H     1 <1>   0.0800 
 22 H        2.8180    -0.6640    -0.6550 H     1 <1>   0.0800 
 23 H       -1.5340    -1.0290     1.2510 H     1 <1>   0.1500 
 24 H       -2.7950    -3.1120     1.7960 H     1 <1>   0.0800 
 25 H       -1.9800    -4.6470     1.7410 H     1 <1>   0.0800 
 26 H       -2.8820    -3.2940    -0.8060 H     1 <1>   0.0800 
 27 H       -4.0570    -4.1400     0.1620 H     1 <1>   0.0800 
 28 H       -1.5860    -5.5350    -0.6630 H     1 <1>   0.4500 
 29 H       -2.8910    -5.4640    -1.6950 H     1 <1>   0.4500 
 30 H       -3.0160    -6.1980    -0.2100 H     1 <1>   0.4500 
@<TRIPOS>BOND
  1   1   2  2   
  2   2   3  am  
  3   2   4  am  
  4   3   5  am  
  5   3   6  1   
  6   4   7  1   
  7   4   8  1   
  8   5   9  2   
  9   5  10  1   
 10   6  17  1   
 11   6  18  1   
 12   6  19  1   
 13   7  10  2   
 14   7  11  1   
 15   8  20  1   
 16   8  21  1   
 17   8  22  1   
 18  10  12  1   
 19  11  13  2   
 20  12  13  1   
 21  12  14  1   
 22  13  23  1   
 23  14  15  1   
 24  14  24  1   
 25  14  25  1   
 26  15  16  1   
 27  15  26  1   
 28  15  27  1   
 29  16  28  1   
 30  16  29  1   
 31  16  30  1   
@<TRIPOS>SUBSTRUCTURE
  1 ****  10 GROUP 4 **** **** 0

# MOE 2024.06 (io_trps.svl 2023.06)
