@<TRIPOS>MOLECULE
NONAME
40 42 1 0 0 
SMALL
USER_CHARGES


@<TRIPOS>ATOM
  1 F       -0.8380    -3.4290    -2.2850 F     1 <1>  -0.1900 
  2 C       -1.5030    -2.5960    -1.5200 C.ar  1 <1>   0.1900 
  3 C       -0.9150    -2.1650    -0.3310 C.ar  1 <1>   0.1170 
  4 C       -2.7550    -2.1930    -1.9400 C.ar  1 <1>  -0.1500 
  5 N        0.3710    -2.6290     0.0190 N.am  1 <1>  -0.5470 
  6 C       -1.6630    -1.2850     0.4490 C.ar  1 <1>  -0.1500 
  7 C       -3.4720    -1.3170    -1.1440 C.ar  1 <1>  -0.1500 
  8 C        1.2070    -2.3320     1.0580 C.2   1 <1>   0.5690 
  9 C       -2.9230    -0.8670     0.0470 C.ar  1 <1>  -0.1500 
 10 O        0.9580    -1.5330     1.9240 O.2   1 <1>  -0.5700 
 11 C        2.5410    -3.0340     1.1030 C.3   1 <1>  -0.0990 
 12 C        3.6050    -2.1470     0.4560 C.3   1 <1>   0.1400 
 13 N        4.8580    -2.9090     0.2620 N.am  1 <1>  -0.4200 
 14 C        6.0050    -2.7210     0.9770 C.2   1 <1>   0.5690 
 15 C        5.0280    -3.8680    -0.6940 C.2   1 <1>   0.5690 
 16 O        6.1310    -2.0420     1.9620 O.2   1 <1>  -0.5700 
 17 C        7.1290    -3.4810     0.3090 C.3   1 <1>  -0.0190 
 18 O        4.2300    -4.1700    -1.5440 O.2   1 <1>  -0.5700 
 19 C        6.3620    -4.5450    -0.4800 C.3   1 <1>  -0.0190 
 20 C        8.2560    -4.1430     1.1060 C.3   1 <1>  -0.0220 
 21 C        7.2240    -5.0450    -1.6420 C.3   1 <1>  -0.0220 
 22 C        9.0380    -5.0370     0.1400 C.2   1 <1>  -0.2880 
 23 C        8.5950    -5.4150    -1.0710 C.2   1 <1>  -0.2880 
 24 H       -3.1590    -2.5580    -2.8670 H     1 <1>   0.1500 
 25 H        0.7420    -3.3030    -0.6550 H     1 <1>   0.3700 
 26 H       -1.2730    -0.9150     1.3790 H     1 <1>   0.1500 
 27 H       -4.4510    -0.9860    -1.4470 H     1 <1>   0.1500 
 28 H       -3.4790    -0.1850     0.6680 H     1 <1>   0.1500 
 29 H        2.4640    -3.9730     0.5870 H     1 <1>   0.0800 
 30 H        2.8020    -3.2210     2.1290 H     1 <1>   0.0800 
 31 H        3.7910    -1.2860     1.0770 H     1 <1>   0.0800 
 32 H        3.2610    -1.8020    -0.5050 H     1 <1>   0.0800 
 33 H        7.5800    -2.7900    -0.3820 H     1 <1>   0.0800 
 34 H        6.1660    -5.3840     0.1660 H     1 <1>   0.0800 
 35 H        7.8620    -4.7300     1.9170 H     1 <1>   0.0800 
 36 H        8.8980    -3.3810     1.5150 H     1 <1>   0.0800 
 37 H        7.3300    -4.2870    -2.3990 H     1 <1>   0.0800 
 38 H        6.7580    -5.9090    -2.0850 H     1 <1>   0.0800 
 39 H        9.9990    -5.3360     0.5270 H     1 <1>   0.1500 
 40 H        9.1820    -6.0230    -1.7410 H     1 <1>   0.1500 
@<TRIPOS>BOND
  1   1   2  1   
  2   2   3  ar  
  3   2   4  ar  
  4   3   5  1   
  5   3   6  ar  
  6   4   7  ar  
  7   4  24  1   
  8   5   8  am  
  9   5  25  1   
 10   6   9  ar  
 11   6  26  1   
 12   7   9  ar  
 13   7  27  1   
 14   8  10  2   
 15   8  11  1   
 16   9  28  1   
 17  11  12  1   
 18  11  29  1   
 19  11  30  1   
 20  12  13  1   
 21  12  31  1   
 22  12  32  1   
 23  13  14  am  
 24  13  15  am  
 25  14  16  2   
 26  14  17  1   
 27  15  18  2   
 28  15  19  1   
 29  17  19  1   
 30  17  20  1   
 31  17  33  1   
 32  19  21  1   
 33  19  34  1   
 34  20  22  1   
 35  20  35  1   
 36  20  36  1   
 37  21  23  1   
 38  21  37  1   
 39  21  38  1   
 40  22  23  2   
 41  22  39  1   
 42  23  40  1   
@<TRIPOS>SUBSTRUCTURE
  1 ****  12 GROUP 4 **** **** 0

# MOE 2024.06 (io_trps.svl 2023.06)
