@<TRIPOS>MOLECULE
NONAME
48 49 1 0 0 
SMALL
USER_CHARGES


@<TRIPOS>ATOM
  1 CL       2.8510    -0.3660    -2.3870 Cl    1 <1>  -0.1770 
  2 C        2.9660    -1.8680    -1.5060 C.ar  1 <1>   0.1770 
  3 C        3.4730    -1.8630    -0.2210 C.ar  1 <1>  -0.1500 
  4 C        2.5500    -3.0400    -2.1070 C.ar  1 <1>  -0.1500 
  5 C        3.5650    -3.0560     0.4760 C.ar  1 <1>  -0.1500 
  6 C        2.6440    -4.2310    -1.4060 C.ar  1 <1>  -0.1500 
  7 C        3.1500    -4.2440    -0.1130 C.ar  1 <1>  -0.1430 
  8 C        3.2580    -5.5500     0.6550 C.3   1 <1>   0.2640 
  9 O        4.5710    -5.9980     0.5240 O.3   1 <1>  -0.5600 
 10 C        4.8440    -7.2250     1.1280 C.3   1 <1>   0.1200 
 11 C        6.3500    -7.4760     0.9890 C.3   1 <1>   0.2000 
 12 O        6.9970    -6.4480     1.6570 O.3   1 <1>  -0.6800 
 13 C        6.7460    -7.5240    -0.5140 C.3   1 <1>   0.3430 
 14 N        8.1980    -7.2560    -0.8930 N.4   1 <1>  -0.9590 
 15 C        9.1590    -7.9480     0.0230 C.3   1 <1>   0.4230 
 16 C        8.5610    -5.8140    -1.1890 C.3   1 <1>   0.4230 
 17 C       10.5920    -7.4820    -0.2540 C.3   1 <1>  -0.1600 
 18 C        9.0520    -9.4580    -0.1880 C.3   1 <1>  -0.2400 
 19 C        9.4740    -5.1970    -0.1200 C.3   1 <1>  -0.1600 
 20 C        7.3590    -4.9110    -1.4770 C.3   1 <1>  -0.2400 
 21 C       10.7780    -5.9880     0.0530 C.3   1 <1>  -0.1600 
 22 H        3.7890    -0.9360     0.2250 H     1 <1>   0.1500 
 23 H        2.1590    -3.0160    -3.1080 H     1 <1>   0.1500 
 24 H        3.9610    -3.0570     1.4760 H     1 <1>   0.1500 
 25 H        2.3210    -5.1450    -1.8740 H     1 <1>   0.1500 
 26 H        2.5890    -6.2900     0.2500 H     1 <1>   0.0800 
 27 H        3.0420    -5.3960     1.6990 H     1 <1>   0.0800 
 28 H        4.2750    -7.9930     0.6330 H     1 <1>   0.0800 
 29 H        4.5660    -7.1830     2.1690 H     1 <1>   0.0800 
 30 H        6.6170    -8.3990     1.4730 H     1 <1>   0.0800 
 31 H        6.4760    -5.6250     1.5220 H     1 <1>   0.4000 
 32 H        6.1010    -6.8480    -1.0470 H     1 <1>   0.0800 
 33 H        6.4830    -8.5070    -0.8670 H     1 <1>   0.0800 
 34 H        8.3310    -7.7200    -1.7950 H     1 <1>   0.4500 
 35 H        8.9210    -7.7070     1.0480 H     1 <1>   0.0800 
 36 H        9.1490    -5.8240    -2.0930 H     1 <1>   0.0800 
 37 H       10.8400    -7.6780    -1.2820 H     1 <1>   0.0800 
 38 H       11.2810    -8.0440     0.3530 H     1 <1>   0.0800 
 39 H        9.2730    -9.7240    -1.2060 H     1 <1>   0.0800 
 40 H        8.0800    -9.8280     0.0790 H     1 <1>   0.0800 
 41 H        9.7640    -9.9570     0.4460 H     1 <1>   0.0800 
 42 H        8.9540    -5.1420     0.8170 H     1 <1>   0.0800 
 43 H        9.7190    -4.1860    -0.3960 H     1 <1>   0.0800 
 44 H        6.7510    -4.7700    -0.6020 H     1 <1>   0.0800 
 45 H        6.7640    -5.3040    -2.2810 H     1 <1>   0.0800 
 46 H        7.7080    -3.9410    -1.7840 H     1 <1>   0.0800 
 47 H       11.5410    -5.5900    -0.5960 H     1 <1>   0.0800 
 48 H       11.1230    -5.8630     1.0670 H     1 <1>   0.0800 
@<TRIPOS>BOND
  1   1   2  1   
  2   2   3  ar  
  3   2   4  ar  
  4   3   5  ar  
  5   3  22  1   
  6   4   6  ar  
  7   4  23  1   
  8   5   7  ar  
  9   5  24  1   
 10   6   7  ar  
 11   6  25  1   
 12   7   8  1   
 13   8   9  1   
 14   8  26  1   
 15   8  27  1   
 16   9  10  1   
 17  10  11  1   
 18  10  28  1   
 19  10  29  1   
 20  11  12  1   
 21  11  13  1   
 22  11  30  1   
 23  12  31  1   
 24  13  14  1   
 25  13  32  1   
 26  13  33  1   
 27  14  15  1   
 28  14  16  1   
 29  14  34  1   
 30  15  17  1   
 31  15  18  1   
 32  15  35  1   
 33  16  19  1   
 34  16  20  1   
 35  16  36  1   
 36  17  21  1   
 37  17  37  1   
 38  17  38  1   
 39  18  39  1   
 40  18  40  1   
 41  18  41  1   
 42  19  21  1   
 43  19  42  1   
 44  19  43  1   
 45  20  44  1   
 46  20  45  1   
 47  20  46  1   
 48  21  47  1   
 49  21  48  1   
@<TRIPOS>SUBSTRUCTURE
  1 ****  20 GROUP 4 **** **** 0

# MOE 2024.06 (io_trps.svl 2023.06)
