@<TRIPOS>MOLECULE
NONAME
46 48 1 0 0 
SMALL
USER_CHARGES


@<TRIPOS>ATOM
  1 F       -1.8940     2.7120     2.0750 F     1 <1>  -0.1900 
  2 C       -1.3520     2.9030     0.8950 C.ar  1 <1>   0.1900 
  3 C       -1.8950     2.2740    -0.2330 C.ar  1 <1>   0.1000 
  4 C       -0.2500     3.7340     0.8310 C.ar  1 <1>  -0.1500 
  5 N       -3.0090     1.4250    -0.2250 N.pl3 1 <1>  -0.8380 
  6 C       -1.2690     2.5210    -1.4480 C.ar  1 <1>  -0.1500 
  7 C        0.3500     3.9590    -0.3970 C.ar  1 <1>  -0.1500 
  8 C       -2.8390     0.1290     0.4940 C.3   1 <1>   0.2090 
  9 C       -4.3090     2.0530     0.1470 C.3   1 <1>   0.2090 
 10 C       -0.1620     3.3510    -1.5330 C.ar  1 <1>  -0.1500 
 11 C       -4.0170    -0.8160     0.1900 C.3   1 <1>   0.1100 
 12 C       -5.4810     1.1000    -0.1540 C.3   1 <1>   0.1100 
 13 N       -5.3320    -0.2140     0.5190 N.3   1 <1>  -0.8100 
 14 C       -6.4330    -1.1750     0.2250 C.3   1 <1>   0.1710 
 15 C       -7.8490    -0.7420     0.6330 C.2   1 <1>   0.5690 
 16 O       -8.3260    -1.2000     1.6430 O.2   1 <1>  -0.5700 
 17 N       -8.5290     0.1030    -0.2080 N.am  1 <1>  -0.5470 
 18 C       -9.8070     0.6740    -0.1170 C.ar  1 <1>   0.1170 
 19 C      -10.5020     0.8010     1.0820 C.ar  1 <1>  -0.1500 
 20 C      -10.4060     1.1560    -1.2750 C.ar  1 <1>  -0.1500 
 21 C      -11.7550     1.3840     1.1200 C.ar  1 <1>  -0.1500 
 22 C      -11.6600     1.7410    -1.2400 C.ar  1 <1>  -0.1500 
 23 C      -12.3440     1.8570    -0.0420 C.ar  1 <1>  -0.1430 
 24 C      -13.7190     2.4970     0.0020 C.3   1 <1>  -0.0970 
 25 H        0.1290     4.1940     1.7250 H     1 <1>   0.1500 
 26 H       -1.6630     2.0510    -2.3300 H     1 <1>   0.1500 
 27 H        1.2090     4.6030    -0.4690 H     1 <1>   0.1500 
 28 H       -2.7910     0.3040     1.5550 H     1 <1>   0.0800 
 29 H       -1.9180    -0.3310     0.1840 H     1 <1>   0.0800 
 30 H       -4.4340     2.9670    -0.4070 H     1 <1>   0.0800 
 31 H       -4.3110     2.2930     1.1960 H     1 <1>   0.0800 
 32 H        0.3030     3.5250    -2.4880 H     1 <1>   0.1500 
 33 H       -3.8870    -1.7180     0.7630 H     1 <1>   0.0800 
 34 H       -3.9850    -1.0740    -0.8540 H     1 <1>   0.0800 
 35 H       -5.5430     0.9620    -1.2190 H     1 <1>   0.0800 
 36 H       -6.3840     1.5770     0.1860 H     1 <1>   0.0800 
 37 H       -6.2280    -2.0910     0.7490 H     1 <1>   0.0800 
 38 H       -6.4360    -1.4020    -0.8260 H     1 <1>   0.0800 
 39 H       -8.0200     0.3540    -1.0510 H     1 <1>   0.3700 
 40 H      -10.0650     0.4470     1.9980 H     1 <1>   0.1500 
 41 H       -9.8940     1.0720    -2.2150 H     1 <1>   0.1500 
 42 H      -12.2710     1.4680     2.0600 H     1 <1>   0.1500 
 43 H      -12.1030     2.1050    -2.1500 H     1 <1>   0.1500 
 44 H      -13.6240     3.5510     0.1930 H     1 <1>   0.0800 
 45 H      -14.3140     2.0550     0.7810 H     1 <1>   0.0800 
 46 H      -14.2300     2.3570    -0.9340 H     1 <1>   0.0800 
@<TRIPOS>BOND
  1   1   2  1   
  2   2   3  ar  
  3   2   4  ar  
  4   3   5  1   
  5   3   6  ar  
  6   4   7  ar  
  7   4  25  1   
  8   5   8  1   
  9   5   9  1   
 10   6  10  ar  
 11   6  26  1   
 12   7  10  ar  
 13   7  27  1   
 14   8  11  1   
 15   8  28  1   
 16   8  29  1   
 17   9  12  1   
 18   9  30  1   
 19   9  31  1   
 20  10  32  1   
 21  11  13  1   
 22  11  33  1   
 23  11  34  1   
 24  12  13  1   
 25  12  35  1   
 26  12  36  1   
 27  13  14  1   
 28  14  15  1   
 29  14  37  1   
 30  14  38  1   
 31  15  16  2   
 32  15  17  am  
 33  17  18  1   
 34  17  39  1   
 35  18  19  ar  
 36  18  20  ar  
 37  19  21  ar  
 38  19  40  1   
 39  20  22  ar  
 40  20  41  1   
 41  21  23  ar  
 42  21  42  1   
 43  22  23  ar  
 44  22  43  1   
 45  23  24  1   
 46  24  44  1   
 47  24  45  1   
 48  24  46  1   
@<TRIPOS>SUBSTRUCTURE
  1 ****  12 GROUP 4 **** **** 0

# MOE 2024.06 (io_trps.svl 2023.06)
