@<TRIPOS>MOLECULE
NONAME
36 36 1 0 0 
SMALL
USER_CHARGES


@<TRIPOS>ATOM
  1 S        0.0330    -0.2780    -0.4050 S.o2  1 <1>   1.4470 
  2 O       -0.1010    -1.0880    -1.5930 O.2   1 <1>  -0.6500 
  3 O       -0.0740    -0.8790     0.9050 O.2   1 <1>  -0.6500 
  4 N       -1.2160     0.8310    -0.5450 N.am  1 <1>  -0.9140 
  5 C        1.5180     0.7590    -0.4980 C.ar  1 <1>  -0.0090 
  6 C       -2.4760     0.3220    -0.0380 C.3   1 <1>   0.1960 
  7 C        2.4730     0.5670    -1.4920 C.ar  1 <1>  -0.1500 
  8 C        1.7320     1.7760     0.4280 C.ar  1 <1>  -0.1500 
  9 C       -3.5750     1.3410    -0.3440 C.3   1 <1>  -0.1600 
 10 C        3.6040     1.3640    -1.5610 C.ar  1 <1>  -0.1500 
 11 C        2.8580     2.5810     0.3710 C.ar  1 <1>  -0.1500 
 12 C       -4.9790     0.8500     0.0560 C.3   1 <1>  -0.0800 
 13 C        3.7910     2.3670    -0.6300 C.ar  1 <1>   0.1010 
 14 C       -6.0320     1.8660    -0.4020 C.3   1 <1>  -0.2400 
 15 C       -5.1060     0.6320     1.5700 C.3   1 <1>  -0.2400 
 16 S        5.2830     3.3630    -0.7840 S.3   1 <1>  -0.3320 
 17 C        5.2490     4.5910     0.5950 C.3   1 <1>  -0.0100 
 18 H       -1.3250     0.9350    -1.5510 H     1 <1>   0.4200 
 19 H       -2.3980     0.1700     1.0260 H     1 <1>   0.0800 
 20 H       -2.7070    -0.6220    -0.5060 H     1 <1>   0.0800 
 21 H        2.3330    -0.2140    -2.2200 H     1 <1>   0.1500 
 22 H        1.0020     1.9370     1.2050 H     1 <1>   0.1500 
 23 H       -3.5730     1.5410    -1.4010 H     1 <1>   0.0800 
 24 H       -3.3560     2.2590     0.1730 H     1 <1>   0.0800 
 25 H        4.3390     1.2100    -2.3320 H     1 <1>   0.1500 
 26 H        2.9900     3.3550     1.1010 H     1 <1>   0.1500 
 27 H       -5.1780    -0.0840    -0.4440 H     1 <1>   0.0800 
 28 H       -5.8750     2.8170     0.0760 H     1 <1>   0.0800 
 29 H       -7.0200     1.5190    -0.1550 H     1 <1>   0.0800 
 30 H       -5.9820     2.0050    -1.4670 H     1 <1>   0.0800 
 31 H       -4.8600     1.5330     2.1050 H     1 <1>   0.0800 
 32 H       -4.4560    -0.1560     1.9030 H     1 <1>   0.0800 
 33 H       -6.1140     0.3520     1.8220 H     1 <1>   0.0800 
 34 H        6.1380     5.1910     0.5160 H     1 <1>   0.0800 
 35 H        5.2360     4.0490     1.5230 H     1 <1>   0.0800 
 36 H        4.3690     5.1980     0.4790 H     1 <1>   0.0800 
@<TRIPOS>BOND
  1   1   2  2   
  2   1   3  2   
  3   1   4  am  
  4   1   5  1   
  5   4   6  1   
  6   4  18  1   
  7   5   7  ar  
  8   5   8  ar  
  9   6   9  1   
 10   6  19  1   
 11   6  20  1   
 12   7  10  ar  
 13   7  21  1   
 14   8  11  ar  
 15   8  22  1   
 16   9  12  1   
 17   9  23  1   
 18   9  24  1   
 19  10  13  ar  
 20  10  25  1   
 21  11  13  ar  
 22  11  26  1   
 23  12  14  1   
 24  12  15  1   
 25  12  27  1   
 26  13  16  1   
 27  14  28  1   
 28  14  29  1   
 29  14  30  1   
 30  15  31  1   
 31  15  32  1   
 32  15  33  1   
 33  16  17  1   
 34  17  34  1   
 35  17  35  1   
 36  17  36  1   
@<TRIPOS>SUBSTRUCTURE
  1 ****   5 GROUP 4 **** **** 0

# MOE 2024.06 (io_trps.svl 2023.06)
