@<TRIPOS>MOLECULE
NONAME
48 49 1 0 0 
SMALL
USER_CHARGES


@<TRIPOS>ATOM
  1 O       -0.0050     1.1190    -2.5920 O.2   1 <1>  -0.5700 
  2 C       -0.4950     2.0930    -2.0450 C.2   1 <1>   0.5440 
  3 N       -1.7800     2.0050    -1.5480 N.am  1 <1>  -0.6600 
  4 C        0.3090     3.2820    -1.8700 C.ar  1 <1>   0.0860 
  5 C       -2.6270     0.8040    -1.7820 C.3   1 <1>   0.1400 
  6 C       -2.2800     2.8790    -0.4510 C.3   1 <1>   0.1400 
  7 C        1.5080     3.2180    -1.1450 C.ar  1 <1>   0.1170 
  8 C       -0.0940     4.5110    -2.3940 C.ar  1 <1>  -0.1500 
  9 C       -2.6820    -0.0330    -0.4990 C.3   1 <1>  -0.1600 
 10 C       -2.3200     2.0720     0.8500 C.3   1 <1>  -0.1600 
 11 N        1.9280     1.9780    -0.6500 N.am  1 <1>  -0.5470 
 12 C        2.2510     4.3780    -0.9490 C.ar  1 <1>  -0.1500 
 13 C        0.6550     5.6550    -2.1950 C.ar  1 <1>  -0.1500 
 14 C       -3.1660     0.7960     0.7020 C.3   1 <1>  -0.0800 
 15 C        2.6160     1.6270     0.4780 C.2   1 <1>   0.5690 
 16 C        1.8310     5.5870    -1.4660 C.ar  1 <1>  -0.1500 
 17 C       -3.1150    -0.0370     1.9870 C.3   1 <1>  -0.2400 
 18 O        3.0810     2.4490     1.2310 O.2   1 <1>  -0.5700 
 19 C        2.7580     0.1120     0.7760 C.3   1 <1>   0.0610 
 20 C        3.4720    -0.1430     2.1200 C.3   1 <1>  -0.2400 
 21 C        1.3680    -0.5530     0.8460 C.3   1 <1>  -0.2400 
 22 C        3.5750    -0.5740    -0.3350 C.3   1 <1>  -0.2400 
 23 H       -2.2320     0.2110    -2.5900 H     1 <1>   0.0800 
 24 H       -3.6170     1.1210    -2.0570 H     1 <1>   0.0800 
 25 H       -3.2680     3.2250    -0.7000 H     1 <1>   0.0800 
 26 H       -1.6490     3.7400    -0.3170 H     1 <1>   0.0800 
 27 H       -1.0070     4.5600    -2.9600 H     1 <1>   0.1500 
 28 H       -1.6980    -0.4230    -0.3060 H     1 <1>   0.0800 
 29 H       -3.3400    -0.8690    -0.6540 H     1 <1>   0.0800 
 30 H       -2.7270     2.6880     1.6330 H     1 <1>   0.0800 
 31 H       -1.3120     1.8160     1.1270 H     1 <1>   0.0800 
 32 H        1.5340     1.1850    -1.1720 H     1 <1>   0.3700 
 33 H        3.1680     4.3310    -0.3890 H     1 <1>   0.1500 
 34 H        0.3300     6.5960    -2.6040 H     1 <1>   0.1500 
 35 H       -4.1890     1.0850     0.5250 H     1 <1>   0.0800 
 36 H        2.4180     6.4750    -1.3050 H     1 <1>   0.1500 
 37 H       -2.1060    -0.3460     2.1990 H     1 <1>   0.0800 
 38 H       -3.7290    -0.9140     1.8880 H     1 <1>   0.0800 
 39 H       -3.4790     0.5390     2.8200 H     1 <1>   0.0800 
 40 H        2.9220     0.3100     2.9260 H     1 <1>   0.0800 
 41 H        4.4580     0.2890     2.1060 H     1 <1>   0.0800 
 42 H        3.5630    -1.1970     2.3160 H     1 <1>   0.0800 
 43 H        1.4570    -1.5950     1.0980 H     1 <1>   0.0800 
 44 H        0.7650    -0.0720     1.5970 H     1 <1>   0.0800 
 45 H        0.8540    -0.4810    -0.0960 H     1 <1>   0.0800 
 46 H        4.5490    -0.1220    -0.4090 H     1 <1>   0.0800 
 47 H        3.0860    -0.4790    -1.2880 H     1 <1>   0.0800 
 48 H        3.7010    -1.6210    -0.1240 H     1 <1>   0.0800 
@<TRIPOS>BOND
  1   1   2  2   
  2   2   3  am  
  3   2   4  1   
  4   3   5  1   
  5   3   6  1   
  6   4   7  ar  
  7   4   8  ar  
  8   5   9  1   
  9   5  23  1   
 10   5  24  1   
 11   6  10  1   
 12   6  25  1   
 13   6  26  1   
 14   7  11  1   
 15   7  12  ar  
 16   8  13  ar  
 17   8  27  1   
 18   9  14  1   
 19   9  28  1   
 20   9  29  1   
 21  10  14  1   
 22  10  30  1   
 23  10  31  1   
 24  11  15  am  
 25  11  32  1   
 26  12  16  ar  
 27  12  33  1   
 28  13  16  ar  
 29  13  34  1   
 30  14  17  1   
 31  14  35  1   
 32  15  18  2   
 33  15  19  1   
 34  16  36  1   
 35  17  37  1   
 36  17  38  1   
 37  17  39  1   
 38  19  20  1   
 39  19  21  1   
 40  19  22  1   
 41  20  40  1   
 42  20  41  1   
 43  20  42  1   
 44  21  43  1   
 45  21  44  1   
 46  21  45  1   
 47  22  46  1   
 48  22  47  1   
 49  22  48  1   
@<TRIPOS>SUBSTRUCTURE
  1 ****  11 GROUP 4 **** **** 0

# MOE 2024.06 (io_trps.svl 2023.06)
