@<TRIPOS>MOLECULE
NONAME
50 52 1 0 0 
SMALL
USER_CHARGES


@<TRIPOS>ATOM
  1 O        1.5720    -0.3700     0.6180 O.2   1 <1>  -0.5700 
  2 C        1.3260    -1.2980    -0.1170 C.2   1 <1>   0.5690 
  3 N        2.1360    -2.4060    -0.1540 N.am  1 <1>  -0.6600 
  4 C        0.0890    -1.1400    -0.9830 C.3   1 <1>  -0.0990 
  5 C        3.3320    -2.5200     0.7360 C.3   1 <1>   0.1400 
  6 C        1.8910    -3.6640    -0.9200 C.3   1 <1>   0.1400 
  7 C       -1.1880    -1.3560    -0.1460 C.3   1 <1>   0.2070 
  8 C        3.2500    -3.7960     1.5900 C.3   1 <1>   0.1200 
  9 C        1.8780    -4.8740     0.0290 C.3   1 <1>   0.1200 
 10 C       -1.3370    -2.8300     0.2850 C.ar  1 <1>  -0.1440 
 11 C       -2.4410    -0.7210    -0.7800 C.ar  1 <1>  -0.1440 
 12 O        3.0590    -4.9220     0.7790 O.3   1 <1>  -0.5600 
 13 C       -1.5130    -3.8940    -0.6010 C.ar  1 <1>   0.0820 
 14 C       -1.2900    -3.1170     1.6400 C.ar  1 <1>  -0.1500 
 15 C       -3.6080    -1.4320    -1.0410 C.ar  1 <1>  -0.1500 
 16 C       -2.4310     0.6390    -1.0730 C.ar  1 <1>  -0.1500 
 17 O       -1.5730    -3.6540    -1.9230 O.3   1 <1>  -0.5320 
 18 C       -1.6420    -5.2110    -0.1560 C.ar  1 <1>  -0.1440 
 19 C       -1.4220    -4.4140     2.0950 C.ar  1 <1>  -0.1500 
 20 C       -4.7120    -0.8150    -1.6030 C.ar  1 <1>  -0.1500 
 21 C       -3.5320     1.2610    -1.6350 C.ar  1 <1>  -0.1500 
 22 C       -1.6010    -5.4670     1.2120 C.ar  1 <1>  -0.1440 
 23 C       -1.8220    -6.3400    -1.1750 C.3   1 <1>  -0.0970 
 24 C       -4.6740     0.5330    -1.9060 C.ar  1 <1>  -0.1500 
 25 C       -1.7460    -6.8660     1.7960 C.3   1 <1>  -0.0970 
 26 H        0.1110    -1.7730    -1.8430 H     1 <1>   0.0800 
 27 H        0.1110    -0.1360    -1.3570 H     1 <1>   0.0800 
 28 H        3.4100    -1.6660     1.3860 H     1 <1>   0.0800 
 29 H        4.2210    -2.5540     0.1310 H     1 <1>   0.0800 
 30 H        2.6770    -3.7950    -1.6430 H     1 <1>   0.0800 
 31 H        0.9630    -3.6300    -1.4510 H     1 <1>   0.0800 
 32 H       -1.0420    -0.7830     0.7540 H     1 <1>   0.0800 
 33 H        2.4320    -3.7290     2.2870 H     1 <1>   0.0800 
 34 H        4.1640    -3.9360     2.1380 H     1 <1>   0.0800 
 35 H        1.8040    -5.7880    -0.5310 H     1 <1>   0.0800 
 36 H        1.0440    -4.8130     0.7050 H     1 <1>   0.0800 
 37 H       -1.1510    -2.3290     2.3600 H     1 <1>   0.1500 
 38 H       -3.6810    -2.4770    -0.8050 H     1 <1>   0.1500 
 39 H       -1.5620     1.2360    -0.8570 H     1 <1>   0.1500 
 40 H       -1.8830    -4.4280    -2.4230 H     1 <1>   0.4500 
 41 H       -1.3840    -4.5960     3.1550 H     1 <1>   0.1500 
 42 H       -5.6010    -1.3870    -1.8020 H     1 <1>   0.1500 
 43 H       -3.4990     2.3120    -1.8600 H     1 <1>   0.1500 
 44 H       -1.1070    -6.2440    -1.9720 H     1 <1>   0.0800 
 45 H       -2.8160    -6.3030    -1.5850 H     1 <1>   0.0800 
 46 H       -1.6770    -7.3110    -0.7430 H     1 <1>   0.0800 
 47 H       -5.5310     1.0120    -2.3440 H     1 <1>   0.1500 
 48 H       -0.9050    -7.4730     1.5110 H     1 <1>   0.0800 
 49 H       -2.6510    -7.3240     1.4410 H     1 <1>   0.0800 
 50 H       -1.7880    -6.8360     2.8700 H     1 <1>   0.0800 
@<TRIPOS>BOND
  1   1   2  2   
  2   2   3  am  
  3   2   4  1   
  4   3   5  1   
  5   3   6  1   
  6   4   7  1   
  7   4  26  1   
  8   4  27  1   
  9   5   8  1   
 10   5  28  1   
 11   5  29  1   
 12   6   9  1   
 13   6  30  1   
 14   6  31  1   
 15   7  10  1   
 16   7  11  1   
 17   7  32  1   
 18   8  12  1   
 19   8  33  1   
 20   8  34  1   
 21   9  12  1   
 22   9  35  1   
 23   9  36  1   
 24  10  13  ar  
 25  10  14  ar  
 26  11  15  ar  
 27  11  16  ar  
 28  13  17  1   
 29  13  18  ar  
 30  14  19  ar  
 31  14  37  1   
 32  15  20  ar  
 33  15  38  1   
 34  16  21  ar  
 35  16  39  1   
 36  17  40  1   
 37  18  22  ar  
 38  18  23  1   
 39  19  22  ar  
 40  19  41  1   
 41  20  24  ar  
 42  20  42  1   
 43  21  24  ar  
 44  21  43  1   
 45  22  25  1   
 46  23  44  1   
 47  23  45  1   
 48  23  46  1   
 49  24  47  1   
 50  25  48  1   
 51  25  49  1   
 52  25  50  1   
@<TRIPOS>SUBSTRUCTURE
  1 ****  10 GROUP 4 **** **** 0

# MOE 2024.06 (io_trps.svl 2023.06)
