@<TRIPOS>MOLECULE
NONAME
23 25 1 0 0 
SMALL
USER_CHARGES


@<TRIPOS>ATOM
  1 O        0.7630    -0.0010    -1.0070 O.2   1 <1>  -0.5700 
  2 C        1.1300     1.0650    -0.5940 C.2   1 <1>   0.5690 
  3 N        1.9080     1.2420     0.4920 N.am  1 <1>  -0.4900 
  4 C        0.8020     2.4070    -1.2270 C.3   1 <1>  -0.0190 
  5 C        2.1840     2.5390     0.7370 C.2   1 <1>   0.5690 
  6 C        1.5270     3.4200    -0.3120 C.3   1 <1>  -0.0190 
  7 C       -0.6660     2.8890    -1.1850 C.3   1 <1>  -0.0800 
  8 O        2.8630     2.9350     1.6450 O.2   1 <1>  -0.5700 
  9 C        0.3840     4.3570     0.1420 C.3   1 <1>  -0.0800 
 10 C       -0.4690     4.3970    -1.1190 C.3   1 <1>  -0.1600 
 11 C       -1.2910     2.6220     0.1980 C.3   1 <1>  -0.1600 
 12 C       -0.5700     3.6310     1.1090 C.3   1 <1>  -0.1600 
 13 H        2.2460     0.4790     1.0690 H     1 <1>   0.3700 
 14 H        1.1940     2.4480    -2.2280 H     1 <1>   0.0800 
 15 H        2.2770     3.9620    -0.8600 H     1 <1>   0.0800 
 16 H       -1.2640     2.5360    -2.0080 H     1 <1>   0.0800 
 17 H        0.7230     5.3150     0.5010 H     1 <1>   0.0800 
 18 H       -1.3940     4.9340    -0.9800 H     1 <1>   0.0800 
 19 H        0.0580     4.7920    -1.9720 H     1 <1>   0.0800 
 20 H       -1.1700     1.6050     0.5290 H     1 <1>   0.0800 
 21 H       -2.3450     2.8440     0.1720 H     1 <1>   0.0800 
 22 H       -1.2820     4.3300     1.5140 H     1 <1>   0.0800 
 23 H       -0.0610     3.1560     1.9300 H     1 <1>   0.0800 
@<TRIPOS>BOND
  1   1   2  2   
  2   2   3  am  
  3   2   4  1   
  4   3   5  am  
  5   3  13  1   
  6   4   6  1   
  7   4   7  1   
  8   4  14  1   
  9   5   6  1   
 10   5   8  2   
 11   6   9  1   
 12   6  15  1   
 13   7  10  1   
 14   7  11  1   
 15   7  16  1   
 16   9  10  1   
 17   9  12  1   
 18   9  17  1   
 19  10  18  1   
 20  10  19  1   
 21  11  12  1   
 22  11  20  1   
 23  11  21  1   
 24  12  22  1   
 25  12  23  1   
@<TRIPOS>SUBSTRUCTURE
  1 ****   4 GROUP 4 **** **** 0

# MOE 2024.06 (io_trps.svl 2023.06)
