@<TRIPOS>MOLECULE
NONAME
48 49 1 0 0 
SMALL
USER_CHARGES


@<TRIPOS>ATOM
  1 O       -1.2080     1.4010     1.1450 O.3   1 <1>  -0.5600 
  2 C       -1.4250     1.9390    -0.1270 C.3   1 <1>   0.1200 
  3 C       -2.2570     1.5870     2.0500 C.3   1 <1>   0.1200 
  4 C       -2.6760     1.3060    -0.7660 C.3   1 <1>   0.3430 
  5 C       -3.5480     0.9400     1.5130 C.3   1 <1>   0.3430 
  6 N       -3.8820     1.4330     0.1270 N.4   1 <1>  -0.9590 
  7 C       -5.0510     0.7250    -0.4650 C.3   1 <1>   0.3430 
  8 C       -6.3460     1.1300     0.2430 C.3   1 <1>  -0.1600 
  9 C       -7.5530     0.4700    -0.4390 C.3   1 <1>  -0.1600 
 10 C       -8.8720     0.8530     0.2360 C.3   1 <1>   0.1200 
 11 O       -9.9040     0.1920    -0.4520 O.3   1 <1>  -0.3630 
 12 C      -11.2080     0.2920    -0.0730 C.ar  1 <1>   0.0830 
 13 C      -12.1520    -0.4600    -0.7750 C.ar  1 <1>  -0.1430 
 14 C      -11.6130     1.1050     0.9830 C.ar  1 <1>  -0.1500 
 15 C      -13.4900    -0.4040    -0.3940 C.ar  1 <1>  -0.1430 
 16 C      -11.6960    -1.3380    -1.9410 C.3   1 <1>  -0.0970 
 17 C      -12.9430     1.1690     1.3500 C.ar  1 <1>  -0.1430 
 18 C      -13.8720     0.4110     0.6600 C.ar  1 <1>  -0.1500 
 19 C      -14.5690    -1.2180    -1.0970 C.3   1 <1>  -0.0970 
 20 C      -13.3860     2.0550     2.5010 C.3   1 <1>  -0.0970 
 21 H       -0.5550     1.7250    -0.7240 H     1 <1>   0.0800 
 22 H       -1.5270     3.0070    -0.0410 H     1 <1>   0.0800 
 23 H       -2.3880     2.6420     2.2190 H     1 <1>   0.0800 
 24 H       -1.9700     1.1260     2.9800 H     1 <1>   0.0800 
 25 H       -2.4680     0.2650    -0.9520 H     1 <1>   0.0800 
 26 H       -2.8680     1.7800    -1.7150 H     1 <1>   0.0800 
 27 H       -4.3580     1.1570     2.1890 H     1 <1>   0.0800 
 28 H       -3.4080    -0.1280     1.4950 H     1 <1>   0.0800 
 29 H       -4.1100     2.4330     0.1950 H     1 <1>   0.4500 
 30 H       -4.9120    -0.3430    -0.3940 H     1 <1>   0.0800 
 31 H       -5.1360     0.9810    -1.5090 H     1 <1>   0.0800 
 32 H       -6.4640     2.1990     0.2000 H     1 <1>   0.0800 
 33 H       -6.3220     0.8190     1.2730 H     1 <1>   0.0800 
 34 H       -7.4520    -0.6020    -0.4010 H     1 <1>   0.0800 
 35 H       -7.6010     0.7740    -1.4710 H     1 <1>   0.0800 
 36 H       -9.0490     1.9130     0.1710 H     1 <1>   0.0800 
 37 H       -8.8910     0.5290     1.2630 H     1 <1>   0.0800 
 38 H      -10.9070     1.6950     1.5320 H     1 <1>   0.1500 
 39 H      -10.8740    -0.8830    -2.4620 H     1 <1>   0.0800 
 40 H      -12.4780    -1.4860    -2.6600 H     1 <1>   0.0800 
 41 H      -11.3780    -2.2940    -1.5670 H     1 <1>   0.0800 
 42 H      -14.9060     0.4570     0.9520 H     1 <1>   0.1500 
 43 H      -14.2740    -2.2500    -1.1560 H     1 <1>   0.0800 
 44 H      -14.7270    -0.8370    -2.0890 H     1 <1>   0.0800 
 45 H      -15.5010    -1.1690    -0.5630 H     1 <1>   0.0800 
 46 H      -12.7250     2.8960     2.6070 H     1 <1>   0.0800 
 47 H      -13.3810     1.4900     3.4150 H     1 <1>   0.0800 
 48 H      -14.3790     2.4260     2.3270 H     1 <1>   0.0800 
@<TRIPOS>BOND
  1   1   2  1   
  2   1   3  1   
  3   2   4  1   
  4   2  21  1   
  5   2  22  1   
  6   3   5  1   
  7   3  23  1   
  8   3  24  1   
  9   4   6  1   
 10   4  25  1   
 11   4  26  1   
 12   5   6  1   
 13   5  27  1   
 14   5  28  1   
 15   6   7  1   
 16   6  29  1   
 17   7   8  1   
 18   7  30  1   
 19   7  31  1   
 20   8   9  1   
 21   8  32  1   
 22   8  33  1   
 23   9  10  1   
 24   9  34  1   
 25   9  35  1   
 26  10  11  1   
 27  10  36  1   
 28  10  37  1   
 29  11  12  1   
 30  12  13  ar  
 31  12  14  ar  
 32  13  15  ar  
 33  13  16  1   
 34  14  17  ar  
 35  14  38  1   
 36  15  18  ar  
 37  15  19  1   
 38  16  39  1   
 39  16  40  1   
 40  16  41  1   
 41  17  18  ar  
 42  17  20  1   
 43  18  42  1   
 44  19  43  1   
 45  19  44  1   
 46  19  45  1   
 47  20  46  1   
 48  20  47  1   
 49  20  48  1   
@<TRIPOS>SUBSTRUCTURE
  1 ****  10 GROUP 4 **** **** 0

# MOE 2024.06 (io_trps.svl 2023.06)
