@<TRIPOS>MOLECULE
NONAME
55 57 1 0 0 
SMALL
USER_CHARGES


@<TRIPOS>ATOM
  1 O        0.1940     1.6110     2.7930 O.2   1 <1>  -0.5700 
  2 C       -0.0720     1.8660     1.6440 C.2   1 <1>   0.5690 
  3 N        0.7770     1.5670     0.6250 N.am  1 <1>  -0.7300 
  4 C       -1.3970     2.5540     1.3330 C.3   1 <1>  -0.0190 
  5 C        2.0800     0.8890     0.7760 C.3   1 <1>   0.1400 
  6 C       -2.2500     1.7480     0.3320 C.3   1 <1>  -0.1600 
  7 C       -1.1810     3.9940     0.8270 C.3   1 <1>  -0.1600 
  8 C        3.1980     1.8810     0.4550 C.3   1 <1>  -0.1600 
  9 C       -3.5590     2.4680     0.0030 C.3   1 <1>   0.1400 
 10 C       -2.5100     4.6770     0.4930 C.3   1 <1>   0.1400 
 11 C        4.5940     1.2840     0.7100 C.3   1 <1>   0.2070 
 12 N       -3.2540     3.8400    -0.4880 N.am  1 <1>  -0.6600 
 13 C        5.7560     2.2590     0.4630 C.ar  1 <1>  -0.1440 
 14 C        4.7820     0.0100    -0.1160 C.ar  1 <1>  -0.1440 
 15 C       -3.6370     4.2410    -1.7430 C.2   1 <1>   0.5690 
 16 C        7.0370     1.8340     0.7880 C.ar  1 <1>  -0.1500 
 17 C        5.5960     3.5370    -0.0630 C.ar  1 <1>  -0.1500 
 18 C        5.0270     0.0810    -1.4800 C.ar  1 <1>  -0.1500 
 19 C        4.7020    -1.2370     0.4890 C.ar  1 <1>  -0.1500 
 20 O       -4.2100     3.5050    -2.5090 O.2   1 <1>  -0.5700 
 21 C       -3.3470     5.6430    -2.2270 C.3   1 <1>  -0.1790 
 22 C        8.1320     2.6590     0.5960 C.ar  1 <1>  -0.1500 
 23 C        6.6900     4.3640    -0.2560 C.ar  1 <1>  -0.1500 
 24 C        5.1840    -1.0720    -2.2290 C.ar  1 <1>  -0.1500 
 25 C        4.8580    -2.3920    -0.2580 C.ar  1 <1>  -0.1500 
 26 C        7.9590     3.9270     0.0740 C.ar  1 <1>  -0.1500 
 27 C        5.0980    -2.3100    -1.6180 C.ar  1 <1>  -0.1500 
 28 H        0.5030     1.7950    -0.3310 H     1 <1>   0.3700 
 29 H       -1.9470     2.6100     2.2570 H     1 <1>   0.0800 
 30 H        2.1170     0.0440     0.1090 H     1 <1>   0.0800 
 31 H        2.1870     0.5280     1.7860 H     1 <1>   0.0800 
 32 H       -2.4730     0.7800     0.7470 H     1 <1>   0.0800 
 33 H       -1.7110     1.5930    -0.5860 H     1 <1>   0.0800 
 34 H       -0.5630     3.9900    -0.0530 H     1 <1>   0.0800 
 35 H       -0.6710     4.5640     1.5840 H     1 <1>   0.0800 
 36 H        3.0770     2.7490     1.0790 H     1 <1>   0.0800 
 37 H        3.1170     2.1730    -0.5760 H     1 <1>   0.0800 
 38 H       -4.1760     2.5370     0.8830 H     1 <1>   0.0800 
 39 H       -4.1040     1.9070    -0.7380 H     1 <1>   0.0800 
 40 H       -2.3210     5.6620     0.1080 H     1 <1>   0.0800 
 41 H       -3.1040     4.7780     1.3860 H     1 <1>   0.0800 
 42 H        4.6390     1.0210     1.7520 H     1 <1>   0.0800 
 43 H        7.1900     0.8470     1.1890 H     1 <1>   0.1500 
 44 H        4.6280     3.9160    -0.3330 H     1 <1>   0.1500 
 45 H        5.1030     1.0400    -1.9640 H     1 <1>   0.1500 
 46 H        4.5160    -1.3200     1.5460 H     1 <1>   0.1500 
 47 H       -2.2870     5.8110    -2.2460 H     1 <1>   0.0800 
 48 H       -3.8210     6.3570    -1.5810 H     1 <1>   0.0800 
 49 H       -3.7330     5.7700    -3.2210 H     1 <1>   0.0800 
 50 H        9.1180     2.3110     0.8520 H     1 <1>   0.1500 
 51 H        6.5530     5.3500    -0.6630 H     1 <1>   0.1500 
 52 H        5.3760    -1.0050    -3.2850 H     1 <1>   0.1500 
 53 H        4.7940    -3.3550     0.2190 H     1 <1>   0.1500 
 54 H        8.8090     4.5690    -0.0770 H     1 <1>   0.1500 
 55 H        5.2210    -3.2070    -2.1990 H     1 <1>   0.1500 
@<TRIPOS>BOND
  1   1   2  2   
  2   2   3  am  
  3   2   4  1   
  4   3   5  1   
  5   3  28  1   
  6   4   6  1   
  7   4   7  1   
  8   4  29  1   
  9   5   8  1   
 10   5  30  1   
 11   5  31  1   
 12   6   9  1   
 13   6  32  1   
 14   6  33  1   
 15   7  10  1   
 16   7  34  1   
 17   7  35  1   
 18   8  11  1   
 19   8  36  1   
 20   8  37  1   
 21   9  12  1   
 22   9  38  1   
 23   9  39  1   
 24  10  12  1   
 25  10  40  1   
 26  10  41  1   
 27  11  13  1   
 28  11  14  1   
 29  11  42  1   
 30  12  15  am  
 31  13  16  ar  
 32  13  17  ar  
 33  14  18  ar  
 34  14  19  ar  
 35  15  20  2   
 36  15  21  1   
 37  16  22  ar  
 38  16  43  1   
 39  17  23  ar  
 40  17  44  1   
 41  18  24  ar  
 42  18  45  1   
 43  19  25  ar  
 44  19  46  1   
 45  21  47  1   
 46  21  48  1   
 47  21  49  1   
 48  22  26  ar  
 49  22  50  1   
 50  23  26  ar  
 51  23  51  1   
 52  24  27  ar  
 53  24  52  1   
 54  25  27  ar  
 55  25  53  1   
 56  26  54  1   
 57  27  55  1   
@<TRIPOS>SUBSTRUCTURE
  1 ****   8 GROUP 4 **** **** 0

# MOE 2024.06 (io_trps.svl 2023.06)
