@<TRIPOS>MOLECULE
NONAME
39 39 1 0 0 
SMALL
USER_CHARGES


@<TRIPOS>ATOM
  1 O        2.1880     0.2980    -0.5420 O.3   1 <1>  -0.8500 
  2 C        2.4770    -0.6510     0.2040 C.2   1 <1>  -0.0730 
  3 O        3.7710    -1.0470     0.2090 O.3   1 <1>  -0.3570 
  4 C        1.5660    -1.3290     1.0250 C.2   1 <1>   0.1560 
  5 C        4.7420    -0.4050    -0.5940 C.3   1 <1>   0.2000 
  6 N        1.9190    -2.3470     1.8110 N.2   1 <1>  -0.1320 
  7 C        0.1070    -0.8620     1.0010 C.3   1 <1>  -0.1020 
  8 C        5.9120    -1.3790    -0.9220 C.3   1 <1>  -0.0800 
  9 C        5.1990     0.8600     0.1660 C.3   1 <1>  -0.1600 
 10 O        1.0350    -2.8480     2.4690 O.2   1 <1>  -0.1620 
 11 C        5.5340    -2.7990    -1.4340 C.3   1 <1>  -0.0800 
 12 C        6.9210    -1.4050     0.2410 C.3   1 <1>  -0.1600 
 13 C        6.6970     1.1600    -0.0060 C.3   1 <1>  -0.0800 
 14 C        4.4890    -2.7340    -2.5570 C.3   1 <1>  -0.2400 
 15 C        5.0660    -3.7900    -0.3540 C.3   1 <1>  -0.2400 
 16 C        7.5530    -0.0210     0.4970 C.3   1 <1>  -0.1600 
 17 C        7.0810     2.4570     0.7130 C.3   1 <1>  -0.2400 
 18 H        4.2700    -0.1250    -1.5190 H     1 <1>   0.0800 
 19 H       -0.5240    -1.6660     0.6750 H     1 <1>   0.0800 
 20 H       -0.0260    -0.0370     0.3270 H     1 <1>   0.0800 
 21 H       -0.1880    -0.5450     1.9830 H     1 <1>   0.0800 
 22 H        6.4280    -0.9250    -1.7490 H     1 <1>   0.0800 
 23 H        4.9880     0.7290     1.2130 H     1 <1>   0.0800 
 24 H        4.6060     1.6860    -0.1840 H     1 <1>   0.0800 
 25 H        6.4290    -3.2180    -1.8620 H     1 <1>   0.0800 
 26 H        7.6970    -2.1250     0.0520 H     1 <1>   0.0800 
 27 H        6.3950    -1.7110     1.1300 H     1 <1>   0.0800 
 28 H        6.8830     1.2970    -1.0580 H     1 <1>   0.0800 
 29 H        3.5470    -2.3810    -2.1720 H     1 <1>   0.0800 
 30 H        4.3350    -3.7080    -2.9850 H     1 <1>   0.0800 
 31 H        4.8110    -2.0640    -3.3330 H     1 <1>   0.0800 
 32 H        4.1420    -3.4680     0.0920 H     1 <1>   0.0800 
 33 H        5.8000    -3.8950     0.4220 H     1 <1>   0.0800 
 34 H        4.9000    -4.7590    -0.7900 H     1 <1>   0.0800 
 35 H        8.5130     0.0270     0.0150 H     1 <1>   0.0800 
 36 H        7.7190     0.0750     1.5560 H     1 <1>   0.0800 
 37 H        6.8810     2.3760     1.7670 H     1 <1>   0.0800 
 38 H        6.5090     3.2790     0.3200 H     1 <1>   0.0800 
 39 H        8.1260     2.6680     0.5720 H     1 <1>   0.0800 
@<TRIPOS>BOND
  1   1   2  1   
  2   2   3  1   
  3   2   4  2   
  4   3   5  1   
  5   4   6  1   
  6   4   7  1   
  7   5   8  1   
  8   5   9  1   
  9   5  18  1   
 10   6  10  2   
 11   7  19  1   
 12   7  20  1   
 13   7  21  1   
 14   8  11  1   
 15   8  12  1   
 16   8  22  1   
 17   9  13  1   
 18   9  23  1   
 19   9  24  1   
 20  11  14  1   
 21  11  15  1   
 22  11  25  1   
 23  12  16  1   
 24  12  26  1   
 25  12  27  1   
 26  13  16  1   
 27  13  17  1   
 28  13  28  1   
 29  14  29  1   
 30  14  30  1   
 31  14  31  1   
 32  15  32  1   
 33  15  33  1   
 34  15  34  1   
 35  16  35  1   
 36  16  36  1   
 37  17  37  1   
 38  17  38  1   
 39  17  39  1   
@<TRIPOS>SUBSTRUCTURE
  1 ****   3 GROUP 4 **** **** 0

# MOE 2024.06 (io_trps.svl 2023.06)
