@<TRIPOS>MOLECULE
NONAME
45 47 1 0 0 
SMALL
USER_CHARGES


@<TRIPOS>ATOM
  1 S       -0.3100     0.0290    -0.2260 S.3   1 <1>  -0.2860 
  2 C        1.3100    -0.6540    -0.5930 C.2   1 <1>   0.2420 
  3 C       -1.4070    -0.8510    -1.4460 C.3   1 <1>   0.1310 
  4 N        1.5100    -1.5630    -1.4760 N.2   1 <1>  -0.3380 
  5 N        2.4170    -0.2620     0.0320 N.pl3 1 <1>   0.0480 
  6 C       -2.8670    -0.4590    -1.2800 C.2   1 <1>   0.5690 
  7 N        2.8220    -1.8050    -1.4520 N.2   1 <1>  -0.3380 
  8 C        3.3610    -1.0240    -0.5560 C.2   1 <1>   0.1870 
  9 C        2.5510     0.7160     1.1320 C.3   1 <1>   0.0160 
 10 O       -3.6080    -0.6380    -2.2160 O.2   1 <1>  -0.5700 
 11 N       -3.2890     0.0620    -0.0930 N.am  1 <1>  -0.7300 
 12 C        4.7670    -0.9810    -0.2310 C.2   1 <1>  -0.0010 
 13 C       -4.6450     0.5080     0.2910 C.3   1 <1>   0.2200 
 14 C        5.6410    -2.0060    -0.0340 C.2   1 <1>  -0.0400 
 15 C        5.5500     0.1780    -0.0530 C.2   1 <1>  -0.1500 
 16 C       -5.6400    -0.6590     0.2490 C.3   1 <1>  -0.1600 
 17 C       -5.1060     1.6780    -0.5860 C.3   1 <1>  -0.1600 
 18 O        6.8440    -1.5590     0.2520 O.3   1 <1>  -0.2800 
 19 C        5.4340    -3.5060    -0.0930 C.3   1 <1>  -0.0600 
 20 C        6.7960    -0.2450     0.2390 C.2   1 <1>  -0.0100 
 21 C       -7.0480    -0.1940     0.6520 C.3   1 <1>  -0.1600 
 22 C       -6.5140     2.1440    -0.1830 C.3   1 <1>  -0.1600 
 23 C       -7.5140     0.9800    -0.2210 C.3   1 <1>  -0.1600 
 24 H       -1.2850    -1.9060    -1.2860 H     1 <1>   0.0800 
 25 H       -1.0610    -0.5910    -2.4290 H     1 <1>   0.0800 
 26 H        1.6520     0.7260     1.7220 H     1 <1>   0.0800 
 27 H        2.7190     1.6940     0.7200 H     1 <1>   0.0800 
 28 H        3.3780     0.4420     1.7630 H     1 <1>   0.0800 
 29 H       -2.5760     0.2210     0.6220 H     1 <1>   0.3700 
 30 H       -4.5960     0.8590     1.3080 H     1 <1>   0.0800 
 31 H        5.1980     1.1870    -0.1510 H     1 <1>   0.1500 
 32 H       -5.3140    -1.4370     0.9150 H     1 <1>   0.0800 
 33 H       -5.6840    -1.0610    -0.7480 H     1 <1>   0.0800 
 34 H       -5.1270     1.3710    -1.6160 H     1 <1>   0.0800 
 35 H       -4.4150     2.4970    -0.4890 H     1 <1>   0.0800 
 36 H        4.4070    -3.7410    -0.3060 H     1 <1>   0.0800 
 37 H        5.7040    -3.9470     0.8480 H     1 <1>   0.0800 
 38 H        6.0520    -3.9240    -0.8660 H     1 <1>   0.0800 
 39 H        7.6970     0.3080     0.4440 H     1 <1>   0.1500 
 40 H       -7.0430     0.1100     1.6850 H     1 <1>   0.0800 
 41 H       -7.7390    -1.0130     0.5520 H     1 <1>   0.0800 
 42 H       -6.8400     2.9210    -0.8530 H     1 <1>   0.0800 
 43 H       -6.4840     2.5570     0.8110 H     1 <1>   0.0800 
 44 H       -8.4780     1.3200     0.1160 H     1 <1>   0.0800 
 45 H       -7.6220     0.6410    -1.2380 H     1 <1>   0.0800 
@<TRIPOS>BOND
  1   1   2  1   
  2   1   3  1   
  3   2   4  2   
  4   2   5  1   
  5   3   6  1   
  6   3  24  1   
  7   3  25  1   
  8   4   7  1   
  9   5   8  1   
 10   5   9  1   
 11   6  10  2   
 12   6  11  am  
 13   7   8  2   
 14   8  12  1   
 15   9  26  1   
 16   9  27  1   
 17   9  28  1   
 18  11  13  1   
 19  11  29  1   
 20  12  14  2   
 21  12  15  1   
 22  13  16  1   
 23  13  17  1   
 24  13  30  1   
 25  14  18  1   
 26  14  19  1   
 27  15  20  2   
 28  15  31  1   
 29  16  21  1   
 30  16  32  1   
 31  16  33  1   
 32  17  22  1   
 33  17  34  1   
 34  17  35  1   
 35  18  20  1   
 36  19  36  1   
 37  19  37  1   
 38  19  38  1   
 39  20  39  1   
 40  21  23  1   
 41  21  40  1   
 42  21  41  1   
 43  22  23  1   
 44  22  42  1   
 45  22  43  1   
 46  23  44  1   
 47  23  45  1   
@<TRIPOS>SUBSTRUCTURE
  1 ****   1 GROUP 4 **** **** 0

# MOE 2024.06 (io_trps.svl 2023.06)
