@<TRIPOS>MOLECULE
NONAME
49 52 1 0 0 
SMALL
USER_CHARGES


@<TRIPOS>ATOM
  1 O        1.1080    -3.8440     1.1710 O.3   1 <1>  -0.5600 
  2 C        0.9170    -2.6940     0.3990 C.3   1 <1>   0.1200 
  3 C        0.1110    -4.0900     2.1210 C.3   1 <1>   0.1200 
  4 C       -0.4150    -2.7820    -0.3700 C.3   1 <1>   0.3430 
  5 C       -1.2590    -4.2420     1.4330 C.3   1 <1>   0.3430 
  6 N       -1.5660    -3.0580     0.5590 N.4   1 <1>  -0.9590 
  7 C       -2.8500    -3.2380    -0.1830 C.3   1 <1>   0.3430 
  8 C       -3.7480    -1.9860    -0.1070 C.3   1 <1>   0.0000 
  9 C       -5.0310    -2.2670    -0.9240 C.3   1 <1>  -0.1600 
 10 C       -3.0590    -0.7330    -0.7030 C.3   1 <1>  -0.1600 
 11 C       -4.1600    -1.6820     1.3550 C.3   1 <1>  -0.1600 
 12 C       -5.9940    -1.0640    -0.8850 C.3   1 <1>   0.0000 
 13 C       -3.9990     0.4880    -0.6590 C.3   1 <1>   0.0000 
 14 C       -5.1060    -0.4700     1.4060 C.3   1 <1>  -0.0800 
 15 C       -5.2720     0.1670    -1.4670 C.3   1 <1>  -0.1600 
 16 C       -6.3690    -0.7750     0.5820 C.3   1 <1>  -0.1600 
 17 C       -7.2560    -1.3700    -1.7010 C.3   1 <1>  -0.2400 
 18 C       -4.3970     0.7580     0.8070 C.3   1 <1>  -0.1600 
 19 C       -3.2980     1.7180    -1.2480 C.3   1 <1>  -0.2400 
 20 H        1.7400    -2.6240    -0.2920 H     1 <1>   0.0800 
 21 H        0.9390    -1.8330     1.0450 H     1 <1>   0.0800 
 22 H        0.1040    -3.2840     2.8340 H     1 <1>   0.0800 
 23 H        0.3700    -4.9990     2.6360 H     1 <1>   0.0800 
 24 H       -0.3340    -3.5740    -1.0960 H     1 <1>   0.0800 
 25 H       -0.5800    -1.8610    -0.9040 H     1 <1>   0.0800 
 26 H       -2.0240    -4.3560     2.1830 H     1 <1>   0.0800 
 27 H       -1.2400    -5.1400     0.8370 H     1 <1>   0.0800 
 28 H       -1.6840    -2.2390     1.1680 H     1 <1>   0.4500 
 29 H       -3.3980    -4.0660     0.2370 H     1 <1>   0.0800 
 30 H       -2.6480    -3.4720    -1.2160 H     1 <1>   0.0800 
 31 H       -5.5360    -3.1330    -0.5290 H     1 <1>   0.0800 
 32 H       -4.7750    -2.4800    -1.9480 H     1 <1>   0.0800 
 33 H       -2.7750    -0.9220    -1.7240 H     1 <1>   0.0800 
 34 H       -2.1700    -0.4910    -0.1510 H     1 <1>   0.0800 
 35 H       -3.3000    -1.4660     1.9630 H     1 <1>   0.0800 
 36 H       -4.6590    -2.5340     1.7840 H     1 <1>   0.0800 
 37 H       -5.3850    -0.2640     2.4270 H     1 <1>   0.0800 
 38 H       -5.0150    -0.0140    -2.4960 H     1 <1>   0.0800 
 39 H       -5.9360     1.0150    -1.4460 H     1 <1>   0.0800 
 40 H       -6.8830    -1.6200     1.0050 H     1 <1>   0.0800 
 41 H       -7.0390     0.0660     0.6280 H     1 <1>   0.0800 
 42 H       -7.0050    -1.5710    -2.7270 H     1 <1>   0.0800 
 43 H       -7.9300    -0.5320    -1.6760 H     1 <1>   0.0800 
 44 H       -7.7680    -2.2270    -1.3010 H     1 <1>   0.0800 
 45 H       -5.0560     1.6080     0.8540 H     1 <1>   0.0800 
 46 H       -3.5250     0.9950     1.3910 H     1 <1>   0.0800 
 47 H       -3.0200     1.5420    -2.2720 H     1 <1>   0.0800 
 48 H       -2.4120     1.9570    -0.6880 H     1 <1>   0.0800 
 49 H       -3.9530     2.5710    -1.2210 H     1 <1>   0.0800 
@<TRIPOS>BOND
  1   1   2  1   
  2   1   3  1   
  3   2   4  1   
  4   2  20  1   
  5   2  21  1   
  6   3   5  1   
  7   3  22  1   
  8   3  23  1   
  9   4   6  1   
 10   4  24  1   
 11   4  25  1   
 12   5   6  1   
 13   5  26  1   
 14   5  27  1   
 15   6   7  1   
 16   6  28  1   
 17   7   8  1   
 18   7  29  1   
 19   7  30  1   
 20   8   9  1   
 21   8  10  1   
 22   8  11  1   
 23   9  12  1   
 24   9  31  1   
 25   9  32  1   
 26  10  13  1   
 27  10  33  1   
 28  10  34  1   
 29  11  14  1   
 30  11  35  1   
 31  11  36  1   
 32  12  15  1   
 33  12  16  1   
 34  12  17  1   
 35  13  15  1   
 36  13  18  1   
 37  13  19  1   
 38  14  16  1   
 39  14  18  1   
 40  14  37  1   
 41  15  38  1   
 42  15  39  1   
 43  16  40  1   
 44  16  41  1   
 45  17  42  1   
 46  17  43  1   
 47  17  44  1   
 48  18  45  1   
 49  18  46  1   
 50  19  47  1   
 51  19  48  1   
 52  19  49  1   
@<TRIPOS>SUBSTRUCTURE
  1 ****   8 GROUP 4 **** **** 0

# MOE 2024.06 (io_trps.svl 2023.06)
