@<TRIPOS>MOLECULE
NONAME
39 40 1 0 0 
SMALL
USER_CHARGES


@<TRIPOS>ATOM
  1 S        0.1190     2.9290    -0.0200 S.3   1 <1>  -0.3710 
  2 C       -1.5600     2.3410     0.0250 C.2   1 <1>   0.6410 
  3 C        1.2160     1.4420     0.0390 C.3   1 <1>   0.0700 
  4 N       -1.7320     0.9900     0.0910 N.pl3 1 <1>  -0.5500 
  5 N       -2.4990     3.2110    -0.0060 N.2   1 <1>  -0.6610 
  6 C        2.6620     1.9230     0.0010 C.3   1 <1>   0.1200 
  7 C       -2.9870     0.4530     0.1290 C.2   1 <1>  -0.0380 
  8 C       -3.7730     2.7230     0.0300 C.2   1 <1>   0.7670 
  9 O        3.4960     0.7870     0.0450 O.3   1 <1>  -0.3630 
 10 C       -4.0200     1.3240     0.0990 C.2   1 <1>  -0.1360 
 11 C       -3.1210    -1.0550     0.2020 C.3   1 <1>  -0.1020 
 12 O       -4.7040     3.5110     0.0020 O.2   1 <1>  -0.5700 
 13 C        4.8490     0.9140     0.0250 C.ar  1 <1>   0.0820 
 14 C        5.5850    -0.2600     0.0710 C.ar  1 <1>  -0.1500 
 15 C        5.5140     2.1360    -0.0400 C.ar  1 <1>  -0.1500 
 16 C        6.9680    -0.2270     0.0540 C.ar  1 <1>  -0.1500 
 17 C        6.8970     2.1680    -0.0560 C.ar  1 <1>  -0.1500 
 18 C        7.6330     0.9950    -0.0100 C.ar  1 <1>   0.0820 
 19 O        8.9850     1.1230    -0.0300 O.3   1 <1>  -0.3630 
 20 C        9.8230    -0.0080     0.0130 C.3   1 <1>   0.1200 
 21 C       11.2700     0.4750    -0.0250 C.3   1 <1>  -0.2400 
 22 H        0.9900     0.8380    -0.8220 H     1 <1>   0.0800 
 23 H        1.0080     0.9220     0.9560 H     1 <1>   0.0800 
 24 H       -0.9040     0.3990     0.1100 H     1 <1>   0.4000 
 25 H        2.8780     2.5400     0.8550 H     1 <1>   0.0800 
 26 H        2.8600     2.4570    -0.9120 H     1 <1>   0.0800 
 27 H       -5.0480     1.0220     0.1230 H     1 <1>   0.1500 
 28 H       -2.6450    -1.4270     1.0920 H     1 <1>   0.0800 
 29 H       -2.6630    -1.5100    -0.6580 H     1 <1>   0.0800 
 30 H       -4.1580    -1.3400     0.2260 H     1 <1>   0.0800 
 31 H        5.0660    -1.2000     0.1200 H     1 <1>   0.1500 
 32 H        4.9810     3.0670    -0.0770 H     1 <1>   0.1500 
 33 H        7.5050    -1.1560     0.0920 H     1 <1>   0.1500 
 34 H        7.4200     3.1060    -0.1050 H     1 <1>   0.1500 
 35 H        9.6060    -0.6270    -0.8410 H     1 <1>   0.0800 
 36 H        9.6250    -0.5450     0.9250 H     1 <1>   0.0800 
 37 H       11.4510     1.0240    -0.9320 H     1 <1>   0.0800 
 38 H       11.9360    -0.3680     0.0070 H     1 <1>   0.0800 
 39 H       11.4700     1.1050     0.8230 H     1 <1>   0.0800 
@<TRIPOS>BOND
  1   1   2  1   
  2   1   3  1   
  3   2   4  1   
  4   2   5  2   
  5   3   6  1   
  6   3  22  1   
  7   3  23  1   
  8   4   7  1   
  9   4  24  1   
 10   5   8  1   
 11   6   9  1   
 12   6  25  1   
 13   6  26  1   
 14   7  10  2   
 15   7  11  1   
 16   8  10  1   
 17   8  12  2   
 18   9  13  1   
 19  10  27  1   
 20  11  28  1   
 21  11  29  1   
 22  11  30  1   
 23  13  14  ar  
 24  13  15  ar  
 25  14  16  ar  
 26  14  31  1   
 27  15  17  ar  
 28  15  32  1   
 29  16  18  ar  
 30  16  33  1   
 31  17  18  ar  
 32  17  34  1   
 33  18  19  1   
 34  19  20  1   
 35  20  21  1   
 36  20  35  1   
 37  20  36  1   
 38  21  37  1   
 39  21  38  1   
 40  21  39  1   
@<TRIPOS>SUBSTRUCTURE
  1 ****   6 GROUP 4 **** **** 0

# MOE 2024.06 (io_trps.svl 2023.06)
