@<TRIPOS>MOLECULE
NONAME
41 42 1 0 0 
SMALL
USER_CHARGES


@<TRIPOS>ATOM
  1 O        0.0850    -3.1370     2.6730 O.2   1 <1>  -0.5700 
  2 C       -0.4340    -3.3410     1.6040 C.2   1 <1>   0.6590 
  3 O        0.2820    -3.7210     0.5490 O.3   1 <1>  -0.4300 
  4 C       -1.9310    -3.1840     1.3950 C.3   1 <1>   0.1810 
  5 C        1.6810    -3.8470     0.5980 C.3   1 <1>   0.2000 
  6 O       -2.1960    -2.2430     0.3670 O.3   1 <1>  -0.3630 
  7 C        2.3040    -2.4540     0.4650 C.3   1 <1>  -0.1600 
  8 C        2.1060    -4.7520    -0.5580 C.3   1 <1>  -0.1600 
  9 C       -3.4680    -1.9610    -0.0130 C.ar  1 <1>   0.0820 
 10 C        3.8200    -2.5500     0.3330 C.3   1 <1>   0.3430 
 11 C        3.6260    -4.8050    -0.6750 C.3   1 <1>   0.3430 
 12 C       -3.6210    -1.0660    -1.0590 C.ar  1 <1>  -0.1500 
 13 C       -4.5990    -2.5140     0.5820 C.ar  1 <1>  -0.1500 
 14 N        4.1710    -3.4230    -0.8260 N.4   1 <1>  -0.9590 
 15 C       -4.8830    -0.7240    -1.5120 C.ar  1 <1>  -0.1500 
 16 C       -5.8590    -2.1690     0.1250 C.ar  1 <1>  -0.1500 
 17 C        5.6500    -3.4540    -1.0390 C.3   1 <1>   0.2630 
 18 C       -6.0090    -1.2740    -0.9210 C.ar  1 <1>  -0.1440 
 19 C       -7.3940    -0.9000    -1.4200 C.3   1 <1>  -0.0970 
 20 H       -2.3860    -2.8320     2.3020 H     1 <1>   0.0800 
 21 H       -2.3540    -4.1290     1.1080 H     1 <1>   0.0800 
 22 H        1.9540    -4.3000     1.5380 H     1 <1>   0.0800 
 23 H        2.0730    -1.8720     1.3400 H     1 <1>   0.0800 
 24 H        1.9000    -1.9460    -0.3930 H     1 <1>   0.0800 
 25 H        1.6880    -4.3930    -1.4820 H     1 <1>   0.0800 
 26 H        1.7330    -5.7460    -0.3850 H     1 <1>   0.0800 
 27 H        4.2340    -2.9620     1.2400 H     1 <1>   0.0800 
 28 H        4.2300    -1.5630     0.1920 H     1 <1>   0.0800 
 29 H        3.8990    -5.4060    -1.5280 H     1 <1>   0.0800 
 30 H        4.0400    -5.2650     0.2090 H     1 <1>   0.0800 
 31 H       -2.7480    -0.6390    -1.5170 H     1 <1>   0.1500 
 32 H       -4.5260    -3.2090     1.3960 H     1 <1>   0.1500 
 33 H        3.7320    -3.0100    -1.6630 H     1 <1>   0.4500 
 34 H       -4.9830    -0.0290    -2.3270 H     1 <1>   0.1500 
 35 H       -6.7280    -2.6020     0.5890 H     1 <1>   0.1500 
 36 H        6.1440    -3.8800    -0.1800 H     1 <1>   0.0800 
 37 H        6.0270    -2.4550    -1.1930 H     1 <1>   0.0800 
 38 H        5.8920    -4.0470    -1.9060 H     1 <1>   0.0800 
 39 H       -7.3960     0.1020    -1.8080 H     1 <1>   0.0800 
 40 H       -8.1100    -0.9550    -0.6200 H     1 <1>   0.0800 
 41 H       -7.6930    -1.5760    -2.2010 H     1 <1>   0.0800 
@<TRIPOS>BOND
  1   1   2  2   
  2   2   3  1   
  3   2   4  1   
  4   3   5  1   
  5   4   6  1   
  6   4  20  1   
  7   4  21  1   
  8   5   7  1   
  9   5   8  1   
 10   5  22  1   
 11   6   9  1   
 12   7  10  1   
 13   7  23  1   
 14   7  24  1   
 15   8  11  1   
 16   8  25  1   
 17   8  26  1   
 18   9  12  ar  
 19   9  13  ar  
 20  10  14  1   
 21  10  27  1   
 22  10  28  1   
 23  11  14  1   
 24  11  29  1   
 25  11  30  1   
 26  12  15  ar  
 27  12  31  1   
 28  13  16  ar  
 29  13  32  1   
 30  14  17  1   
 31  14  33  1   
 32  15  18  ar  
 33  15  34  1   
 34  16  18  ar  
 35  16  35  1   
 36  17  36  1   
 37  17  37  1   
 38  17  38  1   
 39  18  19  1   
 40  19  39  1   
 41  19  40  1   
 42  19  41  1   
@<TRIPOS>SUBSTRUCTURE
  1 ****   6 GROUP 4 **** **** 0

# MOE 2024.06 (io_trps.svl 2023.06)
