@<TRIPOS>MOLECULE
NONAME
28 28 1 0 0 
SMALL
USER_CHARGES


@<TRIPOS>ATOM
  1 CL      -0.4280     0.2200     1.2640 Cl    1 <1>  -0.1770 
  2 C       -1.8830     0.1500     0.2940 C.ar  1 <1>   0.1770 
  3 C       -2.5900    -1.0410     0.0830 C.ar  1 <1>   0.0830 
  4 C       -2.3300     1.3460    -0.2340 C.ar  1 <1>  -0.1500 
  5 O       -2.2090    -2.2560     0.5640 O.3   1 <1>  -0.3630 
  6 C       -3.7790    -1.0080    -0.6470 C.ar  1 <1>  -0.1440 
  7 C       -3.5000     1.3520    -0.9660 C.ar  1 <1>   0.1770 
  8 C       -0.8650    -2.6810     0.4500 C.3   1 <1>   0.1200 
  9 C       -4.2290     0.1950    -1.1740 C.ar  1 <1>  -0.1500 
 10 C       -4.5750    -2.2800    -0.8700 C.3   1 <1>   0.4870 
 11 CL      -4.0810     2.8520    -1.6400 Cl    1 <1>  -0.1770 
 12 C       -0.8650    -4.1950     0.2620 C.3   1 <1>  -0.2400 
 13 N       -4.9780    -2.7940     0.4570 N.4   1 <1>  -0.9060 
 14 C       -5.6770    -4.1090     0.4120 C.3   1 <1>   0.2630 
 15 H       -1.7820     2.2570    -0.0740 H     1 <1>   0.1500 
 16 H       -0.3430    -2.4160     1.3530 H     1 <1>   0.0800 
 17 H       -0.4070    -2.1930    -0.3960 H     1 <1>   0.0800 
 18 H       -5.1370     0.2600    -1.7500 H     1 <1>   0.1500 
 19 H       -3.9560    -3.0040    -1.3760 H     1 <1>   0.0800 
 20 H       -5.4440    -2.0780    -1.4750 H     1 <1>   0.0800 
 21 H       -1.3190    -4.6780     1.1080 H     1 <1>   0.0800 
 22 H        0.1490    -4.5440     0.1810 H     1 <1>   0.0800 
 23 H       -1.3860    -4.4640    -0.6390 H     1 <1>   0.0800 
 24 H       -5.5390    -2.0810     0.9370 H     1 <1>   0.4500 
 25 H       -4.0940    -2.8670     0.9920 H     1 <1>   0.4500 
 26 H       -6.5960    -4.0290    -0.1460 H     1 <1>   0.0800 
 27 H       -5.9110    -4.4410     1.4110 H     1 <1>   0.0800 
 28 H       -5.0500    -4.8520    -0.0560 H     1 <1>   0.0800 
@<TRIPOS>BOND
  1   1   2  1   
  2   2   3  ar  
  3   2   4  ar  
  4   3   5  1   
  5   3   6  ar  
  6   4   7  ar  
  7   4  15  1   
  8   5   8  1   
  9   6   9  ar  
 10   6  10  1   
 11   7   9  ar  
 12   7  11  1   
 13   8  12  1   
 14   8  16  1   
 15   8  17  1   
 16   9  18  1   
 17  10  13  1   
 18  10  19  1   
 19  10  20  1   
 20  12  21  1   
 21  12  22  1   
 22  12  23  1   
 23  13  14  1   
 24  13  24  1   
 25  13  25  1   
 26  14  26  1   
 27  14  27  1   
 28  14  28  1   
@<TRIPOS>SUBSTRUCTURE
  1 ****   3 GROUP 4 **** **** 0

# MOE 2024.06 (io_trps.svl 2023.06)
