@<TRIPOS>MOLECULE
NONAME
48 49 1 0 0 
SMALL
USER_CHARGES


@<TRIPOS>ATOM
  1 O        1.3720     0.2030    -1.5520 O.2   1 <1>  -0.5700 
  2 C        1.1020     0.9940    -0.6870 C.2   1 <1>   0.6590 
  3 O       -0.0440     0.9640    -0.0250 O.3   1 <1>  -0.4300 
  4 C        2.0620     2.1040    -0.2950 C.3   1 <1>  -0.0190 
  5 C       -1.0250    -0.0140    -0.2900 C.3   1 <1>   0.1200 
  6 C        3.2180     2.1630    -1.3110 C.3   1 <1>   0.3430 
  7 C        2.5840     1.9460     1.1480 C.3   1 <1>  -0.1600 
  8 C       -2.2040     0.2350     0.6450 C.3   1 <1>  -0.2400 
  9 N        4.4890     2.6790    -0.7090 N.4   1 <1>  -0.9590 
 10 C        3.5440     3.0940     1.5240 C.3   1 <1>  -0.1600 
 11 C        4.2840     3.7180     0.3320 C.3   1 <1>   0.3430 
 12 C        5.5000     3.0530    -1.7310 C.3   1 <1>   0.4860 
 13 C        6.8480     3.2310    -1.0550 C.ar  1 <1>  -0.1440 
 14 C        7.4060     2.1960    -0.3080 C.ar  1 <1>   0.0820 
 15 C        7.5310     4.4310    -1.1820 C.ar  1 <1>  -0.1500 
 16 O        6.6850     1.0510    -0.1940 O.3   1 <1>  -0.3630 
 17 C        8.6480     2.3690     0.2960 C.ar  1 <1>  -0.1500 
 18 C        8.7610     4.6010    -0.5720 C.ar  1 <1>  -0.1500 
 19 C        7.0100     0.0530     0.7480 C.3   1 <1>   0.2580 
 20 C        9.3190     3.5710     0.1640 C.ar  1 <1>  -0.1500 
 21 C        5.8060    -0.8610     0.8450 C.2   1 <1>  -0.2880 
 22 C        5.0590    -1.0470     1.9380 C.2   1 <1>  -0.3000 
 23 H        1.5120     3.0250    -0.3610 H     1 <1>   0.0800 
 24 H       -0.5950    -0.9860    -0.1190 H     1 <1>   0.0800 
 25 H       -1.3250     0.0720    -1.3210 H     1 <1>   0.0800 
 26 H        2.9180     2.7840    -2.1400 H     1 <1>   0.0800 
 27 H        3.4050     1.1730    -1.6980 H     1 <1>   0.0800 
 28 H        3.1040     1.0050     1.2270 H     1 <1>   0.0800 
 29 H        1.7610     1.9180     1.8440 H     1 <1>   0.0800 
 30 H       -1.8890     0.1540     1.6700 H     1 <1>   0.0800 
 31 H       -2.9690    -0.4980     0.4650 H     1 <1>   0.0800 
 32 H       -2.6190     1.2110     0.4700 H     1 <1>   0.0800 
 33 H        4.9420     1.8830    -0.2210 H     1 <1>   0.4500 
 34 H        4.2660     2.7300     2.2350 H     1 <1>   0.0800 
 35 H        2.9930     3.8770     2.0150 H     1 <1>   0.0800 
 36 H        3.6990     4.5260    -0.0780 H     1 <1>   0.0800 
 37 H        5.2300     4.1180     0.6650 H     1 <1>   0.0800 
 38 H        5.2090     3.9630    -2.2290 H     1 <1>   0.0800 
 39 H        5.5840     2.2690    -2.4660 H     1 <1>   0.0800 
 40 H        7.1220     5.2450    -1.7560 H     1 <1>   0.1500 
 41 H        9.1140     1.5860     0.8660 H     1 <1>   0.1500 
 42 H        9.2920     5.5340    -0.6720 H     1 <1>   0.1500 
 43 H        7.2080     0.5200     1.6980 H     1 <1>   0.0800 
 44 H        7.8800    -0.4800     0.4040 H     1 <1>   0.0800 
 45 H       10.2800     3.7070     0.6310 H     1 <1>   0.1500 
 46 H        5.6050    -1.3680    -0.0850 H     1 <1>   0.1500 
 47 H        4.2110    -1.7110     1.9770 H     1 <1>   0.1500 
 48 H        5.2300    -0.5660     2.8860 H     1 <1>   0.1500 
@<TRIPOS>BOND
  1   1   2  2   
  2   2   3  1   
  3   2   4  1   
  4   3   5  1   
  5   4   6  1   
  6   4   7  1   
  7   4  23  1   
  8   5   8  1   
  9   5  24  1   
 10   5  25  1   
 11   6   9  1   
 12   6  26  1   
 13   6  27  1   
 14   7  10  1   
 15   7  28  1   
 16   7  29  1   
 17   8  30  1   
 18   8  31  1   
 19   8  32  1   
 20   9  11  1   
 21   9  12  1   
 22   9  33  1   
 23  10  11  1   
 24  10  34  1   
 25  10  35  1   
 26  11  36  1   
 27  11  37  1   
 28  12  13  1   
 29  12  38  1   
 30  12  39  1   
 31  13  14  ar  
 32  13  15  ar  
 33  14  16  1   
 34  14  17  ar  
 35  15  18  ar  
 36  15  40  1   
 37  16  19  1   
 38  17  20  ar  
 39  17  41  1   
 40  18  20  ar  
 41  18  42  1   
 42  19  21  1   
 43  19  43  1   
 44  19  44  1   
 45  20  45  1   
 46  21  22  2   
 47  21  46  1   
 48  22  47  1   
 49  22  48  1   
@<TRIPOS>SUBSTRUCTURE
  1 ****   9 GROUP 4 **** **** 0

# MOE 2024.06 (io_trps.svl 2023.06)
