@<TRIPOS>MOLECULE
NONAME
48 49 1 0 0 
SMALL
USER_CHARGES


@<TRIPOS>ATOM
  1 BR       1.5740    -0.9170    -2.1250 Br    1 <1>  -0.1110 
  2 C        0.5030    -2.2520    -1.2320 C.ar  1 <1>   0.1110 
  3 C        1.0330    -2.9620    -0.1630 C.ar  1 <1>   0.0820 
  4 C       -0.7810    -2.4560    -1.6970 C.ar  1 <1>  -0.1500 
  5 O        2.3070    -2.6880     0.2220 O.3   1 <1>  -0.3630 
  6 C        0.2270    -3.9130     0.4550 C.ar  1 <1>  -0.1500 
  7 C       -1.5790    -3.4040    -1.0740 C.ar  1 <1>  -0.1430 
  8 C        2.9460    -3.4000     1.2590 C.3   1 <1>   0.0400 
  9 C       -1.0750    -4.1340     0.0020 C.ar  1 <1>   0.0830 
 10 C       -2.9930    -3.6420    -1.5710 C.3   1 <1>   0.4870 
 11 O       -1.9090    -5.0440     0.5770 O.3   1 <1>  -0.3630 
 12 N       -3.9410    -3.3490    -0.4670 N.4   1 <1>  -0.9590 
 13 C       -1.4230    -6.0090     1.4900 C.3   1 <1>   0.0400 
 14 C       -5.3180    -3.8400    -0.7830 C.3   1 <1>   0.3430 
 15 C       -3.9110    -1.9120    -0.0670 C.3   1 <1>   0.3430 
 16 C       -6.2680    -3.6400     0.4030 C.3   1 <1>  -0.0190 
 17 C       -4.8150    -1.7000     1.1490 C.3   1 <1>  -0.1600 
 18 C       -7.6600    -4.0780    -0.0140 C.2   1 <1>   0.6590 
 19 C       -6.2520    -2.1760     0.8860 C.3   1 <1>  -0.1600 
 20 O       -7.9300    -4.2800    -1.1690 O.2   1 <1>  -0.5700 
 21 O       -8.5390    -4.2240     0.9640 O.3   1 <1>  -0.4300 
 22 C       -9.8680    -4.6210     0.7090 C.3   1 <1>   0.1200 
 23 C      -10.6060    -4.6810     2.0430 C.3   1 <1>  -0.2400 
 24 H       -1.1290    -1.8750    -2.5340 H     1 <1>   0.1500 
 25 H        0.6130    -4.4700     1.2840 H     1 <1>   0.1500 
 26 H        3.9460    -3.0180     1.3560 H     1 <1>   0.0800 
 27 H        2.9800    -4.4430     0.9990 H     1 <1>   0.0800 
 28 H        2.4060    -3.2450     2.1760 H     1 <1>   0.0800 
 29 H       -3.0850    -4.6740    -1.8700 H     1 <1>   0.0800 
 30 H       -3.2020    -3.0170    -2.4230 H     1 <1>   0.0800 
 31 H       -3.5620    -3.8970     0.3240 H     1 <1>   0.4500 
 32 H       -1.0930    -5.5140     2.3870 H     1 <1>   0.0800 
 33 H       -0.6130    -6.5510     1.0330 H     1 <1>   0.0800 
 34 H       -2.2230    -6.6880     1.7260 H     1 <1>   0.0800 
 35 H       -5.2890    -4.8870    -1.0400 H     1 <1>   0.0800 
 36 H       -5.7070    -3.3020    -1.6340 H     1 <1>   0.0800 
 37 H       -4.2550    -1.2980    -0.8840 H     1 <1>   0.0800 
 38 H       -2.9030    -1.6160     0.1790 H     1 <1>   0.0800 
 39 H       -5.9550    -4.2850     1.2050 H     1 <1>   0.0800 
 40 H       -4.8280    -0.6520     1.3950 H     1 <1>   0.0800 
 41 H       -4.4020    -2.2220     1.9950 H     1 <1>   0.0800 
 42 H       -6.8360    -2.0840     1.7870 H     1 <1>   0.0800 
 43 H       -6.7060    -1.5460     0.1380 H     1 <1>   0.0800 
 44 H       -9.8520    -5.5870     0.2320 H     1 <1>   0.0800 
 45 H      -10.3210    -3.9000     0.0500 H     1 <1>   0.0800 
 46 H      -10.1390    -5.3980     2.6950 H     1 <1>   0.0800 
 47 H      -11.6250    -4.9830     1.8780 H     1 <1>   0.0800 
 48 H      -10.6080    -3.7140     2.5120 H     1 <1>   0.0800 
@<TRIPOS>BOND
  1   1   2  1   
  2   2   3  ar  
  3   2   4  ar  
  4   3   5  1   
  5   3   6  ar  
  6   4   7  ar  
  7   4  24  1   
  8   5   8  1   
  9   6   9  ar  
 10   6  25  1   
 11   7   9  ar  
 12   7  10  1   
 13   8  26  1   
 14   8  27  1   
 15   8  28  1   
 16   9  11  1   
 17  10  12  1   
 18  10  29  1   
 19  10  30  1   
 20  11  13  1   
 21  12  14  1   
 22  12  15  1   
 23  12  31  1   
 24  13  32  1   
 25  13  33  1   
 26  13  34  1   
 27  14  16  1   
 28  14  35  1   
 29  14  36  1   
 30  15  17  1   
 31  15  37  1   
 32  15  38  1   
 33  16  18  1   
 34  16  19  1   
 35  16  39  1   
 36  17  19  1   
 37  17  40  1   
 38  17  41  1   
 39  18  20  2   
 40  18  21  1   
 41  19  42  1   
 42  19  43  1   
 43  21  22  1   
 44  22  23  1   
 45  22  44  1   
 46  22  45  1   
 47  23  46  1   
 48  23  47  1   
 49  23  48  1   
@<TRIPOS>SUBSTRUCTURE
  1 ****  12 GROUP 4 **** **** 0

# MOE 2024.06 (io_trps.svl 2023.06)
