@<TRIPOS>MOLECULE
NONAME
53 55 1 0 0 
SMALL
USER_CHARGES


@<TRIPOS>ATOM
  1 O       -0.5020     0.2600    -1.9420 O.2   1 <1>  -0.5700 
  2 C       -0.9530     1.3890    -1.9640 C.2   1 <1>   0.5440 
  3 N       -2.2960     1.5570    -2.2460 N.am  1 <1>  -0.6600 
  4 C       -0.0910     2.5080    -1.6650 C.ar  1 <1>   0.0860 
  5 C       -3.2090     0.3820    -2.3390 C.3   1 <1>   0.1400 
  6 C       -3.0200     2.8420    -2.0100 C.3   1 <1>   0.1400 
  7 C       -0.1190     3.1190    -0.4100 C.ar  1 <1>   0.0830 
  8 C        0.7840     3.0120    -2.6260 C.ar  1 <1>  -0.1500 
  9 C       -4.0000     0.2580    -1.0250 C.3   1 <1>   0.3430 
 10 C       -3.8530     2.7440    -0.7160 C.3   1 <1>   0.3430 
 11 O       -0.9430     2.6100     0.5400 O.3   1 <1>  -0.3630 
 12 C        0.6730     4.2380    -0.1370 C.ar  1 <1>   0.0820 
 13 C        1.5850     4.1050    -2.3590 C.ar  1 <1>  -0.1500 
 14 N       -4.7480     1.5250    -0.6930 N.4   1 <1>  -0.9590 
 15 C       -0.3140     1.8520     1.5530 C.3   1 <1>   0.0400 
 16 O        0.5630     4.8180     1.0920 O.3   1 <1>  -0.3630 
 17 C        1.5280     4.7220    -1.1210 C.ar  1 <1>  -0.1500 
 18 C       -5.4510     1.4130     0.6120 C.3   1 <1>   0.4860 
 19 C        1.3800     5.9040     1.4740 C.3   1 <1>   0.0400 
 20 C       -6.3810     2.6010     0.7520 C.ar  1 <1>  -0.1430 
 21 C       -6.0390     3.6630     1.5760 C.ar  1 <1>  -0.1500 
 22 C       -7.5780     2.6400     0.0520 C.ar  1 <1>  -0.1500 
 23 C       -6.8790     4.7570     1.6860 C.ar  1 <1>  -0.1500 
 24 C       -8.4150     3.7360     0.1650 C.ar  1 <1>  -0.1500 
 25 C       -8.0700     4.7990     0.9810 C.ar  1 <1>  -0.1430 
 26 C       -8.9900     6.0010     1.1050 C.3   1 <1>  -0.0970 
 27 H       -2.6530    -0.5240    -2.5100 H     1 <1>   0.0800 
 28 H       -3.8800     0.5110    -3.1700 H     1 <1>   0.0800 
 29 H       -3.6670     3.0450    -2.8460 H     1 <1>   0.0800 
 30 H       -2.3330     3.6660    -1.9300 H     1 <1>   0.0800 
 31 H        0.8310     2.5330    -3.5900 H     1 <1>   0.1500 
 32 H       -3.3000     0.0320    -0.2380 H     1 <1>   0.0800 
 33 H       -4.6880    -0.5680    -1.1050 H     1 <1>   0.0800 
 34 H       -4.4480     3.6370    -0.6140 H     1 <1>   0.0800 
 35 H       -3.1760     2.7080     0.1200 H     1 <1>   0.0800 
 36 H        2.2550     4.4790    -3.1150 H     1 <1>   0.1500 
 37 H       -5.4740     1.6780    -1.4030 H     1 <1>   0.4500 
 38 H       -1.0690     1.4870     2.2250 H     1 <1>   0.0800 
 39 H        0.3770     2.4800     2.0870 H     1 <1>   0.0800 
 40 H        0.2080     1.0280     1.0980 H     1 <1>   0.0800 
 41 H        2.1590     5.5750    -0.9490 H     1 <1>   0.1500 
 42 H       -4.7380     1.4020     1.4210 H     1 <1>   0.0800 
 43 H       -6.0290     0.5040     0.6500 H     1 <1>   0.0800 
 44 H        1.1360     6.1660     2.4880 H     1 <1>   0.0800 
 45 H        1.1810     6.7390     0.8250 H     1 <1>   0.0800 
 46 H        2.4110     5.6050     1.4140 H     1 <1>   0.0800 
 47 H       -5.1230     3.6570     2.1420 H     1 <1>   0.1500 
 48 H       -7.8800     1.8250    -0.5840 H     1 <1>   0.1500 
 49 H       -6.6060     5.5790     2.3270 H     1 <1>   0.1500 
 50 H       -9.3420     3.7600    -0.3820 H     1 <1>   0.1500 
 51 H       -8.7240     6.7410     0.3710 H     1 <1>   0.0800 
 52 H       -8.9090     6.4390     2.0840 H     1 <1>   0.0800 
 53 H      -10.0140     5.7110     0.9500 H     1 <1>   0.0800 
@<TRIPOS>BOND
  1   1   2  2   
  2   2   3  am  
  3   2   4  1   
  4   3   5  1   
  5   3   6  1   
  6   4   7  ar  
  7   4   8  ar  
  8   5   9  1   
  9   5  27  1   
 10   5  28  1   
 11   6  10  1   
 12   6  29  1   
 13   6  30  1   
 14   7  11  1   
 15   7  12  ar  
 16   8  13  ar  
 17   8  31  1   
 18   9  14  1   
 19   9  32  1   
 20   9  33  1   
 21  10  14  1   
 22  10  34  1   
 23  10  35  1   
 24  11  15  1   
 25  12  16  1   
 26  12  17  ar  
 27  13  17  ar  
 28  13  36  1   
 29  14  18  1   
 30  14  37  1   
 31  15  38  1   
 32  15  39  1   
 33  15  40  1   
 34  16  19  1   
 35  17  41  1   
 36  18  20  1   
 37  18  42  1   
 38  18  43  1   
 39  19  44  1   
 40  19  45  1   
 41  19  46  1   
 42  20  21  ar  
 43  20  22  ar  
 44  21  23  ar  
 45  21  47  1   
 46  22  24  ar  
 47  22  48  1   
 48  23  25  ar  
 49  23  49  1   
 50  24  25  ar  
 51  24  50  1   
 52  25  26  1   
 53  26  51  1   
 54  26  52  1   
 55  26  53  1   
@<TRIPOS>SUBSTRUCTURE
  1 ****  10 GROUP 4 **** **** 0

# MOE 2024.06 (io_trps.svl 2023.06)
