@<TRIPOS>MOLECULE
NONAME
52 54 1 0 0 
SMALL
USER_CHARGES


@<TRIPOS>ATOM
  1 S       -0.8710     0.2240    -1.9550 S.3   1 <1>  -0.0800 
  2 C        0.3300     1.1410    -1.0590 C.2   1 <1>   0.1040 
  3 C       -1.7420    -0.1960    -0.4900 C.2   1 <1>  -0.1400 
  4 N        1.3580     1.7820    -1.7290 N.am  1 <1>  -0.4940 
  5 C        0.0610     1.1040     0.2810 C.2   1 <1>  -0.0860 
  6 C       -1.1260     0.3410     0.5770 C.2   1 <1>  -0.1500 
  7 C       -2.9830    -1.0530    -0.6720 C.3   1 <1>   0.0200 
  8 C        1.8460     1.7230    -3.0070 C.2   1 <1>   0.5690 
  9 C        0.8560     1.7340     1.2960 C.2   1 <1>   0.8060 
 10 C       -3.6710    -1.3640     0.6600 C.3   1 <1>  -0.2400 
 11 O        1.4120     1.0090    -3.8770 O.2   1 <1>  -0.5700 
 12 C        3.0390     2.6310    -3.3160 C.3   1 <1>   0.1710 
 13 O        1.8910     2.3350     1.0630 O.2   1 <1>  -0.5700 
 14 O        0.4400     1.6500     2.5670 O.3   1 <1>  -0.4300 
 15 N        3.6830     3.2100    -2.0990 N.3   1 <1>  -0.8100 
 16 C        1.1640     2.2390     3.6300 C.3   1 <1>   0.0400 
 17 C        4.5140     4.3880    -2.4340 C.3   1 <1>   0.1100 
 18 C        4.5240     2.2100    -1.3900 C.3   1 <1>   0.1100 
 19 C        5.1500     5.0190    -1.1800 C.3   1 <1>   0.2090 
 20 C        5.1510     2.7940    -0.1100 C.3   1 <1>   0.2090 
 21 N        5.9500     4.0180    -0.4160 N.pl3 1 <1>  -0.8380 
 22 C        6.6960     4.5250     0.6410 C.ar  1 <1>   0.1000 
 23 C        8.0820     4.5250     0.5630 C.ar  1 <1>  -0.1500 
 24 C        6.0910     5.0370     1.7840 C.ar  1 <1>  -0.1500 
 25 C        8.8500     5.0230     1.6000 C.ar  1 <1>  -0.1500 
 26 C        6.8540     5.5370     2.8240 C.ar  1 <1>  -0.1500 
 27 C        8.2360     5.5300     2.7330 C.ar  1 <1>  -0.1500 
 28 H        1.9440     2.4060    -1.1540 H     1 <1>   0.3700 
 29 H       -1.4620     0.2300     1.5940 H     1 <1>   0.1500 
 30 H       -2.7030    -1.9730    -1.1540 H     1 <1>   0.0800 
 31 H       -3.6710    -0.5360    -1.3180 H     1 <1>   0.0800 
 32 H       -3.0000    -1.9000     1.3080 H     1 <1>   0.0800 
 33 H       -4.5430    -1.9710     0.4900 H     1 <1>   0.0800 
 34 H       -3.9750    -0.4530     1.1440 H     1 <1>   0.0800 
 35 H        2.6680     3.4290    -3.9340 H     1 <1>   0.0800 
 36 H        3.7610     2.0780    -3.8890 H     1 <1>   0.0800 
 37 H        0.6410     2.0430     4.5490 H     1 <1>   0.0800 
 38 H        1.2300     3.3000     3.4620 H     1 <1>   0.0800 
 39 H        2.1490     1.8060     3.6660 H     1 <1>   0.0800 
 40 H        3.9030     5.1300    -2.9180 H     1 <1>   0.0800 
 41 H        5.2990     4.1030    -3.1130 H     1 <1>   0.0800 
 42 H        5.3170     1.8730    -2.0360 H     1 <1>   0.0800 
 43 H        3.9320     1.3550    -1.1170 H     1 <1>   0.0800 
 44 H        4.3720     5.4150    -0.5510 H     1 <1>   0.0800 
 45 H        5.7910     5.8320    -1.4730 H     1 <1>   0.0800 
 46 H        5.7920     2.0590     0.3440 H     1 <1>   0.0800 
 47 H        4.3700     3.0360     0.5890 H     1 <1>   0.0800 
 48 H        8.5460     4.1290    -0.3210 H     1 <1>   0.1500 
 49 H        5.0190     5.0410     1.8510 H     1 <1>   0.1500 
 50 H        9.9220     5.0160     1.5260 H     1 <1>   0.1500 
 51 H        6.3740     5.9300     3.7020 H     1 <1>   0.1500 
 52 H        8.8310     5.9180     3.5410 H     1 <1>   0.1500 
@<TRIPOS>BOND
  1   1   2  1   
  2   1   3  1   
  3   2   4  1   
  4   2   5  2   
  5   3   6  2   
  6   3   7  1   
  7   4   8  am  
  8   4  28  1   
  9   5   6  1   
 10   5   9  1   
 11   6  29  1   
 12   7  10  1   
 13   7  30  1   
 14   7  31  1   
 15   8  11  2   
 16   8  12  1   
 17   9  13  2   
 18   9  14  1   
 19  10  32  1   
 20  10  33  1   
 21  10  34  1   
 22  12  15  1   
 23  12  35  1   
 24  12  36  1   
 25  14  16  1   
 26  15  17  1   
 27  15  18  1   
 28  16  37  1   
 29  16  38  1   
 30  16  39  1   
 31  17  19  1   
 32  17  40  1   
 33  17  41  1   
 34  18  20  1   
 35  18  42  1   
 36  18  43  1   
 37  19  21  1   
 38  19  44  1   
 39  19  45  1   
 40  20  21  1   
 41  20  46  1   
 42  20  47  1   
 43  21  22  1   
 44  22  23  ar  
 45  22  24  ar  
 46  23  25  ar  
 47  23  48  1   
 48  24  26  ar  
 49  24  49  1   
 50  25  27  ar  
 51  25  50  1   
 52  26  27  ar  
 53  26  51  1   
 54  27  52  1   
@<TRIPOS>SUBSTRUCTURE
  1 ****  13 GROUP 4 **** **** 0

# MOE 2024.06 (io_trps.svl 2023.06)
