@<TRIPOS>MOLECULE
NONAME
41 42 1 0 0 
SMALL
USER_CHARGES


@<TRIPOS>ATOM
  1 O        0.0270    -0.1300    -2.2180 O.2   1 <1>  -0.5700 
  2 C       -0.3150     0.4610    -1.2230 C.2   1 <1>   0.5690 
  3 N        0.5440     0.8110    -0.2160 N.am  1 <1>  -0.5470 
  4 C       -1.7850     0.8230    -1.1050 C.3   1 <1>   0.1570 
  5 C        1.9240     0.6410     0.0010 C.ar  1 <1>   0.1170 
  6 N       -2.0770     1.5450     0.1550 N.pl3 1 <1>   0.0480 
  7 C        2.4650     1.1480     1.1870 C.ar  1 <1>   0.0830 
  8 C        2.7670    -0.0010    -0.8980 C.ar  1 <1>  -0.1500 
  9 C       -2.3680     0.9790     1.3630 C.2   1 <1>  -0.3320 
 10 C       -1.9780     2.8920     0.3570 C.2   1 <1>  -0.3320 
 11 O        1.6010     1.7730     2.0460 O.3   1 <1>  -0.3630 
 12 C        3.8230     1.0080     1.4530 C.ar  1 <1>  -0.1500 
 13 C        4.1200    -0.1420    -0.6370 C.ar  1 <1>   0.0830 
 14 C       -2.4720     1.9540     2.3020 C.2   1 <1>  -0.1500 
 15 C       -2.5290    -0.5150     1.5830 C.3   1 <1>  -0.0600 
 16 C       -2.2240     3.1700     1.6630 C.2   1 <1>  -0.1500 
 17 C       -1.6310     3.8910    -0.7340 C.3   1 <1>  -0.0600 
 18 C        2.0430     2.3210     3.2670 C.3   1 <1>   0.0400 
 19 C        4.6480     0.3660     0.5450 C.ar  1 <1>  -0.1500 
 20 O        4.8610    -0.7840    -1.5780 O.3   1 <1>  -0.3630 
 21 C        6.2470    -0.9810    -1.4100 C.3   1 <1>   0.0400 
 22 H        0.0960     1.3110     0.5650 H     1 <1>   0.3700 
 23 H       -2.3710    -0.0740    -1.1420 H     1 <1>   0.0800 
 24 H       -2.0620     1.4390    -1.9380 H     1 <1>   0.0800 
 25 H        2.3850    -0.4010    -1.8170 H     1 <1>   0.1500 
 26 H        4.2580     1.3890     2.3560 H     1 <1>   0.1500 
 27 H       -2.6950     1.8440     3.3500 H     1 <1>   0.1500 
 28 H       -1.6240    -1.0320     1.3170 H     1 <1>   0.0800 
 29 H       -3.3420    -0.8950     0.9910 H     1 <1>   0.0800 
 30 H       -2.7410    -0.7140     2.6190 H     1 <1>   0.0800 
 31 H       -2.2290     4.1310     2.1470 H     1 <1>   0.1500 
 32 H       -0.6670     3.6650    -1.1540 H     1 <1>   0.0800 
 33 H       -1.6000     4.8850    -0.3260 H     1 <1>   0.0800 
 34 H       -2.3720     3.8660    -1.5130 H     1 <1>   0.0800 
 35 H        1.1930     2.7540     3.7630 H     1 <1>   0.0800 
 36 H        2.7740     3.0830     3.0640 H     1 <1>   0.0800 
 37 H        2.4580     1.5350     3.8730 H     1 <1>   0.0800 
 38 H        5.6920     0.2720     0.7750 H     1 <1>   0.1500 
 39 H        6.6150    -1.5060    -2.2730 H     1 <1>   0.0800 
 40 H        6.4110    -1.5710    -0.5260 H     1 <1>   0.0800 
 41 H        6.7290    -0.0230    -1.3320 H     1 <1>   0.0800 
@<TRIPOS>BOND
  1   1   2  2   
  2   2   3  am  
  3   2   4  1   
  4   3   5  1   
  5   3  22  1   
  6   4   6  1   
  7   4  23  1   
  8   4  24  1   
  9   5   7  ar  
 10   5   8  ar  
 11   6   9  1   
 12   6  10  1   
 13   7  11  1   
 14   7  12  ar  
 15   8  13  ar  
 16   8  25  1   
 17   9  14  2   
 18   9  15  1   
 19  10  16  2   
 20  10  17  1   
 21  11  18  1   
 22  12  19  ar  
 23  12  26  1   
 24  13  19  ar  
 25  13  20  1   
 26  14  16  1   
 27  14  27  1   
 28  15  28  1   
 29  15  29  1   
 30  15  30  1   
 31  16  31  1   
 32  17  32  1   
 33  17  33  1   
 34  17  34  1   
 35  18  35  1   
 36  18  36  1   
 37  18  37  1   
 38  19  38  1   
 39  20  21  1   
 40  21  39  1   
 41  21  40  1   
 42  21  41  1   
@<TRIPOS>SUBSTRUCTURE
  1 ****   3 GROUP 4 **** **** 0

# MOE 2024.06 (io_trps.svl 2023.06)
