@<TRIPOS>MOLECULE
NONAME
52 55 1 0 0 
SMALL
USER_CHARGES


@<TRIPOS>ATOM
  1 S       -0.0920     0.2770    -2.6630 S.3   1 <1>  -0.2860 
  2 C        1.3280    -0.4900    -1.8720 C.2   1 <1>   0.2420 
  3 C       -1.3210    -1.1040    -2.8780 C.3   1 <1>   0.1310 
  4 N        1.4500    -1.7510    -1.6620 N.2   1 <1>  -0.3380 
  5 N        2.3610     0.2250    -1.4370 N.pl3 1 <1>   0.0480 
  6 C       -2.5160    -0.8980    -1.9550 C.2   1 <1>   0.5690 
  7 N        2.6220    -1.9030    -1.0430 N.2   1 <1>  -0.3380 
  8 C        3.1580    -0.7210    -0.9020 C.2   1 <1>   0.1870 
  9 C        2.5860     1.6800    -1.5750 C.3   1 <1>   0.0160 
 10 O       -3.5250    -0.4660    -2.4650 O.2   1 <1>  -0.5700 
 11 N       -2.4610    -1.1930    -0.6130 N.am  1 <1>  -0.6600 
 12 C        4.4270    -0.4470    -0.2790 C.2   1 <1>  -0.0010 
 13 C       -1.2740    -1.8270     0.0440 C.3   1 <1>   0.1400 
 14 C       -3.6140    -0.8460     0.2730 C.3   1 <1>   0.1400 
 15 C        4.6500     0.4590     0.7920 C.ar  1 <1>   0.0000 
 16 C        5.6430    -0.9760    -0.5890 C.2   1 <1>  -0.3020 
 17 C       -1.6610    -2.4990     1.3650 C.3   1 <1>  -0.1600 
 18 C       -3.1120    -0.4120     1.6540 C.3   1 <1>  -0.1600 
 19 C        6.0160     0.4540     1.0520 C.ar  1 <1>  -0.1520 
 20 C        3.8040     1.2630     1.5640 C.ar  1 <1>  -0.1500 
 21 N        6.6160    -0.4420     0.1990 N.pl3 1 <1>   0.0480 
 22 C       -2.3000    -1.5140     2.3580 C.3   1 <1>  -0.1600 
 23 C        6.5560     1.2680     2.0530 C.ar  1 <1>  -0.1500 
 24 C        4.3360     2.0630     2.5490 C.ar  1 <1>  -0.1500 
 25 C        8.0510    -0.7880     0.1530 C.3   1 <1>   0.0960 
 26 C        5.7140     2.0680     2.7910 C.ar  1 <1>  -0.1500 
 27 C        8.3800    -1.8530     1.2030 C.3   1 <1>  -0.2400 
 28 H       -0.8340    -2.0420    -2.6990 H     1 <1>   0.0800 
 29 H       -1.6430    -1.0660    -3.9010 H     1 <1>   0.0800 
 30 H        2.3140     1.9910    -2.5670 H     1 <1>   0.0800 
 31 H        3.6230     1.9090    -1.4070 H     1 <1>   0.0800 
 32 H        1.9810     2.2030    -0.8570 H     1 <1>   0.0800 
 33 H       -0.5320    -1.0710     0.2330 H     1 <1>   0.0800 
 34 H       -0.8470    -2.5710    -0.6050 H     1 <1>   0.0800 
 35 H       -4.2550    -1.7060     0.3670 H     1 <1>   0.0800 
 36 H       -4.1880    -0.0470    -0.1630 H     1 <1>   0.0800 
 37 H        5.8540    -1.7130    -1.3420 H     1 <1>   0.1500 
 38 H       -0.7880    -2.9440     1.8090 H     1 <1>   0.0800 
 39 H       -2.3520    -3.2950     1.1480 H     1 <1>   0.0800 
 40 H       -3.9470    -0.1290     2.2690 H     1 <1>   0.0800 
 41 H       -2.4960     0.4620     1.5230 H     1 <1>   0.0800 
 42 H        2.7450     1.2410     1.3850 H     1 <1>   0.1500 
 43 H       -1.5320    -1.0490     2.9520 H     1 <1>   0.0800 
 44 H       -2.9400    -2.0650     3.0260 H     1 <1>   0.0800 
 45 H        7.6140     1.2620     2.2420 H     1 <1>   0.1500 
 46 H        3.6980     2.6880     3.1480 H     1 <1>   0.1500 
 47 H        8.6280     0.1020     0.3300 H     1 <1>   0.0800 
 48 H        8.2850    -1.1560    -0.8290 H     1 <1>   0.0800 
 49 H        6.1080     2.7020     3.5660 H     1 <1>   0.1500 
 50 H        8.1540    -1.4880     2.1900 H     1 <1>   0.0800 
 51 H        9.4260    -2.0990     1.1600 H     1 <1>   0.0800 
 52 H        7.8100    -2.7460     1.0180 H     1 <1>   0.0800 
@<TRIPOS>BOND
  1   1   2  1   
  2   1   3  1   
  3   2   4  2   
  4   2   5  1   
  5   3   6  1   
  6   3  28  1   
  7   3  29  1   
  8   4   7  1   
  9   5   8  1   
 10   5   9  1   
 11   6  10  2   
 12   6  11  am  
 13   7   8  2   
 14   8  12  1   
 15   9  30  1   
 16   9  31  1   
 17   9  32  1   
 18  11  13  1   
 19  11  14  1   
 20  12  15  1   
 21  12  16  2   
 22  13  17  1   
 23  13  33  1   
 24  13  34  1   
 25  14  18  1   
 26  14  35  1   
 27  14  36  1   
 28  15  19  ar  
 29  15  20  ar  
 30  16  21  1   
 31  16  37  1   
 32  17  22  1   
 33  17  38  1   
 34  17  39  1   
 35  18  22  1   
 36  18  40  1   
 37  18  41  1   
 38  19  21  1   
 39  19  23  ar  
 40  20  24  ar  
 41  20  42  1   
 42  21  25  1   
 43  22  43  1   
 44  22  44  1   
 45  23  26  ar  
 46  23  45  1   
 47  24  26  ar  
 48  24  46  1   
 49  25  27  1   
 50  25  47  1   
 51  25  48  1   
 52  26  49  1   
 53  27  50  1   
 54  27  51  1   
 55  27  52  1   
@<TRIPOS>SUBSTRUCTURE
  1 ****   8 GROUP 4 **** **** 0

# MOE 2024.06 (io_trps.svl 2023.06)
