@<TRIPOS>MOLECULE
NONAME
59 63 1 0 0 
SMALL
USER_CHARGES


@<TRIPOS>ATOM
  1 O       -0.1560    -0.5230     1.4270 O.2   1 <1>  -0.5700 
  2 C       -0.4250    -1.5920     0.9210 C.2   1 <1>   0.6900 
  3 N       -1.6940    -1.9110     0.5420 N.am  1 <1>  -0.5470 
  4 N        0.5880    -2.4620     0.7200 N.am  1 <1>  -0.7300 
  5 C       -2.8880    -1.1940     0.6780 C.ar  1 <1>   0.1170 
  6 C        0.6290    -3.8660     0.2810 C.3   1 <1>   0.3000 
  7 C       -3.1210    -0.3370     1.7470 C.ar  1 <1>  -0.1500 
  8 C       -3.8860    -1.3440    -0.2770 C.ar  1 <1>  -0.1500 
  9 C        0.1900    -3.9920    -1.1910 C.3   1 <1>  -0.1600 
 10 C       -0.2550    -4.7570     1.1780 C.3   1 <1>  -0.1600 
 11 C        2.0890    -4.3410     0.4020 C.3   1 <1>  -0.1600 
 12 C       -4.3040     0.3700     1.8480 C.ar  1 <1>  -0.1500 
 13 C       -5.0720    -0.6380    -0.1830 C.ar  1 <1>  -0.1500 
 14 C        0.2940    -5.4610    -1.6460 C.3   1 <1>  -0.0800 
 15 C       -0.1500    -6.2260     0.7250 C.3   1 <1>  -0.0800 
 16 C        2.2160    -5.8090    -0.0480 C.3   1 <1>  -0.0800 
 17 C       -5.2830     0.2340     0.8760 C.ar  1 <1>  -0.1430 
 18 C       -0.6010    -6.3370    -0.7460 C.3   1 <1>  -0.1600 
 19 C        1.7550    -5.9290    -1.5130 C.3   1 <1>  -0.1600 
 20 C        1.3150    -6.6880     0.8400 C.3   1 <1>  -0.1600 
 21 C       -6.5570     1.0530     0.9630 C.3   1 <1>   0.4860 
 22 N       -6.4760     2.1560    -0.0310 N.4   1 <1>  -0.9590 
 23 C       -5.2670     3.0360     0.1370 C.3   1 <1>   0.3430 
 24 C       -7.7280     2.9770    -0.1360 C.3   1 <1>   0.3430 
 25 C       -5.2030     4.1130    -0.9690 C.3   1 <1>   0.1200 
 26 C       -7.5540     4.1500    -1.1290 C.3   1 <1>   0.1200 
 27 O       -6.3300     4.0600    -1.8060 O.3   1 <1>  -0.5600 
 28 H       -1.7380    -2.7780     0.0190 H     1 <1>   0.3700 
 29 H        1.4870    -2.1040     1.0380 H     1 <1>   0.3700 
 30 H       -2.3660    -0.2250     2.5070 H     1 <1>   0.1500 
 31 H       -3.7270    -2.0130    -1.1030 H     1 <1>   0.1500 
 32 H        0.8210    -3.3790    -1.8110 H     1 <1>   0.0800 
 33 H       -0.8230    -3.6640    -1.3190 H     1 <1>   0.0800 
 34 H       -1.2830    -4.4550     1.1270 H     1 <1>   0.0800 
 35 H        0.0660    -4.6720     2.2020 H     1 <1>   0.0800 
 36 H        2.4180    -4.2540     1.4230 H     1 <1>   0.0800 
 37 H        2.7250    -3.7270    -0.2110 H     1 <1>   0.0800 
 38 H       -4.4410     1.0230     2.6930 H     1 <1>   0.1500 
 39 H       -5.8200    -0.7780    -0.9450 H     1 <1>   0.1500 
 40 H       -0.0230    -5.5490    -2.6710 H     1 <1>   0.0800 
 41 H       -0.7760    -6.8450     1.3460 H     1 <1>   0.0800 
 42 H        3.2400    -6.1320     0.0400 H     1 <1>   0.0800 
 43 H       -0.5410    -7.3630    -1.0650 H     1 <1>   0.0800 
 44 H       -1.6280    -6.0290    -0.8380 H     1 <1>   0.0800 
 45 H        2.3890    -5.3320    -2.1450 H     1 <1>   0.0800 
 46 H        1.8410    -6.9510    -1.8390 H     1 <1>   0.0800 
 47 H        1.3970    -7.7170     0.5360 H     1 <1>   0.0800 
 48 H        1.6380    -6.6250     1.8640 H     1 <1>   0.0800 
 49 H       -6.6670     1.4530     1.9580 H     1 <1>   0.0800 
 50 H       -7.4040     0.4200     0.7510 H     1 <1>   0.0800 
 51 H       -6.3400     1.7320    -0.9600 H     1 <1>   0.4500 
 52 H       -4.3660     2.4440     0.0970 H     1 <1>   0.0800 
 53 H       -5.2930     3.5200     1.0990 H     1 <1>   0.0800 
 54 H       -7.9940     3.3750     0.8290 H     1 <1>   0.0800 
 55 H       -8.5450     2.3570    -0.4690 H     1 <1>   0.0800 
 56 H       -4.3340     3.9580    -1.5840 H     1 <1>   0.0800 
 57 H       -5.1380     5.0980    -0.5400 H     1 <1>   0.0800 
 58 H       -7.5950     5.0960    -0.6150 H     1 <1>   0.0800 
 59 H       -8.3400     4.1350    -1.8640 H     1 <1>   0.0800 
@<TRIPOS>BOND
  1   1   2  2   
  2   2   3  am  
  3   2   4  am  
  4   3   5  1   
  5   3  28  1   
  6   4   6  1   
  7   4  29  1   
  8   5   7  ar  
  9   5   8  ar  
 10   6   9  1   
 11   6  10  1   
 12   6  11  1   
 13   7  12  ar  
 14   7  30  1   
 15   8  13  ar  
 16   8  31  1   
 17   9  14  1   
 18   9  32  1   
 19   9  33  1   
 20  10  15  1   
 21  10  34  1   
 22  10  35  1   
 23  11  16  1   
 24  11  36  1   
 25  11  37  1   
 26  12  17  ar  
 27  12  38  1   
 28  13  17  ar  
 29  13  39  1   
 30  14  18  1   
 31  14  19  1   
 32  14  40  1   
 33  15  18  1   
 34  15  20  1   
 35  15  41  1   
 36  16  19  1   
 37  16  20  1   
 38  16  42  1   
 39  17  21  1   
 40  18  43  1   
 41  18  44  1   
 42  19  45  1   
 43  19  46  1   
 44  20  47  1   
 45  20  48  1   
 46  21  22  1   
 47  21  49  1   
 48  21  50  1   
 49  22  23  1   
 50  22  24  1   
 51  22  51  1   
 52  23  25  1   
 53  23  52  1   
 54  23  53  1   
 55  24  26  1   
 56  24  54  1   
 57  24  55  1   
 58  25  27  1   
 59  25  56  1   
 60  25  57  1   
 61  26  27  1   
 62  26  58  1   
 63  26  59  1   
@<TRIPOS>SUBSTRUCTURE
  1 ****   5 GROUP 4 **** **** 0

# MOE 2024.06 (io_trps.svl 2023.06)
