@<TRIPOS>MOLECULE
NONAME
29 29 1 0 0 
SMALL
USER_CHARGES


@<TRIPOS>ATOM
  1 CL       0.2380    -0.3690    -0.1820 Cl    1 <1>  -0.1770 
  2 C        1.6000     0.7240    -0.1080 C.ar  1 <1>   0.1770 
  3 C        1.4070     2.0950    -0.0590 C.ar  1 <1>   0.1770 
  4 C        2.8780     0.1980    -0.0990 C.ar  1 <1>  -0.1500 
  5 CL      -0.2050     2.7750    -0.0710 Cl    1 <1>  -0.1770 
  6 C        2.4920     2.9520    -0.0010 C.ar  1 <1>  -0.1500 
  7 C        3.9730     1.0480    -0.0400 C.ar  1 <1>   0.0830 
  8 C        3.7770     2.4300     0.0080 C.ar  1 <1>  -0.1500 
  9 O        5.1960     0.4600    -0.0350 O.3   1 <1>  -0.3630 
 10 C        6.3810     1.2150     0.0220 C.3   1 <1>   0.1200 
 11 C        7.5500     0.2240     0.0110 C.3   1 <1>   0.3430 
 12 N        8.8750     0.9150     0.0690 N.4   1 <1>  -0.9060 
 13 C        9.9990    -0.0720     0.0570 C.3   1 <1>   0.3430 
 14 C       11.3680     0.6170     0.1150 C.3   1 <1>   0.1200 
 15 O       12.3280    -0.3760     0.0990 O.3   1 <1>  -0.6800 
 16 H        3.0170    -0.8670    -0.1370 H     1 <1>   0.1500 
 17 H        2.3250     4.0140     0.0360 H     1 <1>   0.1500 
 18 H        4.6000     3.1170     0.0540 H     1 <1>   0.1500 
 19 H        6.3670     1.7880     0.9330 H     1 <1>   0.0800 
 20 H        6.4090     1.8570    -0.8410 H     1 <1>   0.0800 
 21 H        7.4890    -0.3680    -0.8890 H     1 <1>   0.0800 
 22 H        7.4490    -0.4350     0.8580 H     1 <1>   0.0800 
 23 H        8.9360     1.4840     0.9240 H     1 <1>   0.4500 
 24 H        8.9740     1.5480    -0.7370 H     1 <1>   0.4500 
 25 H        9.9520    -0.6650    -0.8420 H     1 <1>   0.0800 
 26 H        9.9120    -0.7330     0.9040 H     1 <1>   0.0800 
 27 H       11.4870     1.1780     1.0260 H     1 <1>   0.0800 
 28 H       11.5290     1.2460    -0.7430 H     1 <1>   0.0800 
 29 H       13.2390    -0.0100     0.1340 H     1 <1>   0.4000 
@<TRIPOS>BOND
  1   1   2  1   
  2   2   3  ar  
  3   2   4  ar  
  4   3   5  1   
  5   3   6  ar  
  6   4   7  ar  
  7   4  16  1   
  8   6   8  ar  
  9   6  17  1   
 10   7   8  ar  
 11   7   9  1   
 12   8  18  1   
 13   9  10  1   
 14  10  11  1   
 15  10  19  1   
 16  10  20  1   
 17  11  12  1   
 18  11  21  1   
 19  11  22  1   
 20  12  13  1   
 21  12  23  1   
 22  12  24  1   
 23  13  14  1   
 24  13  25  1   
 25  13  26  1   
 26  14  15  1   
 27  14  27  1   
 28  14  28  1   
 29  15  29  1   
@<TRIPOS>SUBSTRUCTURE
  1 ****   9 GROUP 4 **** **** 0

# MOE 2024.06 (io_trps.svl 2023.06)
