@<TRIPOS>MOLECULE
NONAME
46 48 1 0 0 
SMALL
USER_CHARGES


@<TRIPOS>ATOM
  1 CL       1.8170     2.0880     3.3890 Cl    1 <1>  -0.1770 
  2 C        2.4120     1.7820     1.7780 C.ar  1 <1>   0.1770 
  3 C        3.6370     1.1700     1.6140 C.ar  1 <1>  -0.1500 
  4 C        1.6430     2.1600     0.6930 C.ar  1 <1>  -0.1500 
  5 C        4.1350     0.9220     0.3360 C.ar  1 <1>   0.0860 
  6 C        2.1160     1.9120    -0.5830 C.ar  1 <1>  -0.1500 
  7 C        5.4250     0.2840     0.1550 C.2   1 <1>   0.5440 
  8 C        3.3460     1.2980    -0.7540 C.ar  1 <1>  -0.1500 
  9 O        5.6100    -0.8090     0.6530 O.2   1 <1>  -0.5700 
 10 N        6.4450     0.8820    -0.5600 N.am  1 <1>  -0.6600 
 11 C        6.4630     2.3270    -0.9220 C.3   1 <1>   0.1400 
 12 C        7.7000     0.1460    -0.8840 C.3   1 <1>   0.1400 
 13 C        7.6480     3.0150    -0.2390 C.3   1 <1>  -0.1600 
 14 C        8.8880     0.8210    -0.1930 C.3   1 <1>  -0.1600 
 15 C        8.9840     2.3130    -0.5600 C.3   1 <1>  -0.0190 
 16 C       10.1810     2.9710     0.1300 C.2   1 <1>   0.5690 
 17 O       10.0250     3.5160     1.1950 O.2   1 <1>  -0.5700 
 18 N       11.3900     2.8880    -0.5090 N.am  1 <1>  -0.5470 
 19 C       12.6570     3.3890    -0.1700 C.ar  1 <1>   0.1170 
 20 C       13.7730     2.8420    -0.7930 C.ar  1 <1>  -0.1500 
 21 C       12.8560     4.4160     0.7470 C.ar  1 <1>  -0.1500 
 22 C       15.0470     3.3030    -0.5100 C.ar  1 <1>  -0.1500 
 23 C       14.1280     4.8780     1.0330 C.ar  1 <1>  -0.1500 
 24 C       15.2320     4.3260     0.4050 C.ar  1 <1>  -0.1430 
 25 C       16.6270     4.8330     0.7220 C.3   1 <1>  -0.0970 
 26 H        4.2130     0.8790     2.4740 H     1 <1>   0.1500 
 27 H        0.6910     2.6350     0.8500 H     1 <1>   0.1500 
 28 H        1.5270     2.1930    -1.4400 H     1 <1>   0.1500 
 29 H        3.7080     1.0980    -1.7470 H     1 <1>   0.1500 
 30 H        5.5550     2.8160    -0.6170 H     1 <1>   0.0800 
 31 H        6.5500     2.4200    -1.9920 H     1 <1>   0.0800 
 32 H        7.8410     0.1510    -1.9510 H     1 <1>   0.0800 
 33 H        7.6360    -0.8810    -0.5670 H     1 <1>   0.0800 
 34 H        7.4810     3.0090     0.8250 H     1 <1>   0.0800 
 35 H        7.6950     4.0420    -0.5530 H     1 <1>   0.0800 
 36 H        9.7930     0.3120    -0.4730 H     1 <1>   0.0800 
 37 H        8.7730     0.7160     0.8730 H     1 <1>   0.0800 
 38 H        9.1390     2.3890    -1.6220 H     1 <1>   0.0800 
 39 H       11.3830     2.3330    -1.3600 H     1 <1>   0.3700 
 40 H       13.6530     2.0470    -1.5040 H     1 <1>   0.1500 
 41 H       12.0170     4.8670     1.2440 H     1 <1>   0.1500 
 42 H       15.8950     2.8620    -1.0030 H     1 <1>   0.1500 
 43 H       14.2520     5.6710     1.7490 H     1 <1>   0.1500 
 44 H       17.0320     4.2860     1.5550 H     1 <1>   0.0800 
 45 H       16.5980     5.8780     0.9740 H     1 <1>   0.0800 
 46 H       17.2760     4.7070    -0.1260 H     1 <1>   0.0800 
@<TRIPOS>BOND
  1   1   2  1   
  2   2   3  ar  
  3   2   4  ar  
  4   3   5  ar  
  5   3  26  1   
  6   4   6  ar  
  7   4  27  1   
  8   5   7  1   
  9   5   8  ar  
 10   6   8  ar  
 11   6  28  1   
 12   7   9  2   
 13   7  10  am  
 14   8  29  1   
 15  10  11  1   
 16  10  12  1   
 17  11  13  1   
 18  11  30  1   
 19  11  31  1   
 20  12  14  1   
 21  12  32  1   
 22  12  33  1   
 23  13  15  1   
 24  13  34  1   
 25  13  35  1   
 26  14  15  1   
 27  14  36  1   
 28  14  37  1   
 29  15  16  1   
 30  15  38  1   
 31  16  17  2   
 32  16  18  am  
 33  18  19  1   
 34  18  39  1   
 35  19  20  ar  
 36  19  21  ar  
 37  20  22  ar  
 38  20  40  1   
 39  21  23  ar  
 40  21  41  1   
 41  22  24  ar  
 42  22  42  1   
 43  23  24  ar  
 44  23  43  1   
 45  24  25  1   
 46  25  44  1   
 47  25  45  1   
 48  25  46  1   
@<TRIPOS>SUBSTRUCTURE
  1 ****  15 GROUP 4 **** **** 0

# MOE 2024.06 (io_trps.svl 2023.06)
