@<TRIPOS>MOLECULE
NONAME
40 41 1 0 0 
SMALL
USER_CHARGES


@<TRIPOS>ATOM
  1 N       -9.2800     2.5190    -0.4990 N.ar  1 <1>  -0.6200 
  2 C       -8.2290     2.7380     0.2560 C.ar  1 <1>   0.9310 
  3 C       -9.7390     1.2890    -0.4830 C.ar  1 <1>   0.1660 
  4 N       -7.5740     1.8870     1.0260 N.ar  1 <1>  -0.6200 
  5 N       -7.8320     4.0220     0.2320 N.pl3 1 <1>  -0.8280 
  6 C       -9.1480     0.3120     0.2840 C.ar  1 <1>  -0.1500 
  7 C      -10.9500     0.9890    -1.3430 C.3   1 <1>  -0.0970 
  8 C       -8.0520     0.6640     1.0380 C.ar  1 <1>   0.1670 
  9 C       -6.7610     4.5690     0.7320 C.cat 1 <1>   1.2000 
 10 C       -7.3520    -0.3510     1.9190 C.3   1 <1>  -0.0970 
 11 N       -6.9740     5.6870     1.3640 N.pl3 1 <1>  -0.9670 
 12 N       -5.5080     4.1030     0.5720 N.pl3 1 <1>  -0.7220 
 13 C       -5.1570     3.0130    -0.4150 C.3   1 <1>   0.1680 
 14 C       -4.3300     4.5210     1.4170 C.3   1 <1>   0.1680 
 15 C       -3.8800     3.3210    -1.2290 C.3   1 <1>   0.3430 
 16 C       -3.0610     4.8130     0.5790 C.3   1 <1>   0.3430 
 17 N       -2.7160     3.6810    -0.3480 N.4   1 <1>  -0.9590 
 18 C       -1.5070     4.0090    -1.1720 C.3   1 <1>   0.2630 
 19 H       -8.6230     4.6050     0.0100 H     1 <1>   0.4500 
 20 H       -9.5330    -0.6910     0.2970 H     1 <1>   0.1500 
 21 H      -10.7280     1.2040    -2.3720 H     1 <1>   0.0800 
 22 H      -11.7770     1.6030    -1.0330 H     1 <1>   0.0800 
 23 H      -11.2390    -0.0430    -1.2600 H     1 <1>   0.0800 
 24 H       -6.3300    -0.4650     1.6100 H     1 <1>   0.0800 
 25 H       -7.8360    -1.3090     1.8640 H     1 <1>   0.0800 
 26 H       -7.3710    -0.0180     2.9420 H     1 <1>   0.0800 
 27 H       -6.2380     6.2490     1.7760 H     1 <1>   0.4500 
 28 H       -7.9130     6.0360     1.5470 H     1 <1>   0.4500 
 29 H       -5.9590     2.8620    -1.1170 H     1 <1>   0.0800 
 30 H       -5.0180     2.0860     0.1170 H     1 <1>   0.0800 
 31 H       -4.1070     3.7290     2.1130 H     1 <1>   0.0800 
 32 H       -4.5570     5.3940     2.0030 H     1 <1>   0.0800 
 33 H       -4.0900     4.1360    -1.9020 H     1 <1>   0.0800 
 34 H       -3.6310     2.4600    -1.8290 H     1 <1>   0.0800 
 35 H       -2.2340     4.9980     1.2470 H     1 <1>   0.0800 
 36 H       -3.2230     5.7110     0.0060 H     1 <1>   0.0800 
 37 H       -2.4860     2.8540     0.2260 H     1 <1>   0.4500 
 38 H       -1.6970     4.8680    -1.7950 H     1 <1>   0.0800 
 39 H       -1.2470     3.1760    -1.8050 H     1 <1>   0.0800 
 40 H       -0.6650     4.2270    -0.5340 H     1 <1>   0.0800 
@<TRIPOS>BOND
  1   1   2  ar  
  2   1   3  ar  
  3   2   4  ar  
  4   2   5  1   
  5   3   6  ar  
  6   3   7  1   
  7   4   8  ar  
  8   5   9  ar  
  9   5  19  1   
 10   6   8  ar  
 11   6  20  1   
 12   7  21  1   
 13   7  22  1   
 14   7  23  1   
 15   8  10  1   
 16   9  11  ar  
 17   9  12  ar  
 18  10  24  1   
 19  10  25  1   
 20  10  26  1   
 21  11  27  1   
 22  11  28  1   
 23  12  13  1   
 24  12  14  1   
 25  13  15  1   
 26  13  29  1   
 27  13  30  1   
 28  14  16  1   
 29  14  31  1   
 30  14  32  1   
 31  15  17  1   
 32  15  33  1   
 33  15  34  1   
 34  16  17  1   
 35  16  35  1   
 36  16  36  1   
 37  17  18  1   
 38  17  37  1   
 39  18  38  1   
 40  18  39  1   
 41  18  40  1   
@<TRIPOS>SUBSTRUCTURE
  1 ****  13 GROUP 4 **** **** 0

# MOE 2024.06 (io_trps.svl 2023.06)
