@<TRIPOS>MOLECULE
NONAME
51 52 1 0 0 
SMALL
USER_CHARGES


@<TRIPOS>ATOM
  1 O       -1.4970    -0.8010     0.7570 O.2   1 <1>  -0.5700 
  2 C       -0.9300    -1.8440     0.5300 C.2   1 <1>   0.5690 
  3 N        0.2280    -2.3060     1.0770 N.am  1 <1>  -0.2980 
  4 C       -1.4220    -2.8920    -0.4260 C.3   1 <1>  -0.0380 
  5 N        0.5720    -3.5530     0.6160 N.2   1 <1>  -0.5120 
  6 C        1.1020    -1.5210     1.9690 C.3   1 <1>   0.2840 
  7 C       -0.3140    -3.9060    -0.2130 C.2   1 <1>   0.3280 
  8 C        2.0120    -0.6260     1.1400 C.ar  1 <1>  -0.1440 
  9 C       -0.3410    -5.2110    -0.9750 C.3   1 <1>  -0.1790 
 10 C        1.5960     0.6390     0.7830 C.ar  1 <1>  -0.1500 
 11 C        3.2490    -1.0770     0.7280 C.ar  1 <1>  -0.1500 
 12 C        2.3850     1.4930     0.0220 C.ar  1 <1>  -0.1430 
 13 C        4.1030    -0.2830    -0.0320 C.ar  1 <1>  -0.1430 
 14 C        3.6440     1.0040    -0.3670 C.ar  1 <1>   0.0830 
 15 C        1.7540     2.8850    -0.3030 C.3   1 <1>   0.1430 
 16 C        5.4950    -0.8420    -0.4730 C.3   1 <1>   0.1430 
 17 O        4.4630     1.7740    -1.0920 O.3   1 <1>  -0.5320 
 18 C        1.4460     3.6240     1.0120 C.3   1 <1>  -0.2400 
 19 C        0.4410     2.6750    -1.0810 C.3   1 <1>  -0.2400 
 20 C        2.5970     3.8570    -1.1490 C.3   1 <1>  -0.2400 
 21 C        6.6420     0.0070     0.1090 C.3   1 <1>  -0.2400 
 22 C        5.7570    -2.2810     0.0180 C.3   1 <1>  -0.2400 
 23 C        5.6000    -0.9060    -2.0090 C.3   1 <1>  -0.2400 
 24 H       -1.4350    -2.5160    -1.4300 H     1 <1>   0.0800 
 25 H       -2.3790    -3.2700    -0.1220 H     1 <1>   0.0800 
 26 H        1.6870    -2.1950     2.5690 H     1 <1>   0.0800 
 27 H        0.4930    -0.9230     2.6240 H     1 <1>   0.0800 
 28 H       -0.3110    -5.0200    -2.0310 H     1 <1>   0.0800 
 29 H       -1.2350    -5.7570    -0.7360 H     1 <1>   0.0800 
 30 H        0.5120    -5.8070    -0.7060 H     1 <1>   0.0800 
 31 H        0.6190     0.9470     1.1100 H     1 <1>   0.1500 
 32 H        3.5060    -2.0750     1.0220 H     1 <1>   0.1500 
 33 H        5.2870     1.3010    -1.2920 H     1 <1>   0.4500 
 34 H        0.7330     3.0900     1.6110 H     1 <1>   0.0800 
 35 H        1.0420     4.6010     0.8160 H     1 <1>   0.0800 
 36 H        2.3500     3.7360     1.5840 H     1 <1>   0.0800 
 37 H        0.6390     2.1240    -1.9820 H     1 <1>   0.0800 
 38 H       -0.0010     3.6180    -1.3470 H     1 <1>   0.0800 
 39 H       -0.2820     2.1270    -0.5060 H     1 <1>   0.0800 
 40 H        3.5180     4.0900    -0.6470 H     1 <1>   0.0800 
 41 H        2.0700     4.7790    -1.3170 H     1 <1>   0.0800 
 42 H        2.8180     3.4240    -2.1080 H     1 <1>   0.0800 
 43 H        6.5350     0.0730     1.1770 H     1 <1>   0.0800 
 44 H        6.6680     1.0050    -0.2810 H     1 <1>   0.0800 
 45 H        7.5950    -0.4440    -0.1060 H     1 <1>   0.0800 
 46 H        5.7390    -2.3260     1.0930 H     1 <1>   0.0800 
 47 H        6.7210    -2.6290    -0.3060 H     1 <1>   0.0800 
 48 H        5.0180    -2.9570    -0.3750 H     1 <1>   0.0800 
 49 H        5.5900     0.0600    -2.4730 H     1 <1>   0.0800 
 50 H        4.7730    -1.4700    -2.4020 H     1 <1>   0.0800 
 51 H        6.5110    -1.3930    -2.3070 H     1 <1>   0.0800 
@<TRIPOS>BOND
  1   1   2  2   
  2   2   3  am  
  3   2   4  1   
  4   3   5  1   
  5   3   6  1   
  6   4   7  1   
  7   4  24  1   
  8   4  25  1   
  9   5   7  2   
 10   6   8  1   
 11   6  26  1   
 12   6  27  1   
 13   7   9  1   
 14   8  10  ar  
 15   8  11  ar  
 16   9  28  1   
 17   9  29  1   
 18   9  30  1   
 19  10  12  ar  
 20  10  31  1   
 21  11  13  ar  
 22  11  32  1   
 23  12  14  ar  
 24  12  15  1   
 25  13  14  ar  
 26  13  16  1   
 27  14  17  1   
 28  15  18  1   
 29  15  19  1   
 30  15  20  1   
 31  16  21  1   
 32  16  22  1   
 33  16  23  1   
 34  17  33  1   
 35  18  34  1   
 36  18  35  1   
 37  18  36  1   
 38  19  37  1   
 39  19  38  1   
 40  19  39  1   
 41  20  40  1   
 42  20  41  1   
 43  20  42  1   
 44  21  43  1   
 45  21  44  1   
 46  21  45  1   
 47  22  46  1   
 48  22  47  1   
 49  22  48  1   
 50  23  49  1   
 51  23  50  1   
 52  23  51  1   
@<TRIPOS>SUBSTRUCTURE
  1 ****   8 GROUP 4 **** **** 0

# MOE 2024.06 (io_trps.svl 2023.06)
