@<TRIPOS>MOLECULE
NONAME
47 48 1 0 0 
SMALL
USER_CHARGES


@<TRIPOS>ATOM
  1 O       -1.6260     0.4120    -0.0670 O.3   1 <1>  -0.3630 
  2 C       -0.8780     1.5290    -0.3050 C.ar  1 <1>   0.0830 
  3 C       -1.0590    -0.7900     0.4230 C.3   1 <1>   0.1200 
  4 C       -1.5160     2.6080    -0.9130 C.ar  1 <1>  -0.1440 
  5 C        0.4680     1.6370     0.0350 C.ar  1 <1>  -0.1500 
  6 C       -1.0220    -0.7410     1.9510 C.3   1 <1>  -0.2400 
  7 C       -0.8110     3.7710    -1.1830 C.ar  1 <1>  -0.1500 
  8 C       -2.9820     2.5140    -1.2780 C.3   1 <1>   0.4860 
  9 C        1.1630     2.8020    -0.2340 C.ar  1 <1>  -0.1500 
 10 C        0.5260     3.8670    -0.8430 C.ar  1 <1>  -0.1500 
 11 N       -3.7560     2.2700    -0.0210 N.4   1 <1>  -0.9590 
 12 C       -5.1290     1.7120    -0.2320 C.3   1 <1>   0.4230 
 13 C       -3.6830     3.5020     0.8380 C.3   1 <1>   0.2630 
 14 C       -5.8440     1.5230     1.1150 C.3   1 <1>  -0.1600 
 15 C       -5.0480     0.3610    -0.9630 C.3   1 <1>  -0.1600 
 16 C       -7.2020     0.8400     0.9560 C.3   1 <1>   0.3430 
 17 C       -6.4160    -0.3080    -1.0910 C.3   1 <1>   0.3430 
 18 N       -7.0380    -0.4620     0.2530 N.4   1 <1>  -0.9590 
 19 C       -8.3600    -1.1620     0.1380 C.3   1 <1>   0.2630 
 20 H       -0.0830    -0.9360    -0.0070 H     1 <1>   0.0800 
 21 H       -1.6880    -1.6010     0.1000 H     1 <1>   0.0800 
 22 H        1.0010     0.8350     0.5100 H     1 <1>   0.1500 
 23 H       -0.4130     0.0750     2.2970 H     1 <1>   0.0800 
 24 H       -0.5980    -1.6550     2.3280 H     1 <1>   0.0800 
 25 H       -2.0150    -0.6420     2.3500 H     1 <1>   0.0800 
 26 H       -1.2830     4.6130    -1.6600 H     1 <1>   0.1500 
 27 H       -3.0970     1.6980    -1.9680 H     1 <1>   0.0800 
 28 H       -3.3110     3.4220    -1.7570 H     1 <1>   0.0800 
 29 H        2.2050     2.8810     0.0290 H     1 <1>   0.1500 
 30 H        1.0760     4.7700    -1.0530 H     1 <1>   0.1500 
 31 H       -3.1720     1.5460     0.4400 H     1 <1>   0.4500 
 32 H       -5.7020     2.4020    -0.8330 H     1 <1>   0.0800 
 33 H       -4.2510     4.3050     0.3970 H     1 <1>   0.0800 
 34 H       -2.6590     3.8260     0.9430 H     1 <1>   0.0800 
 35 H       -4.0670     3.3030     1.8250 H     1 <1>   0.0800 
 36 H       -6.0280     2.4770     1.5740 H     1 <1>   0.0800 
 37 H       -5.2360     0.9390     1.7840 H     1 <1>   0.0800 
 38 H       -4.3820    -0.3060    -0.4450 H     1 <1>   0.0800 
 39 H       -4.6760     0.4960    -1.9620 H     1 <1>   0.0800 
 40 H       -7.8670     1.4760     0.3930 H     1 <1>   0.0800 
 41 H       -7.6400     0.6780     1.9290 H     1 <1>   0.0800 
 42 H       -6.3010    -1.2760    -1.5550 H     1 <1>   0.0800 
 43 H       -7.0570     0.2880    -1.7220 H     1 <1>   0.0800 
 44 H       -6.4290    -1.0690     0.8270 H     1 <1>   0.4500 
 45 H       -9.0480    -0.5780    -0.4530 H     1 <1>   0.0800 
 46 H       -8.7920    -1.3140     1.1150 H     1 <1>   0.0800 
 47 H       -8.2370    -2.1250    -0.3310 H     1 <1>   0.0800 
@<TRIPOS>BOND
  1   1   2  1   
  2   1   3  1   
  3   2   4  ar  
  4   2   5  ar  
  5   3   6  1   
  6   3  20  1   
  7   3  21  1   
  8   4   7  ar  
  9   4   8  1   
 10   5   9  ar  
 11   5  22  1   
 12   6  23  1   
 13   6  24  1   
 14   6  25  1   
 15   7  10  ar  
 16   7  26  1   
 17   8  11  1   
 18   8  27  1   
 19   8  28  1   
 20   9  10  ar  
 21   9  29  1   
 22  10  30  1   
 23  11  12  1   
 24  11  13  1   
 25  11  31  1   
 26  12  14  1   
 27  12  15  1   
 28  12  32  1   
 29  13  33  1   
 30  13  34  1   
 31  13  35  1   
 32  14  16  1   
 33  14  36  1   
 34  14  37  1   
 35  15  17  1   
 36  15  38  1   
 37  15  39  1   
 38  16  18  1   
 39  16  40  1   
 40  16  41  1   
 41  17  18  1   
 42  17  42  1   
 43  17  43  1   
 44  18  19  1   
 45  18  44  1   
 46  19  45  1   
 47  19  46  1   
 48  19  47  1   
@<TRIPOS>SUBSTRUCTURE
  1 ****  11 GROUP 4 **** **** 0

# MOE 2024.06 (io_trps.svl 2023.06)
