@<TRIPOS>MOLECULE
NONAME
46 48 1 0 0 
SMALL
USER_CHARGES


@<TRIPOS>ATOM
  1 CL      -1.3950     0.4380    -2.6020 Cl    1 <1>  -0.1770 
  2 C       -2.2480     1.6330    -1.6580 C.ar  1 <1>   0.1770 
  3 C       -3.6250     1.6900    -1.7220 C.ar  1 <1>  -0.1500 
  4 C       -1.5270     2.5020    -0.8610 C.ar  1 <1>  -0.1500 
  5 C       -4.3180     2.6340    -0.9750 C.ar  1 <1>   0.1000 
  6 C       -2.2070     3.4480    -0.1130 C.ar  1 <1>  -0.1500 
  7 N       -5.7090     2.6730    -1.0470 N.pl3 1 <1>  -0.8380 
  8 C       -3.5890     3.5100    -0.1720 C.ar  1 <1>  -0.1500 
  9 C       -6.4870     1.5450    -0.4550 C.3   1 <1>   0.2090 
 10 C       -6.4540     3.9690    -1.0530 C.3   1 <1>   0.2090 
 11 C       -7.0970     1.9320     0.9060 C.3   1 <1>   0.1100 
 12 C       -7.0970     4.2770     0.3150 C.3   1 <1>   0.1100 
 13 N       -7.9250     3.1560     0.8240 N.3   1 <1>  -0.8100 
 14 C       -8.5070     3.4870     2.1580 C.3   1 <1>   0.1710 
 15 C       -9.5780     4.5830     2.1350 C.2   1 <1>   0.5690 
 16 O       -9.7090     5.3100     3.0900 O.2   1 <1>  -0.5700 
 17 N      -10.3560     4.7070     1.0330 N.am  1 <1>  -0.7300 
 18 C      -11.4530     5.6690     0.8650 C.3   1 <1>   0.2840 
 19 C      -12.3810     5.1520    -0.2190 C.ar  1 <1>  -0.1430 
 20 C      -13.4070     4.2750     0.1010 C.ar  1 <1>  -0.1500 
 21 C      -12.2110     5.5470    -1.5380 C.ar  1 <1>  -0.1500 
 22 C      -14.2570     3.8030    -0.8840 C.ar  1 <1>  -0.1500 
 23 C      -13.0600     5.0750    -2.5240 C.ar  1 <1>  -0.1500 
 24 C      -14.0840     4.2040    -2.1970 C.ar  1 <1>  -0.1500 
 25 H       -4.1660     1.0110    -2.3530 H     1 <1>   0.1500 
 26 H       -0.4540     2.4370    -0.8300 H     1 <1>   0.1500 
 27 H       -1.6620     4.1330     0.5130 H     1 <1>   0.1500 
 28 H       -4.1080     4.2400     0.4160 H     1 <1>   0.1500 
 29 H       -5.8470     0.6900    -0.3260 H     1 <1>   0.0800 
 30 H       -7.2770     1.2700    -1.1320 H     1 <1>   0.0800 
 31 H       -7.2290     3.9160    -1.7980 H     1 <1>   0.0800 
 32 H       -5.7900     4.7680    -1.3300 H     1 <1>   0.0800 
 33 H       -6.2960     2.0780     1.6110 H     1 <1>   0.0800 
 34 H       -7.7030     1.1140     1.2530 H     1 <1>   0.0800 
 35 H       -7.7060     5.1580     0.2120 H     1 <1>   0.0800 
 36 H       -6.3170     4.4990     1.0220 H     1 <1>   0.0800 
 37 H       -7.7250     3.7880     2.8320 H     1 <1>   0.0800 
 38 H       -8.9710     2.6080     2.5660 H     1 <1>   0.0800 
 39 H      -10.1770     4.0780     0.2450 H     1 <1>   0.3700 
 40 H      -11.0480     6.6260     0.5870 H     1 <1>   0.0800 
 41 H      -11.9840     5.7810     1.7950 H     1 <1>   0.0800 
 42 H      -13.5440     3.9560     1.1200 H     1 <1>   0.1500 
 43 H      -11.4170     6.2230    -1.8020 H     1 <1>   0.1500 
 44 H      -15.0520     3.1250    -0.6290 H     1 <1>   0.1500 
 45 H      -12.9240     5.3860    -3.5450 H     1 <1>   0.1500 
 46 H      -14.7460     3.8380    -2.9630 H     1 <1>   0.1500 
@<TRIPOS>BOND
  1   1   2  1   
  2   2   3  ar  
  3   2   4  ar  
  4   3   5  ar  
  5   3  25  1   
  6   4   6  ar  
  7   4  26  1   
  8   5   7  1   
  9   5   8  ar  
 10   6   8  ar  
 11   6  27  1   
 12   7   9  1   
 13   7  10  1   
 14   8  28  1   
 15   9  11  1   
 16   9  29  1   
 17   9  30  1   
 18  10  12  1   
 19  10  31  1   
 20  10  32  1   
 21  11  13  1   
 22  11  33  1   
 23  11  34  1   
 24  12  13  1   
 25  12  35  1   
 26  12  36  1   
 27  13  14  1   
 28  14  15  1   
 29  14  37  1   
 30  14  38  1   
 31  15  16  2   
 32  15  17  am  
 33  17  18  1   
 34  17  39  1   
 35  18  19  1   
 36  18  40  1   
 37  18  41  1   
 38  19  20  ar  
 39  19  21  ar  
 40  20  22  ar  
 41  20  42  1   
 42  21  23  ar  
 43  21  43  1   
 44  22  24  ar  
 45  22  44  1   
 46  23  24  ar  
 47  23  45  1   
 48  24  46  1   
@<TRIPOS>SUBSTRUCTURE
  1 ****  13 GROUP 4 **** **** 0

# MOE 2024.06 (io_trps.svl 2023.06)
