@<TRIPOS>MOLECULE
NONAME
43 43 1 0 0 
SMALL
USER_CHARGES


@<TRIPOS>ATOM
  1 CL      -0.1220     0.4810    -2.1530 Cl    1 <1>  -0.1770 
  2 C        1.4710     0.6850    -1.4680 C.ar  1 <1>   0.1770 
  3 C        1.6570     0.4810    -0.1140 C.ar  1 <1>  -0.1500 
  4 C        2.5200     1.0470    -2.2900 C.ar  1 <1>  -0.1500 
  5 C        2.9190     0.6410     0.4380 C.ar  1 <1>  -0.1440 
  6 C        3.7820     1.2090    -1.7460 C.ar  1 <1>  -0.1500 
  7 C        3.9880     1.0070    -0.3800 C.ar  1 <1>   0.0830 
  8 C        3.1220     0.4160     1.9290 C.3   1 <1>  -0.0960 
  9 O        5.2050     1.1510     0.2090 O.3   1 <1>  -0.3630 
 10 C        6.3490     1.5120    -0.5250 C.3   1 <1>   0.1200 
 11 C        7.5230     1.5770     0.4550 C.3   1 <1>  -0.1600 
 12 C        8.8340     1.9600    -0.2460 C.3   1 <1>  -0.1600 
 13 C        9.9840     2.0200     0.7630 C.3   1 <1>   0.3430 
 14 N       11.2420     2.4920     0.1140 N.4   1 <1>  -0.9590 
 15 C       11.8080     1.4790    -0.8190 C.3   1 <1>   0.3430 
 16 C       12.2250     2.8970     1.1560 C.3   1 <1>   0.3430 
 17 C       11.7880     2.0560    -2.2270 C.3   1 <1>  -0.2400 
 18 C       13.3180     3.7580     0.5320 C.3   1 <1>  -0.2400 
 19 H        0.8160     0.2000     0.4930 H     1 <1>   0.1500 
 20 H        2.3450     1.1990    -3.3400 H     1 <1>   0.1500 
 21 H        4.5840     1.4910    -2.4000 H     1 <1>   0.1500 
 22 H        2.2000     0.1420     2.4110 H     1 <1>   0.0800 
 23 H        3.4940     1.3150     2.3860 H     1 <1>   0.0800 
 24 H        3.8370    -0.3720     2.0850 H     1 <1>   0.0800 
 25 H        6.1700     2.4720    -0.9780 H     1 <1>   0.0800 
 26 H        6.5160     0.7640    -1.2800 H     1 <1>   0.0800 
 27 H        7.6290     0.6130     0.9230 H     1 <1>   0.0800 
 28 H        7.2910     2.3040     1.2160 H     1 <1>   0.0800 
 29 H        8.7120     2.9230    -0.7120 H     1 <1>   0.0800 
 30 H        9.0430     1.2270    -1.0060 H     1 <1>   0.0800 
 31 H       10.1370     1.0470     1.2030 H     1 <1>   0.0800 
 32 H        9.7100     2.7020     1.5520 H     1 <1>   0.0800 
 33 H       11.0170     3.3310    -0.4370 H     1 <1>   0.4500 
 34 H       11.2270     0.5710    -0.7870 H     1 <1>   0.0800 
 35 H       12.8230     1.2380    -0.5420 H     1 <1>   0.0800 
 36 H       12.6580     2.0250     1.6210 H     1 <1>   0.0800 
 37 H       11.7280     3.4740     1.9200 H     1 <1>   0.0800 
 38 H       10.7840     2.2780    -2.5410 H     1 <1>   0.0800 
 39 H       12.1950     1.3320    -2.9110 H     1 <1>   0.0800 
 40 H       12.3920     2.9440    -2.2880 H     1 <1>   0.0800 
 41 H       13.9040     3.2000    -0.1760 H     1 <1>   0.0800 
 42 H       13.9830     4.0970     1.3070 H     1 <1>   0.0800 
 43 H       12.8980     4.6240     0.0540 H     1 <1>   0.0800 
@<TRIPOS>BOND
  1   1   2  1   
  2   2   3  ar  
  3   2   4  ar  
  4   3   5  ar  
  5   3  19  1   
  6   4   6  ar  
  7   4  20  1   
  8   5   7  ar  
  9   5   8  1   
 10   6   7  ar  
 11   6  21  1   
 12   7   9  1   
 13   8  22  1   
 14   8  23  1   
 15   8  24  1   
 16   9  10  1   
 17  10  11  1   
 18  10  25  1   
 19  10  26  1   
 20  11  12  1   
 21  11  27  1   
 22  11  28  1   
 23  12  13  1   
 24  12  29  1   
 25  12  30  1   
 26  13  14  1   
 27  13  31  1   
 28  13  32  1   
 29  14  15  1   
 30  14  16  1   
 31  14  33  1   
 32  15  17  1   
 33  15  34  1   
 34  15  35  1   
 35  16  18  1   
 36  16  36  1   
 37  16  37  1   
 38  17  38  1   
 39  17  39  1   
 40  17  40  1   
 41  18  41  1   
 42  18  42  1   
 43  18  43  1   
@<TRIPOS>SUBSTRUCTURE
  1 ****  10 GROUP 4 **** **** 0

# MOE 2024.06 (io_trps.svl 2023.06)
