@<TRIPOS>MOLECULE
NONAME
50 52 1 0 0 
SMALL
USER_CHARGES


@<TRIPOS>ATOM
  1 S       -0.6250     1.4150    -2.3340 S.o2  1 <1>   1.4470 
  2 O        0.0070     0.4900    -3.2430 O.2   1 <1>  -0.6500 
  3 O       -1.4450     2.4740    -2.8740 O.2   1 <1>  -0.6500 
  4 N        0.6460     2.2650    -1.5600 N.am  1 <1>  -0.7570 
  5 C       -1.5000     0.6180    -0.9470 C.ar  1 <1>  -0.0090 
  6 C        1.6970     1.6150    -0.9320 C.ar  1 <1>   0.1990 
  7 C       -1.2190    -0.6660    -0.4670 C.ar  1 <1>  -0.1440 
  8 C       -2.4880     1.3470    -0.2960 C.ar  1 <1>  -0.1500 
  9 C        1.7300     1.4200     0.4540 C.ar  1 <1>  -0.1440 
 10 C        2.7360     1.1330    -1.7160 C.ar  1 <1>  -0.1500 
 11 C       -1.9240    -1.1710     0.6150 C.ar  1 <1>  -0.1500 
 12 C       -0.1450    -1.5530    -1.0850 C.3   1 <1>  -0.0970 
 13 C       -3.2150     0.8580     0.7850 C.ar  1 <1>   0.0860 
 14 C        2.7920     0.7200     1.0230 C.ar  1 <1>  -0.1430 
 15 C        0.6150     1.9650     1.3510 C.3   1 <1>  -0.0970 
 16 C        3.7930     0.4520    -1.1480 C.ar  1 <1>  -0.1500 
 17 C       -2.9050    -0.4210     1.2320 C.ar  1 <1>  -0.1500 
 18 C       -4.2460     1.6460     1.4360 C.2   1 <1>   0.5440 
 19 C        3.8170     0.2450     0.2180 C.ar  1 <1>  -0.1500 
 20 C        2.8720     0.4530     2.5200 C.3   1 <1>  -0.0970 
 21 O       -4.2520     1.7380     2.6490 O.2   1 <1>  -0.5700 
 22 N       -5.2270     2.2910     0.7180 N.am  1 <1>  -0.6600 
 23 C       -5.5780     2.0170    -0.6940 C.3   1 <1>   0.1400 
 24 C       -6.2830     3.0930     1.3770 C.3   1 <1>   0.1400 
 25 C       -7.0460     2.4100    -0.8090 C.3   1 <1>  -0.1600 
 26 C       -7.2390     3.4850     0.2560 C.3   1 <1>  -0.1600 
 27 H        0.9090     3.0320    -2.1680 H     1 <1>   0.4200 
 28 H       -2.7020     2.3470    -0.6320 H     1 <1>   0.1500 
 29 H        2.7100     1.2820    -2.7810 H     1 <1>   0.1500 
 30 H       -1.7120    -2.1580     0.9910 H     1 <1>   0.1500 
 31 H       -0.4190    -1.8240    -2.0900 H     1 <1>   0.0800 
 32 H       -0.0140    -2.4590    -0.5210 H     1 <1>   0.0800 
 33 H        0.8010    -1.0440    -1.1070 H     1 <1>   0.0800 
 34 H        0.0130     2.6990     0.8500 H     1 <1>   0.0800 
 35 H        1.0300     2.4410     2.2200 H     1 <1>   0.0800 
 36 H       -0.0230     1.1610     1.6700 H     1 <1>   0.0800 
 37 H        4.5920     0.0810    -1.7650 H     1 <1>   0.1500 
 38 H       -3.4410    -0.8210     2.0760 H     1 <1>   0.1500 
 39 H        4.6440    -0.2920     0.6500 H     1 <1>   0.1500 
 40 H        3.0440     1.3720     3.0490 H     1 <1>   0.0800 
 41 H        3.6740    -0.2250     2.7510 H     1 <1>   0.0800 
 42 H        1.9550     0.0130     2.8700 H     1 <1>   0.0800 
 43 H       -5.4260     0.9800    -0.9430 H     1 <1>   0.0800 
 44 H       -4.9780     2.6400    -1.3350 H     1 <1>   0.0800 
 45 H       -5.8570     3.9560     1.8610 H     1 <1>   0.0800 
 46 H       -6.7830     2.4810     2.1080 H     1 <1>   0.0800 
 47 H       -7.6550     1.5530    -0.5790 H     1 <1>   0.0800 
 48 H       -7.2900     2.7600    -1.7970 H     1 <1>   0.0800 
 49 H       -6.9450     4.4440    -0.1330 H     1 <1>   0.0800 
 50 H       -8.2560     3.5440     0.6020 H     1 <1>   0.0800 
@<TRIPOS>BOND
  1   1   2  2   
  2   1   3  2   
  3   1   4  am  
  4   1   5  1   
  5   4   6  1   
  6   4  27  1   
  7   5   7  ar  
  8   5   8  ar  
  9   6   9  ar  
 10   6  10  ar  
 11   7  11  ar  
 12   7  12  1   
 13   8  13  ar  
 14   8  28  1   
 15   9  14  ar  
 16   9  15  1   
 17  10  16  ar  
 18  10  29  1   
 19  11  17  ar  
 20  11  30  1   
 21  12  31  1   
 22  12  32  1   
 23  12  33  1   
 24  13  17  ar  
 25  13  18  1   
 26  14  19  ar  
 27  14  20  1   
 28  15  34  1   
 29  15  35  1   
 30  15  36  1   
 31  16  19  ar  
 32  16  37  1   
 33  17  38  1   
 34  18  21  2   
 35  18  22  am  
 36  19  39  1   
 37  20  40  1   
 38  20  41  1   
 39  20  42  1   
 40  22  23  1   
 41  22  24  1   
 42  23  25  1   
 43  23  43  1   
 44  23  44  1   
 45  24  26  1   
 46  24  45  1   
 47  24  46  1   
 48  25  26  1   
 49  25  47  1   
 50  25  48  1   
 51  26  49  1   
 52  26  50  1   
@<TRIPOS>SUBSTRUCTURE
  1 ****   5 GROUP 4 **** **** 0

# MOE 2024.06 (io_trps.svl 2023.06)
