@<TRIPOS>MOLECULE
NONAME
48 50 1 0 0 
SMALL
USER_CHARGES


@<TRIPOS>ATOM
  1 S        2.4400    -2.3930    -0.5270 S.3   1 <1>  -0.0800 
  2 C        2.6100    -0.8950     0.3270 C.2   1 <1>   0.4420 
  3 C        0.7610    -2.3500    -0.1160 C.2   1 <1>   0.1980 
  4 N        1.4980    -0.4900     0.8240 N.2   1 <1>  -0.3380 
  5 N        3.8710    -0.3450     0.3630 N.am  1 <1>  -0.4940 
  6 N        0.4460    -1.3270     0.5670 N.2   1 <1>  -0.3380 
  7 C       -0.1200    -3.4830    -0.5910 C.3   1 <1>  -0.0600 
  8 C        4.3410     0.7820     0.9670 C.2   1 <1>   0.5690 
  9 O        3.6730     1.5340     1.6310 O.2   1 <1>  -0.5700 
 10 C        5.8270     1.0760     0.7600 C.3   1 <1>   0.1710 
 11 N        6.6140    -0.1340     0.3780 N.3   1 <1>  -0.8100 
 12 C        7.9010     0.2490    -0.2500 C.3   1 <1>   0.1100 
 13 C        6.8880    -0.9850     1.5680 C.3   1 <1>   0.1100 
 14 C        8.7520    -0.9790    -0.6320 C.3   1 <1>   0.2090 
 15 C        7.7230    -2.2310     1.2160 C.3   1 <1>   0.2090 
 16 N        9.0020    -1.8400     0.5580 N.pl3 1 <1>  -0.8380 
 17 C        9.9200    -2.8820     0.3630 C.ar  1 <1>   0.1000 
 18 C        9.7090    -3.9800    -0.4920 C.ar  1 <1>   0.0820 
 19 C       11.1120    -2.8080     1.0690 C.ar  1 <1>  -0.1500 
 20 O        8.5310    -4.0490    -1.1870 O.3   1 <1>  -0.3630 
 21 C       10.6920    -4.9600    -0.6080 C.ar  1 <1>  -0.1500 
 22 C       12.0840    -3.7840     0.9470 C.ar  1 <1>  -0.1500 
 23 C        8.2800    -5.0740    -2.1180 C.3   1 <1>   0.1200 
 24 C       11.8730    -4.8620     0.1070 C.ar  1 <1>  -0.1500 
 25 C        6.9070    -4.8210    -2.7330 C.3   1 <1>  -0.2400 
 26 H        4.6200    -0.8640    -0.1000 H     1 <1>   0.3700 
 27 H       -0.1090    -3.5290    -1.6640 H     1 <1>   0.0800 
 28 H       -1.1290    -3.3220    -0.2580 H     1 <1>   0.0800 
 29 H        0.2350    -4.4150    -0.1910 H     1 <1>   0.0800 
 30 H        6.2280     1.5150     1.6570 H     1 <1>   0.0800 
 31 H        5.8940     1.8090    -0.0240 H     1 <1>   0.0800 
 32 H        8.4730     0.8610     0.4270 H     1 <1>   0.0800 
 33 H        7.7090     0.8220    -1.1400 H     1 <1>   0.0800 
 34 H        5.9610    -1.3070     2.0090 H     1 <1>   0.0800 
 35 H        7.4270    -0.4170     2.3070 H     1 <1>   0.0800 
 36 H        9.6940    -0.6540    -1.0360 H     1 <1>   0.0800 
 37 H        8.2380    -1.5430    -1.3910 H     1 <1>   0.0800 
 38 H        7.1540    -2.8670     0.5610 H     1 <1>   0.0800 
 39 H        7.9430    -2.7840     2.1130 H     1 <1>   0.0800 
 40 H       11.2690    -1.9680     1.7190 H     1 <1>   0.1500 
 41 H       10.5640    -5.8110    -1.2480 H     1 <1>   0.1500 
 42 H       13.0000    -3.7030     1.5050 H     1 <1>   0.1500 
 43 H        8.2970    -6.0170    -1.5990 H     1 <1>   0.0800 
 44 H        9.0470    -5.0450    -2.8720 H     1 <1>   0.0800 
 45 H       12.6270    -5.6230     0.0110 H     1 <1>   0.1500 
 46 H        6.1520    -4.8350    -1.9670 H     1 <1>   0.0800 
 47 H        6.6830    -5.5890    -3.4510 H     1 <1>   0.0800 
 48 H        6.8970    -3.8690    -3.2320 H     1 <1>   0.0800 
@<TRIPOS>BOND
  1   1   2  1   
  2   1   3  1   
  3   2   4  2   
  4   2   5  1   
  5   3   6  2   
  6   3   7  1   
  7   4   6  1   
  8   5   8  am  
  9   5  26  1   
 10   7  27  1   
 11   7  28  1   
 12   7  29  1   
 13   8   9  2   
 14   8  10  1   
 15  10  11  1   
 16  10  30  1   
 17  10  31  1   
 18  11  12  1   
 19  11  13  1   
 20  12  14  1   
 21  12  32  1   
 22  12  33  1   
 23  13  15  1   
 24  13  34  1   
 25  13  35  1   
 26  14  16  1   
 27  14  36  1   
 28  14  37  1   
 29  15  16  1   
 30  15  38  1   
 31  15  39  1   
 32  16  17  1   
 33  17  18  ar  
 34  17  19  ar  
 35  18  20  1   
 36  18  21  ar  
 37  19  22  ar  
 38  19  40  1   
 39  20  23  1   
 40  21  24  ar  
 41  21  41  1   
 42  22  24  ar  
 43  22  42  1   
 44  23  25  1   
 45  23  43  1   
 46  23  44  1   
 47  24  45  1   
 48  25  46  1   
 49  25  47  1   
 50  25  48  1   
@<TRIPOS>SUBSTRUCTURE
  1 ****  15 GROUP 4 **** **** 0

# MOE 2024.06 (io_trps.svl 2023.06)
