@<TRIPOS>MOLECULE
NONAME
40 42 1 0 0 
SMALL
USER_CHARGES


@<TRIPOS>ATOM
  1 CL      -0.0660    -0.4980     0.6350 Cl    1 <1>  -0.1770 
  2 C        1.5080    -1.2040     0.3550 C.ar  1 <1>   0.1770 
  3 C        2.0360    -1.2000    -0.9220 C.ar  1 <1>  -0.1500 
  4 C        2.2010    -1.7570     1.4160 C.ar  1 <1>  -0.1500 
  5 C        3.2830    -1.7610    -1.1380 C.ar  1 <1>  -0.1500 
  6 C        3.4470    -2.3160     1.1910 C.ar  1 <1>  -0.1500 
  7 C        3.9990    -2.3230    -0.0880 C.ar  1 <1>   0.1000 
  8 N        5.2490    -2.8800    -0.3350 N.pl3 1 <1>  -0.8380 
  9 C        5.3420    -4.3650    -0.2380 C.3   1 <1>   0.2090 
 10 C        6.4220    -2.1460     0.2240 C.3   1 <1>   0.2090 
 11 C        6.6650    -4.8700    -0.8530 C.3   1 <1>   0.3430 
 12 C        7.7380    -2.6710    -0.3890 C.3   1 <1>   0.3430 
 13 N        7.8740    -4.1740    -0.2780 N.4   1 <1>  -0.9590 
 14 C        9.1330    -4.6590    -0.9050 C.3   1 <1>   0.4860 
 15 C       10.3140    -4.1300    -0.1240 C.ar  1 <1>  -0.1430 
 16 C       10.6130    -4.5910     1.1460 C.ar  1 <1>   0.1900 
 17 C       11.1560    -3.1630    -0.6430 C.ar  1 <1>   0.1900 
 18 F        9.8300    -5.4880     1.6840 F     1 <1>  -0.1900 
 19 C       11.6960    -4.1310     1.8740 C.ar  1 <1>  -0.1500 
 20 F       10.9000    -2.6840    -1.8310 F     1 <1>  -0.1900 
 21 C       12.2510    -2.6730     0.0480 C.ar  1 <1>  -0.1500 
 22 C       12.5210    -3.1640     1.3180 C.ar  1 <1>  -0.1500 
 23 H        1.4770    -0.7640    -1.7300 H     1 <1>   0.1500 
 24 H        1.7660    -1.7460     2.3990 H     1 <1>   0.1500 
 25 H        3.7090    -1.7670    -2.1240 H     1 <1>   0.1500 
 26 H        3.9920    -2.7470     2.0100 H     1 <1>   0.1500 
 27 H        4.5120    -4.8060    -0.7640 H     1 <1>   0.0800 
 28 H        5.2770    -4.6670     0.7930 H     1 <1>   0.0800 
 29 H        6.4450    -2.2590     1.2940 H     1 <1>   0.0800 
 30 H        6.3200    -1.0970     0.0040 H     1 <1>   0.0800 
 31 H        6.6210    -4.6970    -1.9160 H     1 <1>   0.0800 
 32 H        6.7410    -5.9330    -0.6930 H     1 <1>   0.0800 
 33 H        8.5670    -2.1880     0.1010 H     1 <1>   0.0800 
 34 H        7.7580    -2.3840    -1.4270 H     1 <1>   0.0800 
 35 H        7.9310    -4.4110     0.7230 H     1 <1>   0.4500 
 36 H        9.1880    -4.3320    -1.9310 H     1 <1>   0.0800 
 37 H        9.1600    -5.7370    -0.8900 H     1 <1>   0.0800 
 38 H       11.8930    -4.5220     2.8590 H     1 <1>   0.1500 
 39 H       12.8810    -1.9230    -0.3980 H     1 <1>   0.1500 
 40 H       13.3710    -2.7960     1.8700 H     1 <1>   0.1500 
@<TRIPOS>BOND
  1   1   2  1   
  2   2   3  ar  
  3   2   4  ar  
  4   3   5  ar  
  5   3  23  1   
  6   4   6  ar  
  7   4  24  1   
  8   5   7  ar  
  9   5  25  1   
 10   6   7  ar  
 11   6  26  1   
 12   7   8  1   
 13   8   9  1   
 14   8  10  1   
 15   9  11  1   
 16   9  27  1   
 17   9  28  1   
 18  10  12  1   
 19  10  29  1   
 20  10  30  1   
 21  11  13  1   
 22  11  31  1   
 23  11  32  1   
 24  12  13  1   
 25  12  33  1   
 26  12  34  1   
 27  13  14  1   
 28  13  35  1   
 29  14  15  1   
 30  14  36  1   
 31  14  37  1   
 32  15  16  ar  
 33  15  17  ar  
 34  16  18  1   
 35  16  19  ar  
 36  17  20  1   
 37  17  21  ar  
 38  19  22  ar  
 39  19  38  1   
 40  21  22  ar  
 41  21  39  1   
 42  22  40  1   
@<TRIPOS>SUBSTRUCTURE
  1 ****  12 GROUP 4 **** **** 0

# MOE 2024.06 (io_trps.svl 2023.06)
