@<TRIPOS>MOLECULE
NONAME
51 53 1 0 0 
SMALL
USER_CHARGES


@<TRIPOS>ATOM
  1 S        0.5880    -1.7880     2.0380 S.3   1 <1>  -0.0800 
  2 C       -0.9670    -1.2410     1.4040 C.2   1 <1>   0.1040 
  3 C        1.4550    -0.8060     0.8750 C.2   1 <1>  -0.1400 
  4 N       -2.1590    -1.7170     1.9570 N.am  1 <1>  -0.4940 
  5 C       -0.7780    -0.3680     0.3750 C.2   1 <1>   0.0190 
  6 C        0.6090    -0.1400     0.0830 C.2   1 <1>  -0.1810 
  7 C        2.9670    -0.7650     0.8230 C.3   1 <1>   0.3000 
  8 C       -2.4500    -2.4270     3.0930 C.2   1 <1>   0.5690 
  9 C       -1.8330     0.2760    -0.3450 C.1   1 <1>   0.5380 
 10 C        1.1820     0.7640    -0.9960 C.3   1 <1>   0.0210 
 11 O        3.3720     0.2640    -0.0510 O.3   1 <1>  -0.5600 
 12 O       -1.6250    -2.8080     3.8850 O.2   1 <1>  -0.5700 
 13 C       -3.9140    -2.7340     3.3780 C.3   1 <1>   0.0450 
 14 N       -2.6860     0.7860    -0.9050 N.1   1 <1>  -0.5570 
 15 C        2.6780     0.4350    -1.2620 C.3   1 <1>   0.2800 
 16 C       -4.8220    -2.2580     2.2470 C.ar  1 <1>  -0.1440 
 17 C        3.3620     1.6110    -1.9610 C.3   1 <1>  -0.2400 
 18 C        2.8520    -0.8270    -2.1220 C.3   1 <1>  -0.2400 
 19 C       -5.2040    -0.9260     2.1750 C.ar  1 <1>  -0.1500 
 20 C       -5.2260    -3.1380     1.2550 C.ar  1 <1>  -0.1500 
 21 C       -5.9540    -0.4690     1.1060 C.ar  1 <1>  -0.1500 
 22 C       -5.9830    -2.6840     0.1900 C.ar  1 <1>  -0.1500 
 23 C       -6.3390    -1.3480     0.1000 C.ar  1 <1>   0.0820 
 24 O       -7.0460    -0.9730    -0.9930 O.3   1 <1>  -0.3620 
 25 C       -7.0920     0.3810    -1.3850 C.3   1 <1>   0.1200 
 26 C       -7.7610     0.4580    -2.7580 C.3   1 <1>  -0.1600 
 27 C       -7.8460     1.9060    -3.2560 C.3   1 <1>  -0.2400 
 28 H       -3.0060    -1.4800     1.4290 H     1 <1>   0.3700 
 29 H        3.3660    -1.6990     0.4700 H     1 <1>   0.0800 
 30 H        3.3740    -0.5490     1.7950 H     1 <1>   0.0800 
 31 H        1.0870     1.7850    -0.6740 H     1 <1>   0.0800 
 32 H        0.6270     0.6550    -1.9110 H     1 <1>   0.0800 
 33 H       -4.1920    -2.2540     4.2980 H     1 <1>   0.0800 
 34 H       -4.0190    -3.7940     3.5180 H     1 <1>   0.0800 
 35 H        3.3050     2.4930    -1.3480 H     1 <1>   0.0800 
 36 H        2.8870     1.8170    -2.9030 H     1 <1>   0.0800 
 37 H        4.3970     1.3840    -2.1430 H     1 <1>   0.0800 
 38 H        2.3250    -1.6640    -1.7020 H     1 <1>   0.0800 
 39 H        3.8950    -1.0730    -2.2130 H     1 <1>   0.0800 
 40 H        2.4590    -0.6570    -3.1070 H     1 <1>   0.0800 
 41 H       -4.9110    -0.2320     2.9450 H     1 <1>   0.1500 
 42 H       -4.9490    -4.1780     1.2970 H     1 <1>   0.1500 
 43 H       -6.2310     0.5680     1.0710 H     1 <1>   0.1500 
 44 H       -6.2970    -3.3590    -0.5850 H     1 <1>   0.1500 
 45 H       -6.0840     0.7560    -1.4310 H     1 <1>   0.0800 
 46 H       -7.6620     0.9270    -0.6540 H     1 <1>   0.0800 
 47 H       -8.7530     0.0460    -2.6920 H     1 <1>   0.0800 
 48 H       -7.1910    -0.1250    -3.4600 H     1 <1>   0.0800 
 49 H       -8.4240     2.5050    -2.5740 H     1 <1>   0.0800 
 50 H       -8.3180     1.9340    -4.2220 H     1 <1>   0.0800 
 51 H       -6.8610     2.3310    -3.3440 H     1 <1>   0.0800 
@<TRIPOS>BOND
  1   1   2  1   
  2   1   3  1   
  3   2   4  1   
  4   2   5  2   
  5   3   6  2   
  6   3   7  1   
  7   4   8  am  
  8   4  28  1   
  9   5   6  1   
 10   5   9  1   
 11   6  10  1   
 12   7  11  1   
 13   7  29  1   
 14   7  30  1   
 15   8  12  2   
 16   8  13  1   
 17   9  14  3   
 18  10  15  1   
 19  10  31  1   
 20  10  32  1   
 21  11  15  1   
 22  13  16  1   
 23  13  33  1   
 24  13  34  1   
 25  15  17  1   
 26  15  18  1   
 27  16  19  ar  
 28  16  20  ar  
 29  17  35  1   
 30  17  36  1   
 31  17  37  1   
 32  18  38  1   
 33  18  39  1   
 34  18  40  1   
 35  19  21  ar  
 36  19  41  1   
 37  20  22  ar  
 38  20  42  1   
 39  21  23  ar  
 40  21  43  1   
 41  22  23  ar  
 42  22  44  1   
 43  23  24  1   
 44  24  25  1   
 45  25  26  1   
 46  25  45  1   
 47  25  46  1   
 48  26  27  1   
 49  26  47  1   
 50  26  48  1   
 51  27  49  1   
 52  27  50  1   
 53  27  51  1   
@<TRIPOS>SUBSTRUCTURE
  1 ****   9 GROUP 4 **** **** 0

# MOE 2024.06 (io_trps.svl 2023.06)
