@<TRIPOS>MOLECULE
NONAME
41 42 1 0 0 
SMALL
USER_CHARGES


@<TRIPOS>ATOM
  1 F        0.0750     1.7110    -1.8080 F     1 <1>  -0.3400 
  2 C        0.3160     1.8780    -0.5150 C.3   1 <1>   1.1580 
  3 F       -0.3600     0.9330     0.1250 F     1 <1>  -0.3400 
  4 F        1.6000     1.5930    -0.3400 F     1 <1>  -0.3400 
  5 C       -0.0510     3.2880    -0.0290 C.2   1 <1>  -0.1670 
  6 C       -1.4080     3.7670    -0.1360 C.ar  1 <1>   0.0280 
  7 C        0.8760     4.1180     0.5110 C.2   1 <1>  -0.1360 
  8 C       -1.6940     5.0690     0.3230 C.ar  1 <1>   0.0830 
  9 C       -2.4740     3.0310    -0.6690 C.ar  1 <1>  -0.1500 
 10 C        0.5530     5.4260     0.9670 C.2   1 <1>   0.7060 
 11 O       -0.7090     5.8330     0.8520 O.3   1 <1>  -0.2320 
 12 C       -2.9760     5.6110     0.2550 C.ar  1 <1>  -0.1440 
 13 C       -3.7460     3.5550    -0.7330 C.ar  1 <1>  -0.1500 
 14 O        1.3670     6.1810     1.4540 O.2   1 <1>  -0.5700 
 15 C       -4.0020     4.8340    -0.2650 C.ar  1 <1>   0.0830 
 16 C       -3.2320     7.0380     0.7430 C.3   1 <1>  -0.0960 
 17 O       -5.2610     5.2980    -0.3420 O.3   1 <1>  -0.3630 
 18 C       -6.0680     5.1240     0.8080 C.3   1 <1>   0.1810 
 19 C       -7.3250     5.9840     0.7290 C.2   1 <1>   0.4480 
 20 O       -7.3880     6.9880     1.3800 O.2   1 <1>  -0.5700 
 21 C       -8.5060     5.4980    -0.1510 C.3   1 <1>   0.0610 
 22 C       -8.0570     5.1530    -1.5830 C.3   1 <1>  -0.2400 
 23 C       -9.1600     4.2520     0.4750 C.3   1 <1>  -0.2400 
 24 C       -9.5910     6.5900    -0.2600 C.3   1 <1>  -0.2400 
 25 H        1.9110     3.8510     0.6320 H     1 <1>   0.1500 
 26 H       -2.3290     2.0340    -1.0460 H     1 <1>   0.1500 
 27 H       -4.5530     2.9790    -1.1500 H     1 <1>   0.1500 
 28 H       -3.2530     7.0580     1.8180 H     1 <1>   0.0800 
 29 H       -4.1650     7.4240     0.3750 H     1 <1>   0.0800 
 30 H       -2.4530     7.6960     0.4020 H     1 <1>   0.0800 
 31 H       -5.4960     5.4220     1.6680 H     1 <1>   0.0800 
 32 H       -6.3160     4.0830     0.8940 H     1 <1>   0.0800 
 33 H       -7.3810     4.3170    -1.5880 H     1 <1>   0.0800 
 34 H       -7.5570     5.9960    -2.0280 H     1 <1>   0.0800 
 35 H       -8.9020     4.8980    -2.1970 H     1 <1>   0.0800 
 36 H       -8.4740     3.4260     0.5050 H     1 <1>   0.0800 
 37 H      -10.0210     3.9500    -0.0960 H     1 <1>   0.0800 
 38 H       -9.4810     4.4670     1.4800 H     1 <1>   0.0800 
 39 H       -9.1760     7.4830    -0.6960 H     1 <1>   0.0800 
 40 H       -9.9700     6.8430     0.7150 H     1 <1>   0.0800 
 41 H      -10.4130     6.2630    -0.8700 H     1 <1>   0.0800 
@<TRIPOS>BOND
  1   1   2  1   
  2   2   3  1   
  3   2   4  1   
  4   2   5  1   
  5   5   6  1   
  6   5   7  2   
  7   6   8  ar  
  8   6   9  ar  
  9   7  10  1   
 10   7  25  1   
 11   8  11  1   
 12   8  12  ar  
 13   9  13  ar  
 14   9  26  1   
 15  10  11  1   
 16  10  14  2   
 17  12  15  ar  
 18  12  16  1   
 19  13  15  ar  
 20  13  27  1   
 21  15  17  1   
 22  16  28  1   
 23  16  29  1   
 24  16  30  1   
 25  17  18  1   
 26  18  19  1   
 27  18  31  1   
 28  18  32  1   
 29  19  20  2   
 30  19  21  1   
 31  21  22  1   
 32  21  23  1   
 33  21  24  1   
 34  22  33  1   
 35  22  34  1   
 36  22  35  1   
 37  23  36  1   
 38  23  37  1   
 39  23  38  1   
 40  24  39  1   
 41  24  40  1   
 42  24  41  1   
@<TRIPOS>SUBSTRUCTURE
  1 ****  15 GROUP 4 **** **** 0

# MOE 2024.06 (io_trps.svl 2023.06)
