@<TRIPOS>MOLECULE
NONAME
40 44 1 0 0 
SMALL
USER_CHARGES


@<TRIPOS>ATOM
  1 O        0.3980     0.9620     1.2960 O.2   1 <1>  -0.5700 
  2 C        0.5820     1.9250     0.5970 C.2   1 <1>   0.5690 
  3 N        1.6580     2.1920    -0.2400 N.am  1 <1>  -0.2370 
  4 C       -0.3380     3.1070     0.5190 C.3   1 <1>  -0.0190 
  5 C        2.8830     1.4970    -0.2500 C.ar  1 <1>   0.1170 
  6 C        1.3220     3.2650    -1.0560 C.2   1 <1>   0.5690 
  7 C       -1.7860     3.5390     0.8140 C.3   1 <1>   0.1530 
  8 C       -0.1660     3.4440    -0.9660 C.3   1 <1>  -0.0190 
  9 C        2.9220     0.1070    -0.2040 C.ar  1 <1>  -0.1500 
 10 C        4.0960     2.1740    -0.3030 C.ar  1 <1>  -0.1500 
 11 O        2.0450     3.9390    -1.7420 O.2   1 <1>  -0.5700 
 12 C       -2.7730     3.0630    -0.2450 C.2   1 <1>  -0.2880 
 13 C       -1.6040     4.9500     0.2350 C.3   1 <1>  -0.1900 
 14 C       -1.2450     4.5320    -1.1920 C.3   1 <1>   0.1530 
 15 C        4.1220    -0.5770    -0.2090 C.ar  1 <1>  -0.1500 
 16 C        5.2950     1.4870    -0.3090 C.ar  1 <1>  -0.1500 
 17 C       -2.4950     3.6830    -1.3960 C.2   1 <1>  -0.2880 
 18 C       -1.0350     6.1350     0.9470 C.3   1 <1>  -0.2000 
 19 C       -2.4960     6.1040     0.5510 C.3   1 <1>  -0.2000 
 20 C        5.3510     0.0920    -0.2610 C.ar  1 <1>   0.0860 
 21 C        6.6290    -0.5900    -0.2650 C.2   1 <1>   0.4230 
 22 O        7.6840    -0.0110    -0.3000 O.2   1 <1>  -0.5700 
 23 C        6.6930    -2.1050    -0.2240 C.3   1 <1>  -0.1790 
 24 H        0.2350     3.8050     1.1110 H     1 <1>   0.0800 
 25 H       -2.1140     3.5210     1.8390 H     1 <1>   0.0800 
 26 H       -0.4920     2.6060    -1.5640 H     1 <1>   0.0800 
 27 H        2.0000    -0.4470    -0.1610 H     1 <1>   0.1500 
 28 H        4.1070     3.2500    -0.3430 H     1 <1>   0.1500 
 29 H       -3.5400     2.3510     0.0090 H     1 <1>   0.1500 
 30 H       -1.0620     5.3090    -1.9140 H     1 <1>   0.0800 
 31 H        4.0920    -1.6500    -0.1700 H     1 <1>   0.1500 
 32 H        6.2180     2.0420    -0.3520 H     1 <1>   0.1500 
 33 H       -2.9700     3.6310    -2.3610 H     1 <1>   0.1500 
 34 H       -0.3780     6.8030     0.4160 H     1 <1>   0.1000 
 35 H       -0.7970     6.0670     1.9940 H     1 <1>   0.1000 
 36 H       -3.2400     5.9870     1.3190 H     1 <1>   0.1000 
 37 H       -2.8310     6.7360    -0.2540 H     1 <1>   0.1000 
 38 H        6.2370    -2.4690     0.6770 H     1 <1>   0.0800 
 39 H        7.7190    -2.4260    -0.2420 H     1 <1>   0.0800 
 40 H        6.1920    -2.5180    -1.0800 H     1 <1>   0.0800 
@<TRIPOS>BOND
  1   1   2  2   
  2   2   3  am  
  3   2   4  1   
  4   3   5  1   
  5   3   6  am  
  6   4   7  1   
  7   4   8  1   
  8   4  24  1   
  9   5   9  ar  
 10   5  10  ar  
 11   6   8  1   
 12   6  11  2   
 13   7  12  1   
 14   7  13  1   
 15   7  25  1   
 16   8  14  1   
 17   8  26  1   
 18   9  15  ar  
 19   9  27  1   
 20  10  16  ar  
 21  10  28  1   
 22  12  17  2   
 23  12  29  1   
 24  13  14  1   
 25  13  18  1   
 26  13  19  1   
 27  14  17  1   
 28  14  30  1   
 29  15  20  ar  
 30  15  31  1   
 31  16  20  ar  
 32  16  32  1   
 33  17  33  1   
 34  18  19  1   
 35  18  34  1   
 36  18  35  1   
 37  19  36  1   
 38  19  37  1   
 39  20  21  1   
 40  21  22  2   
 41  21  23  1   
 42  23  38  1   
 43  23  39  1   
 44  23  40  1   
@<TRIPOS>SUBSTRUCTURE
  1 ****   3 GROUP 4 **** **** 0

# MOE 2024.06 (io_trps.svl 2023.06)
