@<TRIPOS>MOLECULE
NONAME
41 43 1 0 0 
SMALL
USER_CHARGES


@<TRIPOS>ATOM
  1 O       -0.1650    -0.8750    -1.7130 O.2   1 <1>  -0.5700 
  2 C        0.0000    -1.7610    -0.8950 C.2   1 <1>   0.7160 
  3 N        1.2330    -1.8830    -0.2910 N.am  1 <1>  -0.6600 
  4 C       -1.0910    -2.6550    -0.5820 C.2   1 <1>  -0.0860 
  5 C        1.4690    -2.5860     1.0060 C.3   1 <1>   0.1400 
  6 C        2.4450    -1.1920    -0.8240 C.3   1 <1>   0.1400 
  7 C       -2.3970    -2.3710    -0.3170 C.2   1 <1>  -0.0400 
  8 C       -1.0260    -4.0630    -0.5030 C.2   1 <1>  -0.1500 
  9 C        2.6330    -3.5800     0.8800 C.3   1 <1>   0.1400 
 10 C        3.6300    -2.1660    -0.9370 C.3   1 <1>   0.1400 
 11 O       -3.0820    -3.4640    -0.0790 O.3   1 <1>  -0.2800 
 12 C       -3.1260    -1.0440    -0.2630 C.3   1 <1>  -0.0600 
 13 C       -2.2660    -4.4880    -0.1930 C.2   1 <1>  -0.0100 
 14 N        3.8590    -2.9070     0.3460 N.am  1 <1>  -0.6600 
 15 C        5.0830    -3.0470     0.9660 C.2   1 <1>   0.5690 
 16 O        5.1740    -3.6810     1.9950 O.2   1 <1>  -0.5700 
 17 C        6.3610    -2.3880     0.3810 C.3   1 <1>   0.2610 
 18 O        6.6230    -2.8460    -0.9200 O.3   1 <1>  -0.5600 
 19 C        7.6660    -2.6960     1.1170 C.3   1 <1>  -0.1600 
 20 C        7.3680    -4.0220    -0.8660 C.3   1 <1>   0.1200 
 21 C        8.1600    -3.9650     0.4390 C.3   1 <1>  -0.1600 
 22 H        0.5870    -3.1030     1.3370 H     1 <1>   0.0800 
 23 H        1.7170    -1.8580     1.7580 H     1 <1>   0.0800 
 24 H        2.7090    -0.3840    -0.1640 H     1 <1>   0.0800 
 25 H        2.2450    -0.7720    -1.7940 H     1 <1>   0.0800 
 26 H       -0.1400    -4.6490    -0.6740 H     1 <1>   0.1500 
 27 H        2.3530    -4.3770     0.2150 H     1 <1>   0.0800 
 28 H        2.8260    -4.0130     1.8460 H     1 <1>   0.0800 
 29 H        4.5010    -1.6080    -1.2270 H     1 <1>   0.0800 
 30 H        3.4270    -2.8770    -1.7190 H     1 <1>   0.0800 
 31 H       -2.4520    -0.2310    -0.4620 H     1 <1>   0.0800 
 32 H       -3.5610    -0.9070     0.7100 H     1 <1>   0.0800 
 33 H       -3.9090    -1.0330    -0.9990 H     1 <1>   0.0800 
 34 H       -2.6550    -5.4800    -0.0400 H     1 <1>   0.1500 
 35 H        6.2050    -1.3260     0.3360 H     1 <1>   0.0800 
 36 H        7.5340    -2.8130     2.1780 H     1 <1>   0.0800 
 37 H        8.3590    -1.8930     0.9410 H     1 <1>   0.0800 
 38 H        8.0080    -4.0640    -1.7300 H     1 <1>   0.0800 
 39 H        6.6840    -4.8540    -0.8700 H     1 <1>   0.0800 
 40 H        7.9330    -4.8320     1.0350 H     1 <1>   0.0800 
 41 H        9.2190    -3.9320     0.2540 H     1 <1>   0.0800 
@<TRIPOS>BOND
  1   1   2  2   
  2   2   3  am  
  3   2   4  1   
  4   3   5  1   
  5   3   6  1   
  6   4   7  2   
  7   4   8  1   
  8   5   9  1   
  9   5  22  1   
 10   5  23  1   
 11   6  10  1   
 12   6  24  1   
 13   6  25  1   
 14   7  11  1   
 15   7  12  1   
 16   8  13  2   
 17   8  26  1   
 18   9  14  1   
 19   9  27  1   
 20   9  28  1   
 21  10  14  1   
 22  10  29  1   
 23  10  30  1   
 24  11  13  1   
 25  12  31  1   
 26  12  32  1   
 27  12  33  1   
 28  13  34  1   
 29  14  15  am  
 30  15  16  2   
 31  15  17  1   
 32  17  18  1   
 33  17  19  1   
 34  17  35  1   
 35  18  20  1   
 36  19  21  1   
 37  19  36  1   
 38  19  37  1   
 39  20  21  1   
 40  20  38  1   
 41  20  39  1   
 42  21  40  1   
 43  21  41  1   
@<TRIPOS>SUBSTRUCTURE
  1 ****   9 GROUP 4 **** **** 0

# MOE 2024.06 (io_trps.svl 2023.06)
