@<TRIPOS>MOLECULE
NONAME
52 54 1 0 0 
SMALL
USER_CHARGES


@<TRIPOS>ATOM
  1 O       -0.0600     0.6260    -1.0990 O.2   1 <1>  -0.5700 
  2 C       -0.0420     1.3690    -0.1470 C.2   1 <1>   0.5690 
  3 N        1.0890     1.6580     0.5740 N.am  1 <1>  -0.5470 
  4 C       -1.3850     2.0070     0.2500 C.3   1 <1>   0.4040 
  5 C        2.4050     1.1840     0.4210 C.ar  1 <1>   0.1170 
  6 N       -2.5800     1.2420    -0.2740 N.4   1 <1>  -0.9590 
  7 C        3.4470     1.9530     0.9250 C.ar  1 <1>  -0.1500 
  8 C        2.7150    -0.0270    -0.1940 C.ar  1 <1>  -0.1500 
  9 C       -3.8300     2.0510    -0.2930 C.3   1 <1>   0.3430 
 10 C       -2.7480    -0.0650     0.4280 C.3   1 <1>   0.3430 
 11 C        4.7590     1.5300     0.8140 C.ar  1 <1>  -0.1500 
 12 C        4.0260    -0.4530    -0.3090 C.ar  1 <1>  -0.1500 
 13 C       -4.9400     1.2660    -0.9910 C.3   1 <1>  -0.1600 
 14 C       -3.8430    -0.8770    -0.2580 C.3   1 <1>  -0.1600 
 15 C        5.0600     0.3280     0.1980 C.ar  1 <1>   0.0820 
 16 C       -5.1730    -0.1050    -0.3330 C.3   1 <1>  -0.0800 
 17 O        6.3740    -0.0130     0.1300 O.3   1 <1>  -0.3620 
 18 C       -6.2560    -0.8990    -1.0880 C.3   1 <1>  -0.0170 
 19 C        6.7830    -1.2040    -0.5050 C.3   1 <1>   0.0400 
 20 C       -6.5360    -2.2360    -0.4190 C.ar  1 <1>  -0.1440 
 21 C       -6.0290    -3.4110    -0.9540 C.ar  1 <1>  -0.1500 
 22 C       -7.2960    -2.2900     0.7390 C.ar  1 <1>  -0.1500 
 23 C       -6.2730    -4.6240    -0.3330 C.ar  1 <1>  -0.1500 
 24 C       -7.5410    -3.5020     1.3600 C.ar  1 <1>  -0.1500 
 25 C       -7.0270    -4.6700     0.8250 C.ar  1 <1>  -0.1500 
 26 H        1.0170     2.3660     1.3050 H     1 <1>   0.3700 
 27 H       -1.3990     3.0040    -0.1540 H     1 <1>   0.0800 
 28 H       -1.4400     2.0770     1.3220 H     1 <1>   0.0800 
 29 H       -2.3300     0.9940    -1.2470 H     1 <1>   0.4500 
 30 H        3.2460     2.8920     1.4050 H     1 <1>   0.1500 
 31 H        1.9370    -0.6530    -0.5890 H     1 <1>   0.1500 
 32 H       -3.6640     2.9780    -0.8180 H     1 <1>   0.0800 
 33 H       -4.1330     2.2800     0.7170 H     1 <1>   0.0800 
 34 H       -3.0160     0.1010     1.4590 H     1 <1>   0.0800 
 35 H       -1.8240    -0.6220     0.3990 H     1 <1>   0.0800 
 36 H        5.5630     2.1290     1.2030 H     1 <1>   0.1500 
 37 H        4.2220    -1.3910    -0.7920 H     1 <1>   0.1500 
 38 H       -4.6860     1.1410    -2.0300 H     1 <1>   0.0800 
 39 H       -5.8490     1.8410    -0.9490 H     1 <1>   0.0800 
 40 H       -3.9820    -1.7860     0.3020 H     1 <1>   0.0800 
 41 H       -3.5150    -1.1560    -1.2440 H     1 <1>   0.0800 
 42 H       -5.5260     0.0580     0.6720 H     1 <1>   0.0800 
 43 H       -5.9520    -1.0630    -2.1080 H     1 <1>   0.0800 
 44 H       -7.1700    -0.3310    -1.1150 H     1 <1>   0.0800 
 45 H        7.8550    -1.2600    -0.4500 H     1 <1>   0.0800 
 46 H        6.4720    -1.1750    -1.5350 H     1 <1>   0.0800 
 47 H        6.3470    -2.0420     0.0080 H     1 <1>   0.0800 
 48 H       -5.4430    -3.3920    -1.8560 H     1 <1>   0.1500 
 49 H       -7.7050    -1.3900     1.1640 H     1 <1>   0.1500 
 50 H       -5.8770    -5.5330    -0.7530 H     1 <1>   0.1500 
 51 H       -8.1320    -3.5380     2.2590 H     1 <1>   0.1500 
 52 H       -7.2170    -5.6130     1.3070 H     1 <1>   0.1500 
@<TRIPOS>BOND
  1   1   2  2   
  2   2   3  am  
  3   2   4  1   
  4   3   5  1   
  5   3  26  1   
  6   4   6  1   
  7   4  27  1   
  8   4  28  1   
  9   5   7  ar  
 10   5   8  ar  
 11   6   9  1   
 12   6  10  1   
 13   6  29  1   
 14   7  11  ar  
 15   7  30  1   
 16   8  12  ar  
 17   8  31  1   
 18   9  13  1   
 19   9  32  1   
 20   9  33  1   
 21  10  14  1   
 22  10  34  1   
 23  10  35  1   
 24  11  15  ar  
 25  11  36  1   
 26  12  15  ar  
 27  12  37  1   
 28  13  16  1   
 29  13  38  1   
 30  13  39  1   
 31  14  16  1   
 32  14  40  1   
 33  14  41  1   
 34  15  17  1   
 35  16  18  1   
 36  16  42  1   
 37  17  19  1   
 38  18  20  1   
 39  18  43  1   
 40  18  44  1   
 41  19  45  1   
 42  19  46  1   
 43  19  47  1   
 44  20  21  ar  
 45  20  22  ar  
 46  21  23  ar  
 47  21  48  1   
 48  22  24  ar  
 49  22  49  1   
 50  23  25  ar  
 51  23  50  1   
 52  24  25  ar  
 53  24  51  1   
 54  25  52  1   
@<TRIPOS>SUBSTRUCTURE
  1 ****  10 GROUP 4 **** **** 0

# MOE 2024.06 (io_trps.svl 2023.06)
