@<TRIPOS>MOLECULE
NONAME
45 46 1 0 0 
SMALL
USER_CHARGES


@<TRIPOS>ATOM
  1 O        0.9880     2.3560     1.8000 O.2   1 <1>  -0.5700 
  2 C        0.7940     2.3620     0.6070 C.2   1 <1>   0.5690 
  3 N        1.6570     1.7840    -0.2820 N.am  1 <1>  -0.5470 
  4 C       -0.4560     3.0460     0.0530 C.3   1 <1>  -0.0190 
  5 C        2.8950     1.1500    -0.0490 C.ar  1 <1>   0.1170 
  6 C       -0.4200     4.5640     0.3200 C.3   1 <1>  -0.1600 
  7 C       -1.7440     2.4260     0.6290 C.3   1 <1>  -0.1600 
  8 C        3.8980     1.6900     0.7770 C.ar  1 <1>   0.1170 
  9 C        3.1380    -0.0530    -0.6990 C.ar  1 <1>  -0.1500 
 10 C       -1.6730     5.2620    -0.2260 C.3   1 <1>  -0.1600 
 11 C       -2.9980     3.1230     0.0820 C.3   1 <1>  -0.1600 
 12 N        3.7070     2.9120     1.4410 N.am  1 <1>  -0.5470 
 13 C        5.0900     0.9970     0.9410 C.ar  1 <1>  -0.1500 
 14 C        4.3360    -0.7260    -0.5370 C.ar  1 <1>  -0.1500 
 15 C       -2.9510     4.6340     0.3460 C.3   1 <1>  -0.1600 
 16 C        4.4260     4.0640     1.4380 C.2   1 <1>   0.5690 
 17 C        5.3140    -0.2010     0.2880 C.ar  1 <1>  -0.1500 
 18 O        4.0440     5.0100     2.0800 O.2   1 <1>  -0.5700 
 19 C        5.7080     4.1790     0.6200 C.3   1 <1>  -0.0990 
 20 C        5.9550     5.5900     0.0590 C.3   1 <1>  -0.1600 
 21 C        7.2300     5.6420    -0.7890 C.3   1 <1>  -0.2400 
 22 H        1.3430     1.7690    -1.2500 H     1 <1>   0.3700 
 23 H       -0.4730     2.9030    -1.0120 H     1 <1>   0.0800 
 24 H        0.4580     4.9920    -0.1320 H     1 <1>   0.0800 
 25 H       -0.3540     4.7350     1.3820 H     1 <1>   0.0800 
 26 H       -1.7310     2.5150     1.7030 H     1 <1>   0.0800 
 27 H       -1.7810     1.3780     0.3890 H     1 <1>   0.0800 
 28 H        2.3830    -0.4750    -1.3360 H     1 <1>   0.1500 
 29 H       -1.6880     5.1870    -1.3000 H     1 <1>   0.0800 
 30 H       -1.6410     6.3080     0.0310 H     1 <1>   0.0800 
 31 H       -3.8740     2.7050     0.5480 H     1 <1>   0.0800 
 32 H       -3.0740     2.9490    -0.9770 H     1 <1>   0.0800 
 33 H        2.7890     2.9950     1.9040 H     1 <1>   0.3700 
 34 H        5.8480     1.3960     1.5920 H     1 <1>   0.1500 
 35 H        4.5070    -1.6580    -1.0470 H     1 <1>   0.1500 
 36 H       -3.8130     5.1050    -0.0940 H     1 <1>   0.0800 
 37 H       -2.9860     4.8090     1.4080 H     1 <1>   0.0800 
 38 H        6.2450    -0.7250     0.4240 H     1 <1>   0.1500 
 39 H        5.6630     3.4900    -0.2030 H     1 <1>   0.0800 
 40 H        6.5300     3.8970     1.2510 H     1 <1>   0.0800 
 41 H        6.0400     6.2900     0.8740 H     1 <1>   0.0800 
 42 H        5.1120     5.8870    -0.5420 H     1 <1>   0.0800 
 43 H        8.0860     5.3690    -0.1970 H     1 <1>   0.0800 
 44 H        7.3790     6.6380    -1.1650 H     1 <1>   0.0800 
 45 H        7.1550     4.9690    -1.6250 H     1 <1>   0.0800 
@<TRIPOS>BOND
  1   1   2  2   
  2   2   3  am  
  3   2   4  1   
  4   3   5  1   
  5   3  22  1   
  6   4   6  1   
  7   4   7  1   
  8   4  23  1   
  9   5   8  ar  
 10   5   9  ar  
 11   6  10  1   
 12   6  24  1   
 13   6  25  1   
 14   7  11  1   
 15   7  26  1   
 16   7  27  1   
 17   8  12  1   
 18   8  13  ar  
 19   9  14  ar  
 20   9  28  1   
 21  10  15  1   
 22  10  29  1   
 23  10  30  1   
 24  11  15  1   
 25  11  31  1   
 26  11  32  1   
 27  12  16  am  
 28  12  33  1   
 29  13  17  ar  
 30  13  34  1   
 31  14  17  ar  
 32  14  35  1   
 33  15  36  1   
 34  15  37  1   
 35  16  18  2   
 36  16  19  1   
 37  17  38  1   
 38  19  20  1   
 39  19  39  1   
 40  19  40  1   
 41  20  21  1   
 42  20  41  1   
 43  20  42  1   
 44  21  43  1   
 45  21  44  1   
 46  21  45  1   
@<TRIPOS>SUBSTRUCTURE
  1 ****   3 GROUP 4 **** **** 0

# MOE 2024.06 (io_trps.svl 2023.06)
