@<TRIPOS>MOLECULE
NONAME
37 38 1 0 0 
SMALL
USER_CHARGES


@<TRIPOS>ATOM
  1 F       -3.3930     1.2680     3.2960 F     1 <1>  -0.1900 
  2 C       -3.3220     1.4770     2.0100 C.ar  1 <1>   0.1900 
  3 C       -4.2240     0.8330     1.1850 C.ar  1 <1>  -0.1500 
  4 C       -2.3530     2.3320     1.5230 C.ar  1 <1>  -0.1500 
  5 C       -4.1610     1.0590    -0.1830 C.ar  1 <1>  -0.1440 
  6 C       -2.2880     2.5460     0.1570 C.ar  1 <1>  -0.1500 
  7 C       -3.1860     1.9130    -0.6890 C.ar  1 <1>  -0.1500 
  8 C       -5.1540     0.3860    -1.1130 C.3   1 <1>   0.4870 
  9 N       -6.4820     1.0190    -0.9080 N.4   1 <1>  -0.9590 
 10 C       -7.6000     0.2340    -1.4730 C.3   1 <1>   0.3430 
 11 C       -6.5320     2.4380    -1.3190 C.3   1 <1>   0.3430 
 12 C       -8.2880    -0.4960    -0.3230 C.3   1 <1>  -0.1600 
 13 C       -7.0680     3.2610    -0.1480 C.3   1 <1>  -0.1600 
 14 C       -9.2040     0.3900     0.5440 C.3   1 <1>  -0.1600 
 15 C       -8.4780     2.8780     0.3440 C.3   1 <1>  -0.1600 
 16 C       -8.5620     1.6140     1.2300 C.3   1 <1>  -0.1600 
 17 H       -4.9480     0.1720     1.6280 H     1 <1>   0.1500 
 18 H       -1.6670     2.8130     2.1990 H     1 <1>   0.1500 
 19 H       -1.5360     3.2060    -0.2450 H     1 <1>   0.1500 
 20 H       -3.1090     2.0950    -1.7480 H     1 <1>   0.1500 
 21 H       -5.2030    -0.6650    -0.8750 H     1 <1>   0.0800 
 22 H       -4.8400     0.4920    -2.1380 H     1 <1>   0.0800 
 23 H       -6.6450     1.0440     0.1060 H     1 <1>   0.4500 
 24 H       -7.2310    -0.4750    -2.1970 H     1 <1>   0.0800 
 25 H       -8.3130     0.8800    -1.9590 H     1 <1>   0.0800 
 26 H       -7.1680     2.5610    -2.1810 H     1 <1>   0.0800 
 27 H       -5.5450     2.7920    -1.5720 H     1 <1>   0.0800 
 28 H       -7.5600    -0.9950     0.2930 H     1 <1>   0.0800 
 29 H       -8.9060    -1.2660    -0.7530 H     1 <1>   0.0800 
 30 H       -7.1040     4.2850    -0.4770 H     1 <1>   0.0800 
 31 H       -6.3670     3.2320     0.6700 H     1 <1>   0.0800 
 32 H       -9.6050    -0.2400     1.3210 H     1 <1>   0.0800 
 33 H      -10.0500     0.7130    -0.0400 H     1 <1>   0.0800 
 34 H       -9.1590     2.8130    -0.4880 H     1 <1>   0.0800 
 35 H       -8.8250     3.7030     0.9460 H     1 <1>   0.0800 
 36 H       -7.6140     1.3670     1.6750 H     1 <1>   0.0800 
 37 H       -9.2100     1.8660     2.0540 H     1 <1>   0.0800 
@<TRIPOS>BOND
  1   1   2  1   
  2   2   3  ar  
  3   2   4  ar  
  4   3   5  ar  
  5   3  17  1   
  6   4   6  ar  
  7   4  18  1   
  8   5   7  ar  
  9   5   8  1   
 10   6   7  ar  
 11   6  19  1   
 12   7  20  1   
 13   8   9  1   
 14   8  21  1   
 15   8  22  1   
 16   9  10  1   
 17   9  11  1   
 18   9  23  1   
 19  10  12  1   
 20  10  24  1   
 21  10  25  1   
 22  11  13  1   
 23  11  26  1   
 24  11  27  1   
 25  12  14  1   
 26  12  28  1   
 27  12  29  1   
 28  13  15  1   
 29  13  30  1   
 30  13  31  1   
 31  14  16  1   
 32  14  32  1   
 33  14  33  1   
 34  15  16  1   
 35  15  34  1   
 36  15  35  1   
 37  16  36  1   
 38  16  37  1   
@<TRIPOS>SUBSTRUCTURE
  1 ****   9 GROUP 4 **** **** 0

# MOE 2024.06 (io_trps.svl 2023.06)
