@<TRIPOS>MOLECULE
NONAME
42 43 1 0 0 
SMALL
USER_CHARGES


@<TRIPOS>ATOM
  1 F       -0.7350    -0.4260    -1.1620 F     1 <1>  -0.3400 
  2 C       -1.4610     0.0280    -0.1480 C.3   1 <1>   1.1640 
  3 F       -0.6000     0.3360     0.8160 F     1 <1>  -0.3400 
  4 F       -1.9880     1.1790    -0.5510 F     1 <1>  -0.3400 
  5 C       -2.5190    -0.9890     0.3050 C.ar  1 <1>  -0.1440 
  6 C       -3.8060    -0.9600    -0.2210 C.ar  1 <1>  -0.1500 
  7 C       -2.2080    -1.9700     1.2430 C.ar  1 <1>  -0.1500 
  8 C       -4.7770    -1.8730     0.1710 C.ar  1 <1>   0.1000 
  9 C       -3.1640    -2.8870     1.6440 C.ar  1 <1>  -0.1500 
 10 N       -6.0520    -1.7950    -0.3830 N.pl3 1 <1>  -0.8380 
 11 C       -4.4380    -2.8380     1.1120 C.ar  1 <1>  -0.1500 
 12 C       -6.7870    -3.0240    -0.8240 C.3   1 <1>   0.2090 
 13 C       -6.9380    -0.6540    -0.0030 C.3   1 <1>   0.2090 
 14 C       -7.8930    -3.4300     0.1680 C.3   1 <1>   0.1400 
 15 C       -8.0250    -1.0820     1.0010 C.3   1 <1>   0.1400 
 16 N       -8.7810    -2.2770     0.5110 N.am  1 <1>  -0.6600 
 17 C      -10.0790    -2.2350     0.0820 C.2   1 <1>   0.6900 
 18 O      -10.4920    -3.0330    -0.7390 O.2   1 <1>  -0.5700 
 19 N      -10.9150    -1.3030     0.6010 N.am  1 <1>  -0.7300 
 20 C      -12.3430    -1.1680     0.2520 C.3   1 <1>   0.1400 
 21 C      -12.7420     0.3050     0.3420 C.3   1 <1>  -0.1600 
 22 C      -14.2200     0.5040    -0.0140 C.3   1 <1>  -0.2400 
 23 H       -4.0820    -0.2270    -0.9580 H     1 <1>   0.1500 
 24 H       -1.2190    -2.0260     1.6680 H     1 <1>   0.1500 
 25 H       -2.9150    -3.6400     2.3710 H     1 <1>   0.1500 
 26 H       -5.1750    -3.5480     1.4320 H     1 <1>   0.1500 
 27 H       -6.0940    -3.8370    -0.9460 H     1 <1>   0.0800 
 28 H       -7.2370    -2.8340    -1.7830 H     1 <1>   0.0800 
 29 H       -7.4080    -0.2670    -0.8900 H     1 <1>   0.0800 
 30 H       -6.3470     0.1350     0.4300 H     1 <1>   0.0800 
 31 H       -7.4410    -3.7980     1.0710 H     1 <1>   0.0800 
 32 H       -8.4670    -4.2360    -0.2550 H     1 <1>   0.0800 
 33 H       -8.6870    -0.2510     1.1640 H     1 <1>   0.0800 
 34 H       -7.5570    -1.3240     1.9380 H     1 <1>   0.0800 
 35 H      -10.6190    -0.8550     1.4620 H     1 <1>   0.3700 
 36 H      -12.9310    -1.7590     0.9340 H     1 <1>   0.0800 
 37 H      -12.5090    -1.5350    -0.7480 H     1 <1>   0.0800 
 38 H      -12.1370     0.8770    -0.3410 H     1 <1>   0.0800 
 39 H      -12.5710     0.6650     1.3410 H     1 <1>   0.0800 
 40 H      -14.4130     0.1660    -1.0180 H     1 <1>   0.0800 
 41 H      -14.4780     1.5460     0.0510 H     1 <1>   0.0800 
 42 H      -14.8490    -0.0470     0.6630 H     1 <1>   0.0800 
@<TRIPOS>BOND
  1   1   2  1   
  2   2   3  1   
  3   2   4  1   
  4   2   5  1   
  5   5   6  ar  
  6   5   7  ar  
  7   6   8  ar  
  8   6  23  1   
  9   7   9  ar  
 10   7  24  1   
 11   8  10  1   
 12   8  11  ar  
 13   9  11  ar  
 14   9  25  1   
 15  10  12  1   
 16  10  13  1   
 17  11  26  1   
 18  12  14  1   
 19  12  27  1   
 20  12  28  1   
 21  13  15  1   
 22  13  29  1   
 23  13  30  1   
 24  14  16  1   
 25  14  31  1   
 26  14  32  1   
 27  15  16  1   
 28  15  33  1   
 29  15  34  1   
 30  16  17  am  
 31  17  18  2   
 32  17  19  am  
 33  19  20  1   
 34  19  35  1   
 35  20  21  1   
 36  20  36  1   
 37  20  37  1   
 38  21  22  1   
 39  21  38  1   
 40  21  39  1   
 41  22  40  1   
 42  22  41  1   
 43  22  42  1   
@<TRIPOS>SUBSTRUCTURE
  1 ****  10 GROUP 4 **** **** 0

# MOE 2024.06 (io_trps.svl 2023.06)
