@<TRIPOS>MOLECULE
NONAME
49 51 1 0 0 
SMALL
USER_CHARGES


@<TRIPOS>ATOM
  1 O       -1.6390     0.7640     2.5220 O.2   1 <1>  -0.5700 
  2 C       -1.5560     1.2230     1.3950 C.2   1 <1>   0.5440 
  3 N       -1.6490     0.3690     0.3240 N.am  1 <1>  -0.6600 
  4 C       -1.4770     2.6530     1.2150 C.ar  1 <1>   0.0860 
  5 C       -1.3440    -1.0820     0.4170 C.3   1 <1>   0.1400 
  6 C       -2.1220     0.7370    -1.0330 C.3   1 <1>   0.1400 
  7 C       -0.3950     3.2910     0.5830 C.ar  1 <1>   0.1170 
  8 C       -2.5260     3.4380     1.6980 C.ar  1 <1>  -0.1500 
  9 C       -2.5900    -1.8850     0.0130 C.3   1 <1>   0.1200 
 10 C       -3.3480    -0.1270    -1.3840 C.3   1 <1>   0.1200 
 11 N        0.7130     2.5940     0.0720 N.am  1 <1>  -0.5470 
 12 C       -0.4210     4.6780     0.4530 C.ar  1 <1>  -0.1500 
 13 C       -2.5340     4.8110     1.5570 C.ar  1 <1>  -0.1500 
 14 O       -3.0750    -1.4980    -1.2510 O.3   1 <1>  -0.5600 
 15 C        2.0380     2.9200     0.2040 C.2   1 <1>   0.5690 
 16 C       -1.4730     5.4350     0.9280 C.ar  1 <1>  -0.1500 
 17 O        2.3790     3.7470     1.0200 O.2   1 <1>  -0.5700 
 18 C        3.0950     2.3230    -0.7630 C.3   1 <1>  -0.0190 
 19 C        3.3030     0.7770    -0.7260 C.3   1 <1>  -0.1860 
 20 C        4.4650     3.0670    -0.6630 C.3   1 <1>  -0.1600 
 21 C        2.0080    -0.0150    -0.6620 C.2   1 <1>   0.9060 
 22 C        4.3700     0.3980     0.3200 C.3   1 <1>  -0.1600 
 23 C        5.6720     2.1850    -1.0070 C.3   1 <1>  -0.1600 
 24 O        1.8870    -0.9760     0.1010 O.co2 1 <1>  -0.9000 
 25 O        1.0920     0.3410    -1.4130 O.co2 1 <1>  -0.9000 
 26 C        5.7500     0.9830    -0.0460 C.3   1 <1>  -0.1600 
 27 H       -1.0290    -1.3420     1.4120 H     1 <1>   0.0800 
 28 H       -0.5370    -1.3200    -0.2540 H     1 <1>   0.0800 
 29 H       -1.3390     0.5530    -1.7480 H     1 <1>   0.0800 
 30 H       -2.3840     1.7780    -1.0770 H     1 <1>   0.0800 
 31 H       -3.3430     2.9470     2.1970 H     1 <1>   0.1500 
 32 H       -3.3710    -1.7400     0.7380 H     1 <1>   0.0800 
 33 H       -2.3480    -2.9310    -0.0350 H     1 <1>   0.0800 
 34 H       -3.6420     0.0490    -2.4020 H     1 <1>   0.0800 
 35 H       -4.1700     0.1180    -0.7350 H     1 <1>   0.0800 
 36 H        0.5400     1.6930    -0.4240 H     1 <1>   0.3700 
 37 H        0.4070     5.1690    -0.0260 H     1 <1>   0.1500 
 38 H       -3.3550     5.3920     1.9390 H     1 <1>   0.1500 
 39 H       -1.4630     6.5050     0.8150 H     1 <1>   0.1500 
 40 H        2.7080     2.5290    -1.7450 H     1 <1>   0.0800 
 41 H        3.7010     0.4890    -1.6800 H     1 <1>   0.0800 
 42 H        4.6300     3.4140     0.3420 H     1 <1>   0.0800 
 43 H        4.4450     3.9350    -1.2990 H     1 <1>   0.0800 
 44 H        4.4450    -0.6740     0.3980 H     1 <1>   0.0800 
 45 H        4.0530     0.7680     1.2800 H     1 <1>   0.0800 
 46 H        6.5790     2.7590    -0.9410 H     1 <1>   0.0800 
 47 H        5.5790     1.8370    -2.0220 H     1 <1>   0.0800 
 48 H        6.3510     0.2170    -0.5050 H     1 <1>   0.0800 
 49 H        6.2440     1.2810     0.8630 H     1 <1>   0.0800 
@<TRIPOS>BOND
  1   1   2  2   
  2   2   3  am  
  3   2   4  1   
  4   3   5  1   
  5   3   6  1   
  6   4   7  ar  
  7   4   8  ar  
  8   5   9  1   
  9   5  27  1   
 10   5  28  1   
 11   6  10  1   
 12   6  29  1   
 13   6  30  1   
 14   7  11  1   
 15   7  12  ar  
 16   8  13  ar  
 17   8  31  1   
 18   9  14  1   
 19   9  32  1   
 20   9  33  1   
 21  10  14  1   
 22  10  34  1   
 23  10  35  1   
 24  11  15  am  
 25  11  36  1   
 26  12  16  ar  
 27  12  37  1   
 28  13  16  ar  
 29  13  38  1   
 30  15  17  2   
 31  15  18  1   
 32  16  39  1   
 33  18  19  1   
 34  18  20  1   
 35  18  40  1   
 36  19  21  1   
 37  19  22  1   
 38  19  41  1   
 39  20  23  1   
 40  20  42  1   
 41  20  43  1   
 42  21  24  ar  
 43  21  25  ar  
 44  22  26  1   
 45  22  44  1   
 46  22  45  1   
 47  23  26  1   
 48  23  46  1   
 49  23  47  1   
 50  26  48  1   
 51  26  49  1   
@<TRIPOS>SUBSTRUCTURE
  1 ****  11 GROUP 4 **** **** 0

# MOE 2024.06 (io_trps.svl 2023.06)
