@<TRIPOS>MOLECULE
NONAME
44 45 1 0 0 
SMALL
USER_CHARGES


@<TRIPOS>ATOM
  1 O        0.0000     0.2020    -0.2720 O.3   1 <1>  -0.3630 
  2 C       -1.2610    -0.2930    -0.1680 C.ar  1 <1>   0.0830 
  3 C        0.3010     1.5210     0.1240 C.3   1 <1>   0.1200 
  4 C       -1.4670    -1.5740    -0.6520 C.ar  1 <1>  -0.1500 
  5 C       -2.3280     0.4100     0.3880 C.ar  1 <1>  -0.1500 
  6 C        1.7920     1.7600    -0.1300 C.3   1 <1>   0.1100 
  7 C       -2.7220    -2.1530    -0.5880 C.ar  1 <1>  -0.1500 
  8 C       -3.5840    -0.1700     0.4520 C.ar  1 <1>  -0.1500 
  9 N        2.2010     3.1350     0.2370 N.3   1 <1>  -0.8100 
 10 C       -3.7870    -1.4580    -0.0370 C.ar  1 <1>   0.0830 
 11 C        1.7810     4.1310    -0.7730 C.3   1 <1>   0.1100 
 12 C        3.6570     3.1980     0.4750 C.3   1 <1>   0.1100 
 13 O       -4.9850    -2.0990    -0.0130 O.3   1 <1>  -0.3630 
 14 C        2.2100     5.5590    -0.3750 C.3   1 <1>   0.3430 
 15 C        4.1050     4.6140     0.8910 C.3   1 <1>   0.3430 
 16 C       -6.1300    -1.4840     0.5280 C.3   1 <1>   0.1200 
 17 N        3.6900     5.6490    -0.1200 N.4   1 <1>  -0.9590 
 18 C       -7.2940    -2.4620     0.4040 C.3   1 <1>  -0.2400 
 19 C        4.0840     7.0210     0.3160 C.3   1 <1>   0.2630 
 20 H        0.0820     1.6190     1.1720 H     1 <1>   0.0800 
 21 H       -0.3060     2.1880    -0.4600 H     1 <1>   0.0800 
 22 H       -0.6430    -2.1150    -1.0790 H     1 <1>   0.1500 
 23 H       -2.2020     1.4020     0.7750 H     1 <1>   0.1500 
 24 H        2.0200     1.5690    -1.1650 H     1 <1>   0.0800 
 25 H        2.3350     1.0530     0.4750 H     1 <1>   0.0800 
 26 H       -2.8840    -3.1470    -0.9630 H     1 <1>   0.1500 
 27 H       -4.3880     0.3930     0.8850 H     1 <1>   0.1500 
 28 H        0.7090     4.1160    -0.8700 H     1 <1>   0.0800 
 29 H        2.2010     3.8830    -1.7340 H     1 <1>   0.0800 
 30 H        4.1900     2.8940    -0.4110 H     1 <1>   0.0800 
 31 H        3.9150     2.5130     1.2660 H     1 <1>   0.0800 
 32 H        1.6720     5.8360     0.5170 H     1 <1>   0.0800 
 33 H        1.9300     6.2440    -1.1580 H     1 <1>   0.0800 
 34 H        5.1760     4.6260     1.0110 H     1 <1>   0.0800 
 35 H        3.6610     4.8410     1.8460 H     1 <1>   0.0800 
 36 H       -6.3290    -0.5840    -0.0280 H     1 <1>   0.0800 
 37 H       -5.9370    -1.2530     1.5610 H     1 <1>   0.0800 
 38 H        4.1680     5.4220    -1.0030 H     1 <1>   0.4500 
 39 H       -7.4670    -2.7000    -0.6300 H     1 <1>   0.0800 
 40 H       -8.1860    -2.0210     0.8100 H     1 <1>   0.0800 
 41 H       -7.0780    -3.3640     0.9480 H     1 <1>   0.0800 
 42 H        3.5930     7.2750     1.2420 H     1 <1>   0.0800 
 43 H        3.8070     7.7460    -0.4320 H     1 <1>   0.0800 
 44 H        5.1510     7.0750     0.4660 H     1 <1>   0.0800 
@<TRIPOS>BOND
  1   1   2  1   
  2   1   3  1   
  3   2   4  ar  
  4   2   5  ar  
  5   3   6  1   
  6   3  20  1   
  7   3  21  1   
  8   4   7  ar  
  9   4  22  1   
 10   5   8  ar  
 11   5  23  1   
 12   6   9  1   
 13   6  24  1   
 14   6  25  1   
 15   7  10  ar  
 16   7  26  1   
 17   8  10  ar  
 18   8  27  1   
 19   9  11  1   
 20   9  12  1   
 21  10  13  1   
 22  11  14  1   
 23  11  28  1   
 24  11  29  1   
 25  12  15  1   
 26  12  30  1   
 27  12  31  1   
 28  13  16  1   
 29  14  17  1   
 30  14  32  1   
 31  14  33  1   
 32  15  17  1   
 33  15  34  1   
 34  15  35  1   
 35  16  18  1   
 36  16  36  1   
 37  16  37  1   
 38  17  19  1   
 39  17  38  1   
 40  18  39  1   
 41  18  40  1   
 42  18  41  1   
 43  19  42  1   
 44  19  43  1   
 45  19  44  1   
@<TRIPOS>SUBSTRUCTURE
  1 ****   3 GROUP 4 **** **** 0

# MOE 2024.06 (io_trps.svl 2023.06)
