@<TRIPOS>MOLECULE
NONAME
46 46 1 0 0 
SMALL
USER_CHARGES


@<TRIPOS>ATOM
  1 O        0.1030    -0.5320     0.5200 O.2   1 <1>  -0.5700 
  2 C        0.0960    -1.7430     0.3530 C.2   1 <1>   0.5410 
  3 C        1.3610    -2.4480     0.3490 C.2   1 <1>  -0.1240 
  4 C       -1.1840    -2.3870     0.1590 C.2   1 <1>  -0.1240 
  5 C        2.5320    -1.7710     0.1220 C.2   1 <1>  -0.1500 
  6 C        1.1970    -3.9540     0.6260 C.3   1 <1>   0.0580 
  7 C       -2.3710    -1.7150     0.1810 C.2   1 <1>  -0.1500 
  8 C       -1.2090    -3.8970    -0.0760 C.3   1 <1>  -0.0220 
  9 C        3.9180    -2.1040     0.0390 C.2   1 <1>  -0.1500 
 10 C        0.1640    -4.5030    -0.3610 C.3   1 <1>  -0.1600 
 11 C        2.4390    -4.8500     0.5850 C.3   1 <1>  -0.2400 
 12 C       -3.7010    -2.2090     0.0300 C.2   1 <1>  -0.1500 
 13 C        4.9160    -1.2140    -0.1890 C.2   1 <1>  -0.0500 
 14 C       -4.8240    -1.4500     0.0390 C.2   1 <1>  -0.0500 
 15 N        6.2670    -1.4870    -0.2790 N.pl3 1 <1>  -0.8380 
 16 N       -6.1260    -1.8900    -0.1000 N.pl3 1 <1>  -0.8380 
 17 C        6.8440    -2.8410    -0.0660 C.3   1 <1>   0.1290 
 18 C        7.2380    -0.4150    -0.6230 C.3   1 <1>   0.1290 
 19 C       -6.4970    -3.3250    -0.2240 C.3   1 <1>   0.1290 
 20 C       -7.2530    -0.9230    -0.1650 C.3   1 <1>   0.1290 
 21 H        2.4120    -0.7120    -0.0430 H     1 <1>   0.1500 
 22 H        0.7930    -4.0500     1.6210 H     1 <1>   0.0800 
 23 H       -2.3350    -0.6500     0.3390 H     1 <1>   0.1500 
 24 H       -1.6190    -4.3640     0.8030 H     1 <1>   0.0800 
 25 H       -1.8580    -4.1270    -0.9030 H     1 <1>   0.0800 
 26 H        4.1970    -3.1230     0.1570 H     1 <1>   0.1500 
 27 H        0.4680    -4.2620    -1.3660 H     1 <1>   0.0800 
 28 H        0.0910    -5.5740    -0.2830 H     1 <1>   0.0800 
 29 H        2.9040    -4.8120    -0.3840 H     1 <1>   0.0800 
 30 H        2.1680    -5.8710     0.7870 H     1 <1>   0.0800 
 31 H        3.1350    -4.5500     1.3480 H     1 <1>   0.0800 
 32 H       -3.8040    -3.2670    -0.1020 H     1 <1>   0.1500 
 33 H        4.6500    -0.1770    -0.3200 H     1 <1>   0.1500 
 34 H       -4.7130    -0.3840     0.1640 H     1 <1>   0.1500 
 35 H        7.8950    -2.7690     0.1550 H     1 <1>   0.0800 
 36 H        6.7090    -3.4330    -0.9530 H     1 <1>   0.0800 
 37 H        6.3560    -3.3230     0.7630 H     1 <1>   0.0800 
 38 H        7.7790    -0.6880    -1.5120 H     1 <1>   0.0800 
 39 H        7.9300    -0.2780     0.1890 H     1 <1>   0.0800 
 40 H        6.7240     0.5130    -0.8020 H     1 <1>   0.0800 
 41 H       -7.5270    -3.4690     0.0500 H     1 <1>   0.0800 
 42 H       -5.8860    -3.9210     0.4290 H     1 <1>   0.0800 
 43 H       -6.3530    -3.6470    -1.2400 H     1 <1>   0.0800 
 44 H       -7.7880    -1.0510    -1.0900 H     1 <1>   0.0800 
 45 H       -6.8840     0.0870    -0.1160 H     1 <1>   0.0800 
 46 H       -7.9220    -1.0880     0.6610 H     1 <1>   0.0800 
@<TRIPOS>BOND
  1   1   2  2   
  2   2   3  1   
  3   2   4  1   
  4   3   5  2   
  5   3   6  1   
  6   4   7  2   
  7   4   8  1   
  8   5   9  1   
  9   5  21  1   
 10   6  10  1   
 11   6  11  1   
 12   6  22  1   
 13   7  12  1   
 14   7  23  1   
 15   8  10  1   
 16   8  24  1   
 17   8  25  1   
 18   9  13  2   
 19   9  26  1   
 20  10  27  1   
 21  10  28  1   
 22  11  29  1   
 23  11  30  1   
 24  11  31  1   
 25  12  14  2   
 26  12  32  1   
 27  13  15  1   
 28  13  33  1   
 29  14  16  1   
 30  14  34  1   
 31  15  17  1   
 32  15  18  1   
 33  16  19  1   
 34  16  20  1   
 35  17  35  1   
 36  17  36  1   
 37  17  37  1   
 38  18  38  1   
 39  18  39  1   
 40  18  40  1   
 41  19  41  1   
 42  19  42  1   
 43  19  43  1   
 44  20  44  1   
 45  20  45  1   
 46  20  46  1   
@<TRIPOS>SUBSTRUCTURE
  1 ****   2 GROUP 4 **** **** 0

# MOE 2024.06 (io_trps.svl 2023.06)
