@<TRIPOS>MOLECULE
NONAME
35 37 1 0 0 
SMALL
USER_CHARGES


@<TRIPOS>ATOM
  1 S        0.5320    -0.8010     0.6440 S.3   1 <1>  -0.0800 
  2 C        1.6250     0.4860     0.1320 C.2   1 <1>   0.1660 
  3 C       -0.8340     0.2800     0.4380 C.2   1 <1>  -0.1400 
  4 N        2.9620     0.3090     0.0580 N.2   1 <1>  -0.5760 
  5 C        0.9510     1.6320    -0.1630 C.2   1 <1>  -0.0860 
  6 C       -0.4630     1.4810     0.0240 C.2   1 <1>  -0.1810 
  7 C       -2.2990     0.0690     0.6490 C.3   1 <1>   0.0200 
  8 C        3.6200     1.3480    -0.3340 C.2   1 <1>   0.6510 
  9 C        1.7200     2.7480    -0.5890 C.2   1 <1>   0.7160 
 10 C       -1.6550     2.3840    -0.1420 C.3   1 <1>   0.0210 
 11 C       -2.8480     1.4690     0.2630 C.3   1 <1>  -0.1600 
 12 S        5.3920     1.1620    -0.4390 S.3   1 <1>  -0.3710 
 13 N        3.0900     2.5790    -0.6740 N.am  1 <1>  -0.4200 
 14 O        1.2010     3.8210    -0.8720 O.2   1 <1>  -0.5700 
 15 C        5.6940    -0.5720     0.1140 C.3   1 <1>   0.2080 
 16 C        3.9330     3.7280    -1.1150 C.3   1 <1>   0.1400 
 17 C        7.1910    -0.8130     0.0620 C.2   1 <1>  -0.2880 
 18 C        4.3920     4.5380     0.0990 C.3   1 <1>  -0.2400 
 19 C        7.9510    -1.1720     1.1010 C.2   1 <1>  -0.3000 
 20 H       -2.5050    -0.1720     1.6760 H     1 <1>   0.0800 
 21 H       -2.6710    -0.7010    -0.0040 H     1 <1>   0.0800 
 22 H       -1.7380     2.7110    -1.1640 H     1 <1>   0.0800 
 23 H       -1.5740     3.2370     0.5080 H     1 <1>   0.0800 
 24 H       -3.3710     1.9000     1.0980 H     1 <1>   0.0800 
 25 H       -3.5340     1.3780    -0.5610 H     1 <1>   0.0800 
 26 H        5.1630    -1.2250    -0.5560 H     1 <1>   0.0800 
 27 H        5.3050    -0.6680     1.1130 H     1 <1>   0.0800 
 28 H        3.3670     4.3650    -1.7750 H     1 <1>   0.0800 
 29 H        4.7840     3.3830    -1.6760 H     1 <1>   0.0800 
 30 H        7.5930    -0.6600    -0.9250 H     1 <1>   0.1500 
 31 H        3.5410     4.9260     0.6310 H     1 <1>   0.0800 
 32 H        4.9920     5.3680    -0.2280 H     1 <1>   0.0800 
 33 H        4.9840     3.9310     0.7600 H     1 <1>   0.0800 
 34 H        9.0140    -1.3370     1.0390 H     1 <1>   0.1500 
 35 H        7.5800    -1.3300     2.0990 H     1 <1>   0.1500 
@<TRIPOS>BOND
  1   1   2  1   
  2   1   3  1   
  3   2   4  1   
  4   2   5  2   
  5   3   6  2   
  6   3   7  1   
  7   4   8  2   
  8   5   6  1   
  9   5   9  1   
 10   6  10  1   
 11   7  11  1   
 12   7  20  1   
 13   7  21  1   
 14   8  12  1   
 15   8  13  1   
 16   9  13  am  
 17   9  14  2   
 18  10  11  1   
 19  10  22  1   
 20  10  23  1   
 21  11  24  1   
 22  11  25  1   
 23  12  15  1   
 24  13  16  1   
 25  15  17  1   
 26  15  26  1   
 27  15  27  1   
 28  16  18  1   
 29  16  28  1   
 30  16  29  1   
 31  17  19  2   
 32  17  30  1   
 33  18  31  1   
 34  18  32  1   
 35  18  33  1   
 36  19  34  1   
 37  19  35  1   
@<TRIPOS>SUBSTRUCTURE
  1 ****   2 GROUP 4 **** **** 0

# MOE 2024.06 (io_trps.svl 2023.06)
