@<TRIPOS>MOLECULE
NONAME
51 53 1 0 0 
SMALL
USER_CHARGES


@<TRIPOS>ATOM
  1 F       -0.9480    -0.0850     1.8210 F     1 <1>  -0.3400 
  2 C       -1.6770    -0.3260     0.7390 C.3   1 <1>   1.1580 
  3 F       -2.8880     0.1460     1.0110 F     1 <1>  -0.3400 
  4 F       -1.2060     0.4430    -0.2330 F     1 <1>  -0.3400 
  5 C       -1.7340    -1.7900     0.3690 C.2   1 <1>  -0.1690 
  6 N       -0.5270    -2.3730     0.0660 N.pl3 1 <1>   0.6010 
  7 C       -2.8480    -2.5710     0.3110 C.2   1 <1>  -0.1360 
  8 N        0.7040    -1.8370     0.0460 N.2   1 <1>  -0.7070 
  9 C       -0.5020    -3.7030    -0.2700 C.2   1 <1>  -0.0260 
 10 C       -2.7670    -3.9530    -0.0560 C.2   1 <1>   0.3490 
 11 C        1.5220    -2.8270    -0.3020 C.2   1 <1>   0.2030 
 12 N       -1.6180    -4.5010    -0.3320 N.2   1 <1>  -0.5760 
 13 C        0.7970    -4.0000    -0.5050 C.2   1 <1>  -0.1500 
 14 C       -3.9810    -4.7380    -0.1080 C.ar  1 <1>   0.0860 
 15 C        2.9760    -2.7560    -0.4640 C.2   1 <1>   0.7160 
 16 C       -4.0470    -5.9920     0.4930 C.ar  1 <1>  -0.1500 
 17 C       -5.1270    -4.2760    -0.7530 C.ar  1 <1>  -0.1500 
 18 O        3.6100    -3.7410    -0.7940 O.2   1 <1>  -0.5700 
 19 N        3.7240    -1.6310    -0.2710 N.am  1 <1>  -0.7300 
 20 C       -5.2000    -6.7550     0.4770 C.ar  1 <1>   0.0830 
 21 C       -6.2920    -5.0190    -0.7750 C.ar  1 <1>  -0.1500 
 22 C        3.2620    -0.2690     0.0730 C.3   1 <1>   0.1400 
 23 O       -5.1090    -7.9580     1.1080 O.3   1 <1>  -0.3630 
 24 C       -6.3540    -6.2640    -0.1520 C.ar  1 <1>   0.0830 
 25 C        4.4540     0.6970     0.1780 C.3   1 <1>  -0.0800 
 26 C       -5.7210    -9.1010     0.5500 C.3   1 <1>   0.0400 
 27 O       -7.5030    -6.9940    -0.1290 O.3   1 <1>  -0.3630 
 28 C        3.9660     2.0790     0.6320 C.3   1 <1>  -0.2400 
 29 C        5.2100     0.8330    -1.1530 C.3   1 <1>  -0.2400 
 30 C       -8.7230    -6.5050    -0.6420 C.3   1 <1>   0.0400 
 31 H       -3.8250    -2.1850     0.5450 H     1 <1>   0.1500 
 32 H        1.2040    -4.9520    -0.7940 H     1 <1>   0.1500 
 33 H       -3.1740    -6.3840     0.9850 H     1 <1>   0.1500 
 34 H       -5.1060    -3.3230    -1.2510 H     1 <1>   0.1500 
 35 H        4.7230    -1.7360    -0.4460 H     1 <1>   0.3700 
 36 H       -7.1440    -4.6090    -1.2840 H     1 <1>   0.1500 
 37 H        2.7390    -0.3040     1.0140 H     1 <1>   0.0800 
 38 H        2.5740     0.0760    -0.6820 H     1 <1>   0.0800 
 39 H        5.1280     0.3210     0.9300 H     1 <1>   0.0800 
 40 H       -5.6360    -9.0590    -0.5220 H     1 <1>   0.0800 
 41 H       -5.2140    -9.9700     0.9270 H     1 <1>   0.0800 
 42 H       -6.7530    -9.1240     0.8500 H     1 <1>   0.0800 
 43 H        3.2840     2.4960    -0.0880 H     1 <1>   0.0800 
 44 H        4.7990     2.7510     0.7460 H     1 <1>   0.0800 
 45 H        3.4610     2.0050     1.5790 H     1 <1>   0.0800 
 46 H        4.5490     1.1830    -1.9270 H     1 <1>   0.0800 
 47 H        5.6230    -0.1110    -1.4600 H     1 <1>   0.0800 
 48 H        6.0210     1.5330    -1.0520 H     1 <1>   0.0800 
 49 H       -9.4800    -7.2470    -0.4630 H     1 <1>   0.0800 
 50 H       -8.9780    -5.5940    -0.1300 H     1 <1>   0.0800 
 51 H       -8.6170    -6.3400    -1.6990 H     1 <1>   0.0800 
@<TRIPOS>BOND
  1   1   2  1   
  2   2   3  1   
  3   2   4  1   
  4   2   5  1   
  5   5   6  1   
  6   5   7  2   
  7   6   8  1   
  8   6   9  1   
  9   7  10  1   
 10   7  31  1   
 11   8  11  2   
 12   9  12  1   
 13   9  13  2   
 14  10  12  2   
 15  10  14  1   
 16  11  13  1   
 17  11  15  1   
 18  13  32  1   
 19  14  16  ar  
 20  14  17  ar  
 21  15  18  2   
 22  15  19  am  
 23  16  20  ar  
 24  16  33  1   
 25  17  21  ar  
 26  17  34  1   
 27  19  22  1   
 28  19  35  1   
 29  20  23  1   
 30  20  24  ar  
 31  21  24  ar  
 32  21  36  1   
 33  22  25  1   
 34  22  37  1   
 35  22  38  1   
 36  23  26  1   
 37  24  27  1   
 38  25  28  1   
 39  25  29  1   
 40  25  39  1   
 41  26  40  1   
 42  26  41  1   
 43  26  42  1   
 44  27  30  1   
 45  28  43  1   
 46  28  44  1   
 47  28  45  1   
 48  29  46  1   
 49  29  47  1   
 50  29  48  1   
 51  30  49  1   
 52  30  50  1   
 53  30  51  1   
@<TRIPOS>SUBSTRUCTURE
  1 ****   9 GROUP 4 **** **** 0

# MOE 2024.06 (io_trps.svl 2023.06)
