@<TRIPOS>MOLECULE
NONAME
61 62 1 0 0 
SMALL
USER_CHARGES


@<TRIPOS>ATOM
  1 O        1.1270     6.1290    -1.1720 O.3   1 <1>  -0.5600 
  2 C        1.2160     4.7350    -1.2860 C.3   1 <1>   0.2000 
  3 C        0.9960     6.6850     0.1120 C.3   1 <1>   0.2000 
  4 C       -0.0470     4.0530    -0.6930 C.3   1 <1>   0.3430 
  5 C        2.5300     4.2530    -0.6590 C.3   1 <1>  -0.2400 
  6 C        0.1360     5.8020     1.0540 C.3   1 <1>   0.3430 
  7 C        0.3700     8.0630    -0.0920 C.3   1 <1>  -0.2400 
  8 N       -0.7930     4.9290     0.2740 N.4   1 <1>  -0.9590 
  9 C       -1.8300     4.2200     1.0820 C.3   1 <1>   0.3430 
 10 C       -3.0800     3.9450     0.2210 C.3   1 <1>   0.2000 
 11 O       -3.2750     5.0130    -0.6530 O.3   1 <1>  -0.6800 
 12 C       -4.3600     3.7680     1.0460 C.3   1 <1>   0.1200 
 13 O       -5.4420     3.8430     0.1700 O.3   1 <1>  -0.5600 
 14 C       -6.7110     3.8560     0.7610 C.3   1 <1>   0.2000 
 15 C       -7.7000     3.1870    -0.2200 C.3   1 <1>  -0.0800 
 16 C       -7.1060     5.3140     1.0840 C.3   1 <1>  -0.1600 
 17 C       -7.4010     1.6830    -0.4760 C.3   1 <1>  -0.0800 
 18 C       -7.7850     3.9870    -1.5480 C.3   1 <1>  -0.1600 
 19 C       -7.9590     5.9990    -0.0030 C.3   1 <1>  -0.0800 
 20 C       -8.4460     1.0420    -1.4060 C.3   1 <1>  -0.2400 
 21 C       -7.3510     0.8620     0.8240 C.3   1 <1>  -0.2400 
 22 C       -7.5630     5.5040    -1.3970 C.3   1 <1>  -0.1600 
 23 C       -7.8380     7.5240     0.0930 C.3   1 <1>  -0.2400 
 24 H        1.2540     4.5160    -2.3400 H     1 <1>   0.0800 
 25 H        1.9830     6.8050     0.5270 H     1 <1>   0.0800 
 26 H        0.2550     3.1390    -0.2100 H     1 <1>   0.0800 
 27 H       -0.7040     3.7860    -1.5040 H     1 <1>   0.0800 
 28 H        2.5420     4.3750     0.4080 H     1 <1>   0.0800 
 29 H        3.3560     4.7940    -1.0880 H     1 <1>   0.0800 
 30 H        2.6750     3.2090    -0.8760 H     1 <1>   0.0800 
 31 H       -0.4180     6.4380     1.7250 H     1 <1>   0.0800 
 32 H        0.7910     5.1890     1.6500 H     1 <1>   0.0800 
 33 H       -0.6060     7.9760    -0.5350 H     1 <1>   0.0800 
 34 H        0.9950     8.6540    -0.7380 H     1 <1>   0.0800 
 35 H        0.2790     8.5780     0.8480 H     1 <1>   0.0800 
 36 H       -1.3510     5.5640    -0.3340 H     1 <1>   0.4500 
 37 H       -2.1270     4.8480     1.9050 H     1 <1>   0.0800 
 38 H       -1.4420     3.3000     1.4870 H     1 <1>   0.0800 
 39 H       -2.9270     3.0620    -0.3760 H     1 <1>   0.0800 
 40 H       -4.2240     4.9690    -0.9340 H     1 <1>   0.4000 
 41 H       -4.4480     4.5500     1.7810 H     1 <1>   0.0800 
 42 H       -4.3760     2.8080     1.5350 H     1 <1>   0.0800 
 43 H       -6.6690     3.2980     1.6800 H     1 <1>   0.0800 
 44 H       -8.6690     3.2400     0.2460 H     1 <1>   0.0800 
 45 H       -6.2190     5.8910     1.2710 H     1 <1>   0.0800 
 46 H       -7.6810     5.3150     1.9920 H     1 <1>   0.0800 
 47 H       -6.4390     1.6020    -0.9560 H     1 <1>   0.0800 
 48 H       -8.7560     3.8240    -1.9820 H     1 <1>   0.0800 
 49 H       -7.0530     3.6150    -2.2430 H     1 <1>   0.0800 
 50 H       -8.9930     5.7380     0.1570 H     1 <1>   0.0800 
 51 H       -9.4340     1.1500    -0.9960 H     1 <1>   0.0800 
 52 H       -8.2420    -0.0060    -1.5340 H     1 <1>   0.0800 
 53 H       -8.4260     1.4950    -2.3810 H     1 <1>   0.0800 
 54 H       -6.5160     1.1510     1.4340 H     1 <1>   0.0800 
 55 H       -7.2360    -0.1840     0.6000 H     1 <1>   0.0800 
 56 H       -8.2590     0.9900     1.3870 H     1 <1>   0.0800 
 57 H       -8.1280     6.0220    -2.1530 H     1 <1>   0.0800 
 58 H       -6.5230     5.7250    -1.5600 H     1 <1>   0.0800 
 59 H       -6.8250     7.8380    -0.0910 H     1 <1>   0.0800 
 60 H       -8.1330     7.8620     1.0710 H     1 <1>   0.0800 
 61 H       -8.4780     7.9940    -0.6340 H     1 <1>   0.0800 
@<TRIPOS>BOND
  1   1   2  1   
  2   1   3  1   
  3   2   4  1   
  4   2   5  1   
  5   2  24  1   
  6   3   6  1   
  7   3   7  1   
  8   3  25  1   
  9   4   8  1   
 10   4  26  1   
 11   4  27  1   
 12   5  28  1   
 13   5  29  1   
 14   5  30  1   
 15   6   8  1   
 16   6  31  1   
 17   6  32  1   
 18   7  33  1   
 19   7  34  1   
 20   7  35  1   
 21   8   9  1   
 22   8  36  1   
 23   9  10  1   
 24   9  37  1   
 25   9  38  1   
 26  10  11  1   
 27  10  12  1   
 28  10  39  1   
 29  11  40  1   
 30  12  13  1   
 31  12  41  1   
 32  12  42  1   
 33  13  14  1   
 34  14  15  1   
 35  14  16  1   
 36  14  43  1   
 37  15  17  1   
 38  15  18  1   
 39  15  44  1   
 40  16  19  1   
 41  16  45  1   
 42  16  46  1   
 43  17  20  1   
 44  17  21  1   
 45  17  47  1   
 46  18  22  1   
 47  18  48  1   
 48  18  49  1   
 49  19  22  1   
 50  19  23  1   
 51  19  50  1   
 52  20  51  1   
 53  20  52  1   
 54  20  53  1   
 55  21  54  1   
 56  21  55  1   
 57  21  56  1   
 58  22  57  1   
 59  22  58  1   
 60  23  59  1   
 61  23  60  1   
 62  23  61  1   
@<TRIPOS>SUBSTRUCTURE
  1 ****  11 GROUP 4 **** **** 0

# MOE 2024.06 (io_trps.svl 2023.06)
