@<TRIPOS>MOLECULE
NONAME
40 40 1 0 0 
SMALL
USER_CHARGES


@<TRIPOS>ATOM
  1 O       -0.8020    -0.5720    -0.7910 O.2   1 <1>  -0.5700 
  2 C        0.1140    -1.3540    -0.7150 C.2   1 <1>   0.6590 
  3 O        0.1070    -2.3630     0.1500 O.3   1 <1>  -0.4300 
  4 C        1.3410    -1.2450    -1.6240 C.3   1 <1>   0.1710 
  5 C       -0.9560    -2.5520     1.0520 C.3   1 <1>   0.1200 
  6 N        2.5760    -0.7510    -0.9560 N.3   1 <1>  -0.8100 
  7 C       -0.6330    -3.7680     1.9140 C.3   1 <1>  -0.2400 
  8 C        3.7660    -0.9620    -1.8020 C.3   1 <1>   0.2530 
  9 C        2.4360     0.6460    -0.5160 C.3   1 <1>   0.0300 
 10 C        5.0520    -0.8100    -1.0000 C.ar  1 <1>  -0.1430 
 11 C        5.5590    -1.8710    -0.2550 C.ar  1 <1>   0.0830 
 12 C        5.7460     0.3910    -1.0130 C.ar  1 <1>  -0.1500 
 13 O        4.9220    -3.0610    -0.2320 O.3   1 <1>  -0.3630 
 14 C        6.7370    -1.7370     0.4610 C.ar  1 <1>  -0.1500 
 15 C        6.9190     0.5310    -0.2920 C.ar  1 <1>  -0.1500 
 16 C        4.0270    -3.2520     0.8410 C.3   1 <1>   0.0400 
 17 C        7.4230    -0.5270     0.4470 C.ar  1 <1>   0.0830 
 18 O        8.5790    -0.3060     1.1220 O.3   1 <1>  -0.3630 
 19 C        9.1870    -1.3300     1.8770 C.3   1 <1>   0.0400 
 20 H        1.0970    -0.5990    -2.4490 H     1 <1>   0.0800 
 21 H        1.5250    -2.2280    -2.0170 H     1 <1>   0.0800 
 22 H       -1.8600    -2.7050     0.4870 H     1 <1>   0.0800 
 23 H       -1.0520    -1.6640     1.6550 H     1 <1>   0.0800 
 24 H       -0.5290    -4.6420     1.2970 H     1 <1>   0.0800 
 25 H       -1.4280    -3.9360     2.6170 H     1 <1>   0.0800 
 26 H        0.2790    -3.6020     2.4600 H     1 <1>   0.0800 
 27 H        3.7580    -0.2680    -2.6250 H     1 <1>   0.0800 
 28 H        3.7440    -1.9570    -2.2120 H     1 <1>   0.0800 
 29 H        1.5690     0.7540     0.1120 H     1 <1>   0.0800 
 30 H        2.3380     1.3020    -1.3640 H     1 <1>   0.0800 
 31 H        3.2960     0.9390     0.0600 H     1 <1>   0.0800 
 32 H        5.3740     1.2240    -1.5830 H     1 <1>   0.1500 
 33 H        7.0930    -2.5840     1.0110 H     1 <1>   0.1500 
 34 H        7.4550     1.4630    -0.3000 H     1 <1>   0.1500 
 35 H        3.3030    -2.4570     0.8440 H     1 <1>   0.0800 
 36 H        4.5820    -3.2520     1.7610 H     1 <1>   0.0800 
 37 H        3.5330    -4.1970     0.7040 H     1 <1>   0.0800 
 38 H       10.0880    -0.9350     2.3100 H     1 <1>   0.0800 
 39 H        9.4240    -2.1520     1.2250 H     1 <1>   0.0800 
 40 H        8.5110    -1.6380     2.6560 H     1 <1>   0.0800 
@<TRIPOS>BOND
  1   1   2  2   
  2   2   3  1   
  3   2   4  1   
  4   3   5  1   
  5   4   6  1   
  6   4  20  1   
  7   4  21  1   
  8   5   7  1   
  9   5  22  1   
 10   5  23  1   
 11   6   8  1   
 12   6   9  1   
 13   7  24  1   
 14   7  25  1   
 15   7  26  1   
 16   8  10  1   
 17   8  27  1   
 18   8  28  1   
 19   9  29  1   
 20   9  30  1   
 21   9  31  1   
 22  10  11  ar  
 23  10  12  ar  
 24  11  13  1   
 25  11  14  ar  
 26  12  15  ar  
 27  12  32  1   
 28  13  16  1   
 29  14  17  ar  
 30  14  33  1   
 31  15  17  ar  
 32  15  34  1   
 33  16  35  1   
 34  16  36  1   
 35  16  37  1   
 36  17  18  1   
 37  18  19  1   
 38  19  38  1   
 39  19  39  1   
 40  19  40  1   
@<TRIPOS>SUBSTRUCTURE
  1 ****   6 GROUP 4 **** **** 0

# MOE 2024.06 (io_trps.svl 2023.06)
