@<TRIPOS>MOLECULE
NONAME
42 43 1 0 0 
SMALL
USER_CHARGES


@<TRIPOS>ATOM
  1 CL      -0.0920     0.4510    -0.4270 Cl    1 <1>  -0.1770 
  2 C        1.5090     1.1210    -0.2340 C.ar  1 <1>   0.1770 
  3 C        2.6100     0.2920    -0.3300 C.ar  1 <1>  -0.1500 
  4 C        1.6540     2.4720     0.0140 C.ar  1 <1>  -0.1500 
  5 C        3.8770     0.8270    -0.1750 C.ar  1 <1>  -0.1500 
  6 C        2.9250     3.0000     0.1660 C.ar  1 <1>  -0.1500 
  7 C        4.0530     2.1880     0.0720 C.ar  1 <1>   0.1170 
  8 N        5.3170     2.7770     0.2460 N.am  1 <1>  -0.5470 
  9 C        6.5500     2.3680    -0.1780 C.2   1 <1>   0.5690 
 10 O        6.7450     1.3780    -0.8370 O.2   1 <1>  -0.5700 
 11 C        7.7480     3.2170     0.1870 C.3   1 <1>  -0.0990 
 12 C        9.0280     2.4070    -0.0350 C.3   1 <1>   0.3430 
 13 N       10.2500     3.1870     0.3160 N.4   1 <1>  -0.9590 
 14 C       10.5670     4.3060    -0.6330 C.3   1 <1>   0.3430 
 15 C       11.4590     2.2960     0.4400 C.3   1 <1>   0.3430 
 16 C       11.7530     5.1570    -0.1070 C.3   1 <1>   0.2000 
 17 C       12.7840     3.0950     0.5690 C.3   1 <1>   0.2000 
 18 O       12.5220     4.4480     0.8310 O.3   1 <1>  -0.5600 
 19 C       11.2680     6.4150     0.6110 C.3   1 <1>  -0.2400 
 20 C       13.6920     2.9760    -0.6620 C.3   1 <1>  -0.2400 
 21 H        2.4750    -0.7570    -0.5230 H     1 <1>   0.1500 
 22 H        0.7810     3.0960     0.0850 H     1 <1>   0.1500 
 23 H        4.7260     0.1720    -0.2460 H     1 <1>   0.1500 
 24 H        3.0330     4.0520     0.3560 H     1 <1>   0.1500 
 25 H        5.2830     3.6740     0.7270 H     1 <1>   0.3700 
 26 H        7.6710     3.5050     1.2190 H     1 <1>   0.0800 
 27 H        7.7380     4.0890    -0.4390 H     1 <1>   0.0800 
 28 H        9.0770     2.0890    -1.0650 H     1 <1>   0.0800 
 29 H        8.9770     1.5180     0.5750 H     1 <1>   0.0800 
 30 H       10.1460     3.6270     1.2430 H     1 <1>   0.4500 
 31 H        9.7120     4.9450    -0.7740 H     1 <1>   0.0800 
 32 H       10.8310     3.9000    -1.5960 H     1 <1>   0.0800 
 33 H       11.5310     1.6510    -0.4200 H     1 <1>   0.0800 
 34 H       11.3540     1.6620     1.3050 H     1 <1>   0.0800 
 35 H       12.3920     5.4440    -0.9250 H     1 <1>   0.0800 
 36 H       13.3290     2.7190     1.4190 H     1 <1>   0.0800 
 37 H       10.6530     6.1630     1.4560 H     1 <1>   0.0800 
 38 H       10.7010     7.0360    -0.0590 H     1 <1>   0.0800 
 39 H       12.1150     6.9840     0.9550 H     1 <1>   0.0800 
 40 H       13.1890     3.2630    -1.5660 H     1 <1>   0.0800 
 41 H       14.0210     1.9580    -0.7740 H     1 <1>   0.0800 
 42 H       14.5660     3.5910    -0.5300 H     1 <1>   0.0800 
@<TRIPOS>BOND
  1   1   2  1   
  2   2   3  ar  
  3   2   4  ar  
  4   3   5  ar  
  5   3  21  1   
  6   4   6  ar  
  7   4  22  1   
  8   5   7  ar  
  9   5  23  1   
 10   6   7  ar  
 11   6  24  1   
 12   7   8  1   
 13   8   9  am  
 14   8  25  1   
 15   9  10  2   
 16   9  11  1   
 17  11  12  1   
 18  11  26  1   
 19  11  27  1   
 20  12  13  1   
 21  12  28  1   
 22  12  29  1   
 23  13  14  1   
 24  13  15  1   
 25  13  30  1   
 26  14  16  1   
 27  14  31  1   
 28  14  32  1   
 29  15  17  1   
 30  15  33  1   
 31  15  34  1   
 32  16  18  1   
 33  16  19  1   
 34  16  35  1   
 35  17  18  1   
 36  17  20  1   
 37  17  36  1   
 38  19  37  1   
 39  19  38  1   
 40  19  39  1   
 41  20  40  1   
 42  20  41  1   
 43  20  42  1   
@<TRIPOS>SUBSTRUCTURE
  1 ****  11 GROUP 4 **** **** 0

# MOE 2024.06 (io_trps.svl 2023.06)
