@<TRIPOS>MOLECULE
NONAME
46 47 1 0 0 
SMALL
USER_CHARGES


@<TRIPOS>ATOM
  1 O        0.6820    -1.2460    -0.4200 O.2   1 <1>  -0.5700 
  2 C       -0.0450    -2.0310     0.1520 C.2   1 <1>   0.6900 
  3 N       -1.3090    -1.7060     0.5810 N.am  1 <1>  -0.3680 
  4 N        0.4220    -3.2730     0.3680 N.am  1 <1>  -0.8000 
  5 N       -1.9860    -0.5120     0.4130 N.2   1 <1>  -0.5120 
  6 C       -2.5400     0.6190     0.2720 C.2   1 <1>   0.3280 
  7 C       -3.9640     0.7880    -0.3350 C.3   1 <1>   0.0610 
  8 C       -1.7910     1.8930     0.6680 C.3   1 <1>  -0.0990 
  9 C       -4.8430     1.8090     0.4520 C.3   1 <1>  -0.1600 
 10 C       -4.6980    -0.5900    -0.4030 C.3   1 <1>  -0.1600 
 11 C       -3.8060     1.3100    -1.7790 C.3   1 <1>  -0.2400 
 12 C       -0.2630     1.7420     0.7160 C.3   1 <1>  -0.0170 
 13 C       -5.6690     1.1410     1.5590 C.3   1 <1>  -0.1600 
 14 C       -6.2280    -0.4680    -0.3670 C.3   1 <1>  -0.1600 
 15 C        0.3810     3.0740     1.0710 C.ar  1 <1>  -0.1430 
 16 C       -6.6930     0.1580     0.9610 C.3   1 <1>  -0.1600 
 17 C        0.5530     3.4360     2.3980 C.ar  1 <1>  -0.1500 
 18 C        0.7940     3.9400     0.0710 C.ar  1 <1>  -0.1500 
 19 C        1.1300     4.6520     2.7220 C.ar  1 <1>  -0.1500 
 20 C        1.3710     5.1570     0.3930 C.ar  1 <1>  -0.1500 
 21 C        1.5390     5.5140     1.7200 C.ar  1 <1>  -0.1500 
 22 H       -1.8020    -2.4430     1.0810 H     1 <1>   0.3700 
 23 H        1.3500    -3.4940     0.0120 H     1 <1>   0.3700 
 24 H       -0.1300    -4.0410     0.7380 H     1 <1>   0.3700 
 25 H       -2.0180     2.6770    -0.0290 H     1 <1>   0.0800 
 26 H       -2.1320     2.2020     1.6390 H     1 <1>   0.0800 
 27 H       -4.2610     2.6060     0.8720 H     1 <1>   0.0800 
 28 H       -5.5400     2.2780    -0.2230 H     1 <1>   0.0800 
 29 H       -4.3890    -1.1330    -1.2800 H     1 <1>   0.0800 
 30 H       -4.4240    -1.1910     0.4460 H     1 <1>   0.0800 
 31 H       -4.7550     1.3330    -2.2850 H     1 <1>   0.0800 
 32 H       -3.1440     0.6680    -2.3340 H     1 <1>   0.0800 
 33 H       -3.3980     2.3040    -1.7920 H     1 <1>   0.0800 
 34 H        0.0980     1.4040    -0.2410 H     1 <1>   0.0800 
 35 H        0.0150     1.0010     1.4440 H     1 <1>   0.0800 
 36 H       -5.0020     0.6110     2.2190 H     1 <1>   0.0800 
 37 H       -6.1820     1.8860     2.1410 H     1 <1>   0.0800 
 38 H       -6.5550     0.1450    -1.1890 H     1 <1>   0.0800 
 39 H       -6.6790    -1.4380    -0.4850 H     1 <1>   0.0800 
 40 H       -7.6250     0.6680     0.7910 H     1 <1>   0.0800 
 41 H       -6.8790    -0.6210     1.6810 H     1 <1>   0.0800 
 42 H        0.2390     2.7700     3.1820 H     1 <1>   0.1500 
 43 H        0.6690     3.6680    -0.9620 H     1 <1>   0.1500 
 44 H        1.2610     4.9250     3.7540 H     1 <1>   0.1500 
 45 H        1.6900     5.8240    -0.3880 H     1 <1>   0.1500 
 46 H        1.9870     6.4590     1.9710 H     1 <1>   0.1500 
@<TRIPOS>BOND
  1   1   2  2   
  2   2   3  am  
  3   2   4  am  
  4   3   5  1   
  5   3  22  1   
  6   4  23  1   
  7   4  24  1   
  8   5   6  2   
  9   6   7  1   
 10   6   8  1   
 11   7   9  1   
 12   7  10  1   
 13   7  11  1   
 14   8  12  1   
 15   8  25  1   
 16   8  26  1   
 17   9  13  1   
 18   9  27  1   
 19   9  28  1   
 20  10  14  1   
 21  10  29  1   
 22  10  30  1   
 23  11  31  1   
 24  11  32  1   
 25  11  33  1   
 26  12  15  1   
 27  12  34  1   
 28  12  35  1   
 29  13  16  1   
 30  13  36  1   
 31  13  37  1   
 32  14  16  1   
 33  14  38  1   
 34  14  39  1   
 35  15  17  ar  
 36  15  18  ar  
 37  16  40  1   
 38  16  41  1   
 39  17  19  ar  
 40  17  42  1   
 41  18  20  ar  
 42  18  43  1   
 43  19  21  ar  
 44  19  44  1   
 45  20  21  ar  
 46  20  45  1   
 47  21  46  1   
@<TRIPOS>SUBSTRUCTURE
  1 ****   8 GROUP 4 **** **** 0

# MOE 2024.06 (io_trps.svl 2023.06)
