@<TRIPOS>MOLECULE
NONAME
43 45 1 0 0 
SMALL
USER_CHARGES


@<TRIPOS>ATOM
  1 O        0.6350    -1.1970     2.8960 O.co2 1 <1>  -0.9000 
  2 C        0.0390    -2.1500     2.3900 C.2   1 <1>   0.9060 
  3 O        0.3110    -3.3300     2.6560 O.co2 1 <1>  -0.9000 
  4 C       -1.0150    -1.9200     1.3390 C.3   1 <1>  -0.1860 
  5 C       -1.6090    -0.5110     1.2530 C.3   1 <1>   0.1960 
  6 C       -2.2720    -2.8320     1.5030 C.3   1 <1>  -0.0190 
  7 C       -2.7490    -0.8510     0.3120 C.2   1 <1>  -0.2760 
  8 C       -2.4420    -0.2200     2.4900 C.2   1 <1>  -0.2880 
  9 C       -2.2040    -4.0800     0.6400 C.2   1 <1>   0.5690 
 10 C       -3.4350    -1.8600     1.2150 C.3   1 <1>   0.1960 
 11 C       -3.0510    -0.4140    -0.9210 C.2   1 <1>  -0.2760 
 12 C       -3.5270    -0.9900     2.4540 C.2   1 <1>  -0.2880 
 13 O       -3.1050    -4.3440    -0.1230 O.2   1 <1>  -0.5700 
 14 N       -1.1000    -4.8630     0.8270 N.am  1 <1>  -0.5470 
 15 C       -4.2440    -0.9050    -1.7270 C.3   1 <1>  -0.1020 
 16 C       -2.2340     0.6180    -1.6830 C.3   1 <1>  -0.1020 
 17 C       -0.6520    -6.0630     0.2610 C.ar  1 <1>   0.1170 
 18 C        0.5750    -6.5590     0.6820 C.ar  1 <1>  -0.1500 
 19 C       -1.3600    -6.7830    -0.6950 C.ar  1 <1>  -0.1500 
 20 C        1.0820    -7.7400     0.1690 C.ar  1 <1>  -0.1500 
 21 C       -0.8560    -7.9650    -1.2100 C.ar  1 <1>  -0.1500 
 22 C        0.3670    -8.4520    -0.7800 C.ar  1 <1>  -0.1440 
 23 C        0.9180    -9.7470    -1.3470 C.3   1 <1>  -0.0970 
 24 H       -0.5460    -2.1230     0.3940 H     1 <1>   0.0800 
 25 H       -0.9360     0.2700     0.9490 H     1 <1>   0.0800 
 26 H       -2.3530    -3.1640     2.5240 H     1 <1>   0.0800 
 27 H       -2.0910     0.4980     3.2090 H     1 <1>   0.1500 
 28 H       -4.3640    -2.2850     0.8820 H     1 <1>   0.0800 
 29 H       -4.3510    -1.0900     3.1370 H     1 <1>   0.1500 
 30 H       -0.4520    -4.4590     1.5360 H     1 <1>   0.3700 
 31 H       -4.9070    -0.0870    -1.9400 H     1 <1>   0.0800 
 32 H       -4.7960    -1.6600    -1.2010 H     1 <1>   0.0800 
 33 H       -3.9070    -1.3330    -2.6550 H     1 <1>   0.0800 
 34 H       -1.8670     0.1910    -2.5990 H     1 <1>   0.0800 
 35 H       -1.3910     0.9570    -1.1120 H     1 <1>   0.0800 
 36 H       -2.8460     1.4710    -1.9160 H     1 <1>   0.0800 
 37 H        1.1330    -6.0070     1.4200 H     1 <1>   0.1500 
 38 H       -2.3100    -6.4220    -1.0410 H     1 <1>   0.1500 
 39 H        2.0350    -8.0980     0.5150 H     1 <1>   0.1500 
 40 H       -1.4240    -8.5010    -1.9490 H     1 <1>   0.1500 
 41 H        1.4760    -9.5430    -2.2440 H     1 <1>   0.0800 
 42 H        0.1160   -10.4240    -1.5820 H     1 <1>   0.0800 
 43 H        1.5670   -10.2250    -0.6350 H     1 <1>   0.0800 
@<TRIPOS>BOND
  1   1   2  ar  
  2   2   3  ar  
  3   2   4  1   
  4   4   5  1   
  5   4   6  1   
  6   4  24  1   
  7   5   7  1   
  8   5   8  1   
  9   5  25  1   
 10   6   9  1   
 11   6  10  1   
 12   6  26  1   
 13   7  10  1   
 14   7  11  2   
 15   8  12  2   
 16   8  27  1   
 17   9  13  2   
 18   9  14  am  
 19  10  12  1   
 20  10  28  1   
 21  11  15  1   
 22  11  16  1   
 23  12  29  1   
 24  14  17  1   
 25  14  30  1   
 26  15  31  1   
 27  15  32  1   
 28  15  33  1   
 29  16  34  1   
 30  16  35  1   
 31  16  36  1   
 32  17  18  ar  
 33  17  19  ar  
 34  18  20  ar  
 35  18  37  1   
 36  19  21  ar  
 37  19  38  1   
 38  20  22  ar  
 39  20  39  1   
 40  21  22  ar  
 41  21  40  1   
 42  22  23  1   
 43  23  41  1   
 44  23  42  1   
 45  23  43  1   
@<TRIPOS>SUBSTRUCTURE
  1 ****   9 GROUP 4 **** **** 0

# MOE 2024.06 (io_trps.svl 2023.06)
