@<TRIPOS>MOLECULE
NONAME
44 45 1 0 0 
SMALL
USER_CHARGES


@<TRIPOS>ATOM
  1 O       -8.8730     4.7810     1.5610 O.2   1 <1>  -0.5700 
  2 C       -8.5480     5.2630     0.4920 C.2   1 <1>   0.7800 
  3 O       -8.4480     4.4820    -0.5930 O.3   1 <1>  -0.2320 
  4 N       -8.2500     6.6010     0.3510 N.am  1 <1>  -0.6600 
  5 C       -8.7880     3.1670    -0.6150 C.ar  1 <1>   0.0830 
  6 C       -8.3320     7.5450     1.5000 C.3   1 <1>   0.0600 
  7 C       -7.9120     7.2410    -0.9510 C.3   1 <1>   0.0600 
  8 C       -8.0810     2.1900     0.0880 C.ar  1 <1>  -0.1440 
  9 C       -9.8730     2.8140    -1.4020 C.ar  1 <1>  -0.1500 
 10 C       -8.5020     0.8710     0.0010 C.ar  1 <1>  -0.1500 
 11 C       -6.8630     2.5120     0.9470 C.3   1 <1>   0.2530 
 12 C      -10.2770     1.4940    -1.4840 C.ar  1 <1>  -0.1500 
 13 C       -9.5910     0.5220    -0.7790 C.ar  1 <1>  -0.1500 
 14 N       -5.6780     1.7620     0.4790 N.3   1 <1>  -0.8100 
 15 C       -5.3140     2.1320    -0.9140 C.3   1 <1>   0.1100 
 16 C       -4.5260     1.9600     1.3870 C.3   1 <1>   0.1100 
 17 C       -4.0390     1.4060    -1.4070 C.3   1 <1>   0.3430 
 18 C       -3.2740     1.1710     0.9260 C.3   1 <1>   0.3430 
 19 N       -3.5280     0.4520    -0.3680 N.4   1 <1>  -0.9590 
 20 C       -2.3800    -0.3780    -0.8290 C.3   1 <1>   0.2630 
 21 H       -8.5640     7.0230     2.4130 H     1 <1>   0.0800 
 22 H       -9.1020     8.2730     1.3180 H     1 <1>   0.0800 
 23 H       -7.3900     8.0500     1.6250 H     1 <1>   0.0800 
 24 H       -7.8870     6.5210    -1.7500 H     1 <1>   0.0800 
 25 H       -6.9470     7.7120    -0.8830 H     1 <1>   0.0800 
 26 H       -8.6500     7.9880    -1.1880 H     1 <1>   0.0800 
 27 H      -10.4050     3.5740    -1.9450 H     1 <1>   0.1500 
 28 H       -7.9750     0.1070     0.5450 H     1 <1>   0.1500 
 29 H       -7.0880     2.2370     1.9630 H     1 <1>   0.0800 
 30 H       -6.6440     3.5640     0.9340 H     1 <1>   0.0800 
 31 H      -11.1230     1.2240    -2.0920 H     1 <1>   0.1500 
 32 H       -9.9060    -0.5060    -0.8350 H     1 <1>   0.1500 
 33 H       -5.1660     3.1970    -0.9860 H     1 <1>   0.0800 
 34 H       -6.1250     1.8770    -1.5770 H     1 <1>   0.0800 
 35 H       -4.7930     1.6370     2.3790 H     1 <1>   0.0800 
 36 H       -4.2810     3.0080     1.4440 H     1 <1>   0.0800 
 37 H       -3.2830     2.1360    -1.6410 H     1 <1>   0.0800 
 38 H       -4.2730     0.8720    -2.3140 H     1 <1>   0.0800 
 39 H       -3.0110     0.4610     1.6920 H     1 <1>   0.0800 
 40 H       -2.4480     1.8530     0.8140 H     1 <1>   0.0800 
 41 H       -4.3530    -0.1370    -0.1600 H     1 <1>   0.4500 
 42 H       -1.5280     0.2470    -1.0450 H     1 <1>   0.0800 
 43 H       -2.6460    -0.9200    -1.7220 H     1 <1>   0.0800 
 44 H       -2.1030    -1.0890    -0.0670 H     1 <1>   0.0800 
@<TRIPOS>BOND
  1   1   2  2   
  2   2   3  1   
  3   2   4  am  
  4   3   5  1   
  5   4   6  1   
  6   4   7  1   
  7   5   8  ar  
  8   5   9  ar  
  9   6  21  1   
 10   6  22  1   
 11   6  23  1   
 12   7  24  1   
 13   7  25  1   
 14   7  26  1   
 15   8  10  ar  
 16   8  11  1   
 17   9  12  ar  
 18   9  27  1   
 19  10  13  ar  
 20  10  28  1   
 21  11  14  1   
 22  11  29  1   
 23  11  30  1   
 24  12  13  ar  
 25  12  31  1   
 26  13  32  1   
 27  14  15  1   
 28  14  16  1   
 29  15  17  1   
 30  15  33  1   
 31  15  34  1   
 32  16  18  1   
 33  16  35  1   
 34  16  36  1   
 35  17  19  1   
 36  17  37  1   
 37  17  38  1   
 38  18  19  1   
 39  18  39  1   
 40  18  40  1   
 41  19  20  1   
 42  19  41  1   
 43  20  42  1   
 44  20  43  1   
 45  20  44  1   
@<TRIPOS>SUBSTRUCTURE
  1 ****  11 GROUP 4 **** **** 0

# MOE 2024.06 (io_trps.svl 2023.06)
