@<TRIPOS>MOLECULE
NONAME
37 39 1 0 0 
SMALL
USER_CHARGES


@<TRIPOS>ATOM
  1 N       -0.2770    -0.5010     0.2520 N.ar  1 <1>  -0.3100 
  2 N        0.9960    -0.5540     0.5830 N.ar  1 <1>  -0.3100 
  3 C       -0.7890    -1.3750    -0.6210 C.ar  1 <1>   0.4100 
  4 C        1.7840    -1.4850     0.0520 C.ar  1 <1>   0.4100 
  5 N       -2.1460    -1.2980    -0.9410 N.pl3 1 <1>  -0.8380 
  6 C       -0.0050    -2.3490    -1.2150 C.ar  1 <1>  -0.1500 
  7 N        3.1090    -1.4570     0.4630 N.pl3 1 <1>  -0.6000 
  8 C        1.3210    -2.4070    -0.8710 C.ar  1 <1>  -0.1500 
  9 C       -3.0150    -2.4590    -0.6110 C.3   1 <1>   0.2090 
 10 C       -2.8310     0.0260    -0.9110 C.3   1 <1>   0.2090 
 11 C        4.0740    -2.4640     0.4480 C.ar  1 <1>   0.1000 
 12 C       -3.6950    -2.2440     0.7450 C.3   1 <1>  -0.1600 
 13 C       -3.5380     0.2440     0.4330 C.3   1 <1>  -0.1600 
 14 C        5.3960    -2.1450     0.1620 C.ar  1 <1>  -0.1500 
 15 C        3.7540    -3.7870     0.7350 C.ar  1 <1>  -0.1500 
 16 C       -4.4710    -0.9210     0.7870 C.3   1 <1>  -0.1600 
 17 C        6.3740    -3.1240     0.1490 C.ar  1 <1>  -0.1500 
 18 C        4.7280    -4.7690     0.7210 C.ar  1 <1>  -0.1500 
 19 C        6.0400    -4.4390     0.4270 C.ar  1 <1>  -0.1500 
 20 H       -0.4350    -3.0240    -1.9280 H     1 <1>   0.1500 
 21 H        3.3520    -0.5920     0.9480 H     1 <1>   0.4000 
 22 H        1.9840    -3.1310    -1.3040 H     1 <1>   0.1500 
 23 H       -2.4320    -3.3630    -0.5790 H     1 <1>   0.0800 
 24 H       -3.7600    -2.5660    -1.3810 H     1 <1>   0.0800 
 25 H       -3.5530     0.0590    -1.7090 H     1 <1>   0.0800 
 26 H       -2.1160     0.8140    -1.0800 H     1 <1>   0.0800 
 27 H       -2.9400    -2.2450     1.5120 H     1 <1>   0.0800 
 28 H       -4.3650    -3.0620     0.9400 H     1 <1>   0.0800 
 29 H       -4.0980     1.1600     0.3930 H     1 <1>   0.0800 
 30 H       -2.7900     0.3530     1.1990 H     1 <1>   0.0800 
 31 H        5.6580    -1.1260    -0.0580 H     1 <1>   0.1500 
 32 H        2.7400    -4.0450     0.9790 H     1 <1>   0.1500 
 33 H       -4.8830    -0.7710     1.7700 H     1 <1>   0.0800 
 34 H       -5.2840    -0.9570     0.0830 H     1 <1>   0.0800 
 35 H        7.3930    -2.8650    -0.0780 H     1 <1>   0.1500 
 36 H        4.4680    -5.7890     0.9430 H     1 <1>   0.1500 
 37 H        6.8000    -5.2020     0.4160 H     1 <1>   0.1500 
@<TRIPOS>BOND
  1   1   2  ar  
  2   1   3  ar  
  3   2   4  ar  
  4   3   5  1   
  5   3   6  ar  
  6   4   7  1   
  7   4   8  ar  
  8   5   9  1   
  9   5  10  1   
 10   6   8  ar  
 11   6  20  1   
 12   7  11  1   
 13   7  21  1   
 14   8  22  1   
 15   9  12  1   
 16   9  23  1   
 17   9  24  1   
 18  10  13  1   
 19  10  25  1   
 20  10  26  1   
 21  11  14  ar  
 22  11  15  ar  
 23  12  16  1   
 24  12  27  1   
 25  12  28  1   
 26  13  16  1   
 27  13  29  1   
 28  13  30  1   
 29  14  17  ar  
 30  14  31  1   
 31  15  18  ar  
 32  15  32  1   
 33  16  33  1   
 34  16  34  1   
 35  17  19  ar  
 36  17  35  1   
 37  18  19  ar  
 38  18  36  1   
 39  19  37  1   
@<TRIPOS>SUBSTRUCTURE
  1 ****   4 GROUP 4 **** **** 0

# MOE 2024.06 (io_trps.svl 2023.06)
