@<TRIPOS>MOLECULE
NONAME
36 37 1 0 0 
SMALL
USER_CHARGES


@<TRIPOS>ATOM
  1 BR       0.6660     0.2970    -2.0100 Br    1 <1>  -0.0580 
  2 C        2.2300    -0.4850    -1.2130 C.2   1 <1>   0.1980 
  3 O        3.1830     0.3160    -0.8120 O.3   1 <1>  -0.2800 
  4 C        2.5060    -1.7850    -0.9950 C.2   1 <1>  -0.1500 
  5 C        4.1510    -0.4480    -0.3000 C.2   1 <1>   0.0550 
  6 C        3.7670    -1.7600    -0.3960 C.2   1 <1>  -0.1500 
  7 C        5.3610     0.1360     0.2360 C.2   1 <1>   0.7150 
  8 O        5.5590     1.3370     0.2450 O.2   1 <1>  -0.5700 
  9 N        6.3330    -0.6690     0.7500 N.am  1 <1>  -0.7300 
 10 C        7.6970    -0.2220     1.1560 C.3   1 <1>   0.2010 
 11 C        8.7490    -1.3290     0.9950 C.2   1 <1>   0.5690 
 12 O        8.3430    -2.4630     0.8480 O.2   1 <1>  -0.5700 
 13 N       10.0930    -1.0340     1.0140 N.am  1 <1>  -0.6600 
 14 C       11.1100    -2.0950     0.7750 C.3   1 <1>   0.1400 
 15 C       10.6370     0.3340     1.2420 C.3   1 <1>   0.1400 
 16 C       11.8670    -1.8630    -0.5380 C.3   1 <1>  -0.1600 
 17 C       10.8820     1.0180    -0.1060 C.3   1 <1>  -0.1600 
 18 C       12.8500    -0.6830    -0.4750 C.3   1 <1>  -0.1600 
 19 C       12.2310     0.6940    -0.7730 C.3   1 <1>  -0.1600 
 20 H        1.9090    -2.6500    -1.2230 H     1 <1>   0.1500 
 21 H        4.3120    -2.6320    -0.0790 H     1 <1>   0.1500 
 22 H        6.2700    -1.6860     0.6460 H     1 <1>   0.3700 
 23 H        7.6690     0.0800     2.1870 H     1 <1>   0.0800 
 24 H        7.9790     0.6250     0.5580 H     1 <1>   0.0800 
 25 H       10.6330    -3.0590     0.7280 H     1 <1>   0.0800 
 26 H       11.7990    -2.1210     1.6020 H     1 <1>   0.0800 
 27 H       11.5480     0.2820     1.8130 H     1 <1>   0.0800 
 28 H        9.9370     0.9150     1.8160 H     1 <1>   0.0800 
 29 H       11.1730    -1.7460    -1.3520 H     1 <1>   0.0800 
 30 H       12.4370    -2.7540    -0.7340 H     1 <1>   0.0800 
 31 H       10.8340     2.0830     0.0380 H     1 <1>   0.0800 
 32 H       10.0810     0.7610    -0.7790 H     1 <1>   0.0800 
 33 H       13.6300    -0.8510    -1.1980 H     1 <1>   0.0800 
 34 H       13.3250    -0.6650     0.4910 H     1 <1>   0.0800 
 35 H       12.9480     1.4410    -0.4780 H     1 <1>   0.0800 
 36 H       12.1060     0.7920    -1.8390 H     1 <1>   0.0800 
@<TRIPOS>BOND
  1   1   2  1   
  2   2   3  1   
  3   2   4  2   
  4   3   5  1   
  5   4   6  1   
  6   4  20  1   
  7   5   6  2   
  8   5   7  1   
  9   6  21  1   
 10   7   8  2   
 11   7   9  am  
 12   9  10  1   
 13   9  22  1   
 14  10  11  1   
 15  10  23  1   
 16  10  24  1   
 17  11  12  2   
 18  11  13  am  
 19  13  14  1   
 20  13  15  1   
 21  14  16  1   
 22  14  25  1   
 23  14  26  1   
 24  15  17  1   
 25  15  27  1   
 26  15  28  1   
 27  16  18  1   
 28  16  29  1   
 29  16  30  1   
 30  17  19  1   
 31  17  31  1   
 32  17  32  1   
 33  18  19  1   
 34  18  33  1   
 35  18  34  1   
 36  19  35  1   
 37  19  36  1   
@<TRIPOS>SUBSTRUCTURE
  1 ****   9 GROUP 4 **** **** 0

# MOE 2024.06 (io_trps.svl 2023.06)
