@<TRIPOS>MOLECULE
NONAME
53 56 1 0 0 
SMALL
USER_CHARGES


@<TRIPOS>ATOM
  1 O       -0.9680    -0.3790    -2.3300 O.2   1 <1>  -0.5700 
  2 C       -1.6740     0.4060    -1.7310 C.2   1 <1>   0.7060 
  3 O       -2.8650    -0.0450    -1.3220 O.3   1 <1>  -0.2330 
  4 C       -1.3060     1.7570    -1.4150 C.2   1 <1>   0.0290 
  5 C       -3.7440     0.7020    -0.6180 C.ar  1 <1>   0.0820 
  6 C       -0.0320     2.2370    -1.8730 C.2   1 <1>   0.6160 
  7 C       -2.1770     2.5400    -0.7200 C.2   1 <1>  -0.1780 
  8 C       -3.4310     2.0250    -0.2890 C.ar  1 <1>   0.0280 
  9 C       -4.9490     0.1390    -0.2270 C.ar  1 <1>  -0.1500 
 10 O       -0.0170     3.1990    -2.6170 O.2   1 <1>  -0.5700 
 11 N        1.1680     1.6980    -1.4590 N.am  1 <1>  -0.6600 
 12 C       -4.3610     2.7620     0.4410 C.ar  1 <1>  -0.1500 
 13 C       -5.8590     0.8840     0.4980 C.ar  1 <1>  -0.1500 
 14 C        1.3210     0.6540    -0.3950 C.3   1 <1>   0.1400 
 15 C        2.4770     2.1190    -2.0520 C.3   1 <1>   0.1400 
 16 C       -5.5630     2.2070     0.8360 C.ar  1 <1>   0.0830 
 17 C        2.3130     1.0900     0.7000 C.3   1 <1>   0.2090 
 18 C        3.4680     2.5860    -0.9720 C.3   1 <1>   0.2090 
 19 O       -6.4000     3.0050     1.5460 O.3   1 <1>  -0.3630 
 20 N        3.5990     1.6010     0.1440 N.pl3 1 <1>  -0.8380 
 21 C       -7.6570     2.5420     1.9880 C.3   1 <1>   0.0400 
 22 C        4.7000     0.7440     0.1380 C.ar  1 <1>   0.1000 
 23 C        5.7690     0.9460     1.0110 C.ar  1 <1>  -0.1430 
 24 C        4.7480    -0.3310    -0.7440 C.ar  1 <1>  -0.1500 
 25 C        6.8500     0.0810     0.9880 C.ar  1 <1>  -0.1500 
 26 C        5.7540     2.1110     1.9900 C.3   1 <1>  -0.0970 
 27 C        5.8270    -1.1960    -0.7670 C.ar  1 <1>  -0.1430 
 28 C        6.8820    -0.9840     0.1050 C.ar  1 <1>  -0.1500 
 29 C        5.8670    -2.3640    -1.7350 C.3   1 <1>  -0.0970 
 30 H       -1.9420     3.5650    -0.4860 H     1 <1>   0.1500 
 31 H       -5.1680    -0.8810    -0.4930 H     1 <1>   0.1500 
 32 H       -4.1480     3.7820     0.7050 H     1 <1>   0.1500 
 33 H       -6.7860     0.4280     0.7910 H     1 <1>   0.1500 
 34 H        1.6740    -0.2550    -0.8480 H     1 <1>   0.0800 
 35 H        0.3770     0.4390     0.0700 H     1 <1>   0.0800 
 36 H        2.3380     2.9150    -2.7630 H     1 <1>   0.0800 
 37 H        2.9040     1.2870    -2.5820 H     1 <1>   0.0800 
 38 H        2.5130     0.2570     1.3510 H     1 <1>   0.0800 
 39 H        1.8630     1.8670     1.2930 H     1 <1>   0.0800 
 40 H        3.1310     3.5250    -0.5690 H     1 <1>   0.0800 
 41 H        4.4330     2.7470    -1.4200 H     1 <1>   0.0800 
 42 H       -8.1400     3.3430     2.5190 H     1 <1>   0.0800 
 43 H       -7.5110     1.7050     2.6460 H     1 <1>   0.0800 
 44 H       -8.2480     2.2640     1.1330 H     1 <1>   0.0800 
 45 H        3.9280    -0.4830    -1.4170 H     1 <1>   0.1500 
 46 H        7.6780     0.2310     1.6580 H     1 <1>   0.1500 
 47 H        4.8980     2.0300     2.6340 H     1 <1>   0.0800 
 48 H        5.6900     3.0360     1.4480 H     1 <1>   0.0800 
 49 H        6.6420     2.1240     2.5950 H     1 <1>   0.0800 
 50 H        7.7300    -1.6460     0.0990 H     1 <1>   0.1500 
 51 H        4.8940    -2.5470    -2.1540 H     1 <1>   0.0800 
 52 H        6.1920    -3.2540    -1.2270 H     1 <1>   0.0800 
 53 H        6.5530    -2.1500    -2.5350 H     1 <1>   0.0800 
@<TRIPOS>BOND
  1   1   2  2   
  2   2   3  1   
  3   2   4  1   
  4   3   5  1   
  5   4   6  1   
  6   4   7  2   
  7   5   8  ar  
  8   5   9  ar  
  9   6  10  2   
 10   6  11  am  
 11   7   8  1   
 12   7  30  1   
 13   8  12  ar  
 14   9  13  ar  
 15   9  31  1   
 16  11  14  1   
 17  11  15  1   
 18  12  16  ar  
 19  12  32  1   
 20  13  16  ar  
 21  13  33  1   
 22  14  17  1   
 23  14  34  1   
 24  14  35  1   
 25  15  18  1   
 26  15  36  1   
 27  15  37  1   
 28  16  19  1   
 29  17  20  1   
 30  17  38  1   
 31  17  39  1   
 32  18  20  1   
 33  18  40  1   
 34  18  41  1   
 35  19  21  1   
 36  20  22  1   
 37  21  42  1   
 38  21  43  1   
 39  21  44  1   
 40  22  23  ar  
 41  22  24  ar  
 42  23  25  ar  
 43  23  26  1   
 44  24  27  ar  
 45  24  45  1   
 46  25  28  ar  
 47  25  46  1   
 48  26  47  1   
 49  26  48  1   
 50  26  49  1   
 51  27  28  ar  
 52  27  29  1   
 53  28  50  1   
 54  29  51  1   
 55  29  52  1   
 56  29  53  1   
@<TRIPOS>SUBSTRUCTURE
  1 ****  14 GROUP 4 **** **** 0

# MOE 2024.06 (io_trps.svl 2023.06)
