@<TRIPOS>MOLECULE
NONAME
42 43 1 0 0 
SMALL
USER_CHARGES


@<TRIPOS>ATOM
  1 CL      -3.9790    -2.0450    -1.5470 Cl    1 <1>  -0.1770 
  2 C       -2.3580    -2.3110    -0.9200 C.ar  1 <1>   0.1770 
  3 C       -2.1990    -2.8190     0.3690 C.ar  1 <1>   0.0820 
  4 C       -1.2640    -2.0060    -1.7150 C.ar  1 <1>  -0.1440 
  5 O       -3.2780    -3.1160     1.1330 O.3   1 <1>  -0.3630 
  6 C       -0.9210    -3.0080     0.8840 C.ar  1 <1>  -0.1440 
  7 C        0.0050    -2.2110    -1.1960 C.ar  1 <1>  -0.1500 
  8 C       -1.4300    -1.4570    -3.1250 C.3   1 <1>  -0.0960 
  9 C       -3.9470    -4.3300     0.8410 C.3   1 <1>   0.1200 
 10 C        0.1730    -2.7040     0.0890 C.ar  1 <1>  -0.1500 
 11 C       -0.7050    -3.5360     2.2950 C.3   1 <1>  -0.0970 
 12 C       -5.4320    -4.1610     1.1900 C.3   1 <1>   0.3430 
 13 N       -5.8980    -2.8060     0.7810 N.4   1 <1>  -0.9060 
 14 C       -7.3030    -2.4920     1.1770 C.3   1 <1>   0.3430 
 15 C       -7.7310    -1.0830     0.7340 C.3   1 <1>   0.2000 
 16 O       -9.0810    -0.9450     0.9980 O.3   1 <1>  -0.5600 
 17 C       -7.6140    -0.8040    -0.7600 C.3   1 <1>  -0.1600 
 18 C       -9.6330     0.0680     0.2130 C.3   1 <1>   0.1200 
 19 C       -8.7100     0.2230    -0.9940 C.3   1 <1>  -0.1600 
 20 H        0.8770    -1.9860    -1.7870 H     1 <1>   0.1500 
 21 H       -1.9520    -0.5170    -3.0950 H     1 <1>   0.0800 
 22 H       -1.9900    -2.1480    -3.7280 H     1 <1>   0.0800 
 23 H       -0.4740    -1.2970    -3.5920 H     1 <1>   0.0800 
 24 H       -3.4970    -5.1170     1.4200 H     1 <1>   0.0800 
 25 H       -3.8330    -4.5570    -0.2050 H     1 <1>   0.0800 
 26 H        1.1710    -2.8470     0.4650 H     1 <1>   0.1500 
 27 H       -1.2910    -2.9690     2.9960 H     1 <1>   0.0800 
 28 H        0.3280    -3.4590     2.5810 H     1 <1>   0.0800 
 29 H       -0.9980    -4.5690     2.3500 H     1 <1>   0.0800 
 30 H       -5.5510    -4.2800     2.2550 H     1 <1>   0.0800 
 31 H       -6.0110    -4.9280     0.7010 H     1 <1>   0.0800 
 32 H       -5.7760    -2.6910    -0.2360 H     1 <1>   0.4500 
 33 H       -5.2360    -2.1310     1.1950 H     1 <1>   0.4500 
 34 H       -7.4060    -2.5610     2.2470 H     1 <1>   0.0800 
 35 H       -7.9720    -3.2040     0.7220 H     1 <1>   0.0800 
 36 H       -7.2170    -0.3280     1.3060 H     1 <1>   0.0800 
 37 H       -7.8280    -1.6950    -1.3250 H     1 <1>   0.0800 
 38 H       -6.6440    -0.4280    -1.0330 H     1 <1>   0.0800 
 39 H       -9.6710     0.9710     0.7990 H     1 <1>   0.0800 
 40 H      -10.6290    -0.2260    -0.0730 H     1 <1>   0.0800 
 41 H       -9.2390     0.0450    -1.9150 H     1 <1>   0.0800 
 42 H       -8.3090     1.2220    -1.0120 H     1 <1>   0.0800 
@<TRIPOS>BOND
  1   1   2  1   
  2   2   3  ar  
  3   2   4  ar  
  4   3   5  1   
  5   3   6  ar  
  6   4   7  ar  
  7   4   8  1   
  8   5   9  1   
  9   6  10  ar  
 10   6  11  1   
 11   7  10  ar  
 12   7  20  1   
 13   8  21  1   
 14   8  22  1   
 15   8  23  1   
 16   9  12  1   
 17   9  24  1   
 18   9  25  1   
 19  10  26  1   
 20  11  27  1   
 21  11  28  1   
 22  11  29  1   
 23  12  13  1   
 24  12  30  1   
 25  12  31  1   
 26  13  14  1   
 27  13  32  1   
 28  13  33  1   
 29  14  15  1   
 30  14  34  1   
 31  14  35  1   
 32  15  16  1   
 33  15  17  1   
 34  15  36  1   
 35  16  18  1   
 36  17  19  1   
 37  17  37  1   
 38  17  38  1   
 39  18  19  1   
 40  18  39  1   
 41  18  40  1   
 42  19  41  1   
 43  19  42  1   
@<TRIPOS>SUBSTRUCTURE
  1 ****   1 GROUP 4 **** **** 0

# MOE 2024.06 (io_trps.svl 2023.06)
