@<TRIPOS>MOLECULE
NONAME
45 46 1 0 0 
SMALL
USER_CHARGES


@<TRIPOS>ATOM
  1 S        1.6990     0.0210     0.4400 S.o2  1 <1>   1.3330 
  2 O        0.2940    -0.1390     0.7150 O.2   1 <1>  -0.6500 
  3 O        2.6390    -0.9800     0.8920 O.2   1 <1>  -0.6500 
  4 N        2.2050     1.5560     1.0690 N.am  1 <1>  -0.6930 
  5 C        1.9260     0.2530    -1.3110 C.3   1 <1>  -0.1350 
  6 C        1.4520     2.6960     0.7980 C.ar  1 <1>   0.1990 
  7 C        3.5900     1.7510     1.6040 C.3   1 <1>   0.3370 
  8 C        1.9430     3.6950    -0.0350 C.ar  1 <1>  -0.1500 
  9 C        0.1900     2.8590     1.3510 C.ar  1 <1>  -0.1500 
 10 C        4.7210     1.3760     0.6190 C.2   1 <1>   0.5690 
 11 C        3.7110     1.1020     2.9910 C.3   1 <1>  -0.2400 
 12 C        1.2020     4.8330    -0.3130 C.ar  1 <1>  -0.1440 
 13 C       -0.5580     3.9880     1.0790 C.ar  1 <1>  -0.1500 
 14 O        5.2140     2.2610    -0.0400 O.2   1 <1>  -0.5700 
 15 N        5.1110     0.0690     0.4980 N.am  1 <1>  -0.5470 
 16 C       -0.0610     4.9820     0.2490 C.ar  1 <1>  -0.1430 
 17 C        1.7940     5.8940    -1.2310 C.3   1 <1>  -0.0970 
 18 C        6.0750    -0.5340    -0.3290 C.ar  1 <1>   0.1170 
 19 C       -0.9160     6.2110    -0.0260 C.3   1 <1>  -0.0970 
 20 C        5.9290    -1.8690    -0.7080 C.ar  1 <1>   0.1600 
 21 C        7.1930     0.1420    -0.7910 C.ar  1 <1>  -0.1500 
 22 N        6.7610    -2.5510    -1.4800 N.ar  1 <1>  -0.6200 
 23 C        8.0730    -0.5490    -1.5950 C.ar  1 <1>  -0.1500 
 24 C        7.8160    -1.8740    -1.9060 C.ar  1 <1>   0.1600 
 25 H        1.6530    -0.6410    -1.8380 H     1 <1>   0.0800 
 26 H        2.9490     0.4840    -1.5320 H     1 <1>   0.0800 
 27 H        1.3070     1.0570    -1.6600 H     1 <1>   0.0800 
 28 H        3.7140     2.8070     1.7780 H     1 <1>   0.0800 
 29 H        2.9170     3.5770    -0.4730 H     1 <1>   0.1500 
 30 H       -0.2050     2.0950     1.9950 H     1 <1>   0.1500 
 31 H        3.6330     0.0320     2.9470 H     1 <1>   0.0800 
 32 H        2.9390     1.4820     3.6370 H     1 <1>   0.0800 
 33 H        4.6640     1.3510     3.4220 H     1 <1>   0.0800 
 34 H       -1.5340     4.0870     1.5210 H     1 <1>   0.1500 
 35 H        4.4640    -0.5930     0.9530 H     1 <1>   0.3700 
 36 H        2.7780     5.6150    -1.5620 H     1 <1>   0.0800 
 37 H        1.8680     6.8310    -0.7100 H     1 <1>   0.0800 
 38 H        1.1700     6.0210    -2.0970 H     1 <1>   0.0800 
 39 H       -0.4080     7.0960     0.3110 H     1 <1>   0.0800 
 40 H       -1.8590     6.1480     0.4860 H     1 <1>   0.0800 
 41 H       -1.1100     6.2960    -1.0800 H     1 <1>   0.0800 
 42 H        5.0650    -2.4010    -0.3500 H     1 <1>   0.1500 
 43 H        7.3730     1.1700    -0.5340 H     1 <1>   0.1500 
 44 H        8.9540    -0.0680    -1.9800 H     1 <1>   0.1500 
 45 H        8.5110    -2.4030    -2.5360 H     1 <1>   0.1500 
@<TRIPOS>BOND
  1   1   2  2   
  2   1   3  2   
  3   1   4  am  
  4   1   5  1   
  5   4   6  1   
  6   4   7  1   
  7   5  25  1   
  8   5  26  1   
  9   5  27  1   
 10   6   8  ar  
 11   6   9  ar  
 12   7  10  1   
 13   7  11  1   
 14   7  28  1   
 15   8  12  ar  
 16   8  29  1   
 17   9  13  ar  
 18   9  30  1   
 19  10  14  2   
 20  10  15  am  
 21  11  31  1   
 22  11  32  1   
 23  11  33  1   
 24  12  16  ar  
 25  12  17  1   
 26  13  16  ar  
 27  13  34  1   
 28  15  18  1   
 29  15  35  1   
 30  16  19  1   
 31  17  36  1   
 32  17  37  1   
 33  17  38  1   
 34  18  20  ar  
 35  18  21  ar  
 36  19  39  1   
 37  19  40  1   
 38  19  41  1   
 39  20  22  ar  
 40  20  42  1   
 41  21  23  ar  
 42  21  43  1   
 43  22  24  ar  
 44  23  24  ar  
 45  23  44  1   
 46  24  45  1   
@<TRIPOS>SUBSTRUCTURE
  1 ****   4 GROUP 4 **** **** 0

# MOE 2024.06 (io_trps.svl 2023.06)
