@<TRIPOS>MOLECULE
NONAME
46 47 1 0 0 
SMALL
USER_CHARGES


@<TRIPOS>ATOM
  1 O        0.3280     0.1970     0.4880 O.2   1 <1>  -0.5700 
  2 C        0.3420     1.2310    -0.1480 C.2   1 <1>   0.6900 
  3 N        1.4730     1.6970    -0.7510 N.am  1 <1>  -0.5470 
  4 N       -0.7900     1.9650    -0.2960 N.am  1 <1>  -0.7300 
  5 C        2.7950     1.2250    -0.7070 C.ar  1 <1>   0.1170 
  6 C       -2.1060     1.6170     0.2800 C.3   1 <1>   0.1400 
  7 C        3.6480     1.5130    -1.7670 C.ar  1 <1>  -0.1500 
  8 C        3.3000     0.4930     0.3640 C.ar  1 <1>  -0.1500 
  9 C       -2.6000     2.7830     1.1360 C.3   1 <1>  -0.1600 
 10 C        4.9640     1.0850    -1.7660 C.ar  1 <1>  -0.1500 
 11 C        4.6140     0.0610     0.3710 C.ar  1 <1>  -0.1500 
 12 C       -3.9690     2.4780     1.7550 C.3   1 <1>  -0.2400 
 13 C        5.4560     0.3550    -0.6880 C.ar  1 <1>   0.0830 
 14 O        6.7330    -0.0990    -0.5960 O.3   1 <1>  -0.3620 
 15 C        7.7150     0.2920    -1.5450 C.3   1 <1>   0.1810 
 16 C        9.1050    -0.2200    -1.1690 C.2   1 <1>   0.5690 
 17 O        9.6940    -0.8670    -2.0050 O.2   1 <1>  -0.5700 
 18 N        9.6830     0.0670     0.0460 N.am  1 <1>  -0.6600 
 19 C        9.0470     0.8670     1.1380 C.3   1 <1>   0.1400 
 20 C       11.0160    -0.4890     0.4290 C.3   1 <1>   0.1400 
 21 C       10.0480     1.8680     1.7410 C.3   1 <1>   0.1200 
 22 C       11.8990     0.5960     1.0660 C.3   1 <1>   0.1200 
 23 O       11.2290     1.2230     2.1230 O.3   1 <1>  -0.5600 
 24 H        1.3040     2.4450    -1.4120 H     1 <1>   0.3700 
 25 H       -0.7400     2.8760    -0.7440 H     1 <1>   0.3700 
 26 H       -2.0250     0.7280     0.8840 H     1 <1>   0.0800 
 27 H       -2.8010     1.4200    -0.5190 H     1 <1>   0.0800 
 28 H        3.2770     2.0720    -2.6060 H     1 <1>   0.1500 
 29 H        2.6660     0.2580     1.1990 H     1 <1>   0.1500 
 30 H       -2.6790     3.6690     0.5300 H     1 <1>   0.0800 
 31 H       -1.8910     2.9660     1.9250 H     1 <1>   0.0800 
 32 H        5.5830     1.3230    -2.6100 H     1 <1>   0.1500 
 33 H        4.9900    -0.5090     1.2010 H     1 <1>   0.1500 
 34 H       -4.7020     2.3050     0.9870 H     1 <1>   0.0800 
 35 H       -4.2940     3.3090     2.3570 H     1 <1>   0.0800 
 36 H       -3.9100     1.6060     2.3820 H     1 <1>   0.0800 
 37 H        7.7360     1.3640    -1.5970 H     1 <1>   0.0800 
 38 H        7.4350    -0.1150    -2.5000 H     1 <1>   0.0800 
 39 H        8.7070     0.1990     1.9110 H     1 <1>   0.0800 
 40 H        8.1950     1.4110     0.7740 H     1 <1>   0.0800 
 41 H       11.5190    -0.8920    -0.4320 H     1 <1>   0.0800 
 42 H       10.8750    -1.2890     1.1340 H     1 <1>   0.0800 
 43 H        9.6280     2.3290     2.6170 H     1 <1>   0.0800 
 44 H       10.2900     2.6360     1.0280 H     1 <1>   0.0800 
 45 H       12.1690     1.3400     0.3360 H     1 <1>   0.0800 
 46 H       12.7980     0.1570     1.4600 H     1 <1>   0.0800 
@<TRIPOS>BOND
  1   1   2  2   
  2   2   3  am  
  3   2   4  am  
  4   3   5  1   
  5   3  24  1   
  6   4   6  1   
  7   4  25  1   
  8   5   7  ar  
  9   5   8  ar  
 10   6   9  1   
 11   6  26  1   
 12   6  27  1   
 13   7  10  ar  
 14   7  28  1   
 15   8  11  ar  
 16   8  29  1   
 17   9  12  1   
 18   9  30  1   
 19   9  31  1   
 20  10  13  ar  
 21  10  32  1   
 22  11  13  ar  
 23  11  33  1   
 24  12  34  1   
 25  12  35  1   
 26  12  36  1   
 27  13  14  1   
 28  14  15  1   
 29  15  16  1   
 30  15  37  1   
 31  15  38  1   
 32  16  17  2   
 33  16  18  am  
 34  18  19  1   
 35  18  20  1   
 36  19  21  1   
 37  19  39  1   
 38  19  40  1   
 39  20  22  1   
 40  20  41  1   
 41  20  42  1   
 42  21  23  1   
 43  21  43  1   
 44  21  44  1   
 45  22  23  1   
 46  22  45  1   
 47  22  46  1   
@<TRIPOS>SUBSTRUCTURE
  1 ****  11 GROUP 4 **** **** 0

# MOE 2024.06 (io_trps.svl 2023.06)
