@<TRIPOS>MOLECULE
NONAME
36 39 1 0 0 
SMALL
USER_CHARGES


@<TRIPOS>ATOM
  1 BR      -0.1390     0.1230     0.0520 Br    1 <1>  -0.1110 
  2 C       -1.8550     0.9930    -0.0190 C.ar  1 <1>   0.1110 
  3 C       -1.9340     2.3400     0.2750 C.ar  1 <1>  -0.1500 
  4 C       -2.9670     0.2490    -0.3620 C.ar  1 <1>  -0.1500 
  5 C       -3.1710     2.9580     0.2220 C.ar  1 <1>  -0.1500 
  6 C       -4.1980     0.8810    -0.4100 C.ar  1 <1>  -0.1500 
  7 C       -4.3190     2.2410    -0.1200 C.ar  1 <1>   0.1170 
  8 N       -5.5800     2.8800    -0.1690 N.am  1 <1>  -0.2370 
  9 C       -6.7920     2.3170     0.2030 C.2   1 <1>   0.5690 
 10 C       -5.8190     4.1830    -0.5840 C.2   1 <1>   0.5690 
 11 O       -7.0070     1.2980     0.8110 O.2   1 <1>  -0.5700 
 12 C       -7.8720     3.1980    -0.3340 C.3   1 <1>  -0.0190 
 13 O       -5.0860     4.9280    -1.1800 O.2   1 <1>  -0.5700 
 14 C       -7.1940     4.5420    -0.1170 C.3   1 <1>  -0.0190 
 15 C       -9.3300     3.5620    -0.0030 C.3   1 <1>   0.4180 
 16 C       -8.3840     5.4790    -0.3010 C.3   1 <1>   0.4180 
 17 O       -9.1960     4.8110     0.6110 O.3   1 <1>  -0.5600 
 18 C       -9.8730     4.0800    -1.3210 C.2   1 <1>  -0.2880 
 19 C      -10.1700     2.5540     0.8060 C.3   1 <1>   0.1200 
 20 C       -9.2390     5.2320    -1.5330 C.2   1 <1>  -0.2880 
 21 C       -8.2210     6.9330     0.1180 C.3   1 <1>  -0.2400 
 22 O       -9.5020     2.1070     1.9490 O.3   1 <1>  -0.6800 
 23 H       -1.0470     2.8900     0.5360 H     1 <1>   0.1500 
 24 H       -2.8700    -0.7990    -0.5830 H     1 <1>   0.1500 
 25 H       -3.2390     4.0080     0.4470 H     1 <1>   0.1500 
 26 H       -5.0680     0.3070    -0.6740 H     1 <1>   0.1500 
 27 H       -7.8630     2.9370    -1.3800 H     1 <1>   0.0800 
 28 H       -6.9900     4.6720     0.9370 H     1 <1>   0.0800 
 29 H      -10.5890     3.5240    -1.9000 H     1 <1>   0.1500 
 30 H      -10.3940     1.6930     0.2020 H     1 <1>   0.0800 
 31 H      -11.0930     3.0150     1.1120 H     1 <1>   0.0800 
 32 H       -9.2570     5.9360    -2.3470 H     1 <1>   0.1500 
 33 H       -7.5660     7.4350    -0.5700 H     1 <1>   0.0800 
 34 H       -7.8010     6.9950     1.1050 H     1 <1>   0.0800 
 35 H       -9.1770     7.4240     0.1070 H     1 <1>   0.0800 
 36 H       -8.6860     1.6010     1.7210 H     1 <1>   0.4000 
@<TRIPOS>BOND
  1   1   2  1   
  2   2   3  ar  
  3   2   4  ar  
  4   3   5  ar  
  5   3  23  1   
  6   4   6  ar  
  7   4  24  1   
  8   5   7  ar  
  9   5  25  1   
 10   6   7  ar  
 11   6  26  1   
 12   7   8  1   
 13   8   9  am  
 14   8  10  am  
 15   9  11  2   
 16   9  12  1   
 17  10  13  2   
 18  10  14  1   
 19  12  14  1   
 20  12  15  1   
 21  12  27  1   
 22  14  16  1   
 23  14  28  1   
 24  15  17  1   
 25  15  18  1   
 26  15  19  1   
 27  16  17  1   
 28  16  20  1   
 29  16  21  1   
 30  18  20  2   
 31  18  29  1   
 32  19  22  1   
 33  19  30  1   
 34  19  31  1   
 35  20  32  1   
 36  21  33  1   
 37  21  34  1   
 38  21  35  1   
 39  22  36  1   
@<TRIPOS>SUBSTRUCTURE
  1 ****   8 GROUP 4 **** **** 0

# MOE 2024.06 (io_trps.svl 2023.06)
