@<TRIPOS>MOLECULE
NONAME
34 34 1 0 0 
SMALL
USER_CHARGES


@<TRIPOS>ATOM
  1 BR       1.7580     0.5550    -3.3080 Br    1 <1>  -0.0580 
  2 C        2.2680     0.3900    -1.4630 C.2   1 <1>   0.1980 
  3 O        3.1630    -0.5140    -1.1520 O.3   1 <1>  -0.2800 
  4 C        1.8280     1.0890    -0.3990 C.2   1 <1>  -0.1500 
  5 C        3.3490    -0.4380     0.1690 C.2   1 <1>   0.0550 
  6 C        2.5400     0.5440     0.6730 C.2   1 <1>  -0.1500 
  7 C        4.2860    -1.3080     0.8370 C.2   1 <1>   0.7150 
  8 O        4.4680    -1.2300     2.0380 O.2   1 <1>  -0.5700 
  9 N        4.9870    -2.2300     0.1150 N.am  1 <1>  -0.7300 
 10 C        6.0260    -3.1350     0.6270 C.3   1 <1>   0.2200 
 11 C        7.3740    -2.7920    -0.0200 C.3   1 <1>  -0.1600 
 12 C        5.6020    -4.5630     0.2990 C.3   1 <1>  -0.2400 
 13 C        7.8550    -1.3710     0.3180 C.3   1 <1>  -0.1600 
 14 C        9.2430    -1.0990    -0.2740 C.3   1 <1>  -0.1600 
 15 C        9.7160     0.3210     0.0600 C.3   1 <1>  -0.1600 
 16 C       11.1010     0.5940    -0.5310 C.3   1 <1>  -0.2400 
 17 H        1.1030     1.8810    -0.3610 H     1 <1>   0.1500 
 18 H        2.4590     0.8470     1.7030 H     1 <1>   0.1500 
 19 H        4.8300    -2.2500    -0.8930 H     1 <1>   0.3700 
 20 H        6.1080    -3.0290     1.6970 H     1 <1>   0.0800 
 21 H        7.3030    -2.9090    -1.0870 H     1 <1>   0.0800 
 22 H        8.1070    -3.4950     0.3360 H     1 <1>   0.0800 
 23 H        5.5160    -4.7030    -0.7640 H     1 <1>   0.0800 
 24 H        4.6580    -4.7800     0.7650 H     1 <1>   0.0800 
 25 H        6.3310    -5.2560     0.6780 H     1 <1>   0.0800 
 26 H        7.8900    -1.2510     1.3880 H     1 <1>   0.0800 
 27 H        7.1590    -0.6480    -0.0710 H     1 <1>   0.0800 
 28 H        9.2070    -1.2210    -1.3430 H     1 <1>   0.0800 
 29 H        9.9480    -1.8110     0.1210 H     1 <1>   0.0800 
 30 H        9.7550     0.4470     1.1290 H     1 <1>   0.0800 
 31 H        9.0150     1.0370    -0.3340 H     1 <1>   0.0800 
 32 H       11.8230    -0.0970    -0.1330 H     1 <1>   0.0800 
 33 H       11.4140     1.5940    -0.2860 H     1 <1>   0.0800 
 34 H       11.0800     0.4950    -1.6020 H     1 <1>   0.0800 
@<TRIPOS>BOND
  1   1   2  1   
  2   2   3  1   
  3   2   4  2   
  4   3   5  1   
  5   4   6  1   
  6   4  17  1   
  7   5   6  2   
  8   5   7  1   
  9   6  18  1   
 10   7   8  2   
 11   7   9  am  
 12   9  10  1   
 13   9  19  1   
 14  10  11  1   
 15  10  12  1   
 16  10  20  1   
 17  11  13  1   
 18  11  21  1   
 19  11  22  1   
 20  12  23  1   
 21  12  24  1   
 22  12  25  1   
 23  13  14  1   
 24  13  26  1   
 25  13  27  1   
 26  14  15  1   
 27  14  28  1   
 28  14  29  1   
 29  15  16  1   
 30  15  30  1   
 31  15  31  1   
 32  16  32  1   
 33  16  33  1   
 34  16  34  1   
@<TRIPOS>SUBSTRUCTURE
  1 ****   9 GROUP 4 **** **** 0

# MOE 2024.06 (io_trps.svl 2023.06)
