@<TRIPOS>MOLECULE
NONAME
34 35 1 0 0 
SMALL
USER_CHARGES


@<TRIPOS>ATOM
  1 O        0.1700    -0.4870     0.1070 O.3   1 <1>  -0.3630 
  2 C        1.1760     0.4340     0.0550 C.ar  1 <1>   0.0820 
  3 C       -1.1890    -0.1750    -0.1080 C.3   1 <1>   0.0400 
  4 C        1.0780     1.7760    -0.3440 C.ar  1 <1>   0.0820 
  5 C        2.4030    -0.0680     0.4520 C.ar  1 <1>  -0.1500 
  6 O       -0.1160     2.2910    -0.7550 O.3   1 <1>  -0.3630 
  7 C        2.2260     2.5630    -0.3120 C.ar  1 <1>  -0.1500 
  8 C        3.5550     0.7080     0.4640 C.ar  1 <1>  -0.1430 
  9 C       -0.2750     3.6270    -1.1820 C.3   1 <1>   0.0400 
 10 C        3.4480     2.0460     0.0900 C.ar  1 <1>  -0.1430 
 11 C        4.8940     0.1040     0.9090 C.3   1 <1>   0.5660 
 12 C        4.6490     2.9840     0.1060 C.3   1 <1>  -0.0160 
 13 N        6.0150     0.9750     0.4370 N.4   1 <1>  -0.9060 
 14 C        5.0930    -1.3440     0.4290 C.3   1 <1>   0.0400 
 15 C        5.8360     2.3870     0.8600 C.3   1 <1>   0.3430 
 16 C        6.4750    -1.7580     0.7570 C.1   1 <1>   0.3570 
 17 N        7.5740    -1.8490     1.0220 N.1   1 <1>  -0.5570 
 18 H       -1.7710    -1.0590     0.0790 H     1 <1>   0.0800 
 19 H       -1.4810     0.6050     0.5730 H     1 <1>   0.0800 
 20 H       -1.3190     0.1370    -1.1290 H     1 <1>   0.0800 
 21 H        2.4070    -1.0990     0.7580 H     1 <1>   0.1500 
 22 H        2.1820     3.5960    -0.6010 H     1 <1>   0.1500 
 23 H       -1.3050     3.7690    -1.4570 H     1 <1>   0.0800 
 24 H       -0.0220     4.2870    -0.3720 H     1 <1>   0.0800 
 25 H        0.3550     3.7990    -2.0370 H     1 <1>   0.0800 
 26 H        4.9040     0.0960     1.9880 H     1 <1>   0.0800 
 27 H        4.3770     3.9150     0.5730 H     1 <1>   0.0800 
 28 H        4.9410     3.2040    -0.9060 H     1 <1>   0.0800 
 29 H        6.0410     0.9410    -0.5880 H     1 <1>   0.4500 
 30 H        6.9130     0.6000     0.7840 H     1 <1>   0.4500 
 31 H        4.9270    -1.4210    -0.6300 H     1 <1>   0.0800 
 32 H        4.4150    -2.0070     0.9330 H     1 <1>   0.0800 
 33 H        5.6480     2.4300     1.9210 H     1 <1>   0.0800 
 34 H        6.7250     2.9600     0.6480 H     1 <1>   0.0800 
@<TRIPOS>BOND
  1   1   2  1   
  2   1   3  1   
  3   2   4  ar  
  4   2   5  ar  
  5   3  18  1   
  6   3  19  1   
  7   3  20  1   
  8   4   6  1   
  9   4   7  ar  
 10   5   8  ar  
 11   5  21  1   
 12   6   9  1   
 13   7  10  ar  
 14   7  22  1   
 15   8  10  ar  
 16   8  11  1   
 17   9  23  1   
 18   9  24  1   
 19   9  25  1   
 20  10  12  1   
 21  11  13  1   
 22  11  14  1   
 23  11  26  1   
 24  12  15  1   
 25  12  27  1   
 26  12  28  1   
 27  13  15  1   
 28  13  29  1   
 29  13  30  1   
 30  14  16  1   
 31  14  31  1   
 32  14  32  1   
 33  15  33  1   
 34  15  34  1   
 35  16  17  3   
@<TRIPOS>SUBSTRUCTURE
  1 ****   8 GROUP 4 **** **** 0

# MOE 2024.06 (io_trps.svl 2023.06)
