@<TRIPOS>MOLECULE
NONAME
40 41 1 0 0 
SMALL
USER_CHARGES


@<TRIPOS>ATOM
  1 S       -1.0770     1.1550    -1.6080 S.3   1 <1>  -0.0800 
  2 C       -1.9080     1.0820    -0.0600 C.2   1 <1>  -0.1400 
  3 C        0.0250     2.3770    -1.0100 C.2   1 <1>  -0.1100 
  4 C       -1.3470     1.9360     0.8200 C.2   1 <1>  -0.1810 
  5 C       -3.0600     0.1080     0.0450 C.3   1 <1>   0.5230 
  6 C       -0.2480     2.6740     0.2720 C.2   1 <1>  -0.1500 
  7 C       -1.7450     2.1680     2.2680 C.3   1 <1>  -0.0590 
  8 N       -4.3270     0.8350    -0.2460 N.4   1 <1>  -0.9590 
  9 C       -5.5100     0.0430     0.2180 C.3   1 <1>   0.3430 
 10 C       -4.4250     1.2110    -1.6880 C.3   1 <1>   0.3430 
 11 C       -6.8220     0.8050    -0.0030 C.3   1 <1>  -0.0190 
 12 C       -5.7060     2.0120    -1.9300 C.3   1 <1>  -0.1600 
 13 C       -7.9750    -0.0840     0.4250 C.2   1 <1>   0.6590 
 14 C       -6.9580     1.2500    -1.4720 C.3   1 <1>  -0.1600 
 15 O       -7.8050    -1.2490     0.6730 O.2   1 <1>  -0.5700 
 16 O       -9.1580     0.5020     0.5100 O.3   1 <1>  -0.4300 
 17 C      -10.3120    -0.2120     0.8920 C.3   1 <1>   0.1200 
 18 C      -11.4910     0.7550     0.8800 C.3   1 <1>  -0.2400 
 19 H        0.7740     2.7490    -1.6890 H     1 <1>   0.1500 
 20 H       -3.0880    -0.2820     1.0490 H     1 <1>   0.0800 
 21 H       -2.9200    -0.7140    -0.6380 H     1 <1>   0.0800 
 22 H        0.2910     3.3940     0.8650 H     1 <1>   0.1500 
 23 H       -2.5710     1.5440     2.5540 H     1 <1>   0.0800 
 24 H       -2.0230     3.1980     2.4110 H     1 <1>   0.0800 
 25 H       -0.9130     1.9480     2.9130 H     1 <1>   0.0800 
 26 H       -4.2710     1.7120     0.2870 H     1 <1>   0.4500 
 27 H       -5.4140    -0.1930     1.2660 H     1 <1>   0.0800 
 28 H       -5.5570    -0.8880    -0.3250 H     1 <1>   0.0800 
 29 H       -4.4340     0.3230    -2.3000 H     1 <1>   0.0800 
 30 H       -3.5760     1.8110    -1.9750 H     1 <1>   0.0800 
 31 H       -6.8310     1.6690     0.6360 H     1 <1>   0.0800 
 32 H       -5.7880     2.2280    -2.9820 H     1 <1>   0.0800 
 33 H       -5.6390     2.9560    -1.4170 H     1 <1>   0.0800 
 34 H       -7.8280     1.8780    -1.5840 H     1 <1>   0.0800 
 35 H       -7.0990     0.3840    -2.0990 H     1 <1>   0.0800 
 36 H      -10.1550    -0.6170     1.8780 H     1 <1>   0.0800 
 37 H      -10.4660    -1.0170     0.1920 H     1 <1>   0.0800 
 38 H      -11.3240     1.5560     1.5760 H     1 <1>   0.0800 
 39 H      -12.3870     0.2350     1.1680 H     1 <1>   0.0800 
 40 H      -11.6330     1.1570    -0.1070 H     1 <1>   0.0800 
@<TRIPOS>BOND
  1   1   2  1   
  2   1   3  1   
  3   2   4  2   
  4   2   5  1   
  5   3   6  2   
  6   3  19  1   
  7   4   6  1   
  8   4   7  1   
  9   5   8  1   
 10   5  20  1   
 11   5  21  1   
 12   6  22  1   
 13   7  23  1   
 14   7  24  1   
 15   7  25  1   
 16   8   9  1   
 17   8  10  1   
 18   8  26  1   
 19   9  11  1   
 20   9  27  1   
 21   9  28  1   
 22  10  12  1   
 23  10  29  1   
 24  10  30  1   
 25  11  13  1   
 26  11  14  1   
 27  11  31  1   
 28  12  14  1   
 29  12  32  1   
 30  12  33  1   
 31  13  15  2   
 32  13  16  1   
 33  14  34  1   
 34  14  35  1   
 35  16  17  1   
 36  17  18  1   
 37  17  36  1   
 38  17  37  1   
 39  18  38  1   
 40  18  39  1   
 41  18  40  1   
@<TRIPOS>SUBSTRUCTURE
  1 ****   8 GROUP 4 **** **** 0

# MOE 2024.06 (io_trps.svl 2023.06)
