@<TRIPOS>MOLECULE
NONAME
46 48 1 0 0 
SMALL
USER_CHARGES


@<TRIPOS>ATOM
  1 O       -1.1230    -0.2800     0.5620 O.2   1 <1>  -0.5700 
  2 C       -2.0640     0.4560     0.3400 C.2   1 <1>   0.6340 
  3 O       -3.3010    -0.0300     0.4950 O.3   1 <1>  -0.4300 
  4 C       -1.8960     1.8400    -0.0460 C.ar  1 <1>   0.0860 
  5 C       -3.5390    -1.3650     0.8950 C.3   1 <1>   0.0400 
  6 C       -2.7610     2.5080    -0.9340 C.ar  1 <1>   0.1170 
  7 C       -0.8200     2.5630     0.4780 C.ar  1 <1>  -0.1500 
  8 N       -3.8190     1.8620    -1.5750 N.am  1 <1>  -0.5470 
  9 C       -2.5340     3.8440    -1.2460 C.ar  1 <1>  -0.1500 
 10 C       -0.6060     3.8890     0.1620 C.ar  1 <1>  -0.1500 
 11 C       -5.1770     2.0110    -1.5540 C.2   1 <1>   0.5690 
 12 C       -1.4700     4.5350    -0.7040 C.ar  1 <1>  -0.1500 
 13 O       -5.7660     1.5160    -2.4850 O.2   1 <1>  -0.5700 
 14 C       -6.0030     2.7730    -0.4690 C.3   1 <1>   0.2040 
 15 C       -7.2590     1.9390    -0.0810 C.ar  1 <1>  -0.1430 
 16 C       -5.2780     2.9850     0.8980 C.3   1 <1>  -0.1600 
 17 C       -6.4050     4.1240    -1.1260 C.3   1 <1>  -0.1600 
 18 C       -7.1950     0.5480    -0.0460 C.ar  1 <1>  -0.1500 
 19 C       -8.4600     2.5370     0.2970 C.ar  1 <1>  -0.1500 
 20 C       -4.6130     4.3480     1.1720 C.3   1 <1>   0.1200 
 21 C       -6.2730     5.3110    -0.1810 C.3   1 <1>   0.1200 
 22 C       -8.2900    -0.2150     0.3230 C.ar  1 <1>  -0.1500 
 23 C       -9.5570     1.7790     0.6650 C.ar  1 <1>  -0.1500 
 24 O       -4.9530     5.3240     0.2380 O.3   1 <1>  -0.5600 
 25 C       -9.4750     0.4000     0.6770 C.ar  1 <1>  -0.1500 
 26 H       -4.6010    -1.5190     0.9590 H     1 <1>   0.0800 
 27 H       -3.0820    -1.5270     1.8560 H     1 <1>   0.0800 
 28 H       -3.1100    -2.0280     0.1640 H     1 <1>   0.0800 
 29 H       -0.1390     2.0670     1.1490 H     1 <1>   0.1500 
 30 H       -3.5480     1.2140    -2.3170 H     1 <1>   0.3700 
 31 H       -3.2020     4.3520    -1.9200 H     1 <1>   0.1500 
 32 H        0.2290     4.4220     0.5840 H     1 <1>   0.1500 
 33 H       -1.3150     5.5720    -0.9520 H     1 <1>   0.1500 
 34 H       -4.5770     2.1950     1.0790 H     1 <1>   0.0800 
 35 H       -6.0040     2.8790     1.6860 H     1 <1>   0.0800 
 36 H       -7.3940     4.0750    -1.5430 H     1 <1>   0.0800 
 37 H       -5.7540     4.3290    -1.9580 H     1 <1>   0.0800 
 38 H       -6.2870     0.0340    -0.3070 H     1 <1>   0.1500 
 39 H       -8.5660     3.6050     0.3190 H     1 <1>   0.1500 
 40 H       -3.5420     4.2570     1.1690 H     1 <1>   0.0800 
 41 H       -4.9060     4.7120     2.1420 H     1 <1>   0.0800 
 42 H       -6.9230     5.2390     0.6750 H     1 <1>   0.0800 
 43 H       -6.4650     6.2340    -0.7000 H     1 <1>   0.0800 
 44 H       -8.2170    -1.2880     0.3320 H     1 <1>   0.1500 
 45 H      -10.4770     2.2620     0.9460 H     1 <1>   0.1500 
 46 H      -10.3280    -0.1920     0.9600 H     1 <1>   0.1500 
@<TRIPOS>BOND
  1   1   2  2   
  2   2   3  1   
  3   2   4  1   
  4   3   5  1   
  5   4   6  ar  
  6   4   7  ar  
  7   5  26  1   
  8   5  27  1   
  9   5  28  1   
 10   6   8  1   
 11   6   9  ar  
 12   7  10  ar  
 13   7  29  1   
 14   8  11  am  
 15   8  30  1   
 16   9  12  ar  
 17   9  31  1   
 18  10  12  ar  
 19  10  32  1   
 20  11  13  2   
 21  11  14  1   
 22  12  33  1   
 23  14  15  1   
 24  14  16  1   
 25  14  17  1   
 26  15  18  ar  
 27  15  19  ar  
 28  16  20  1   
 29  16  34  1   
 30  16  35  1   
 31  17  21  1   
 32  17  36  1   
 33  17  37  1   
 34  18  22  ar  
 35  18  38  1   
 36  19  23  ar  
 37  19  39  1   
 38  20  24  1   
 39  20  40  1   
 40  20  41  1   
 41  21  24  1   
 42  21  42  1   
 43  21  43  1   
 44  22  25  ar  
 45  22  44  1   
 46  23  25  ar  
 47  23  45  1   
 48  25  46  1   
@<TRIPOS>SUBSTRUCTURE
  1 ****  16 GROUP 4 **** **** 0

# MOE 2024.06 (io_trps.svl 2023.06)
