@<TRIPOS>MOLECULE
NONAME
33 34 1 0 0 
SMALL
USER_CHARGES


@<TRIPOS>ATOM
  1 CL      -0.2050     1.7630    -1.4820 Cl    1 <1>  -0.1770 
  2 C       -1.7970     1.9190    -0.7860 C.ar  1 <1>   0.1770 
  3 C       -2.0160     2.6430     0.3760 C.ar  1 <1>  -0.0090 
  4 C       -2.8330     1.2890    -1.4490 C.ar  1 <1>  -0.1500 
  5 S       -0.6610     3.4720     1.2410 S.o2  1 <1>   1.4470 
  6 C       -3.3220     2.7150     0.8490 C.ar  1 <1>  -0.1500 
  7 C       -4.1200     1.3780    -0.9550 C.ar  1 <1>  -0.1500 
  8 O        0.4110     2.5350     1.4910 O.2   1 <1>  -0.6500 
  9 O       -1.1920     4.2220     2.3590 O.2   1 <1>  -0.6500 
 10 N       -0.1040     4.6070     0.1140 N.am  1 <1>  -0.8490 
 11 C       -4.4000     2.0960     0.2100 C.ar  1 <1>   0.0860 
 12 C        1.2510     5.0540     0.3740 C.3   1 <1>   0.1960 
 13 C       -0.9020     5.8160    -0.0030 C.3   1 <1>   0.1960 
 14 C       -5.7480     2.2060     0.7410 C.2   1 <1>   0.6340 
 15 C        1.4150     6.3050    -0.4830 C.3   1 <1>  -0.1600 
 16 C       -0.0100     6.7700    -0.7850 C.3   1 <1>  -0.1600 
 17 O       -6.0200     2.8660     1.7220 O.2   1 <1>  -0.5700 
 18 O       -6.7280     1.5480     0.1140 O.3   1 <1>  -0.4300 
 19 C       -8.0680     1.6000     0.5650 C.3   1 <1>   0.0400 
 20 H       -2.6270     0.7330    -2.3470 H     1 <1>   0.1500 
 21 H       -3.5160     3.2730     1.7520 H     1 <1>   0.1500 
 22 H       -4.9190     0.8820    -1.4810 H     1 <1>   0.1500 
 23 H        1.9640     4.2880     0.1130 H     1 <1>   0.0800 
 24 H        1.3600     5.3050     1.4170 H     1 <1>   0.0800 
 25 H       -1.1000     6.2330     0.9720 H     1 <1>   0.0800 
 26 H       -1.8320     5.6240    -0.5110 H     1 <1>   0.0800 
 27 H        1.9300     6.0570    -1.3950 H     1 <1>   0.0800 
 28 H        1.9800     7.0520     0.0470 H     1 <1>   0.0800 
 29 H       -0.1790     7.7900    -0.4870 H     1 <1>   0.0800 
 30 H       -0.2170     6.6720    -1.8370 H     1 <1>   0.0800 
 31 H       -8.6730     0.9990    -0.0900 H     1 <1>   0.0800 
 32 H       -8.4020     2.6230     0.5460 H     1 <1>   0.0800 
 33 H       -8.1120     1.2140     1.5690 H     1 <1>   0.0800 
@<TRIPOS>BOND
  1   1   2  1   
  2   2   3  ar  
  3   2   4  ar  
  4   3   5  1   
  5   3   6  ar  
  6   4   7  ar  
  7   4  20  1   
  8   5   8  2   
  9   5   9  2   
 10   5  10  am  
 11   6  11  ar  
 12   6  21  1   
 13   7  11  ar  
 14   7  22  1   
 15  10  12  1   
 16  10  13  1   
 17  11  14  1   
 18  12  15  1   
 19  12  23  1   
 20  12  24  1   
 21  13  16  1   
 22  13  25  1   
 23  13  26  1   
 24  14  17  2   
 25  14  18  1   
 26  15  16  1   
 27  15  27  1   
 28  15  28  1   
 29  16  29  1   
 30  16  30  1   
 31  18  19  1   
 32  19  31  1   
 33  19  32  1   
 34  19  33  1   
@<TRIPOS>SUBSTRUCTURE
  1 ****   3 GROUP 4 **** **** 0

# MOE 2024.06 (io_trps.svl 2023.06)
