@<TRIPOS>MOLECULE
NONAME
46 47 1 0 0 
SMALL
USER_CHARGES


@<TRIPOS>ATOM
  1 O        0.0930    -0.9490    -0.8310 O.3   1 <1>  -0.3630 
  2 C       -1.1010    -1.2210    -0.2410 C.ar  1 <1>   0.0830 
  3 C        1.1960    -0.9750     0.0330 C.3   1 <1>   0.1200 
  4 C       -1.8350    -0.1870     0.3420 C.ar  1 <1>   0.0830 
  5 C       -1.5860    -2.5280    -0.2400 C.ar  1 <1>   0.0830 
  6 C        2.4230    -0.5570    -0.7760 C.3   1 <1>  -0.1600 
  7 O       -1.3030     1.0710     0.3270 O.3   1 <1>  -0.3630 
  8 C       -3.0680    -0.4740     0.9210 C.ar  1 <1>  -0.1500 
  9 O       -0.8170    -3.5020    -0.8100 O.3   1 <1>  -0.3620 
 10 C       -2.8220    -2.7930     0.3440 C.ar  1 <1>  -0.1500 
 11 C        3.6870    -0.5280     0.0910 C.3   1 <1>  -0.1600 
 12 C       -2.0800     2.1960     0.6700 C.3   1 <1>   0.0400 
 13 C       -3.5550    -1.7690     0.9180 C.ar  1 <1>  -0.1500 
 14 C       -1.3400    -4.7850    -1.0740 C.3   1 <1>   0.0400 
 15 C        4.8890    -0.0840    -0.7420 C.3   1 <1>   0.3430 
 16 N        6.0980     0.0290     0.1160 N.4   1 <1>  -0.9590 
 17 C        7.2330     0.6820    -0.5790 C.3   1 <1>   0.3430 
 18 C        6.6200    -1.2710     0.6080 C.3   1 <1>   0.3430 
 19 C        8.4530     0.2940     0.2440 C.3   1 <1>  -0.1600 
 20 C        8.0610    -0.9780     1.0010 C.3   1 <1>  -0.1600 
 21 H        1.2960    -1.9770     0.4160 H     1 <1>   0.0800 
 22 H        1.0080    -0.2890     0.8410 H     1 <1>   0.0800 
 23 H        2.2380     0.4210    -1.1870 H     1 <1>   0.0800 
 24 H        2.5480    -1.2540    -1.5880 H     1 <1>   0.0800 
 25 H       -3.6610     0.2930     1.3810 H     1 <1>   0.1500 
 26 H       -3.2270    -3.7860     0.3650 H     1 <1>   0.1500 
 27 H        3.8530    -1.5130     0.4910 H     1 <1>   0.0800 
 28 H        3.5350     0.1610     0.9040 H     1 <1>   0.0800 
 29 H       -1.4910     3.0760     0.4840 H     1 <1>   0.0800 
 30 H       -2.3350     2.1410     1.7130 H     1 <1>   0.0800 
 31 H       -2.9630     2.2120     0.0550 H     1 <1>   0.0800 
 32 H       -4.5100    -1.9830     1.3680 H     1 <1>   0.1500 
 33 H       -0.5970    -5.3420    -1.6150 H     1 <1>   0.0800 
 34 H       -2.2280    -4.6830    -1.6720 H     1 <1>   0.0800 
 35 H       -1.5550    -5.2740    -0.1410 H     1 <1>   0.0800 
 36 H        4.6690     0.8750    -1.1850 H     1 <1>   0.0800 
 37 H        5.0630    -0.7890    -1.5390 H     1 <1>   0.0800 
 38 H        5.8700     0.6040     0.9380 H     1 <1>   0.4500 
 39 H        7.1090     1.7520    -0.6330 H     1 <1>   0.0800 
 40 H        7.3300     0.2810    -1.5760 H     1 <1>   0.0800 
 41 H        6.6050    -1.9950    -0.1910 H     1 <1>   0.0800 
 42 H        6.0450    -1.6440     1.4410 H     1 <1>   0.0800 
 43 H        8.6930     1.0840     0.9350 H     1 <1>   0.0800 
 44 H        9.3040     0.1330    -0.3970 H     1 <1>   0.0800 
 45 H        8.6960    -1.8090     0.7430 H     1 <1>   0.0800 
 46 H        8.1250    -0.8180     2.0640 H     1 <1>   0.0800 
@<TRIPOS>BOND
  1   1   2  1   
  2   1   3  1   
  3   2   4  ar  
  4   2   5  ar  
  5   3   6  1   
  6   3  21  1   
  7   3  22  1   
  8   4   7  1   
  9   4   8  ar  
 10   5   9  1   
 11   5  10  ar  
 12   6  11  1   
 13   6  23  1   
 14   6  24  1   
 15   7  12  1   
 16   8  13  ar  
 17   8  25  1   
 18   9  14  1   
 19  10  13  ar  
 20  10  26  1   
 21  11  15  1   
 22  11  27  1   
 23  11  28  1   
 24  12  29  1   
 25  12  30  1   
 26  12  31  1   
 27  13  32  1   
 28  14  33  1   
 29  14  34  1   
 30  14  35  1   
 31  15  16  1   
 32  15  36  1   
 33  15  37  1   
 34  16  17  1   
 35  16  18  1   
 36  16  38  1   
 37  17  19  1   
 38  17  39  1   
 39  17  40  1   
 40  18  20  1   
 41  18  41  1   
 42  18  42  1   
 43  19  20  1   
 44  19  43  1   
 45  19  44  1   
 46  20  45  1   
 47  20  46  1   
@<TRIPOS>SUBSTRUCTURE
  1 ****   3 GROUP 4 **** **** 0

# MOE 2024.06 (io_trps.svl 2023.06)
