@<TRIPOS>MOLECULE
NONAME
42 44 1 0 0 
SMALL
USER_CHARGES


@<TRIPOS>ATOM
  1 BR      -0.7870     0.1150    -1.7560 Br    1 <1>  -0.1110 
  2 C       -2.5770     0.0440    -1.0570 C.ar  1 <1>   0.1110 
  3 C       -3.0590    -1.1570    -0.5730 C.ar  1 <1>  -0.1500 
  4 C       -3.3400     1.1960    -1.0530 C.ar  1 <1>  -0.1500 
  5 C       -4.3490    -1.2000    -0.0740 C.ar  1 <1>  -0.1500 
  6 C       -4.6270     1.1340    -0.5510 C.ar  1 <1>  -0.1500 
  7 C       -5.1590    -0.0610    -0.0640 C.ar  1 <1>   0.0530 
  8 C       -6.5110    -0.1020     0.4380 C.2   1 <1>   0.1330 
  9 N       -6.9890     0.6850     1.3630 N.2   1 <1>  -0.3380 
 10 N       -7.4630    -0.9530     0.0060 N.pl3 1 <1>   0.0480 
 11 N       -8.2640     0.3550     1.5660 N.2   1 <1>  -0.3380 
 12 C       -8.5070    -0.6090     0.7520 C.2   1 <1>   0.2430 
 13 C       -7.3960    -1.9770    -1.0590 C.3   1 <1>   0.0160 
 14 S      -10.1030    -1.4180     0.6250 S.3   1 <1>  -0.2860 
 15 C      -11.1000    -0.5590     1.9410 C.3   1 <1>   0.1310 
 16 C      -12.5340    -1.0650     1.9790 C.2   1 <1>   0.5690 
 17 O      -13.1660    -0.9270     2.9980 O.2   1 <1>  -0.5700 
 18 N      -13.0720    -1.6460     0.8760 N.am  1 <1>  -0.7300 
 19 C      -14.4350    -2.1880     0.7630 C.3   1 <1>   0.2200 
 20 C      -14.3440    -3.6680     0.4160 C.3   1 <1>  -0.1600 
 21 C      -15.1030    -1.5810    -0.4640 C.3   1 <1>  -0.1600 
 22 C      -14.0990    -3.7280    -1.0970 C.3   1 <1>  -0.1600 
 23 C      -14.5900    -2.3880    -1.6620 C.3   1 <1>  -0.1600 
 24 H       -2.4330    -2.0320    -0.5830 H     1 <1>   0.1500 
 25 H       -2.9330     2.1170    -1.4300 H     1 <1>   0.1500 
 26 H       -4.7310    -2.1240     0.3220 H     1 <1>   0.1500 
 27 H       -5.2380     2.0210    -0.5300 H     1 <1>   0.1500 
 28 H       -6.6280    -1.7170    -1.7650 H     1 <1>   0.0800 
 29 H       -8.3390    -2.0280    -1.5710 H     1 <1>   0.0800 
 30 H       -7.1750    -2.9320    -0.6190 H     1 <1>   0.0800 
 31 H      -11.0820     0.4920     1.7230 H     1 <1>   0.0800 
 32 H      -10.6130    -0.7440     2.8800 H     1 <1>   0.0800 
 33 H      -12.4880    -1.7870     0.0510 H     1 <1>   0.3700 
 34 H      -14.9940    -2.0100     1.6670 H     1 <1>   0.0800 
 35 H      -15.2930    -4.1260     0.6340 H     1 <1>   0.0800 
 36 H      -13.5810    -4.1730     0.9830 H     1 <1>   0.0800 
 37 H      -14.9050    -0.5270    -0.5550 H     1 <1>   0.0800 
 38 H      -16.1660    -1.7240    -0.3770 H     1 <1>   0.0800 
 39 H      -14.6250    -4.5580    -1.5380 H     1 <1>   0.0800 
 40 H      -13.0470    -3.8410    -1.2930 H     1 <1>   0.0800 
 41 H      -13.7700    -1.8700    -2.1300 H     1 <1>   0.0800 
 42 H      -15.3700    -2.5300    -2.3900 H     1 <1>   0.0800 
@<TRIPOS>BOND
  1   1   2  1   
  2   2   3  ar  
  3   2   4  ar  
  4   3   5  ar  
  5   3  24  1   
  6   4   6  ar  
  7   4  25  1   
  8   5   7  ar  
  9   5  26  1   
 10   6   7  ar  
 11   6  27  1   
 12   7   8  1   
 13   8   9  2   
 14   8  10  1   
 15   9  11  1   
 16  10  12  1   
 17  10  13  1   
 18  11  12  2   
 19  12  14  1   
 20  13  28  1   
 21  13  29  1   
 22  13  30  1   
 23  14  15  1   
 24  15  16  1   
 25  15  31  1   
 26  15  32  1   
 27  16  17  2   
 28  16  18  am  
 29  18  19  1   
 30  18  33  1   
 31  19  20  1   
 32  19  21  1   
 33  19  34  1   
 34  20  22  1   
 35  20  35  1   
 36  20  36  1   
 37  21  23  1   
 38  21  37  1   
 39  21  38  1   
 40  22  23  1   
 41  22  39  1   
 42  22  40  1   
 43  23  41  1   
 44  23  42  1   
@<TRIPOS>SUBSTRUCTURE
  1 ****  12 GROUP 4 **** **** 0

# MOE 2024.06 (io_trps.svl 2023.06)
