@<TRIPOS>MOLECULE
NONAME
40 40 1 0 0 
SMALL
USER_CHARGES


@<TRIPOS>ATOM
  1 BR       0.2350     1.8870     3.0420 Br    1 <1>  -0.1110 
  2 C       -0.9640     1.7550     1.5350 C.ar  1 <1>   0.1110 
  3 C       -0.5850     2.2620     0.2970 C.ar  1 <1>   0.0830 
  4 C       -2.1920     1.1510     1.7310 C.ar  1 <1>  -0.1500 
  5 O        0.6150     2.8520     0.1070 O.3   1 <1>  -0.3630 
  6 C       -1.4750     2.1720    -0.7620 C.ar  1 <1>  -0.1500 
  7 C       -3.0680     1.0580     0.6610 C.ar  1 <1>  -0.1500 
  8 C        1.7000     1.9890    -0.1210 C.3   1 <1>   0.1200 
  9 C       -2.7100     1.5690    -0.5790 C.ar  1 <1>  -0.1500 
 10 C        2.9810     2.8120     0.0250 C.3   1 <1>  -0.1600 
 11 C        4.2360     1.9470    -0.1510 C.3   1 <1>  -0.1600 
 12 C        5.4960     2.7930     0.0470 C.3   1 <1>   0.3430 
 13 N        6.7150     1.9360    -0.0210 N.4   1 <1>  -0.9590 
 14 C        7.8740     2.5970     0.6410 C.3   1 <1>   0.3430 
 15 C        7.0390     1.5640    -1.4260 C.3   1 <1>   0.3430 
 16 C        7.7230     2.4910     2.1550 C.3   1 <1>  -0.2400 
 17 C        7.9110     0.3140    -1.4340 C.3   1 <1>  -0.2400 
 18 H       -2.4580     0.7660     2.6990 H     1 <1>   0.1500 
 19 H       -1.2000     2.5750    -1.7200 H     1 <1>   0.1500 
 20 H       -4.0290     0.5920     0.7930 H     1 <1>   0.1500 
 21 H        1.6010     1.5810    -1.1130 H     1 <1>   0.0800 
 22 H        1.6680     1.1930     0.6040 H     1 <1>   0.0800 
 23 H       -3.3970     1.4980    -1.4050 H     1 <1>   0.1500 
 24 H        2.9830     3.2590     1.0050 H     1 <1>   0.0800 
 25 H        2.9700     3.5980    -0.7110 H     1 <1>   0.0800 
 26 H        4.2230     1.5140    -1.1350 H     1 <1>   0.0800 
 27 H        4.2170     1.1560     0.5800 H     1 <1>   0.0800 
 28 H        5.4360     3.2670     1.0130 H     1 <1>   0.0800 
 29 H        5.5430     3.5690    -0.7010 H     1 <1>   0.0800 
 30 H        6.5200     1.0690     0.4950 H     1 <1>   0.4500 
 31 H        7.9370     3.6320     0.3420 H     1 <1>   0.0800 
 32 H        8.7910     2.1090     0.3530 H     1 <1>   0.0800 
 33 H        7.5450     2.3770    -1.9220 H     1 <1>   0.0800 
 34 H        6.1330     1.3520    -1.9710 H     1 <1>   0.0800 
 35 H        6.8620     3.0270     2.5090 H     1 <1>   0.0800 
 36 H        7.6620     1.4620     2.4610 H     1 <1>   0.0800 
 37 H        8.5900     2.9220     2.6240 H     1 <1>   0.0800 
 38 H        8.0960     0.0210    -2.4520 H     1 <1>   0.0800 
 39 H        8.8630     0.4900    -0.9680 H     1 <1>   0.0800 
 40 H        7.4130    -0.5030    -0.9420 H     1 <1>   0.0800 
@<TRIPOS>BOND
  1   1   2  1   
  2   2   3  ar  
  3   2   4  ar  
  4   3   5  1   
  5   3   6  ar  
  6   4   7  ar  
  7   4  18  1   
  8   5   8  1   
  9   6   9  ar  
 10   6  19  1   
 11   7   9  ar  
 12   7  20  1   
 13   8  10  1   
 14   8  21  1   
 15   8  22  1   
 16   9  23  1   
 17  10  11  1   
 18  10  24  1   
 19  10  25  1   
 20  11  12  1   
 21  11  26  1   
 22  11  27  1   
 23  12  13  1   
 24  12  28  1   
 25  12  29  1   
 26  13  14  1   
 27  13  15  1   
 28  13  30  1   
 29  14  16  1   
 30  14  31  1   
 31  14  32  1   
 32  15  17  1   
 33  15  33  1   
 34  15  34  1   
 35  16  35  1   
 36  16  36  1   
 37  16  37  1   
 38  17  38  1   
 39  17  39  1   
 40  17  40  1   
@<TRIPOS>SUBSTRUCTURE
  1 ****   8 GROUP 4 **** **** 0

# MOE 2024.06 (io_trps.svl 2023.06)
