@<TRIPOS>MOLECULE
NONAME
51 53 1 0 0 
SMALL
USER_CHARGES


@<TRIPOS>ATOM
  1 F       -3.8410    -5.4710    -2.0700 F     1 <1>  -0.1900 
  2 C       -4.6370    -5.5670    -1.0290 C.ar  1 <1>   0.1900 
  3 C       -4.2530    -4.9870     0.1870 C.ar  1 <1>   0.1000 
  4 C       -5.8280    -6.2460    -1.1930 C.ar  1 <1>  -0.1500 
  5 N       -3.0530    -4.2910     0.3920 N.pl3 1 <1>  -0.8380 
  6 C       -5.1350    -5.1210     1.2510 C.ar  1 <1>  -0.1500 
  7 C       -6.6850    -6.3620    -0.1110 C.ar  1 <1>  -0.1500 
  8 C       -2.9510    -2.9860    -0.3300 C.3   1 <1>   0.2090 
  9 C       -1.8180    -5.1290     0.3240 C.3   1 <1>   0.2090 
 10 C       -6.3350    -5.7990     1.1070 C.ar  1 <1>  -0.1500 
 11 C       -1.6840    -2.2120     0.0870 C.3   1 <1>   0.3430 
 12 C       -0.5690    -4.3210     0.7320 C.3   1 <1>   0.3430 
 13 N       -0.4270    -3.0370    -0.0540 N.4   1 <1>  -0.9590 
 14 C        0.7600    -2.2330     0.3670 C.3   1 <1>   0.3430 
 15 C        2.0770    -2.8960    -0.0410 C.3   1 <1>  -0.0990 
 16 C        3.2370    -2.0070     0.3540 C.2   1 <1>   0.5690 
 17 O        2.9930    -0.9970     0.9640 O.2   1 <1>  -0.5700 
 18 N        4.4860    -2.4120    -0.0060 N.am  1 <1>  -0.5470 
 19 C        5.7700    -1.8670     0.1850 C.ar  1 <1>   0.1170 
 20 C        6.8580    -2.5860    -0.3220 C.ar  1 <1>   0.0830 
 21 C        6.0080    -0.6660     0.8450 C.ar  1 <1>  -0.1500 
 22 O        6.5780    -3.7630    -0.9650 O.3   1 <1>  -0.3630 
 23 C        8.1520    -2.0990    -0.1640 C.ar  1 <1>  -0.1500 
 24 C        7.2970    -0.1870     0.9990 C.ar  1 <1>  -0.1500 
 25 C        7.6100    -4.5550    -1.5140 C.3   1 <1>   0.0400 
 26 C        8.3680    -0.9020     0.4960 C.ar  1 <1>  -0.1500 
 27 H       -6.0800    -6.6750    -2.1460 H     1 <1>   0.1500 
 28 H       -4.8750    -4.6890     2.2000 H     1 <1>   0.1500 
 29 H       -7.6190    -6.8870    -0.2160 H     1 <1>   0.1500 
 30 H       -3.8210    -2.3920    -0.1030 H     1 <1>   0.0800 
 31 H       -2.9390    -3.1560    -1.3930 H     1 <1>   0.0800 
 32 H       -1.6910    -5.5130    -0.6730 H     1 <1>   0.0800 
 33 H       -1.9300    -5.9700     0.9880 H     1 <1>   0.0800 
 34 H       -7.0030    -5.8900     1.9470 H     1 <1>   0.1500 
 35 H       -1.8020    -1.9090     1.1150 H     1 <1>   0.0800 
 36 H       -1.6070    -1.3200    -0.5120 H     1 <1>   0.0800 
 37 H        0.3020    -4.9390     0.5930 H     1 <1>   0.0800 
 38 H       -0.6480    -4.0930     1.7820 H     1 <1>   0.0800 
 39 H       -0.3370    -3.2810    -1.0490 H     1 <1>   0.4500 
 40 H        0.7490    -2.0870     1.4360 H     1 <1>   0.0800 
 41 H        0.7170    -1.2570    -0.0910 H     1 <1>   0.0800 
 42 H        2.1050    -3.0370    -1.1050 H     1 <1>   0.0800 
 43 H        2.1980    -3.8390     0.4570 H     1 <1>   0.0800 
 44 H        4.5600    -3.2920    -0.5210 H     1 <1>   0.3700 
 45 H        5.1950    -0.0910     1.2460 H     1 <1>   0.1500 
 46 H        9.0040    -2.6300    -0.5430 H     1 <1>   0.1500 
 47 H        7.4630     0.7440     1.5130 H     1 <1>   0.1500 
 48 H        7.1640    -5.4220    -1.9670 H     1 <1>   0.0800 
 49 H        8.2760    -4.8580    -0.7250 H     1 <1>   0.0800 
 50 H        8.1320    -3.9820    -2.2600 H     1 <1>   0.0800 
 51 H        9.3690    -0.5260     0.6180 H     1 <1>   0.1500 
@<TRIPOS>BOND
  1   1   2  1   
  2   2   3  ar  
  3   2   4  ar  
  4   3   5  1   
  5   3   6  ar  
  6   4   7  ar  
  7   4  27  1   
  8   5   8  1   
  9   5   9  1   
 10   6  10  ar  
 11   6  28  1   
 12   7  10  ar  
 13   7  29  1   
 14   8  11  1   
 15   8  30  1   
 16   8  31  1   
 17   9  12  1   
 18   9  32  1   
 19   9  33  1   
 20  10  34  1   
 21  11  13  1   
 22  11  35  1   
 23  11  36  1   
 24  12  13  1   
 25  12  37  1   
 26  12  38  1   
 27  13  14  1   
 28  13  39  1   
 29  14  15  1   
 30  14  40  1   
 31  14  41  1   
 32  15  16  1   
 33  15  42  1   
 34  15  43  1   
 35  16  17  2   
 36  16  18  am  
 37  18  19  1   
 38  18  44  1   
 39  19  20  ar  
 40  19  21  ar  
 41  20  22  1   
 42  20  23  ar  
 43  21  24  ar  
 44  21  45  1   
 45  22  25  1   
 46  23  26  ar  
 47  23  46  1   
 48  24  26  ar  
 49  24  47  1   
 50  25  48  1   
 51  25  49  1   
 52  25  50  1   
 53  26  51  1   
@<TRIPOS>SUBSTRUCTURE
  1 ****  14 GROUP 4 **** **** 0

# MOE 2024.06 (io_trps.svl 2023.06)
