@<TRIPOS>MOLECULE
NONAME
32 32 1 0 0 
SMALL
USER_CHARGES


@<TRIPOS>ATOM
  1 P       -0.0390     0.6700    -0.6600 P.3   1 <1>   0.9760 
  2 O       -1.1170     0.5490    -1.6240 O.2   1 <1>  -0.7000 
  3 N        1.4330     0.4720    -1.4950 N.pl3 1 <1>  -0.7760 
  4 C        0.1000     2.2720     0.1010 C.3   1 <1>  -0.1600 
  5 C       -0.0260    -0.5990     0.5890 C.3   1 <1>  -0.1600 
  6 C        2.6080    -0.1120    -1.0450 C.ar  1 <1>   0.1000 
  7 C       -1.2010     2.8700     0.6630 C.3   1 <1>  -0.2400 
  8 C       -1.3220    -0.7750     1.3960 C.3   1 <1>  -0.2400 
  9 C        3.2620     0.3510     0.0900 C.ar  1 <1>  -0.1500 
 10 C        3.1550    -1.1790    -1.7420 C.ar  1 <1>  -0.1500 
 11 C        4.4310    -0.2440     0.5480 C.ar  1 <1>  -0.1430 
 12 C        4.3200    -1.7800    -1.3060 C.ar  1 <1>  -0.1500 
 13 C        4.9550    -1.3170    -0.1670 C.ar  1 <1>  -0.1500 
 14 C        5.1300     0.2870     1.8090 C.3   1 <1>   1.1630 
 15 F        5.9460     1.2970     1.5380 F     1 <1>  -0.3400 
 16 F        5.8650    -0.6340     2.4230 F     1 <1>  -0.3400 
 17 F        4.2690     0.7350     2.7160 F     1 <1>  -0.3400 
 18 H        1.2210     0.2890    -2.4770 H     1 <1>   0.4000 
 19 H        0.4650     2.9680    -0.6310 H     1 <1>   0.0800 
 20 H        0.8240     2.2580     0.8920 H     1 <1>   0.0800 
 21 H        0.7760    -0.4390     1.2840 H     1 <1>   0.0800 
 22 H        0.1720    -1.5420     0.1140 H     1 <1>   0.0800 
 23 H       -1.9520     2.9090    -0.1090 H     1 <1>   0.0800 
 24 H       -1.0250     3.8700     1.0180 H     1 <1>   0.0800 
 25 H       -1.5780     2.2820     1.4780 H     1 <1>   0.0800 
 26 H       -1.5120     0.0850     2.0120 H     1 <1>   0.0800 
 27 H       -1.2450    -1.6370     2.0350 H     1 <1>   0.0800 
 28 H       -2.1570    -0.9160     0.7300 H     1 <1>   0.0800 
 29 H        2.8500     1.1950     0.6120 H     1 <1>   0.1500 
 30 H        2.6650    -1.5430    -2.6260 H     1 <1>   0.1500 
 31 H        4.7350    -2.6090    -1.8540 H     1 <1>   0.1500 
 32 H        5.8640    -1.8000     0.1550 H     1 <1>   0.1500 
@<TRIPOS>BOND
  1   1   2  2   
  2   1   3  1   
  3   1   4  1   
  4   1   5  1   
  5   3   6  1   
  6   3  18  1   
  7   4   7  1   
  8   4  19  1   
  9   4  20  1   
 10   5   8  1   
 11   5  21  1   
 12   5  22  1   
 13   6   9  ar  
 14   6  10  ar  
 15   7  23  1   
 16   7  24  1   
 17   7  25  1   
 18   8  26  1   
 19   8  27  1   
 20   8  28  1   
 21   9  11  ar  
 22   9  29  1   
 23  10  12  ar  
 24  10  30  1   
 25  11  13  ar  
 26  11  14  1   
 27  12  13  ar  
 28  12  31  1   
 29  13  32  1   
 30  14  15  1   
 31  14  16  1   
 32  14  17  1   
@<TRIPOS>SUBSTRUCTURE
  1 ****   9 GROUP 4 **** **** 0

# MOE 2024.06 (io_trps.svl 2023.06)
