@<TRIPOS>MOLECULE
NONAME
48 51 1 0 0 
SMALL
USER_CHARGES


@<TRIPOS>ATOM
  1 O       -2.3330     0.9780    -2.6760 O.co2 1 <1>  -0.9000 
  2 C       -1.6720     0.1880    -1.9890 C.2   1 <1>   0.9060 
  3 O       -0.4490     0.3070    -1.8730 O.co2 1 <1>  -0.9000 
  4 C       -2.3840    -0.9660    -1.2800 C.3   1 <1>  -0.1860 
  5 C       -3.9100    -0.7550    -1.0770 C.3   1 <1>  -0.0190 
  6 C       -1.7130    -1.3570     0.0600 C.3   1 <1>  -0.1600 
  7 C       -4.2420     0.4160    -0.1290 C.2   1 <1>   0.5690 
  8 C       -4.5590    -2.1070    -0.6650 C.3   1 <1>  -0.1600 
  9 C       -2.5920    -2.2520     0.9550 C.3   1 <1>  -0.1600 
 10 O       -4.8290     0.2330     0.9160 O.2   1 <1>  -0.5700 
 11 N       -3.8840     1.6620    -0.5120 N.am  1 <1>  -0.7300 
 12 C       -3.6300    -3.0380     0.1420 C.3   1 <1>  -0.1600 
 13 C       -4.0020     2.8960     0.2800 C.3   1 <1>   0.2200 
 14 C       -4.4300     4.0760    -0.6170 C.3   1 <1>  -0.0800 
 15 C       -2.6600     3.2320     0.9660 C.3   1 <1>  -0.0800 
 16 C       -3.3360     4.3950    -1.6610 C.3   1 <1>  -0.1600 
 17 C       -4.6370     5.3180     0.2760 C.3   1 <1>  -0.1600 
 18 C       -1.5720     3.5560    -0.0810 C.3   1 <1>  -0.1600 
 19 C       -2.8680     4.4730     1.8600 C.3   1 <1>  -0.1600 
 20 C       -2.0150     4.7480    -0.9510 C.3   1 <1>  -0.0800 
 21 C       -3.3220     5.6720     1.0010 C.3   1 <1>  -0.0800 
 22 C       -2.2370     5.9770    -0.0500 C.3   1 <1>  -0.1600 
 23 H       -2.2680    -1.7940    -1.9520 H     1 <1>   0.0800 
 24 H       -4.3350    -0.4840    -2.0270 H     1 <1>   0.0800 
 25 H       -1.4620    -0.4620     0.6050 H     1 <1>   0.0800 
 26 H       -0.7870    -1.8590    -0.1630 H     1 <1>   0.0800 
 27 H       -4.8550    -2.6290    -1.5570 H     1 <1>   0.0800 
 28 H       -5.4600    -1.9220    -0.1060 H     1 <1>   0.0800 
 29 H       -3.1120    -1.6340     1.6670 H     1 <1>   0.0800 
 30 H       -1.9680    -2.9280     1.5110 H     1 <1>   0.0800 
 31 H       -3.3010     1.7330    -1.3720 H     1 <1>   0.3700 
 32 H       -3.1060    -3.6880    -0.5370 H     1 <1>   0.0800 
 33 H       -4.2190    -3.6540     0.7980 H     1 <1>   0.0800 
 34 H       -4.7520     2.7390     1.0370 H     1 <1>   0.0800 
 35 H       -5.3530     3.8290    -1.1110 H     1 <1>   0.0800 
 36 H       -2.3530     2.3960     1.5710 H     1 <1>   0.0800 
 37 H       -3.1800     3.5480    -2.3080 H     1 <1>   0.0800 
 38 H       -3.6490     5.2160    -2.2800 H     1 <1>   0.0800 
 39 H       -5.4090     5.1200     0.9990 H     1 <1>   0.0800 
 40 H       -4.9570     6.1490    -0.3270 H     1 <1>   0.0800 
 41 H       -1.3900     2.6990    -0.7070 H     1 <1>   0.0800 
 42 H       -0.6460     3.7870     0.4120 H     1 <1>   0.0800 
 43 H       -3.6090     4.2590     2.6100 H     1 <1>   0.0800 
 44 H       -1.9490     4.7120     2.3660 H     1 <1>   0.0800 
 45 H       -1.2550     4.9570    -1.6850 H     1 <1>   0.0800 
 46 H       -3.4720     6.5340     1.6290 H     1 <1>   0.0800 
 47 H       -2.5350     6.8180    -0.6510 H     1 <1>   0.0800 
 48 H       -1.3150     6.2350     0.4420 H     1 <1>   0.0800 
@<TRIPOS>BOND
  1   1   2  ar  
  2   2   3  ar  
  3   2   4  1   
  4   4   5  1   
  5   4   6  1   
  6   4  23  1   
  7   5   7  1   
  8   5   8  1   
  9   5  24  1   
 10   6   9  1   
 11   6  25  1   
 12   6  26  1   
 13   7  10  2   
 14   7  11  am  
 15   8  12  1   
 16   8  27  1   
 17   8  28  1   
 18   9  12  1   
 19   9  29  1   
 20   9  30  1   
 21  11  13  1   
 22  11  31  1   
 23  12  32  1   
 24  12  33  1   
 25  13  14  1   
 26  13  15  1   
 27  13  34  1   
 28  14  16  1   
 29  14  17  1   
 30  14  35  1   
 31  15  18  1   
 32  15  19  1   
 33  15  36  1   
 34  16  20  1   
 35  16  37  1   
 36  16  38  1   
 37  17  21  1   
 38  17  39  1   
 39  17  40  1   
 40  18  20  1   
 41  18  41  1   
 42  18  42  1   
 43  19  21  1   
 44  19  43  1   
 45  19  44  1   
 46  20  22  1   
 47  20  45  1   
 48  21  22  1   
 49  21  46  1   
 50  22  47  1   
 51  22  48  1   
@<TRIPOS>SUBSTRUCTURE
  1 ****  11 GROUP 4 **** **** 0

# MOE 2024.06 (io_trps.svl 2023.06)
