@<TRIPOS>MOLECULE
NONAME
50 49 1 0 0 
SMALL
USER_CHARGES


@<TRIPOS>ATOM
  1 O        0.3360     1.3670    -2.0710 O.3   1 <1>  -0.6800 
  2 C        0.1490     1.7130    -0.7490 C.3   1 <1>   0.4180 
  3 C        1.4510     1.3540    -0.0280 C.2   1 <1>  -0.2880 
  4 C       -0.1050     3.2580    -0.7560 C.3   1 <1>  -0.0800 
  5 C       -1.0590     0.8640    -0.2090 C.3   1 <1>  -0.0800 
  6 C        2.5370     0.7170    -0.5050 C.2   1 <1>  -0.2880 
  7 C        1.1010     4.0660    -1.2820 C.3   1 <1>  -0.2400 
  8 C       -0.5280     3.8690     0.5930 C.3   1 <1>  -0.2400 
  9 C       -1.0460     0.6240     1.3180 C.3   1 <1>  -0.2400 
 10 C       -1.2080    -0.5310    -0.8630 C.3   1 <1>  -0.2400 
 11 C        3.8380     0.3730     0.2290 C.3   1 <1>   0.4180 
 12 O        3.7860     1.0360     1.4360 O.3   1 <1>  -0.6800 
 13 C        3.9460    -1.1720     0.5000 C.3   1 <1>  -0.0800 
 14 C        5.0260     0.9710    -0.5990 C.3   1 <1>  -0.0800 
 15 C        2.5790    -1.8790     0.6250 C.3   1 <1>  -0.2400 
 16 C        4.7570    -1.5670     1.7570 C.3   1 <1>  -0.2400 
 17 C        6.4320     0.7100    -0.0300 C.3   1 <1>  -0.2400 
 18 C        4.8930     2.4910    -0.8530 C.3   1 <1>  -0.2400 
 19 H        0.5840     0.4270    -2.0780 H     1 <1>   0.4000 
 20 H        1.4110     1.6890     0.9910 H     1 <1>   0.1500 
 21 H       -0.9210     3.4300    -1.4370 H     1 <1>   0.0800 
 22 H       -1.9560     1.4130    -0.4380 H     1 <1>   0.0800 
 23 H        2.5880     0.3700    -1.5200 H     1 <1>   0.1500 
 24 H        1.9340     3.9920    -0.6060 H     1 <1>   0.0800 
 25 H        0.8400     5.1040    -1.3890 H     1 <1>   0.0800 
 26 H        1.4100     3.7030    -2.2460 H     1 <1>   0.0800 
 27 H        0.2050     3.6720     1.3540 H     1 <1>   0.0800 
 28 H       -0.6370     4.9350     0.4990 H     1 <1>   0.0800 
 29 H       -1.4800     3.4800     0.9040 H     1 <1>   0.0800 
 30 H       -0.2470    -0.0430     1.5910 H     1 <1>   0.0800 
 31 H       -0.9240     1.5340     1.8710 H     1 <1>   0.0800 
 32 H       -1.9730     0.1750     1.6290 H     1 <1>   0.0800 
 33 H       -0.3120    -1.1100    -0.7270 H     1 <1>   0.0800 
 34 H       -1.4170    -0.4440    -1.9150 H     1 <1>   0.0800 
 35 H       -2.0280    -1.0670    -0.4190 H     1 <1>   0.0800 
 36 H        3.5560     1.9580     1.2340 H     1 <1>   0.4000 
 37 H        4.4350    -1.6070    -0.3540 H     1 <1>   0.0800 
 38 H        4.9970     0.4970    -1.5650 H     1 <1>   0.0800 
 39 H        1.9940    -1.4190     1.4020 H     1 <1>   0.0800 
 40 H        2.7100    -2.9190     0.8660 H     1 <1>   0.0800 
 41 H        2.0320    -1.8290    -0.2980 H     1 <1>   0.0800 
 42 H        5.7230    -1.1060     1.7820 H     1 <1>   0.0800 
 43 H        4.8980    -2.6330     1.7930 H     1 <1>   0.0800 
 44 H        4.2310    -1.2670     2.6470 H     1 <1>   0.0800 
 45 H        6.4980     1.0540     0.9880 H     1 <1>   0.0800 
 46 H        6.6660    -0.3380    -0.0660 H     1 <1>   0.0800 
 47 H        7.1780     1.2220    -0.6110 H     1 <1>   0.0800 
 48 H        4.9440     3.0400     0.0710 H     1 <1>   0.0800 
 49 H        3.9660     2.7250    -1.3440 H     1 <1>   0.0800 
 50 H        5.6890     2.8330    -1.4900 H     1 <1>   0.0800 
@<TRIPOS>BOND
  1   1   2  1   
  2   1  19  1   
  3   2   3  1   
  4   2   4  1   
  5   2   5  1   
  6   3   6  2   
  7   3  20  1   
  8   4   7  1   
  9   4   8  1   
 10   4  21  1   
 11   5   9  1   
 12   5  10  1   
 13   5  22  1   
 14   6  11  1   
 15   6  23  1   
 16   7  24  1   
 17   7  25  1   
 18   7  26  1   
 19   8  27  1   
 20   8  28  1   
 21   8  29  1   
 22   9  30  1   
 23   9  31  1   
 24   9  32  1   
 25  10  33  1   
 26  10  34  1   
 27  10  35  1   
 28  11  12  1   
 29  11  13  1   
 30  11  14  1   
 31  12  36  1   
 32  13  15  1   
 33  13  16  1   
 34  13  37  1   
 35  14  17  1   
 36  14  18  1   
 37  14  38  1   
 38  15  39  1   
 39  15  40  1   
 40  15  41  1   
 41  16  42  1   
 42  16  43  1   
 43  16  44  1   
 44  17  45  1   
 45  17  46  1   
 46  17  47  1   
 47  18  48  1   
 48  18  49  1   
 49  18  50  1   
@<TRIPOS>SUBSTRUCTURE
  1 ****   3 GROUP 4 **** **** 0

# MOE 2024.06 (io_trps.svl 2023.06)
