@<TRIPOS>MOLECULE
NONAME
43 46 1 0 0 
SMALL
USER_CHARGES


@<TRIPOS>ATOM
  1 O       -0.5520     0.6840     0.6630 O.3   1 <1>  -0.5600 
  2 C        0.5010     1.5980     0.5570 C.3   1 <1>   0.6240 
  3 C       -1.7410     1.2190     1.1640 C.3   1 <1>   0.1200 
  4 O        0.0950     2.5840    -0.3510 O.3   1 <1>  -0.5600 
  5 C        1.7750     0.9090     0.0580 C.ar  1 <1>  -0.1440 
  6 C       -2.2030     2.3710     0.2560 C.3   1 <1>   0.0000 
  7 C       -1.0110     3.3180     0.0630 C.3   1 <1>   0.1200 
  8 C        1.9850    -0.4510     0.2570 C.ar  1 <1>  -0.1500 
  9 C        2.7620     1.6440    -0.5900 C.ar  1 <1>  -0.1500 
 10 C       -2.6820     1.8110    -1.0950 C.3   1 <1>   0.1200 
 11 C       -3.3780     3.1280     0.8920 C.3   1 <1>   0.1200 
 12 C        3.1490    -1.0600    -0.1790 C.ar  1 <1>  -0.1500 
 13 C        3.9270     1.0380    -1.0270 C.ar  1 <1>  -0.1500 
 14 O       -3.8880     1.1290    -0.9140 O.3   1 <1>  -0.5600 
 15 O       -4.5010     2.3090     0.9010 O.3   1 <1>  -0.5600 
 16 C        4.1220    -0.3160    -0.8210 C.ar  1 <1>  -0.1500 
 17 C       -4.9160     1.9020    -0.3700 C.3   1 <1>   0.6240 
 18 C       -6.1890     1.0700    -0.2460 C.ar  1 <1>  -0.1440 
 19 C       -7.4060     1.5840    -0.6730 C.ar  1 <1>  -0.1500 
 20 C       -6.1510    -0.2060     0.2970 C.ar  1 <1>  -0.1500 
 21 C       -8.5640     0.8330    -0.5610 C.ar  1 <1>  -0.1500 
 22 C       -7.3070    -0.9590     0.4110 C.ar  1 <1>  -0.1500 
 23 C       -8.5150    -0.4390    -0.0190 C.ar  1 <1>  -0.1500 
 24 H        0.6780     2.0480     1.5190 H     1 <1>   0.0800 
 25 H       -1.5650     1.5570     2.1700 H     1 <1>   0.0800 
 26 H       -2.4770     0.4320     1.1860 H     1 <1>   0.0800 
 27 H       -1.2190     4.0540    -0.6940 H     1 <1>   0.0800 
 28 H       -0.7580     3.8220     0.9800 H     1 <1>   0.0800 
 29 H        1.2370    -1.0460     0.7530 H     1 <1>   0.1500 
 30 H        2.6220     2.6970    -0.7600 H     1 <1>   0.1500 
 31 H       -1.9640     1.1170    -1.4980 H     1 <1>   0.0800 
 32 H       -2.8420     2.5980    -1.8130 H     1 <1>   0.0800 
 33 H       -3.6150     4.0210     0.3380 H     1 <1>   0.0800 
 34 H       -3.1590     3.3980     1.9110 H     1 <1>   0.0800 
 35 H        3.2950    -2.1140    -0.0190 H     1 <1>   0.1500 
 36 H        4.6790     1.6200    -1.5290 H     1 <1>   0.1500 
 37 H        5.0270    -0.7890    -1.1610 H     1 <1>   0.1500 
 38 H       -5.0810     2.7650    -0.9910 H     1 <1>   0.0800 
 39 H       -7.4610     2.5720    -1.0950 H     1 <1>   0.1500 
 40 H       -5.2110    -0.6110     0.6310 H     1 <1>   0.1500 
 41 H       -9.5040     1.2380    -0.8940 H     1 <1>   0.1500 
 42 H       -7.2640    -1.9470     0.8330 H     1 <1>   0.1500 
 43 H       -9.4140    -1.0230     0.0690 H     1 <1>   0.1500 
@<TRIPOS>BOND
  1   1   2  1   
  2   1   3  1   
  3   2   4  1   
  4   2   5  1   
  5   2  24  1   
  6   3   6  1   
  7   3  25  1   
  8   3  26  1   
  9   4   7  1   
 10   5   8  ar  
 11   5   9  ar  
 12   6   7  1   
 13   6  10  1   
 14   6  11  1   
 15   7  27  1   
 16   7  28  1   
 17   8  12  ar  
 18   8  29  1   
 19   9  13  ar  
 20   9  30  1   
 21  10  14  1   
 22  10  31  1   
 23  10  32  1   
 24  11  15  1   
 25  11  33  1   
 26  11  34  1   
 27  12  16  ar  
 28  12  35  1   
 29  13  16  ar  
 30  13  36  1   
 31  14  17  1   
 32  15  17  1   
 33  16  37  1   
 34  17  18  1   
 35  17  38  1   
 36  18  19  ar  
 37  18  20  ar  
 38  19  21  ar  
 39  19  39  1   
 40  20  22  ar  
 41  20  40  1   
 42  21  23  ar  
 43  21  41  1   
 44  22  23  ar  
 45  22  42  1   
 46  23  43  1   
@<TRIPOS>SUBSTRUCTURE
  1 ****   6 GROUP 4 **** **** 0

# MOE 2024.06 (io_trps.svl 2023.06)
