@<TRIPOS>MOLECULE
NONAME
59 62 1 0 0 
SMALL
USER_CHARGES


@<TRIPOS>ATOM
  1 O        0.0730     1.1540    -1.9020 O.2   1 <1>  -0.5700 
  2 C        0.4440     2.1090    -1.2610 C.2   1 <1>   0.5690 
  3 N       -0.2960     2.7950    -0.3370 N.am  1 <1>  -0.2370 
  4 C        1.8390     2.7340    -1.4440 C.3   1 <1>   0.2510 
  5 C       -1.6100     2.4590     0.0720 C.ar  1 <1>   0.1170 
  6 C        0.4150     3.8780     0.1030 C.2   1 <1>   0.5690 
  7 N        3.0150     1.8950    -1.0300 N.3   1 <1>  -0.8100 
  8 C        1.7630     3.9860    -0.5620 C.3   1 <1>  -0.0990 
  9 C       -2.6020     3.4320     0.1610 C.ar  1 <1>  -0.1500 
 10 C       -1.9440     1.1470     0.3950 C.ar  1 <1>  -0.1500 
 11 O        0.0610     4.6900     0.9170 O.2   1 <1>  -0.5700 
 12 C        2.9140     0.4900    -1.5280 C.3   1 <1>   0.1100 
 13 C        4.3060     2.4870    -1.4690 C.3   1 <1>   0.1100 
 14 C       -3.8870     3.1100     0.5610 C.ar  1 <1>  -0.1500 
 15 C       -3.2270     0.8200     0.7950 C.ar  1 <1>  -0.1500 
 16 C        4.2030    -0.3390    -1.3130 C.3   1 <1>   0.3430 
 17 C        5.5290     1.6990    -0.9330 C.3   1 <1>   0.3430 
 18 C       -4.2070     1.7940     0.8820 C.ar  1 <1>   0.0830 
 19 N        5.1340     0.3620    -0.3720 N.4   1 <1>  -0.9590 
 20 O       -5.4390     1.3890     1.2840 O.3   1 <1>  -0.3630 
 21 C        6.2770    -0.5110     0.0330 C.3   1 <1>   0.3430 
 22 C       -6.4980     2.3070     1.4250 C.3   1 <1>   0.1200 
 23 C        7.0310     0.0420     1.2460 C.3   1 <1>  -0.0170 
 24 C       -7.7280     1.5390     1.8990 C.3   1 <1>  -0.2400 
 25 C        8.1000    -0.9490     1.6600 C.ar  1 <1>   0.1670 
 26 N        7.7210    -2.2170     1.7000 N.ar  1 <1>  -0.6200 
 27 C        9.3790    -0.5100     1.9680 C.ar  1 <1>  -0.1500 
 28 C        8.6530    -3.0830     2.0690 C.ar  1 <1>   0.1600 
 29 C       10.3400    -1.4240     2.3450 C.ar  1 <1>  -0.1500 
 30 C        9.9550    -2.7450     2.3940 C.ar  1 <1>  -0.1500 
 31 H        1.9380     3.0120    -2.4800 H     1 <1>   0.0800 
 32 H        1.7910     4.8810    -1.1550 H     1 <1>   0.0800 
 33 H        2.5250     4.0150     0.1940 H     1 <1>   0.0800 
 34 H       -2.3690     4.4540    -0.0790 H     1 <1>   0.1500 
 35 H       -1.2020     0.3730     0.3320 H     1 <1>   0.1500 
 36 H        2.6660     0.4830    -2.5770 H     1 <1>   0.0800 
 37 H        2.1140    -0.0100    -1.0090 H     1 <1>   0.0800 
 38 H        4.3870     3.5060    -1.1310 H     1 <1>   0.0800 
 39 H        4.3470     2.5040    -2.5450 H     1 <1>   0.0800 
 40 H       -4.6190     3.8930     0.6180 H     1 <1>   0.1500 
 41 H       -3.4790    -0.1960     1.0420 H     1 <1>   0.1500 
 42 H        4.6900    -0.4900    -2.2620 H     1 <1>   0.0800 
 43 H        3.9360    -1.3090    -0.9240 H     1 <1>   0.0800 
 44 H        6.0060     2.2840    -0.1640 H     1 <1>   0.0800 
 45 H        6.2410     1.5710    -1.7320 H     1 <1>   0.0800 
 46 H        4.5450     0.5740     0.4480 H     1 <1>   0.4500 
 47 H        6.9620    -0.6340    -0.7890 H     1 <1>   0.0800 
 48 H        5.9010    -1.4890     0.2920 H     1 <1>   0.0800 
 49 H       -6.6810     2.7660     0.4690 H     1 <1>   0.0800 
 50 H       -6.2110     3.0500     2.1490 H     1 <1>   0.0800 
 51 H        6.3530     0.1640     2.0710 H     1 <1>   0.0800 
 52 H        7.4830     0.9870     1.0120 H     1 <1>   0.0800 
 53 H       -7.9950     0.7890     1.1760 H     1 <1>   0.0800 
 54 H       -8.5560     2.2140     2.0160 H     1 <1>   0.0800 
 55 H       -7.5280     1.0710     2.8460 H     1 <1>   0.0800 
 56 H        9.6330     0.5340     1.9230 H     1 <1>   0.1500 
 57 H        8.3660    -4.1210     2.1150 H     1 <1>   0.1500 
 58 H       11.3440    -1.1210     2.5930 H     1 <1>   0.1500 
 59 H       10.6550    -3.5080     2.6840 H     1 <1>   0.1500 
@<TRIPOS>BOND
  1   1   2  2   
  2   2   3  am  
  3   2   4  1   
  4   3   5  1   
  5   3   6  am  
  6   4   7  1   
  7   4   8  1   
  8   4  31  1   
  9   5   9  ar  
 10   5  10  ar  
 11   6   8  1   
 12   6  11  2   
 13   7  12  1   
 14   7  13  1   
 15   8  32  1   
 16   8  33  1   
 17   9  14  ar  
 18   9  34  1   
 19  10  15  ar  
 20  10  35  1   
 21  12  16  1   
 22  12  36  1   
 23  12  37  1   
 24  13  17  1   
 25  13  38  1   
 26  13  39  1   
 27  14  18  ar  
 28  14  40  1   
 29  15  18  ar  
 30  15  41  1   
 31  16  19  1   
 32  16  42  1   
 33  16  43  1   
 34  17  19  1   
 35  17  44  1   
 36  17  45  1   
 37  18  20  1   
 38  19  21  1   
 39  19  46  1   
 40  20  22  1   
 41  21  23  1   
 42  21  47  1   
 43  21  48  1   
 44  22  24  1   
 45  22  49  1   
 46  22  50  1   
 47  23  25  1   
 48  23  51  1   
 49  23  52  1   
 50  24  53  1   
 51  24  54  1   
 52  24  55  1   
 53  25  26  ar  
 54  25  27  ar  
 55  26  28  ar  
 56  27  29  ar  
 57  27  56  1   
 58  28  30  ar  
 59  28  57  1   
 60  29  30  ar  
 61  29  58  1   
 62  30  59  1   
@<TRIPOS>SUBSTRUCTURE
  1 ****   7 GROUP 4 **** **** 0

# MOE 2024.06 (io_trps.svl 2023.06)
