@<TRIPOS>MOLECULE
NONAME
48 48 1 0 0 
SMALL
USER_CHARGES


@<TRIPOS>ATOM
  1 N       -0.0960    -0.0140     0.0810 N.4   1 <1>  -0.9590 
  2 C        1.1890     0.6720     0.4690 C.3   1 <1>   0.4230 
  3 C       -1.3410     0.7670     0.4550 C.3   1 <1>   0.3430 
  4 C       -0.1180    -1.4010     0.6420 C.3   1 <1>   0.3430 
  5 C        1.1670     2.1740     0.1250 C.3   1 <1>  -0.1600 
  6 C        2.3610    -0.0050    -0.2660 C.3   1 <1>  -0.1600 
  7 C       -2.6850     0.1520    -0.0370 C.3   1 <1>   0.3430 
  8 C       -0.3960    -2.3800    -0.4900 C.3   1 <1>  -0.2400 
  9 C        2.5120     2.8500     0.4320 C.3   1 <1>  -0.1600 
 10 C        3.7050     0.6690     0.0440 C.3   1 <1>  -0.1600 
 11 N       -3.9140     0.9570     0.3190 N.4   1 <1>  -0.9590 
 12 C        3.6810     2.1690    -0.2940 C.3   1 <1>  -0.0800 
 13 C       -5.1570     0.1910    -0.0370 C.3   1 <1>   0.2630 
 14 C       -3.9670     2.3010    -0.3530 C.3   1 <1>   0.2630 
 15 C        5.0010     2.8690     0.0820 C.3   1 <1>  -0.1600 
 16 C        6.2080     2.3670    -0.7220 C.3   1 <1>  -0.2400 
 17 H       -0.0300    -0.1040    -0.9430 H     1 <1>   0.4500 
 18 H        1.3460     0.5740     1.5320 H     1 <1>   0.0800 
 19 H       -1.2690     1.7540     0.0320 H     1 <1>   0.0800 
 20 H       -1.3770     0.8650     1.5270 H     1 <1>   0.0800 
 21 H       -0.8700    -1.4920     1.4090 H     1 <1>   0.0800 
 22 H        0.8320    -1.6440     1.0920 H     1 <1>   0.0800 
 23 H        0.4280     2.6900     0.7080 H     1 <1>   0.0800 
 24 H        0.9510     2.3090    -0.9210 H     1 <1>   0.0800 
 25 H        2.2000     0.0430    -1.3290 H     1 <1>   0.0800 
 26 H        2.4530    -1.0380     0.0150 H     1 <1>   0.0800 
 27 H       -2.7850    -0.8310     0.3940 H     1 <1>   0.0800 
 28 H       -2.6430     0.0410    -1.1080 H     1 <1>   0.0800 
 29 H       -1.3490    -2.2040    -0.9530 H     1 <1>   0.0800 
 30 H       -0.4030    -3.3810    -0.0940 H     1 <1>   0.0800 
 31 H        0.3810    -2.3340    -1.2340 H     1 <1>   0.0800 
 32 H        2.6910     2.8280     1.4940 H     1 <1>   0.0800 
 33 H        2.4640     3.8850     0.1350 H     1 <1>   0.0800 
 34 H        4.4730     0.1790    -0.5300 H     1 <1>   0.0800 
 35 H        3.9460     0.5380     1.0860 H     1 <1>   0.0800 
 36 H       -3.9550     1.1110     1.3430 H     1 <1>   0.4500 
 37 H        3.5340     2.2820    -1.3560 H     1 <1>   0.0800 
 38 H       -5.2000     0.0100    -1.0990 H     1 <1>   0.0800 
 39 H       -6.0350     0.7490     0.2480 H     1 <1>   0.0800 
 40 H       -5.1790    -0.7570     0.4760 H     1 <1>   0.0800 
 41 H       -3.9580     2.1890    -1.4250 H     1 <1>   0.0800 
 42 H       -3.1290     2.9120    -0.0600 H     1 <1>   0.0800 
 43 H       -4.8730     2.8200    -0.0760 H     1 <1>   0.0800 
 44 H        5.2000     2.7430     1.1320 H     1 <1>   0.0800 
 45 H        4.8990     3.9250    -0.1020 H     1 <1>   0.0800 
 46 H        6.4420     1.3470    -0.4770 H     1 <1>   0.0800 
 47 H        7.0700     2.9690    -0.4930 H     1 <1>   0.0800 
 48 H        6.0170     2.4400    -1.7780 H     1 <1>   0.0800 
@<TRIPOS>BOND
  1   1   2  1   
  2   1   3  1   
  3   1   4  1   
  4   1  17  1   
  5   2   5  1   
  6   2   6  1   
  7   2  18  1   
  8   3   7  1   
  9   3  19  1   
 10   3  20  1   
 11   4   8  1   
 12   4  21  1   
 13   4  22  1   
 14   5   9  1   
 15   5  23  1   
 16   5  24  1   
 17   6  10  1   
 18   6  25  1   
 19   6  26  1   
 20   7  11  1   
 21   7  27  1   
 22   7  28  1   
 23   8  29  1   
 24   8  30  1   
 25   8  31  1   
 26   9  12  1   
 27   9  32  1   
 28   9  33  1   
 29  10  12  1   
 30  10  34  1   
 31  10  35  1   
 32  11  13  1   
 33  11  14  1   
 34  11  36  1   
 35  12  15  1   
 36  12  37  1   
 37  13  38  1   
 38  13  39  1   
 39  13  40  1   
 40  14  41  1   
 41  14  42  1   
 42  14  43  1   
 43  15  16  1   
 44  15  44  1   
 45  15  45  1   
 46  16  46  1   
 47  16  47  1   
 48  16  48  1   
@<TRIPOS>SUBSTRUCTURE
  1 ****   2 GROUP 4 **** **** 0

# MOE 2024.06 (io_trps.svl 2023.06)
