@<TRIPOS>MOLECULE
NONAME
50 53 1 0 0 
SMALL
USER_CHARGES


@<TRIPOS>ATOM
  1 O       -0.2110     0.1680     0.2100 O.2   1 <1>  -0.5700 
  2 C       -0.2940    -1.0030    -0.1020 C.2   1 <1>   0.6900 
  3 N       -1.5030    -1.5870    -0.3490 N.am  1 <1>  -0.5470 
  4 N        0.8140    -1.7930    -0.2210 N.am  1 <1>  -0.5470 
  5 C       -2.7790    -1.0060    -0.4480 C.ar  1 <1>   0.1170 
  6 C        2.1460    -1.5560     0.1480 C.ar  1 <1>   0.1170 
  7 C       -3.8860    -1.7370    -0.0640 C.ar  1 <1>  -0.1500 
  8 C       -2.9590     0.2980    -0.9450 C.ar  1 <1>  -0.1500 
  9 C        2.5000    -0.6680     1.1600 C.ar  1 <1>  -0.1500 
 10 C        3.1580    -2.2500    -0.5050 C.ar  1 <1>  -0.1500 
 11 C       -5.1550    -1.1760    -0.1660 C.ar  1 <1>   0.2270 
 12 C       -4.2100     0.8620    -1.0490 C.ar  1 <1>  -0.1500 
 13 C        3.8260    -0.4770     1.5050 C.ar  1 <1>  -0.1500 
 14 C        4.4860    -2.0640    -0.1620 C.ar  1 <1>  -0.1500 
 15 N       -6.3620    -1.7150     0.1570 N.2   1 <1>  -0.5650 
 16 C       -5.3150     0.1070    -0.6500 C.ar  1 <1>  -0.1520 
 17 C        4.8220    -1.1750     0.8450 C.ar  1 <1>  -0.1500 
 18 C       -7.2160    -0.7830    -0.1210 C.2   1 <1>   0.0060 
 19 N       -6.6520     0.3580    -0.6150 N.pl3 1 <1>   0.0480 
 20 C       -8.7150    -0.9460     0.1000 C.3   1 <1>   0.5230 
 21 C       -7.2660     1.6380    -1.0240 C.3   1 <1>   0.0160 
 22 N       -8.9790    -2.3880     0.3370 N.4   1 <1>  -0.9590 
 23 C       -9.0830    -3.1930    -0.8980 C.3   1 <1>   0.3430 
 24 C      -10.1390    -2.7190     1.1900 C.3   1 <1>   0.3430 
 25 C       -9.6850    -4.5060    -0.4220 C.3   1 <1>  -0.1600 
 26 C      -10.4360    -4.1810     0.8750 C.3   1 <1>  -0.1600 
 27 H       -1.4990    -2.5990    -0.2770 H     1 <1>   0.3700 
 28 H        0.6730    -2.6250    -0.7840 H     1 <1>   0.3700 
 29 H       -3.7960    -2.7340     0.3210 H     1 <1>   0.1500 
 30 H       -2.0960     0.8630    -1.2480 H     1 <1>   0.1500 
 31 H        1.7380    -0.1220     1.6850 H     1 <1>   0.1500 
 32 H        2.9120    -2.9410    -1.2900 H     1 <1>   0.1500 
 33 H       -4.3320     1.8610    -1.4260 H     1 <1>   0.1500 
 34 H        4.0810     0.2150     2.2880 H     1 <1>   0.1500 
 35 H        5.2590    -2.6060    -0.6770 H     1 <1>   0.1500 
 36 H        5.8530    -1.0270     1.1130 H     1 <1>   0.1500 
 37 H       -9.2680    -0.5980    -0.7560 H     1 <1>   0.0800 
 38 H       -9.0020    -0.3720     0.9650 H     1 <1>   0.0800 
 39 H       -6.8230     2.4380    -0.4570 H     1 <1>   0.0800 
 40 H       -8.3250     1.6270    -0.8510 H     1 <1>   0.0800 
 41 H       -7.0760     1.8030    -2.0700 H     1 <1>   0.0800 
 42 H       -8.1050    -2.7070     0.7940 H     1 <1>   0.4500 
 43 H       -8.1180    -3.3350    -1.3600 H     1 <1>   0.0800 
 44 H       -9.7540    -2.7170    -1.5950 H     1 <1>   0.0800 
 45 H      -10.9860    -2.1120     0.9120 H     1 <1>   0.0800 
 46 H       -9.9170    -2.5740     2.2350 H     1 <1>   0.0800 
 47 H       -8.8940    -5.2100    -0.2270 H     1 <1>   0.0800 
 48 H      -10.3350    -4.9230    -1.1720 H     1 <1>   0.0800 
 49 H      -11.4970    -4.3250     0.7630 H     1 <1>   0.0800 
 50 H      -10.0910    -4.8090     1.6780 H     1 <1>   0.0800 
@<TRIPOS>BOND
  1   1   2  2   
  2   2   3  am  
  3   2   4  am  
  4   3   5  1   
  5   3  27  1   
  6   4   6  1   
  7   4  28  1   
  8   5   7  ar  
  9   5   8  ar  
 10   6   9  ar  
 11   6  10  ar  
 12   7  11  ar  
 13   7  29  1   
 14   8  12  ar  
 15   8  30  1   
 16   9  13  ar  
 17   9  31  1   
 18  10  14  ar  
 19  10  32  1   
 20  11  15  1   
 21  11  16  ar  
 22  12  16  ar  
 23  12  33  1   
 24  13  17  ar  
 25  13  34  1   
 26  14  17  ar  
 27  14  35  1   
 28  15  18  2   
 29  16  19  1   
 30  17  36  1   
 31  18  19  1   
 32  18  20  1   
 33  19  21  1   
 34  20  22  1   
 35  20  37  1   
 36  20  38  1   
 37  21  39  1   
 38  21  40  1   
 39  21  41  1   
 40  22  23  1   
 41  22  24  1   
 42  22  42  1   
 43  23  25  1   
 44  23  43  1   
 45  23  44  1   
 46  24  26  1   
 47  24  45  1   
 48  24  46  1   
 49  25  26  1   
 50  25  47  1   
 51  25  48  1   
 52  26  49  1   
 53  26  50  1   
@<TRIPOS>SUBSTRUCTURE
  1 ****   7 GROUP 4 **** **** 0

# MOE 2024.06 (io_trps.svl 2023.06)
