@<TRIPOS>MOLECULE
NONAME
47 49 1 0 0 
SMALL
USER_CHARGES


@<TRIPOS>ATOM
  1 O       -0.4560     0.5850     0.7840 O.2   1 <1>  -0.5700 
  2 C       -0.2900     1.5600     0.0730 C.2   1 <1>   0.5440 
  3 N       -1.3900     2.1360    -0.5290 N.am  1 <1>  -0.6600 
  4 C        1.0500     2.0840    -0.1070 C.ar  1 <1>   0.0860 
  5 C       -2.7300     1.4640    -0.5350 C.3   1 <1>   0.1400 
  6 C       -1.4430     3.5650    -0.9790 C.3   1 <1>   0.1400 
  7 C        1.8910     2.2910     0.9870 C.ar  1 <1>  -0.1500 
  8 C        1.5540     2.3920    -1.3720 C.ar  1 <1>  -0.1500 
  9 C       -3.7720     2.2810     0.2460 C.3   1 <1>   0.2090 
 10 C       -2.5160     4.3630    -0.2150 C.3   1 <1>   0.2090 
 11 C        3.1690     2.7980     0.8350 C.ar  1 <1>  -0.1500 
 12 C        2.8300     2.9000    -1.5330 C.ar  1 <1>  -0.1500 
 13 N       -3.8450     3.6800    -0.2670 N.pl3 1 <1>  -0.8380 
 14 C        3.6470     3.1110    -0.4340 C.ar  1 <1>   0.0830 
 15 C       -4.9670     4.4120     0.0740 C.ar  1 <1>   0.4100 
 16 O        4.8790     3.6110    -0.6750 O.3   1 <1>  -0.3630 
 17 N       -4.8130     5.3960     0.9520 N.ar  1 <1>  -0.6200 
 18 C       -6.1950     4.0890    -0.5010 C.ar  1 <1>  -0.1500 
 19 C        5.8150     3.8090     0.3600 C.3   1 <1>   0.1200 
 20 C       -5.9080     6.0670     1.2670 C.ar  1 <1>   0.1600 
 21 C       -7.3260     4.7950    -0.1650 C.ar  1 <1>  -0.1500 
 22 C        7.1030     4.3540    -0.2580 C.3   1 <1>  -0.1600 
 23 C       -7.1670     5.8160     0.7500 C.ar  1 <1>  -0.1500 
 24 C        8.1760     4.5970     0.8090 C.3   1 <1>  -0.2400 
 25 H       -2.6630     0.4780    -0.1090 H     1 <1>   0.0800 
 26 H       -3.0620     1.3570    -1.5520 H     1 <1>   0.0800 
 27 H       -1.6720     3.5940    -2.0290 H     1 <1>   0.0800 
 28 H       -0.4940     4.0470    -0.8310 H     1 <1>   0.0800 
 29 H        1.5250     2.0430     1.9690 H     1 <1>   0.1500 
 30 H        0.9350     2.2230    -2.2350 H     1 <1>   0.1500 
 31 H       -3.5010     2.2970     1.2880 H     1 <1>   0.0800 
 32 H       -4.7340     1.8080     0.1590 H     1 <1>   0.0800 
 33 H       -2.6040     5.3460    -0.6430 H     1 <1>   0.0800 
 34 H       -2.2150     4.4750     0.8120 H     1 <1>   0.0800 
 35 H        3.7750     2.9410     1.7090 H     1 <1>   0.1500 
 36 H        3.2060     3.1350    -2.5130 H     1 <1>   0.1500 
 37 H       -6.2360     3.2870    -1.2120 H     1 <1>   0.1500 
 38 H        5.9950     2.8630     0.8410 H     1 <1>   0.0800 
 39 H        5.4030     4.5140     1.0610 H     1 <1>   0.0800 
 40 H       -5.7960     6.8660     1.9790 H     1 <1>   0.1500 
 41 H       -8.2860     4.5670    -0.5950 H     1 <1>   0.1500 
 42 H        6.8890     5.2800    -0.7630 H     1 <1>   0.0800 
 43 H        7.4740     3.6470    -0.9800 H     1 <1>   0.0800 
 44 H       -8.0080     6.4090     1.0590 H     1 <1>   0.1500 
 45 H        7.8320     5.3150     1.5330 H     1 <1>   0.0800 
 46 H        9.0710     4.9790     0.3490 H     1 <1>   0.0800 
 47 H        8.4190     3.6790     1.3160 H     1 <1>   0.0800 
@<TRIPOS>BOND
  1   1   2  2   
  2   2   3  am  
  3   2   4  1   
  4   3   5  1   
  5   3   6  1   
  6   4   7  ar  
  7   4   8  ar  
  8   5   9  1   
  9   5  25  1   
 10   5  26  1   
 11   6  10  1   
 12   6  27  1   
 13   6  28  1   
 14   7  11  ar  
 15   7  29  1   
 16   8  12  ar  
 17   8  30  1   
 18   9  13  1   
 19   9  31  1   
 20   9  32  1   
 21  10  13  1   
 22  10  33  1   
 23  10  34  1   
 24  11  14  ar  
 25  11  35  1   
 26  12  14  ar  
 27  12  36  1   
 28  13  15  1   
 29  14  16  1   
 30  15  17  ar  
 31  15  18  ar  
 32  16  19  1   
 33  17  20  ar  
 34  18  21  ar  
 35  18  37  1   
 36  19  22  1   
 37  19  38  1   
 38  19  39  1   
 39  20  23  ar  
 40  20  40  1   
 41  21  23  ar  
 42  21  41  1   
 43  22  24  1   
 44  22  42  1   
 45  22  43  1   
 46  23  44  1   
 47  24  45  1   
 48  24  46  1   
 49  24  47  1   
@<TRIPOS>SUBSTRUCTURE
  1 ****   6 GROUP 4 **** **** 0

# MOE 2024.06 (io_trps.svl 2023.06)
