@<TRIPOS>MOLECULE
NONAME
48 50 1 0 0 
SMALL
USER_CHARGES


@<TRIPOS>ATOM
  1 BR       1.0620    -0.6870    -2.7570 Br    1 <1>  -0.1110 
  2 C        0.1750    -2.0160    -1.6730 C.ar  1 <1>   0.1110 
  3 C        0.8220    -2.5490    -0.5660 C.ar  1 <1>   0.0820 
  4 C       -1.0980    -2.3970    -2.0450 C.ar  1 <1>  -0.1500 
  5 O        2.0760    -2.1100    -0.2810 O.3   1 <1>  -0.3630 
  6 C        0.1460    -3.5020     0.1910 C.ar  1 <1>  -0.1500 
  7 C       -1.7650    -3.3460    -1.2850 C.ar  1 <1>  -0.1430 
  8 C        2.8430    -2.6620     0.7670 C.3   1 <1>   0.0400 
  9 C       -1.1430    -3.8990    -0.1660 C.ar  1 <1>   0.0820 
 10 C       -3.1650    -3.7790    -1.6780 C.3   1 <1>   0.4870 
 11 O       -1.8530    -4.8180     0.5450 O.3   1 <1>  -0.3630 
 12 N       -4.0910    -3.4440    -0.5680 N.4   1 <1>  -0.9590 
 13 C       -1.2290    -5.6260     1.5260 C.3   1 <1>   0.0400 
 14 C       -5.4470    -4.0740    -0.7350 C.3   1 <1>   0.3430 
 15 C       -4.1930    -1.9580    -0.3290 C.3   1 <1>   0.3430 
 16 C       -6.3950    -3.7670     0.4460 C.3   1 <1>   0.2090 
 17 C       -5.1050    -1.6140     0.8670 C.3   1 <1>   0.2090 
 18 N       -6.4250    -2.3060     0.7630 N.pl3 1 <1>  -0.8380 
 19 C       -7.5660    -1.5420     0.5230 C.ar  1 <1>   0.1000 
 20 C       -8.0090    -0.6550     1.5010 C.ar  1 <1>  -0.1500 
 21 C       -8.2730    -1.6390    -0.6750 C.ar  1 <1>  -0.1500 
 22 C       -9.1320     0.1280     1.2950 C.ar  1 <1>  -0.1500 
 23 C       -9.3990    -0.8640    -0.8960 C.ar  1 <1>  -0.1500 
 24 C       -9.8060     0.0070     0.0960 C.ar  1 <1>   0.1900 
 25 F      -10.8690     0.7440    -0.1090 F     1 <1>  -0.1900 
 26 H       -1.5390    -1.9490    -2.9200 H     1 <1>   0.1500 
 27 H        0.6230    -3.9230     1.0530 H     1 <1>   0.1500 
 28 H        3.8030    -2.1780     0.7660 H     1 <1>   0.0800 
 29 H        2.9690    -3.7160     0.5920 H     1 <1>   0.0800 
 30 H        2.3450    -2.4790     1.7020 H     1 <1>   0.0800 
 31 H       -3.1640    -4.8430    -1.8480 H     1 <1>   0.0800 
 32 H       -3.4710    -3.2840    -2.5850 H     1 <1>   0.0800 
 33 H       -3.6400    -3.8570     0.2660 H     1 <1>   0.4500 
 34 H       -0.9150    -5.0060     2.3470 H     1 <1>   0.0800 
 35 H       -0.3870    -6.1300     1.0830 H     1 <1>   0.0800 
 36 H       -1.9430    -6.3510     1.8730 H     1 <1>   0.0800 
 37 H       -5.3470    -5.1430    -0.8310 H     1 <1>   0.0800 
 38 H       -5.9060    -3.7030    -1.6360 H     1 <1>   0.0800 
 39 H       -4.5960    -1.4790    -1.2050 H     1 <1>   0.0800 
 40 H       -3.2130    -1.5470    -0.1480 H     1 <1>   0.0800 
 41 H       -6.0680    -4.3050     1.3180 H     1 <1>   0.0800 
 42 H       -7.3890    -4.1090     0.2120 H     1 <1>   0.0800 
 43 H       -5.2550    -0.5480     0.9000 H     1 <1>   0.0800 
 44 H       -4.6250    -1.9040     1.7850 H     1 <1>   0.0800 
 45 H       -7.4720    -0.5870     2.4300 H     1 <1>   0.1500 
 46 H       -7.9450    -2.3140    -1.4400 H     1 <1>   0.1500 
 47 H       -9.4820     0.8150     2.0440 H     1 <1>   0.1500 
 48 H       -9.9540    -0.9270    -1.8140 H     1 <1>   0.1500 
@<TRIPOS>BOND
  1   1   2  1   
  2   2   3  ar  
  3   2   4  ar  
  4   3   5  1   
  5   3   6  ar  
  6   4   7  ar  
  7   4  26  1   
  8   5   8  1   
  9   6   9  ar  
 10   6  27  1   
 11   7   9  ar  
 12   7  10  1   
 13   8  28  1   
 14   8  29  1   
 15   8  30  1   
 16   9  11  1   
 17  10  12  1   
 18  10  31  1   
 19  10  32  1   
 20  11  13  1   
 21  12  14  1   
 22  12  15  1   
 23  12  33  1   
 24  13  34  1   
 25  13  35  1   
 26  13  36  1   
 27  14  16  1   
 28  14  37  1   
 29  14  38  1   
 30  15  17  1   
 31  15  39  1   
 32  15  40  1   
 33  16  18  1   
 34  16  41  1   
 35  16  42  1   
 36  17  18  1   
 37  17  43  1   
 38  17  44  1   
 39  18  19  1   
 40  19  20  ar  
 41  19  21  ar  
 42  20  22  ar  
 43  20  45  1   
 44  21  23  ar  
 45  21  46  1   
 46  22  24  ar  
 47  22  47  1   
 48  23  24  ar  
 49  23  48  1   
 50  24  25  1   
@<TRIPOS>SUBSTRUCTURE
  1 ****  15 GROUP 4 **** **** 0

# MOE 2024.06 (io_trps.svl 2023.06)
