@<TRIPOS>MOLECULE
NONAME
42 43 1 0 0 
SMALL
USER_CHARGES


@<TRIPOS>ATOM
  1 S        0.2970    -0.0080    -0.2620 S.o2  1 <1>   1.3330 
  2 O        0.4600    -0.5300    -1.5990 O.2   1 <1>  -0.6500 
  3 O        0.1280    -0.9110     0.8520 O.2   1 <1>  -0.6500 
  4 N        1.7090     0.8800     0.0590 N.am  1 <1>  -0.8490 
  5 C       -1.0130     1.2250    -0.2210 C.3   1 <1>  -0.0550 
  6 C        2.7490    -0.0010     0.6440 C.3   1 <1>   0.1960 
  7 C        2.2440     1.5590    -1.1450 C.3   1 <1>   0.1960 
  8 C       -2.4200     0.6600    -0.4810 C.3   1 <1>  -0.2400 
  9 C        4.1130     0.7060     0.8530 C.3   1 <1>   0.3430 
 10 C        3.4950     2.4180    -0.8350 C.3   1 <1>   0.3430 
 11 N        4.0260     2.1730     0.5540 N.4   1 <1>  -0.9590 
 12 C        5.2730     2.9280     0.8510 C.3   1 <1>   0.4860 
 13 C        4.9990     4.4020     0.6390 C.ar  1 <1>  -0.1440 
 14 C        5.4960     5.0470    -0.4850 C.ar  1 <1>  -0.1500 
 15 C        4.2410     5.1140     1.5570 C.ar  1 <1>  -0.1500 
 16 C        5.2260     6.3880    -0.7030 C.ar  1 <1>  -0.1440 
 17 C        3.9720     6.4530     1.3430 C.ar  1 <1>  -0.1500 
 18 C        4.4620     7.0870     0.2160 C.ar  1 <1>  -0.1500 
 19 C        5.7690     7.1000    -1.9290 C.3   1 <1>  -0.0970 
 20 H       -0.8120     1.9790    -0.9570 H     1 <1>   0.0800 
 21 H       -1.0110     1.6990     0.7410 H     1 <1>   0.0800 
 22 H        2.8940    -0.8650     0.0150 H     1 <1>   0.0800 
 23 H        2.4090    -0.3630     1.6010 H     1 <1>   0.0800 
 24 H        1.4870     2.1910    -1.5780 H     1 <1>   0.0800 
 25 H        2.5090     0.8260    -1.8910 H     1 <1>   0.0800 
 26 H       -2.4630     0.1980    -1.4530 H     1 <1>   0.0800 
 27 H       -3.1530     1.4470    -0.4400 H     1 <1>   0.0800 
 28 H       -2.6660    -0.0800     0.2610 H     1 <1>   0.0800 
 29 H        4.8440     0.2440     0.2100 H     1 <1>   0.0800 
 30 H        4.4310     0.5510     1.8710 H     1 <1>   0.0800 
 31 H        3.2340     3.4590    -0.9400 H     1 <1>   0.0800 
 32 H        4.2560     2.2030    -1.5670 H     1 <1>   0.0800 
 33 H        3.2870     2.5400     1.1710 H     1 <1>   0.4500 
 34 H        6.0700     2.6060     0.2010 H     1 <1>   0.0800 
 35 H        5.5750     2.7640     1.8730 H     1 <1>   0.0800 
 36 H        6.1000     4.5160    -1.2010 H     1 <1>   0.1500 
 37 H        3.8540     4.6450     2.4460 H     1 <1>   0.1500 
 38 H        3.3850     7.0090     2.0550 H     1 <1>   0.1500 
 39 H        4.2500     8.1310     0.0600 H     1 <1>   0.1500 
 40 H        5.9940     6.4000    -2.7140 H     1 <1>   0.0800 
 41 H        6.6680     7.6320    -1.6720 H     1 <1>   0.0800 
 42 H        5.0470     7.8050    -2.3020 H     1 <1>   0.0800 
@<TRIPOS>BOND
  1   1   2  2   
  2   1   3  2   
  3   1   4  am  
  4   1   5  1   
  5   4   6  1   
  6   4   7  1   
  7   5   8  1   
  8   5  20  1   
  9   5  21  1   
 10   6   9  1   
 11   6  22  1   
 12   6  23  1   
 13   7  10  1   
 14   7  24  1   
 15   7  25  1   
 16   8  26  1   
 17   8  27  1   
 18   8  28  1   
 19   9  11  1   
 20   9  29  1   
 21   9  30  1   
 22  10  11  1   
 23  10  31  1   
 24  10  32  1   
 25  11  12  1   
 26  11  33  1   
 27  12  13  1   
 28  12  34  1   
 29  12  35  1   
 30  13  14  ar  
 31  13  15  ar  
 32  14  16  ar  
 33  14  36  1   
 34  15  17  ar  
 35  15  37  1   
 36  16  18  ar  
 37  16  19  1   
 38  17  18  ar  
 39  17  38  1   
 40  18  39  1   
 41  19  40  1   
 42  19  41  1   
 43  19  42  1   
@<TRIPOS>SUBSTRUCTURE
  1 ****  10 GROUP 4 **** **** 0

# MOE 2024.06 (io_trps.svl 2023.06)
