@<TRIPOS>MOLECULE
NONAME
54 57 1 0 0 
SMALL
USER_CHARGES


@<TRIPOS>ATOM
  1 S       -0.1270    -0.3350    -0.3500 S.3   1 <1>  -0.0800 
  2 C        0.8240     1.1500    -0.2150 C.ar  1 <1>   0.2970 
  3 C       -1.6160     0.5180     0.0850 C.2   1 <1>  -0.0450 
  4 N        2.1260     1.1720    -0.4420 N.ar  1 <1>  -0.5670 
  5 C        0.0030     2.2110     0.1460 C.ar  1 <1>   0.0000 
  6 C       -2.9100    -0.0270     0.2000 C.2   1 <1>   0.7150 
  7 C       -1.3710     1.8270     0.3090 C.2   1 <1>   0.1250 
  8 C        2.6650     2.3720    -0.2940 C.ar  1 <1>   0.1660 
  9 C        0.6010     3.4510     0.2920 C.ar  1 <1>  -0.1500 
 10 O       -3.1530    -1.2120     0.0030 O.2   1 <1>  -0.5700 
 11 N       -3.9100     0.8630     0.5510 N.am  1 <1>  -0.4200 
 12 N       -2.3870     2.6750     0.6590 N.2   1 <1>  -0.5750 
 13 C        1.9610     3.5240     0.0650 C.ar  1 <1>  -0.1430 
 14 C        4.1590     2.4610    -0.5250 C.3   1 <1>  -0.0170 
 15 C       -3.5840     2.2010     0.7680 C.2   1 <1>   0.4490 
 16 C       -5.3030     0.3330     0.6670 C.3   1 <1>   0.1400 
 17 C        2.6700     4.8670     0.1910 C.3   1 <1>   0.2640 
 18 C        4.6230     3.8990    -0.8020 C.3   1 <1>   0.2800 
 19 C       -4.7060     3.1700     1.1650 C.3   1 <1>  -0.0990 
 20 C       -5.9960     0.3580    -0.7010 C.3   1 <1>  -0.1600 
 21 O        4.0640     4.7400     0.1590 O.3   1 <1>  -0.5600 
 22 C        6.1370     4.0170    -0.6210 C.3   1 <1>  -0.2400 
 23 C        4.2450     4.3840    -2.2110 C.3   1 <1>  -0.2400 
 24 C       -4.3000     4.6540     1.2570 C.3   1 <1>  -0.1600 
 25 C       -7.4500    -0.1190    -0.5940 C.3   1 <1>  -0.1600 
 26 C       -5.4930     5.5370     1.6390 C.3   1 <1>  -0.2400 
 27 C       -8.1370    -0.0940    -1.9610 C.3   1 <1>  -0.2400 
 28 H        0.0080     4.3050     0.5700 H     1 <1>   0.1500 
 29 H        4.4350     1.8300    -1.3500 H     1 <1>   0.0800 
 30 H        4.6530     2.0830     0.3510 H     1 <1>   0.0800 
 31 H       -5.8700     0.9040     1.3790 H     1 <1>   0.0800 
 32 H       -5.2760    -0.6790     1.0350 H     1 <1>   0.0800 
 33 H        2.4150     5.3320     1.1260 H     1 <1>   0.0800 
 34 H        2.3730     5.5230    -0.6080 H     1 <1>   0.0800 
 35 H       -5.0870     2.8680     2.1230 H     1 <1>   0.0800 
 36 H       -5.5000     3.0920     0.4450 H     1 <1>   0.0800 
 37 H       -5.4630    -0.2890    -1.3770 H     1 <1>   0.0800 
 38 H       -5.9800     1.3560    -1.1020 H     1 <1>   0.0800 
 39 H        6.4160     3.7360     0.3790 H     1 <1>   0.0800 
 40 H        6.4540     5.0290    -0.7980 H     1 <1>   0.0800 
 41 H        6.6490     3.3730    -1.3130 H     1 <1>   0.0800 
 42 H        3.2000     4.2360    -2.4150 H     1 <1>   0.0800 
 43 H        4.7960     3.8280    -2.9480 H     1 <1>   0.0800 
 44 H        4.4880     5.4250    -2.3240 H     1 <1>   0.0800 
 45 H       -3.9080     4.9790     0.3080 H     1 <1>   0.0800 
 46 H       -3.5230     4.7710     1.9940 H     1 <1>   0.0800 
 47 H       -7.9940     0.5150     0.0860 H     1 <1>   0.0800 
 48 H       -7.4740    -1.1240    -0.2060 H     1 <1>   0.0800 
 49 H       -6.2730     5.4590     0.9020 H     1 <1>   0.0800 
 50 H       -5.1830     6.5660     1.6970 H     1 <1>   0.0800 
 51 H       -5.8870     5.2460     2.5970 H     1 <1>   0.0800 
 52 H       -8.1470     0.9040    -2.3630 H     1 <1>   0.0800 
 53 H       -9.1540    -0.4340    -1.8680 H     1 <1>   0.0800 
 54 H       -7.6250    -0.7410    -2.6520 H     1 <1>   0.0800 
@<TRIPOS>BOND
  1   1   2  1   
  2   1   3  1   
  3   2   4  ar  
  4   2   5  ar  
  5   3   6  1   
  6   3   7  2   
  7   4   8  ar  
  8   5   7  1   
  9   5   9  ar  
 10   6  10  2   
 11   6  11  am  
 12   7  12  1   
 13   8  13  ar  
 14   8  14  1   
 15   9  13  ar  
 16   9  28  1   
 17  11  15  1   
 18  11  16  1   
 19  12  15  2   
 20  13  17  1   
 21  14  18  1   
 22  14  29  1   
 23  14  30  1   
 24  15  19  1   
 25  16  20  1   
 26  16  31  1   
 27  16  32  1   
 28  17  21  1   
 29  17  33  1   
 30  17  34  1   
 31  18  21  1   
 32  18  22  1   
 33  18  23  1   
 34  19  24  1   
 35  19  35  1   
 36  19  36  1   
 37  20  25  1   
 38  20  37  1   
 39  20  38  1   
 40  22  39  1   
 41  22  40  1   
 42  22  41  1   
 43  23  42  1   
 44  23  43  1   
 45  23  44  1   
 46  24  26  1   
 47  24  45  1   
 48  24  46  1   
 49  25  27  1   
 50  25  47  1   
 51  25  48  1   
 52  26  49  1   
 53  26  50  1   
 54  26  51  1   
 55  27  52  1   
 56  27  53  1   
 57  27  54  1   
@<TRIPOS>SUBSTRUCTURE
  1 ****   7 GROUP 4 **** **** 0

# MOE 2024.06 (io_trps.svl 2023.06)
