@<TRIPOS>MOLECULE
NONAME
52 53 1 0 0 
SMALL
USER_CHARGES


@<TRIPOS>ATOM
  1 BR       1.0050     0.3840    -0.2310 Br    1 <1>  -0.1110 
  2 C        0.5530    -1.4880    -0.3530 C.ar  1 <1>   0.1110 
  3 C        1.4180    -2.4490     0.1440 C.ar  1 <1>   0.0830 
  4 C       -0.6510    -1.8220    -0.9430 C.ar  1 <1>  -0.1500 
  5 O        2.5870    -2.1130     0.7250 O.3   1 <1>  -0.5330 
  6 C        1.0700    -3.7920     0.0390 C.ar  1 <1>   0.0830 
  7 C       -1.0100    -3.1610    -1.0340 C.ar  1 <1>  -0.1430 
  8 O        1.9540    -4.7050     0.5310 O.3   1 <1>  -0.3630 
  9 C       -0.1450    -4.1400    -0.5520 C.ar  1 <1>  -0.1500 
 10 C       -2.3420    -3.5460    -1.6500 C.3   1 <1>   0.4860 
 11 C        1.8350    -6.0830     0.2470 C.3   1 <1>   0.0400 
 12 N       -3.2920    -3.8820    -0.5550 N.4   1 <1>  -0.9590 
 13 C       -4.5290    -4.5200    -1.1110 C.3   1 <1>   0.3430 
 14 C       -3.6130    -2.6860     0.2810 C.3   1 <1>   0.3430 
 15 C       -5.4980    -4.9470    -0.0010 C.3   1 <1>  -0.0190 
 16 C       -4.5360    -3.0900     1.4320 C.3   1 <1>  -0.1600 
 17 C       -6.7590    -5.4960    -0.6610 C.2   1 <1>   0.5690 
 18 C       -5.8220    -3.7570     0.9230 C.3   1 <1>  -0.1600 
 19 O       -7.0380    -5.0350    -1.7430 O.2   1 <1>  -0.5700 
 20 N       -7.5280    -6.4630    -0.0630 N.am  1 <1>  -0.6600 
 21 C       -7.2740    -7.0670     1.2740 C.3   1 <1>   0.1400 
 22 C       -8.7580    -6.9610    -0.7410 C.3   1 <1>   0.1400 
 23 C       -6.4630    -8.3510     1.1080 C.3   1 <1>  -0.2400 
 24 C       -9.9600    -6.1350    -0.2890 C.3   1 <1>  -0.2400 
 25 H       -1.2810    -1.0330    -1.3170 H     1 <1>   0.1500 
 26 H        3.0680    -2.9180     1.0060 H     1 <1>   0.4500 
 27 H       -0.4190    -5.1750    -0.6360 H     1 <1>   0.1500 
 28 H       -2.2010    -4.3990    -2.2940 H     1 <1>   0.0800 
 29 H       -2.7270    -2.7330    -2.2430 H     1 <1>   0.0800 
 30 H        2.6960    -6.5830     0.6550 H     1 <1>   0.0800 
 31 H        1.8080    -6.2210    -0.8190 H     1 <1>   0.0800 
 32 H        0.9430    -6.4630     0.7130 H     1 <1>   0.0800 
 33 H       -2.8170    -4.5560     0.0570 H     1 <1>   0.4500 
 34 H       -4.2720    -5.3840    -1.7020 H     1 <1>   0.0800 
 35 H       -5.0350    -3.8190    -1.7570 H     1 <1>   0.0800 
 36 H       -4.1020    -1.9380    -0.3230 H     1 <1>   0.0800 
 37 H       -2.7080    -2.2580     0.6840 H     1 <1>   0.0800 
 38 H       -5.0270    -5.7300     0.5610 H     1 <1>   0.0800 
 39 H       -4.7940    -2.2100     1.9960 H     1 <1>   0.0800 
 40 H       -4.0110    -3.7530     2.0980 H     1 <1>   0.0800 
 41 H       -6.4180    -4.0850     1.7570 H     1 <1>   0.0800 
 42 H       -6.4070    -3.0340     0.3760 H     1 <1>   0.0800 
 43 H       -8.2120    -7.2920     1.7530 H     1 <1>   0.0800 
 44 H       -6.7470    -6.3780     1.9090 H     1 <1>   0.0800 
 45 H       -8.9140    -8.0000    -0.5070 H     1 <1>   0.0800 
 46 H       -8.6480    -6.8800    -1.8100 H     1 <1>   0.0800 
 47 H       -7.0110    -9.0680     0.5230 H     1 <1>   0.0800 
 48 H       -6.2720    -8.7840     2.0740 H     1 <1>   0.0800 
 49 H       -5.5220    -8.1520     0.6320 H     1 <1>   0.0800 
 50 H      -10.1120    -6.2260     0.7710 H     1 <1>   0.0800 
 51 H      -10.8450    -6.4850    -0.7900 H     1 <1>   0.0800 
 52 H       -9.8140    -5.1010    -0.5450 H     1 <1>   0.0800 
@<TRIPOS>BOND
  1   1   2  1   
  2   2   3  ar  
  3   2   4  ar  
  4   3   5  1   
  5   3   6  ar  
  6   4   7  ar  
  7   4  25  1   
  8   5  26  1   
  9   6   8  1   
 10   6   9  ar  
 11   7   9  ar  
 12   7  10  1   
 13   8  11  1   
 14   9  27  1   
 15  10  12  1   
 16  10  28  1   
 17  10  29  1   
 18  11  30  1   
 19  11  31  1   
 20  11  32  1   
 21  12  13  1   
 22  12  14  1   
 23  12  33  1   
 24  13  15  1   
 25  13  34  1   
 26  13  35  1   
 27  14  16  1   
 28  14  36  1   
 29  14  37  1   
 30  15  17  1   
 31  15  18  1   
 32  15  38  1   
 33  16  18  1   
 34  16  39  1   
 35  16  40  1   
 36  17  19  2   
 37  17  20  am  
 38  18  41  1   
 39  18  42  1   
 40  20  21  1   
 41  20  22  1   
 42  21  23  1   
 43  21  43  1   
 44  21  44  1   
 45  22  24  1   
 46  22  45  1   
 47  22  46  1   
 48  23  47  1   
 49  23  48  1   
 50  23  49  1   
 51  24  50  1   
 52  24  51  1   
 53  24  52  1   
@<TRIPOS>SUBSTRUCTURE
  1 ****  12 GROUP 4 **** **** 0

# MOE 2024.06 (io_trps.svl 2023.06)
