@<TRIPOS>MOLECULE
NONAME
27 27 1 0 0 
SMALL
USER_CHARGES


@<TRIPOS>ATOM
  1 BR      -0.4160     0.2890     0.0010 Br    1 <1>  -0.1110 
  2 C        1.3810     0.9820     0.0010 C.ar  1 <1>   0.1110 
  3 C        2.4380     0.0910     0.0040 C.ar  1 <1>  -0.1500 
  4 C        1.5670     2.3510    -0.0010 C.ar  1 <1>  -0.1500 
  5 C        3.7300     0.5900     0.0040 C.ar  1 <1>  -0.1500 
  6 C        2.8620     2.8400    -0.0010 C.ar  1 <1>  -0.1500 
  7 C        3.9450     1.9700     0.0010 C.ar  1 <1>   0.0820 
  8 O        5.1760     2.5400     0.0010 O.3   1 <1>  -0.3630 
  9 C        6.3470     1.7570     0.0030 C.3   1 <1>   0.1200 
 10 C        7.5470     2.7050     0.0020 C.3   1 <1>  -0.1600 
 11 C        8.8720     1.9300     0.0030 C.3   1 <1>  -0.1600 
 12 C       10.0680     2.8850     0.0020 C.3   1 <1>   0.0700 
 13 S       11.6090     1.8720     0.0040 S.3   1 <1>  -0.2660 
 14 C       12.9080     3.1250     0.0030 C.1   1 <1>   0.5930 
 15 N       13.7060     3.9350     0.0020 N.1   1 <1>  -0.5570 
 16 H        2.2500    -0.9680     0.0050 H     1 <1>   0.1500 
 17 H        0.7210     3.0150    -0.0030 H     1 <1>   0.1500 
 18 H        4.5480    -0.1040     0.0050 H     1 <1>   0.1500 
 19 H        3.0430     3.9000    -0.0030 H     1 <1>   0.1500 
 20 H        6.3450     1.1420    -0.8800 H     1 <1>   0.0800 
 21 H        6.3450     1.1440     0.8880 H     1 <1>   0.0800 
 22 H        7.4950     3.3320     0.8760 H     1 <1>   0.0800 
 23 H        7.4960     3.3290    -0.8740 H     1 <1>   0.0800 
 24 H        8.9230     1.3010    -0.8690 H     1 <1>   0.0800 
 25 H        8.9220     1.3040     0.8780 H     1 <1>   0.0800 
 26 H       10.0870     3.5020     0.8840 H     1 <1>   0.0800 
 27 H       10.0870     3.4990    -0.8820 H     1 <1>   0.0800 
@<TRIPOS>BOND
  1   1   2  1   
  2   2   3  ar  
  3   2   4  ar  
  4   3   5  ar  
  5   3  16  1   
  6   4   6  ar  
  7   4  17  1   
  8   5   7  ar  
  9   5  18  1   
 10   6   7  ar  
 11   6  19  1   
 12   7   8  1   
 13   8   9  1   
 14   9  10  1   
 15   9  20  1   
 16   9  21  1   
 17  10  11  1   
 18  10  22  1   
 19  10  23  1   
 20  11  12  1   
 21  11  24  1   
 22  11  25  1   
 23  12  13  1   
 24  12  26  1   
 25  12  27  1   
 26  13  14  1   
 27  14  15  3   
@<TRIPOS>SUBSTRUCTURE
  1 ****   9 GROUP 4 **** **** 0

# MOE 2024.06 (io_trps.svl 2023.06)
