@<TRIPOS>MOLECULE
NONAME
39 40 1 0 0 
SMALL
USER_CHARGES


@<TRIPOS>ATOM
  1 S       -0.1370     0.5420    -0.4380 S.3   1 <1>  -0.0800 
  2 C       -1.8120     0.7810     0.0700 C.2   1 <1>  -0.0450 
  3 C        0.4220     1.9380     0.4590 C.2   1 <1>  -0.1400 
  4 C       -2.8220    -0.1380    -0.3940 C.2   1 <1>   0.7150 
  5 C       -1.8630     1.8760     0.8730 C.2   1 <1>  -0.1500 
  6 C       -0.6130     2.5230     1.0900 C.2   1 <1>  -0.1500 
  7 C        1.9080     2.2410     0.3810 C.3   1 <1>   0.0200 
  8 O       -2.5570    -1.0850    -1.1120 O.2   1 <1>  -0.5700 
  9 N       -4.1180     0.0530    -0.0280 N.am  1 <1>  -0.7300 
 10 C        2.2920     3.4770     1.1990 C.3   1 <1>  -0.2400 
 11 C       -5.2580    -0.6930    -0.5630 C.3   1 <1>   0.3640 
 12 C       -6.4590     0.2470    -0.5860 C.ar  1 <1>  -0.1430 
 13 C       -5.5020    -1.9250     0.3050 C.3   1 <1>  -0.2400 
 14 C       -7.0070     0.6270    -1.8030 C.ar  1 <1>  -0.1500 
 15 C       -7.0160     0.7450     0.5860 C.ar  1 <1>  -0.1500 
 16 C       -8.0920     1.4840    -1.8470 C.ar  1 <1>  -0.1500 
 17 C       -8.1020     1.6020     0.5450 C.ar  1 <1>  -0.1500 
 18 C       -8.6480     1.9770    -0.6790 C.ar  1 <1>   0.0830 
 19 O       -9.7100     2.8100    -0.8100 O.3   1 <1>  -0.3620 
 20 C      -10.3720     3.3400     0.3160 C.3   1 <1>   0.0400 
 21 H       -2.7550     2.2610     1.3320 H     1 <1>   0.1500 
 22 H       -0.5470     3.4000     1.7110 H     1 <1>   0.1500 
 23 H        2.1780     2.3960    -0.6490 H     1 <1>   0.0800 
 24 H        2.4570     1.3890     0.7430 H     1 <1>   0.0800 
 25 H       -4.3780     0.9220     0.4320 H     1 <1>   0.3700 
 26 H        1.7660     4.3420     0.8340 H     1 <1>   0.0800 
 27 H        3.3490     3.6570     1.1170 H     1 <1>   0.0800 
 28 H        2.0470     3.3280     2.2350 H     1 <1>   0.0800 
 29 H       -5.0320    -1.0150    -1.5670 H     1 <1>   0.0800 
 30 H       -5.6480    -1.6540     1.3340 H     1 <1>   0.0800 
 31 H       -4.6610    -2.5910     0.2310 H     1 <1>   0.0800 
 32 H       -6.3760    -2.4430    -0.0440 H     1 <1>   0.0800 
 33 H       -6.5910     0.2590    -2.7260 H     1 <1>   0.1500 
 34 H       -6.6070     0.4660     1.5420 H     1 <1>   0.1500 
 35 H       -8.5160     1.7770    -2.7900 H     1 <1>   0.1500 
 36 H       -8.5080     1.9650     1.4690 H     1 <1>   0.1500 
 37 H      -11.1810     3.9570    -0.0320 H     1 <1>   0.0800 
 38 H       -9.6770     3.9350     0.8820 H     1 <1>   0.0800 
 39 H      -10.7590     2.5290     0.9080 H     1 <1>   0.0800 
@<TRIPOS>BOND
  1   1   2  1   
  2   1   3  1   
  3   2   4  1   
  4   2   5  2   
  5   3   6  2   
  6   3   7  1   
  7   4   8  2   
  8   4   9  am  
  9   5   6  1   
 10   5  21  1   
 11   6  22  1   
 12   7  10  1   
 13   7  23  1   
 14   7  24  1   
 15   9  11  1   
 16   9  25  1   
 17  10  26  1   
 18  10  27  1   
 19  10  28  1   
 20  11  12  1   
 21  11  13  1   
 22  11  29  1   
 23  12  14  ar  
 24  12  15  ar  
 25  13  30  1   
 26  13  31  1   
 27  13  32  1   
 28  14  16  ar  
 29  14  33  1   
 30  15  17  ar  
 31  15  34  1   
 32  16  18  ar  
 33  16  35  1   
 34  17  18  ar  
 35  17  36  1   
 36  18  19  1   
 37  19  20  1   
 38  20  37  1   
 39  20  38  1   
 40  20  39  1   
@<TRIPOS>SUBSTRUCTURE
  1 ****   9 GROUP 4 **** **** 0

# MOE 2024.06 (io_trps.svl 2023.06)
