@<TRIPOS>MOLECULE
NONAME
45 47 1 0 0 
SMALL
USER_CHARGES


@<TRIPOS>ATOM
  1 O       -0.2290     1.5130    -0.0960 O.3   1 <1>  -0.5600 
  2 C       -0.7240     2.6500     0.5670 C.3   1 <1>   0.1200 
  3 C       -1.1630     0.9000    -0.9440 C.3   1 <1>   0.1200 
  4 C       -1.9460     2.2880     1.4290 C.3   1 <1>   0.2090 
  5 C       -2.4150     0.4500    -0.1650 C.3   1 <1>   0.2090 
  6 N       -2.9860     1.5990     0.5950 N.pl3 1 <1>  -0.8380 
  7 C       -4.0890     2.2670     0.1220 C.ar  1 <1>   0.7200 
  8 N       -4.0720     3.5680     0.2090 N.ar  1 <1>  -0.6200 
  9 N       -5.0590     1.5610    -0.3950 N.ar  1 <1>  -0.6200 
 10 C       -5.1380     4.1640    -0.2550 C.ar  1 <1>   0.7030 
 11 C       -6.0660     2.2750    -0.8180 C.ar  1 <1>   0.7200 
 12 O       -5.1970     5.5040    -0.2100 O.3   1 <1>  -0.1650 
 13 N       -6.1750     3.5740    -0.7850 N.ar  1 <1>  -0.6200 
 14 N       -7.1320     1.6430    -1.3550 N.pl3 1 <1>  -0.8690 
 15 C       -4.1020     6.2310     0.1300 C.ar  1 <1>   0.3930 
 16 C       -7.4910     0.2280    -1.1050 C.3   1 <1>   0.2090 
 17 N       -4.1500     6.8670     1.2960 N.ar  1 <1>  -0.3100 
 18 C       -3.0220     6.2710    -0.7400 C.ar  1 <1>  -0.1500 
 19 C       -8.2920     0.0940     0.2020 C.3   1 <1>  -0.0800 
 20 N       -3.0990     7.5520     1.6900 N.ar  1 <1>  -0.3100 
 21 C       -1.9320     6.9830    -0.3350 C.ar  1 <1>  -0.1500 
 22 C       -8.6180    -1.3800     0.4720 C.3   1 <1>  -0.2400 
 23 C       -9.5940     0.9130     0.1810 C.3   1 <1>  -0.2400 
 24 C       -1.9950     7.6090     0.9060 C.ar  1 <1>   0.1390 
 25 O       -0.9910     8.2430     1.3080 O.3   1 <1>  -0.8290 
 26 H       -0.9920     3.3930    -0.1640 H     1 <1>   0.0800 
 27 H        0.0620     3.0450     1.1850 H     1 <1>   0.0800 
 28 H       -0.6860     0.0520    -1.4000 H     1 <1>   0.0800 
 29 H       -1.4370     1.6000    -1.7140 H     1 <1>   0.0800 
 30 H       -2.3380     3.1790     1.8910 H     1 <1>   0.0800 
 31 H       -1.6350     1.6290     2.2210 H     1 <1>   0.0800 
 32 H       -2.1450    -0.3320     0.5230 H     1 <1>   0.0800 
 33 H       -3.1350     0.0470    -0.8550 H     1 <1>   0.0800 
 34 H       -7.9190     2.2670    -1.5240 H     1 <1>   0.4000 
 35 H       -6.5960    -0.3690    -1.0460 H     1 <1>   0.0800 
 36 H       -8.0750    -0.1350    -1.9330 H     1 <1>   0.0800 
 37 H       -3.0470     5.7550    -1.6790 H     1 <1>   0.1500 
 38 H       -7.6720     0.4490     1.0090 H     1 <1>   0.0800 
 39 H       -1.0340     7.0840    -0.9110 H     1 <1>   0.1500 
 40 H       -9.2400    -1.7830    -0.3080 H     1 <1>   0.0800 
 41 H       -9.1360    -1.4820     1.4100 H     1 <1>   0.0800 
 42 H       -7.7120    -1.9590     0.5250 H     1 <1>   0.0800 
 43 H      -10.2160     0.6170    -0.6460 H     1 <1>   0.0800 
 44 H       -9.3790     1.9630     0.0950 H     1 <1>   0.0800 
 45 H      -10.1420     0.7630     1.0940 H     1 <1>   0.0800 
@<TRIPOS>BOND
  1   1   2  1   
  2   1   3  1   
  3   2   4  1   
  4   2  26  1   
  5   2  27  1   
  6   3   5  1   
  7   3  28  1   
  8   3  29  1   
  9   4   6  1   
 10   4  30  1   
 11   4  31  1   
 12   5   6  1   
 13   5  32  1   
 14   5  33  1   
 15   6   7  1   
 16   7   8  ar  
 17   7   9  ar  
 18   8  10  ar  
 19   9  11  ar  
 20  10  12  1   
 21  10  13  ar  
 22  11  13  ar  
 23  11  14  1   
 24  12  15  1   
 25  14  16  1   
 26  14  34  1   
 27  15  17  ar  
 28  15  18  ar  
 29  16  19  1   
 30  16  35  1   
 31  16  36  1   
 32  17  20  ar  
 33  18  21  ar  
 34  18  37  1   
 35  19  22  1   
 36  19  23  1   
 37  19  38  1   
 38  20  24  ar  
 39  21  24  ar  
 40  21  39  1   
 41  22  40  1   
 42  22  41  1   
 43  22  42  1   
 44  23  43  1   
 45  23  44  1   
 46  23  45  1   
 47  24  25  1   
@<TRIPOS>SUBSTRUCTURE
  1 ****   8 GROUP 4 **** **** 0

# MOE 2024.06 (io_trps.svl 2023.06)
