@<TRIPOS>MOLECULE
NONAME
34 34 1 0 0 
SMALL
USER_CHARGES


@<TRIPOS>ATOM
  1 O       -0.3790    -0.6180     1.0880 O.2   1 <1>  -0.5700 
  2 C       -0.2160    -1.1660     0.0160 C.2   1 <1>   0.6900 
  3 N       -1.2660    -1.4750    -0.7960 N.am  1 <1>  -0.5470 
  4 N        1.0200    -1.5100    -0.4290 N.am  1 <1>  -0.7300 
  5 C       -2.6280    -1.1470    -0.6990 C.ar  1 <1>   0.1170 
  6 C        2.3160    -1.3340     0.2360 C.3   1 <1>   0.3000 
  7 C       -3.5640    -1.9770    -1.3060 C.ar  1 <1>  -0.1500 
  8 C       -3.0830    -0.0100    -0.0400 C.ar  1 <1>  -0.1500 
  9 C        2.3330    -2.0950     1.5620 C.3   1 <1>  -0.2400 
 10 C        3.3660    -1.9260    -0.7030 C.3   1 <1>  -0.2400 
 11 C        2.5970     0.1550     0.4400 C.3   1 <1>  -0.2400 
 12 C       -4.9160    -1.6880    -1.2560 C.ar  1 <1>  -0.1500 
 13 C       -4.4330     0.2840     0.0150 C.ar  1 <1>  -0.1500 
 14 C       -5.3600    -0.5480    -0.5910 C.ar  1 <1>   0.0830 
 15 O       -6.6670    -0.1870    -0.4910 O.3   1 <1>  -0.3620 
 16 C       -7.6850    -0.9890    -1.0450 C.3   1 <1>   0.0400 
 17 H       -1.0370    -2.1440    -1.5210 H     1 <1>   0.3700 
 18 H        1.1120    -1.7850    -1.4000 H     1 <1>   0.3700 
 19 H       -3.2340    -2.8610    -1.8200 H     1 <1>   0.1500 
 20 H       -2.3810     0.6520     0.4340 H     1 <1>   0.1500 
 21 H        1.6300    -1.6680     2.2550 H     1 <1>   0.0800 
 22 H        3.3090    -2.0410     2.0080 H     1 <1>   0.0800 
 23 H        2.0840    -3.1290     1.4070 H     1 <1>   0.0800 
 24 H        3.1750    -2.9710    -0.8710 H     1 <1>   0.0800 
 25 H        4.3440    -1.8320    -0.2660 H     1 <1>   0.0800 
 26 H        3.3700    -1.4080    -1.6450 H     1 <1>   0.0800 
 27 H        2.5410     0.6830    -0.4950 H     1 <1>   0.0800 
 28 H        3.5800     0.2930     0.8520 H     1 <1>   0.0800 
 29 H        1.8890     0.5840     1.1260 H     1 <1>   0.0800 
 30 H       -5.6050    -2.3550    -1.7360 H     1 <1>   0.1500 
 31 H       -4.7760     1.1640     0.5290 H     1 <1>   0.1500 
 32 H       -8.6300    -0.5210    -0.8350 H     1 <1>   0.0800 
 33 H       -7.6500    -1.9620    -0.5870 H     1 <1>   0.0800 
 34 H       -7.5380    -1.0560    -2.1080 H     1 <1>   0.0800 
@<TRIPOS>BOND
  1   1   2  2   
  2   2   3  am  
  3   2   4  am  
  4   3   5  1   
  5   3  17  1   
  6   4   6  1   
  7   4  18  1   
  8   5   7  ar  
  9   5   8  ar  
 10   6   9  1   
 11   6  10  1   
 12   6  11  1   
 13   7  12  ar  
 14   7  19  1   
 15   8  13  ar  
 16   8  20  1   
 17   9  21  1   
 18   9  22  1   
 19   9  23  1   
 20  10  24  1   
 21  10  25  1   
 22  10  26  1   
 23  11  27  1   
 24  11  28  1   
 25  11  29  1   
 26  12  14  ar  
 27  12  30  1   
 28  13  14  ar  
 29  13  31  1   
 30  14  15  1   
 31  15  16  1   
 32  16  32  1   
 33  16  33  1   
 34  16  34  1   
@<TRIPOS>SUBSTRUCTURE
  1 ****   3 GROUP 4 **** **** 0

# MOE 2024.06 (io_trps.svl 2023.06)
