@<TRIPOS>MOLECULE
NONAME
46 49 1 0 0 
SMALL
USER_CHARGES


@<TRIPOS>ATOM
  1 O        0.5790    -0.4680    -1.0290 O.2   1 <1>  -0.5700 
  2 C        0.5740    -1.6720    -0.9880 C.2   1 <1>   0.5690 
  3 N        1.7430    -2.3900    -1.0010 N.am  1 <1>  -0.6600 
  4 C       -0.7650    -2.3660    -0.9010 C.3   1 <1>  -0.1790 
  5 C        3.0510    -1.7030    -1.2430 C.3   1 <1>   0.1400 
  6 C        1.8710    -3.8360    -0.6490 C.3   1 <1>   0.1400 
  7 C        3.9800    -1.8770    -0.0320 C.3   1 <1>   0.3430 
  8 C        2.8260    -4.0160     0.5500 C.3   1 <1>   0.3430 
  9 N        4.1510    -3.3310     0.3420 N.4   1 <1>  -0.9590 
 10 C        5.0440    -3.4820     1.5240 C.3   1 <1>   0.4860 
 11 C        6.4190    -2.9650     1.1500 C.ar  1 <1>  -0.1440 
 12 C        7.2510    -3.7190     0.3310 C.ar  1 <1>  -0.1500 
 13 C        6.8480    -1.7270     1.6200 C.ar  1 <1>  -0.1500 
 14 C        8.4890    -3.2140    -0.0180 C.ar  1 <1>  -0.1440 
 15 C        8.0910    -1.2310     1.2630 C.ar  1 <1>  -0.1500 
 16 C        8.9140    -1.9790     0.4350 C.ar  1 <1>   0.0000 
 17 C        9.5630    -3.8490    -0.8930 C.3   1 <1>   0.1270 
 18 C       10.2230    -1.7060    -0.0840 C.ar  1 <1>   0.0000 
 19 C       10.6340    -2.7710    -0.8650 C.ar  1 <1>  -0.1440 
 20 C       11.0590    -0.6090     0.0770 C.ar  1 <1>  -0.1500 
 21 C       11.8640    -2.7680    -1.4930 C.ar  1 <1>  -0.1500 
 22 C       12.2940    -0.5970    -0.5490 C.ar  1 <1>  -0.1500 
 23 C       12.6960    -1.6710    -1.3310 C.ar  1 <1>  -0.1500 
 24 H       -0.8270    -3.1480    -1.6340 H     1 <1>   0.0800 
 25 H       -1.5490    -1.6560    -1.0970 H     1 <1>   0.0800 
 26 H       -0.9090    -2.7690     0.0830 H     1 <1>   0.0800 
 27 H        2.9040    -0.6510    -1.4230 H     1 <1>   0.0800 
 28 H        3.5130    -2.1160    -2.1230 H     1 <1>   0.0800 
 29 H        2.2470    -4.3750    -1.5010 H     1 <1>   0.0800 
 30 H        0.9130    -4.2550    -0.3960 H     1 <1>   0.0800 
 31 H        3.5610    -1.3320     0.7980 H     1 <1>   0.0800 
 32 H        4.9390    -1.4400    -0.2630 H     1 <1>   0.0800 
 33 H        2.9800    -5.0690     0.7210 H     1 <1>   0.0800 
 34 H        2.3460    -3.6080     1.4250 H     1 <1>   0.0800 
 35 H        4.6380    -3.7760    -0.4450 H     1 <1>   0.4500 
 36 H        5.1210    -4.5200     1.8050 H     1 <1>   0.0800 
 37 H        4.6560    -2.9270     2.3620 H     1 <1>   0.0800 
 38 H        6.9580    -4.6880    -0.0340 H     1 <1>   0.1500 
 39 H        6.2260    -1.1340     2.2680 H     1 <1>   0.1500 
 40 H        8.4280    -0.2750     1.6230 H     1 <1>   0.1500 
 41 H        9.2080    -4.0130    -1.8940 H     1 <1>   0.0800 
 42 H        9.9280    -4.7640    -0.4610 H     1 <1>   0.0800 
 43 H       10.7470     0.2210     0.6830 H     1 <1>   0.1500 
 44 H       12.1750    -3.6010    -2.0990 H     1 <1>   0.1500 
 45 H       12.9470     0.2500    -0.4290 H     1 <1>   0.1500 
 46 H       13.6580    -1.6520    -1.8140 H     1 <1>   0.1500 
@<TRIPOS>BOND
  1   1   2  2   
  2   2   3  am  
  3   2   4  1   
  4   3   5  1   
  5   3   6  1   
  6   4  24  1   
  7   4  25  1   
  8   4  26  1   
  9   5   7  1   
 10   5  27  1   
 11   5  28  1   
 12   6   8  1   
 13   6  29  1   
 14   6  30  1   
 15   7   9  1   
 16   7  31  1   
 17   7  32  1   
 18   8   9  1   
 19   8  33  1   
 20   8  34  1   
 21   9  10  1   
 22   9  35  1   
 23  10  11  1   
 24  10  36  1   
 25  10  37  1   
 26  11  12  ar  
 27  11  13  ar  
 28  12  14  ar  
 29  12  38  1   
 30  13  15  ar  
 31  13  39  1   
 32  14  16  ar  
 33  14  17  1   
 34  15  16  ar  
 35  15  40  1   
 36  16  18  1   
 37  17  19  1   
 38  17  41  1   
 39  17  42  1   
 40  18  19  ar  
 41  18  20  ar  
 42  19  21  ar  
 43  20  22  ar  
 44  20  43  1   
 45  21  23  ar  
 46  21  44  1   
 47  22  23  ar  
 48  22  45  1   
 49  23  46  1   
@<TRIPOS>SUBSTRUCTURE
  1 ****  11 GROUP 4 **** **** 0

# MOE 2024.06 (io_trps.svl 2023.06)
