@<TRIPOS>MOLECULE
NONAME
38 39 1 0 0 
SMALL
USER_CHARGES


@<TRIPOS>ATOM
  1 S       -0.0930    -0.1820    -0.4110 S.3   1 <1>  -0.2860 
  2 C        1.4080     0.7450    -0.7310 C.2   1 <1>   0.2420 
  3 C       -1.3240     0.6470    -1.5240 C.3   1 <1>   0.1310 
  4 N        1.4690     1.7340    -1.5490 N.2   1 <1>  -0.3380 
  5 N        2.5640     0.4720    -0.1360 N.pl3 1 <1>   0.0480 
  6 C       -2.6940     0.0270    -1.3460 C.2   1 <1>   0.6590 
  7 N        2.7320     2.1560    -1.5100 N.2   1 <1>  -0.3380 
  8 C        3.3860     1.3960    -0.6720 C.2   1 <1>   0.1330 
  9 C        2.8410    -0.5520     0.8950 C.3   1 <1>   0.0160 
 10 O       -3.2040    -0.6420    -2.2080 O.2   1 <1>  -0.5700 
 11 O       -3.3050     0.2780    -0.1940 O.3   1 <1>  -0.4300 
 12 C        4.7870     1.5350    -0.3510 C.ar  1 <1>   0.0530 
 13 C       -4.5790    -0.2490     0.0920 C.3   1 <1>   0.1200 
 14 C        5.6570     0.4470    -0.3650 C.ar  1 <1>  -0.1500 
 15 C        5.3140     2.7790    -0.0150 C.ar  1 <1>  -0.1500 
 16 C       -4.9830     0.2190     1.4870 C.3   1 <1>  -0.2400 
 17 C        6.9920     0.5800    -0.0300 C.ar  1 <1>   0.0830 
 18 C        6.6490     2.9300     0.3160 C.ar  1 <1>  -0.1500 
 19 O        7.7440    -0.5480    -0.0630 O.3   1 <1>  -0.3630 
 20 C        7.4920     1.8330     0.3140 C.ar  1 <1>  -0.1500 
 21 C        9.1320    -0.5110     0.1820 C.3   1 <1>   0.0400 
 22 H       -0.9770     0.5210    -2.5330 H     1 <1>   0.0800 
 23 H       -1.3420     1.6890    -1.2650 H     1 <1>   0.0800 
 24 H        1.9670    -0.7000     1.5030 H     1 <1>   0.0800 
 25 H        3.6510    -0.2270     1.5220 H     1 <1>   0.0800 
 26 H        3.1040    -1.4770     0.4150 H     1 <1>   0.0800 
 27 H       -4.5220    -1.3240     0.0460 H     1 <1>   0.0800 
 28 H       -5.2720     0.1080    -0.6520 H     1 <1>   0.0800 
 29 H        5.2960    -0.5240    -0.6490 H     1 <1>   0.1500 
 30 H        4.6630     3.6370    -0.0170 H     1 <1>   0.1500 
 31 H       -4.2760    -0.1360     2.2150 H     1 <1>   0.0800 
 32 H       -5.9540    -0.1700     1.7330 H     1 <1>   0.0800 
 33 H       -5.0260     1.2930     1.5190 H     1 <1>   0.0800 
 34 H        7.0310     3.9020     0.5740 H     1 <1>   0.1500 
 35 H        8.5230     1.9730     0.5780 H     1 <1>   0.1500 
 36 H        9.5180    -1.5080     0.0730 H     1 <1>   0.0800 
 37 H        9.3010    -0.1620     1.1860 H     1 <1>   0.0800 
 38 H        9.5960     0.1410    -0.5370 H     1 <1>   0.0800 
@<TRIPOS>BOND
  1   1   2  1   
  2   1   3  1   
  3   2   4  2   
  4   2   5  1   
  5   3   6  1   
  6   3  22  1   
  7   3  23  1   
  8   4   7  1   
  9   5   8  1   
 10   5   9  1   
 11   6  10  2   
 12   6  11  1   
 13   7   8  2   
 14   8  12  1   
 15   9  24  1   
 16   9  25  1   
 17   9  26  1   
 18  11  13  1   
 19  12  14  ar  
 20  12  15  ar  
 21  13  16  1   
 22  13  27  1   
 23  13  28  1   
 24  14  17  ar  
 25  14  29  1   
 26  15  18  ar  
 27  15  30  1   
 28  16  31  1   
 29  16  32  1   
 30  16  33  1   
 31  17  19  1   
 32  17  20  ar  
 33  18  20  ar  
 34  18  34  1   
 35  19  21  1   
 36  20  35  1   
 37  21  36  1   
 38  21  37  1   
 39  21  38  1   
@<TRIPOS>SUBSTRUCTURE
  1 ****   5 GROUP 4 **** **** 0

# MOE 2024.06 (io_trps.svl 2023.06)
