@<TRIPOS>MOLECULE
NONAME
41 41 1 0 0 
SMALL
USER_CHARGES


@<TRIPOS>ATOM
  1 O        0.1250    -0.2950     0.0020 O.3   1 <1>  -0.3630 
  2 C       -1.0940    -0.8900     0.0210 C.ar  1 <1>   0.0820 
  3 C        1.3080    -1.0540     0.0140 C.3   1 <1>   0.1200 
  4 C       -2.1970    -0.0520     0.0070 C.ar  1 <1>  -0.1500 
  5 C       -1.2870    -2.2660     0.0540 C.ar  1 <1>  -0.1500 
  6 C        2.4800    -0.0710    -0.0140 C.3   1 <1>  -0.1600 
  7 C       -3.4850    -0.5620     0.0250 C.ar  1 <1>  -0.1440 
  8 C       -2.5710    -2.7810     0.0710 C.ar  1 <1>  -0.1500 
  9 C        3.8350    -0.7930    -0.0040 C.3   1 <1>  -0.1600 
 10 C       -3.6740    -1.9400     0.0570 C.ar  1 <1>  -0.1430 
 11 C       -4.6620     0.4030     0.0090 C.3   1 <1>  -0.0970 
 12 C        4.9770     0.2220    -0.0320 C.3   1 <1>   0.3430 
 13 C       -5.0690    -2.5500     0.0780 C.3   1 <1>  -0.0970 
 14 N        6.2710    -0.5010    -0.0220 N.4   1 <1>  -0.9060 
 15 C        7.4280     0.4430    -0.0490 C.3   1 <1>   0.3430 
 16 C        8.7710    -0.2980    -0.0380 C.3   1 <1>   0.1200 
 17 O        9.7680     0.6570    -0.0650 O.3   1 <1>  -0.6800 
 18 H        1.3110    -1.6880    -0.8560 H     1 <1>   0.0800 
 19 H        1.3190    -1.6470     0.9120 H     1 <1>   0.0800 
 20 H       -2.0300     1.0090    -0.0180 H     1 <1>   0.1500 
 21 H       -0.4620    -2.9500     0.0650 H     1 <1>   0.1500 
 22 H        2.4030     0.5730     0.8470 H     1 <1>   0.0800 
 23 H        2.3950     0.5330    -0.9020 H     1 <1>   0.0800 
 24 H       -2.7070    -3.8470     0.0960 H     1 <1>   0.1500 
 25 H        3.8930    -1.4340    -0.8670 H     1 <1>   0.0800 
 26 H        3.9020    -1.3940     0.8870 H     1 <1>   0.0800 
 27 H       -4.3230     1.4230    -0.0160 H     1 <1>   0.0800 
 28 H       -5.2610     0.2680     0.8910 H     1 <1>   0.0800 
 29 H       -5.2690     0.2280    -0.8610 H     1 <1>   0.0800 
 30 H        4.9060     0.8690     0.8290 H     1 <1>   0.0800 
 31 H        4.8980     0.8290    -0.9210 H     1 <1>   0.0800 
 32 H       -5.6030    -2.2170     0.9490 H     1 <1>   0.0800 
 33 H       -5.0210    -3.6240     0.1020 H     1 <1>   0.0800 
 34 H       -5.6110    -2.2570    -0.8020 H     1 <1>   0.0800 
 35 H        6.3140    -1.1260    -0.8360 H     1 <1>   0.4500 
 36 H        6.3220    -1.0890     0.8200 H     1 <1>   0.4500 
 37 H        7.3890     1.0920     0.8110 H     1 <1>   0.0800 
 38 H        7.3800     1.0520    -0.9370 H     1 <1>   0.0800 
 39 H        8.8830    -0.9200    -0.9100 H     1 <1>   0.0800 
 40 H        8.8910    -0.8790     0.8600 H     1 <1>   0.0800 
 41 H       10.6640     0.2540    -0.0600 H     1 <1>   0.4000 
@<TRIPOS>BOND
  1   1   2  1   
  2   1   3  1   
  3   2   4  ar  
  4   2   5  ar  
  5   3   6  1   
  6   3  18  1   
  7   3  19  1   
  8   4   7  ar  
  9   4  20  1   
 10   5   8  ar  
 11   5  21  1   
 12   6   9  1   
 13   6  22  1   
 14   6  23  1   
 15   7  10  ar  
 16   7  11  1   
 17   8  10  ar  
 18   8  24  1   
 19   9  12  1   
 20   9  25  1   
 21   9  26  1   
 22  10  13  1   
 23  11  27  1   
 24  11  28  1   
 25  11  29  1   
 26  12  14  1   
 27  12  30  1   
 28  12  31  1   
 29  13  32  1   
 30  13  33  1   
 31  13  34  1   
 32  14  15  1   
 33  14  35  1   
 34  14  36  1   
 35  15  16  1   
 36  15  37  1   
 37  15  38  1   
 38  16  17  1   
 39  16  39  1   
 40  16  40  1   
 41  17  41  1   
@<TRIPOS>SUBSTRUCTURE
  1 ****   3 GROUP 4 **** **** 0

# MOE 2024.06 (io_trps.svl 2023.06)
