@<TRIPOS>MOLECULE
NONAME
53 54 1 0 0 
SMALL
USER_CHARGES


@<TRIPOS>ATOM
  1 S       -1.5350    -0.4410     0.0330 S.o2  1 <1>   1.5760 
  2 O       -0.4060     0.2780     0.5760 O.2   1 <1>  -0.6500 
  3 O       -2.4620     0.2130    -0.8630 O.2   1 <1>  -0.6500 
  4 N       -0.9970    -1.8780    -0.7640 N.am  1 <1>  -0.6930 
  5 N       -2.4130    -1.0790     1.3290 N.am  1 <1>  -0.8490 
  6 C        0.3040    -2.3680    -0.6620 C.ar  1 <1>   0.1990 
  7 C       -2.0110    -2.6170    -1.5790 C.3   1 <1>   0.2570 
  8 C       -1.5870    -1.8610     2.2530 C.3   1 <1>   0.1160 
  9 C       -3.1240    -0.0310     2.0610 C.3   1 <1>   0.1160 
 10 C        0.5460    -3.6840    -0.2770 C.ar  1 <1>  -0.1500 
 11 C        1.3980    -1.5610    -0.9610 C.ar  1 <1>  -0.1500 
 12 C       -3.0860    -3.3580    -0.7640 C.2   1 <1>   0.5690 
 13 C        1.8350    -4.1770    -0.1910 C.ar  1 <1>  -0.1500 
 14 C        2.6900    -2.0480    -0.8750 C.ar  1 <1>  -0.1500 
 15 O       -2.7630    -4.4290    -0.2970 O.2   1 <1>  -0.5700 
 16 N       -4.3650    -2.8740    -0.5810 N.am  1 <1>  -0.6600 
 17 C        2.9100    -3.3590    -0.4890 C.ar  1 <1>  -0.1500 
 18 C       -5.2790    -3.5260     0.4140 C.3   1 <1>   0.1400 
 19 C       -4.8930    -1.5710    -1.1060 C.3   1 <1>   0.1400 
 20 C       -6.7130    -3.6520    -0.1200 C.3   1 <1>   0.1400 
 21 C       -6.3320    -1.7030    -1.6260 C.3   1 <1>   0.1400 
 22 N       -7.2070    -2.3290    -0.5950 N.am  1 <1>  -0.6600 
 23 C       -8.2400    -1.6770     0.0210 C.2   1 <1>   0.7800 
 24 O       -8.8830    -2.1740     0.9260 O.2   1 <1>  -0.5700 
 25 O       -8.5240    -0.4410    -0.3900 O.3   1 <1>  -0.4300 
 26 C       -9.5550     0.3050     0.2140 C.3   1 <1>   0.1200 
 27 C       -9.5810     1.6830    -0.4380 C.3   1 <1>  -0.2400 
 28 H       -1.4970    -3.3570    -2.1640 H     1 <1>   0.0800 
 29 H       -2.4580    -1.9410    -2.2780 H     1 <1>   0.0800 
 30 H       -1.1590    -2.7060     1.7430 H     1 <1>   0.0800 
 31 H       -2.1900    -2.2360     3.0620 H     1 <1>   0.0800 
 32 H       -0.7910    -1.2570     2.6560 H     1 <1>   0.0800 
 33 H       -3.7740     0.5090     1.3940 H     1 <1>   0.0800 
 34 H       -2.4240     0.6620     2.4990 H     1 <1>   0.0800 
 35 H       -3.7260    -0.4660     2.8400 H     1 <1>   0.0800 
 36 H       -0.2790    -4.3280    -0.0380 H     1 <1>   0.1500 
 37 H        1.2360    -0.5430    -1.2640 H     1 <1>   0.1500 
 38 H        2.0020    -5.1970     0.1100 H     1 <1>   0.1500 
 39 H        3.5220    -1.4070    -1.1060 H     1 <1>   0.1500 
 40 H        3.9150    -3.7400    -0.4210 H     1 <1>   0.1500 
 41 H       -5.2890    -2.9350     1.3130 H     1 <1>   0.0800 
 42 H       -4.9220    -4.5070     0.6750 H     1 <1>   0.0800 
 43 H       -4.2870    -1.1950    -1.9060 H     1 <1>   0.0800 
 44 H       -4.8750    -0.8440    -0.3130 H     1 <1>   0.0800 
 45 H       -7.3490    -4.0380     0.6580 H     1 <1>   0.0800 
 46 H       -6.7290    -4.3520    -0.9370 H     1 <1>   0.0800 
 47 H       -6.3370    -2.3160    -2.5090 H     1 <1>   0.0800 
 48 H       -6.6990    -0.7300    -1.9020 H     1 <1>   0.0800 
 49 H       -9.3490     0.3800     1.2690 H     1 <1>   0.0800 
 50 H      -10.4860    -0.2160     0.0630 H     1 <1>   0.0800 
 51 H       -8.6360     2.1770    -0.2980 H     1 <1>   0.0800 
 52 H      -10.3510     2.2820     0.0130 H     1 <1>   0.0800 
 53 H       -9.7900     1.5920    -1.4890 H     1 <1>   0.0800 
@<TRIPOS>BOND
  1   1   2  2   
  2   1   3  2   
  3   1   4  am  
  4   1   5  am  
  5   4   6  1   
  6   4   7  1   
  7   5   8  1   
  8   5   9  1   
  9   6  10  ar  
 10   6  11  ar  
 11   7  12  1   
 12   7  28  1   
 13   7  29  1   
 14   8  30  1   
 15   8  31  1   
 16   8  32  1   
 17   9  33  1   
 18   9  34  1   
 19   9  35  1   
 20  10  13  ar  
 21  10  36  1   
 22  11  14  ar  
 23  11  37  1   
 24  12  15  2   
 25  12  16  am  
 26  13  17  ar  
 27  13  38  1   
 28  14  17  ar  
 29  14  39  1   
 30  16  18  1   
 31  16  19  1   
 32  17  40  1   
 33  18  20  1   
 34  18  41  1   
 35  18  42  1   
 36  19  21  1   
 37  19  43  1   
 38  19  44  1   
 39  20  22  1   
 40  20  45  1   
 41  20  46  1   
 42  21  22  1   
 43  21  47  1   
 44  21  48  1   
 45  22  23  am  
 46  23  24  2   
 47  23  25  1   
 48  25  26  1   
 49  26  27  1   
 50  26  49  1   
 51  26  50  1   
 52  27  51  1   
 53  27  52  1   
 54  27  53  1   
@<TRIPOS>SUBSTRUCTURE
  1 ****  16 GROUP 4 **** **** 0

# MOE 2024.06 (io_trps.svl 2023.06)
