@<TRIPOS>MOLECULE
NONAME
56 58 1 0 0 
SMALL
USER_CHARGES


@<TRIPOS>ATOM
  1 O       -1.5190     3.6110    -0.9990 O.2   1 <1>  -0.5700 
  2 C       -1.3010     3.5410     0.1950 C.2   1 <1>   0.6900 
  3 N       -2.3510     3.6370     1.0570 N.am  1 <1>  -0.6600 
  4 N       -0.0680     3.3190     0.7210 N.am  1 <1>  -0.5470 
  5 C       -3.4100     4.6390     0.7370 C.3   1 <1>   0.1400 
  6 C       -2.9090     2.3530     1.5610 C.3   1 <1>   0.1400 
  7 C        1.1750     3.0460     0.1270 C.ar  1 <1>   0.1170 
  8 C       -4.4040     4.0650    -0.2930 C.3   1 <1>   0.3430 
  9 C       -3.8870     1.7620     0.5220 C.3   1 <1>   0.3430 
 10 C        2.3200     3.2050     0.8970 C.ar  1 <1>  -0.1500 
 11 C        1.3160     2.6110    -1.1890 C.ar  1 <1>  -0.1500 
 12 N       -4.9720     2.7350     0.1400 N.4   1 <1>  -0.9590 
 13 C        3.5750     2.9420     0.3780 C.ar  1 <1>   0.0820 
 14 C        2.5650     2.3310    -1.7150 C.ar  1 <1>  -0.1500 
 15 C       -5.8520     2.1600    -0.9010 C.3   1 <1>   0.4810 
 16 O        4.6410     3.1540     1.1890 O.3   1 <1>  -0.3630 
 17 C        3.6990     2.4770    -0.9350 C.ar  1 <1>   0.0820 
 18 C       -7.1230     2.9730    -0.8980 C.2   1 <1>  -0.2880 
 19 C        5.5340     4.1740     0.7950 C.3   1 <1>   0.0400 
 20 O        4.8940     2.1520    -1.4920 O.3   1 <1>  -0.3630 
 21 C       -8.2800     2.5830    -0.3370 C.2   1 <1>  -0.1780 
 22 C        5.5230     1.0070    -0.9630 C.3   1 <1>   0.0400 
 23 C       -9.5280     3.3130    -0.2920 C.ar  1 <1>   0.0280 
 24 C      -10.5140     2.9490     0.6230 C.ar  1 <1>  -0.1500 
 25 C       -9.7970     4.3880    -1.1380 C.ar  1 <1>  -0.1500 
 26 C      -11.7140     3.6320     0.6990 C.ar  1 <1>  -0.1500 
 27 C      -10.9950     5.0760    -1.0660 C.ar  1 <1>  -0.1500 
 28 C      -11.9560     4.7000    -0.1460 C.ar  1 <1>  -0.1500 
 29 H       -0.0360     3.4810     1.7240 H     1 <1>   0.3700 
 30 H       -3.9270     4.9230     1.6370 H     1 <1>   0.0800 
 31 H       -2.9500     5.5240     0.3280 H     1 <1>   0.0800 
 32 H       -2.1090     1.6520     1.7340 H     1 <1>   0.0800 
 33 H       -3.4130     2.5170     2.4980 H     1 <1>   0.0800 
 34 H       -3.8830     3.9470    -1.2300 H     1 <1>   0.0800 
 35 H       -5.2000     4.7750    -0.4460 H     1 <1>   0.0800 
 36 H       -4.3230     0.8610     0.9190 H     1 <1>   0.0800 
 37 H       -3.3180     1.4970    -0.3560 H     1 <1>   0.0800 
 38 H        2.2490     3.5440     1.9130 H     1 <1>   0.1500 
 39 H        0.4540     2.4820    -1.8150 H     1 <1>   0.1500 
 40 H       -5.5730     2.9030     0.9580 H     1 <1>   0.4500 
 41 H        2.6660     1.9940    -2.7300 H     1 <1>   0.1500 
 42 H       -5.3780     2.1840    -1.8700 H     1 <1>   0.0800 
 43 H       -6.0880     1.1370    -0.6550 H     1 <1>   0.0800 
 44 H       -7.0150     3.9180    -1.3990 H     1 <1>   0.1500 
 45 H        6.2450     4.3220     1.5870 H     1 <1>   0.0800 
 46 H        4.9760     5.0780     0.6260 H     1 <1>   0.0800 
 47 H        6.0430     3.8750    -0.1030 H     1 <1>   0.0800 
 48 H       -8.3420     1.6260     0.1540 H     1 <1>   0.1500 
 49 H        6.4150     0.8190    -1.5320 H     1 <1>   0.0800 
 50 H        4.8490     0.1720    -1.0450 H     1 <1>   0.0800 
 51 H        5.7760     1.1830     0.0670 H     1 <1>   0.0800 
 52 H      -10.3460     2.1210     1.2880 H     1 <1>   0.1500 
 53 H       -9.0740     4.6940    -1.8690 H     1 <1>   0.1500 
 54 H      -12.4610     3.3350     1.4140 H     1 <1>   0.1500 
 55 H      -11.1850     5.9030    -1.7280 H     1 <1>   0.1500 
 56 H      -12.8890     5.2340    -0.0880 H     1 <1>   0.1500 
@<TRIPOS>BOND
  1   1   2  2   
  2   2   3  am  
  3   2   4  am  
  4   3   5  1   
  5   3   6  1   
  6   4   7  1   
  7   4  29  1   
  8   5   8  1   
  9   5  30  1   
 10   5  31  1   
 11   6   9  1   
 12   6  32  1   
 13   6  33  1   
 14   7  10  ar  
 15   7  11  ar  
 16   8  12  1   
 17   8  34  1   
 18   8  35  1   
 19   9  12  1   
 20   9  36  1   
 21   9  37  1   
 22  10  13  ar  
 23  10  38  1   
 24  11  14  ar  
 25  11  39  1   
 26  12  15  1   
 27  12  40  1   
 28  13  16  1   
 29  13  17  ar  
 30  14  17  ar  
 31  14  41  1   
 32  15  18  1   
 33  15  42  1   
 34  15  43  1   
 35  16  19  1   
 36  17  20  1   
 37  18  21  2   
 38  18  44  1   
 39  19  45  1   
 40  19  46  1   
 41  19  47  1   
 42  20  22  1   
 43  21  23  1   
 44  21  48  1   
 45  22  49  1   
 46  22  50  1   
 47  22  51  1   
 48  23  24  ar  
 49  23  25  ar  
 50  24  26  ar  
 51  24  52  1   
 52  25  27  ar  
 53  25  53  1   
 54  26  28  ar  
 55  26  54  1   
 56  27  28  ar  
 57  27  55  1   
 58  28  56  1   
@<TRIPOS>SUBSTRUCTURE
  1 ****   3 GROUP 4 **** **** 0

# MOE 2024.06 (io_trps.svl 2023.06)
