@<TRIPOS>MOLECULE
NONAME
42 43 1 0 0 
SMALL
USER_CHARGES


@<TRIPOS>ATOM
  1 O        0.0360    -1.0620    -2.1890 O.2   1 <1>  -0.5700 
  2 C        0.5550    -2.0260    -1.6910 C.2   1 <1>   0.5690 
  3 N        1.8070    -2.3560    -2.0990 N.am  1 <1>  -0.7300 
  4 C       -0.1920    -2.8450    -0.6310 C.3   1 <1>  -0.0190 
  5 C        2.6520    -3.5180    -1.7330 C.3   1 <1>   0.1400 
  6 C       -1.0180    -3.9680    -1.2880 C.3   1 <1>  -0.1600 
  7 C       -1.0990    -1.9690     0.2580 C.3   1 <1>  -0.1600 
  8 C        3.6650    -3.1080    -0.6490 C.3   1 <1>   0.3430 
  9 C       -1.7580    -4.8120    -0.2410 C.3   1 <1>  -0.1600 
 10 C       -1.8370    -2.8080     1.3110 C.3   1 <1>  -0.1600 
 11 N        4.5200    -4.2490    -0.1880 N.4   1 <1>  -0.9590 
 12 C       -2.6450    -3.9340     0.6520 C.3   1 <1>  -0.1600 
 13 C        5.3060    -3.9060     1.0470 C.3   1 <1>   0.3430 
 14 C        5.4430    -4.8070    -1.2410 C.3   1 <1>   0.3430 
 15 C        6.1490    -5.1110     1.5290 C.3   1 <1>   0.1200 
 16 C        6.3410    -5.9290    -0.6700 C.3   1 <1>   0.1200 
 17 O        6.0110    -6.2070     0.6640 O.3   1 <1>  -0.5600 
 18 H        2.1500    -1.7500    -2.8530 H     1 <1>   0.3700 
 19 H        0.5340    -3.2960     0.0170 H     1 <1>   0.0800 
 20 H        3.1630    -3.8550    -2.6170 H     1 <1>   0.0800 
 21 H        2.0290    -4.3170    -1.3710 H     1 <1>   0.0800 
 22 H       -0.3780    -4.6040    -1.8730 H     1 <1>   0.0800 
 23 H       -1.7370    -3.5260    -1.9580 H     1 <1>   0.0800 
 24 H       -1.8240    -1.4650    -0.3590 H     1 <1>   0.0800 
 25 H       -0.5090    -1.2140     0.7470 H     1 <1>   0.0800 
 26 H        3.1130    -2.7170     0.1910 H     1 <1>   0.0800 
 27 H        4.2910    -2.3190    -1.0340 H     1 <1>   0.0800 
 28 H       -1.0460    -5.3370     0.3720 H     1 <1>   0.0800 
 29 H       -2.3690    -5.5460    -0.7370 H     1 <1>   0.0800 
 30 H       -2.5010    -2.1740     1.8730 H     1 <1>   0.0800 
 31 H       -1.1270    -3.2330     1.9990 H     1 <1>   0.0800 
 32 H        3.9300    -5.0460     0.1010 H     1 <1>   0.4500 
 33 H       -3.1070    -4.5400     1.4120 H     1 <1>   0.0800 
 34 H       -3.4310    -3.5020     0.0550 H     1 <1>   0.0800 
 35 H        4.6410    -3.6050     1.8400 H     1 <1>   0.0800 
 36 H        5.9660    -3.0780     0.8460 H     1 <1>   0.0800 
 37 H        6.0710    -4.0250    -1.6350 H     1 <1>   0.0800 
 38 H        4.8700    -5.2070    -2.0620 H     1 <1>   0.0800 
 39 H        5.8230    -5.4240     2.5060 H     1 <1>   0.0800 
 40 H        7.1910    -4.8480     1.5920 H     1 <1>   0.0800 
 41 H        7.3800    -5.6500    -0.7180 H     1 <1>   0.0800 
 42 H        6.2110    -6.8350    -1.2370 H     1 <1>   0.0800 
@<TRIPOS>BOND
  1   1   2  2   
  2   2   3  am  
  3   2   4  1   
  4   3   5  1   
  5   3  18  1   
  6   4   6  1   
  7   4   7  1   
  8   4  19  1   
  9   5   8  1   
 10   5  20  1   
 11   5  21  1   
 12   6   9  1   
 13   6  22  1   
 14   6  23  1   
 15   7  10  1   
 16   7  24  1   
 17   7  25  1   
 18   8  11  1   
 19   8  26  1   
 20   8  27  1   
 21   9  12  1   
 22   9  28  1   
 23   9  29  1   
 24  10  12  1   
 25  10  30  1   
 26  10  31  1   
 27  11  13  1   
 28  11  14  1   
 29  11  32  1   
 30  12  33  1   
 31  12  34  1   
 32  13  15  1   
 33  13  35  1   
 34  13  36  1   
 35  14  16  1   
 36  14  37  1   
 37  14  38  1   
 38  15  17  1   
 39  15  39  1   
 40  15  40  1   
 41  16  17  1   
 42  16  41  1   
 43  16  42  1   
@<TRIPOS>SUBSTRUCTURE
  1 ****   5 GROUP 4 **** **** 0

# MOE 2024.06 (io_trps.svl 2023.06)
