@<TRIPOS>MOLECULE
NONAME
53 55 1 0 0 
SMALL
USER_CHARGES


@<TRIPOS>ATOM
  1 N       -0.0660    -0.3860    -0.6820 N.4   1 <1>  -0.9590 
  2 C        0.0210    -1.8680    -0.5120 C.3   1 <1>   0.3430 
  3 C       -1.1590     0.0520    -1.5950 C.3   1 <1>   0.3430 
  4 C        1.2530     0.1760    -1.1120 C.3   1 <1>   0.4860 
  5 C       -1.3130    -2.4150     0.0000 C.3   1 <1>  -0.1600 
  6 C       -2.5010    -0.4800    -1.0880 C.3   1 <1>  -0.1600 
  7 C        2.2450    -0.0700     0.0050 C.ar  1 <1>  -0.1440 
  8 C       -2.4570    -2.0030    -0.9350 C.3   1 <1>   0.4230 
  9 C        2.1860     0.6810     1.1720 C.ar  1 <1>  -0.1500 
 10 C        3.2130    -1.0570    -0.1240 C.ar  1 <1>  -0.1500 
 11 N       -3.7840    -2.5290    -0.4860 N.4   1 <1>  -0.9590 
 12 C        3.0720     0.4310     2.2050 C.ar  1 <1>  -0.1500 
 13 C        4.0970    -1.3040     0.9110 C.ar  1 <1>  -0.1500 
 14 C       -4.1940    -2.1580     0.9050 C.3   1 <1>   0.4860 
 15 C       -3.9530    -4.0020    -0.6840 C.3   1 <1>   0.3430 
 16 C        4.0240    -0.5630     2.0760 C.ar  1 <1>  -0.1500 
 17 C       -5.6960    -2.3090     1.0040 C.ar  1 <1>  -0.1440 
 18 C       -3.9810    -4.3330    -2.1720 C.3   1 <1>  -0.2400 
 19 C       -6.2480    -3.3660     1.7150 C.ar  1 <1>  -0.1500 
 20 C       -6.5340    -1.3940     0.3800 C.ar  1 <1>  -0.1500 
 21 C       -7.6220    -3.5150     1.7860 C.ar  1 <1>  -0.1500 
 22 C       -7.9070    -1.5450     0.4530 C.ar  1 <1>  -0.1500 
 23 C       -8.4510    -2.6060     1.1530 C.ar  1 <1>  -0.1500 
 24 H       -0.2110     0.0230     0.2520 H     1 <1>   0.4500 
 25 H        0.8010    -2.1140     0.1940 H     1 <1>   0.0800 
 26 H        0.2690    -2.3300    -1.4550 H     1 <1>   0.0800 
 27 H       -0.9720    -0.3190    -2.5910 H     1 <1>   0.0800 
 28 H       -1.1920     1.1300    -1.6410 H     1 <1>   0.0800 
 29 H        1.1730     1.2380    -1.2840 H     1 <1>   0.0800 
 30 H        1.5920    -0.2940    -2.0210 H     1 <1>   0.0800 
 31 H       -1.4680    -2.0490     0.9990 H     1 <1>   0.0800 
 32 H       -1.2360    -3.4870     0.0400 H     1 <1>   0.0800 
 33 H       -3.2600    -0.2110    -1.8030 H     1 <1>   0.0800 
 34 H       -2.7300     0.0040    -0.1560 H     1 <1>   0.0800 
 35 H       -2.2470    -2.4130    -1.9100 H     1 <1>   0.0800 
 36 H        1.4640     1.4700     1.2960 H     1 <1>   0.1500 
 37 H        3.2990    -1.6430    -1.0240 H     1 <1>   0.1500 
 38 H       -4.5160    -2.1110    -1.0770 H     1 <1>   0.4500 
 39 H        3.0280     1.0120     3.1110 H     1 <1>   0.1500 
 40 H        4.8480    -2.0700     0.8130 H     1 <1>   0.1500 
 41 H       -3.9370    -1.1350     1.1200 H     1 <1>   0.0800 
 42 H       -3.7070    -2.7940     1.6270 H     1 <1>   0.0800 
 43 H       -4.8900    -4.3210    -0.2530 H     1 <1>   0.0800 
 44 H       -3.1620    -4.5470    -0.1950 H     1 <1>   0.0800 
 45 H        4.7150    -0.7550     2.8810 H     1 <1>   0.1500 
 46 H       -4.7460    -3.7690    -2.6770 H     1 <1>   0.0800 
 47 H       -4.2190    -5.3760    -2.2890 H     1 <1>   0.0800 
 48 H       -3.0300    -4.1680    -2.6410 H     1 <1>   0.0800 
 49 H       -5.6270    -4.0850     2.2230 H     1 <1>   0.1500 
 50 H       -6.1420    -0.5510    -0.1630 H     1 <1>   0.1500 
 51 H       -8.0520    -4.3350     2.3370 H     1 <1>   0.1500 
 52 H       -8.5600    -0.8370    -0.0300 H     1 <1>   0.1500 
 53 H       -9.5200    -2.7230     1.2110 H     1 <1>   0.1500 
@<TRIPOS>BOND
  1   1   2  1   
  2   1   3  1   
  3   1   4  1   
  4   1  24  1   
  5   2   5  1   
  6   2  25  1   
  7   2  26  1   
  8   3   6  1   
  9   3  27  1   
 10   3  28  1   
 11   4   7  1   
 12   4  29  1   
 13   4  30  1   
 14   5   8  1   
 15   5  31  1   
 16   5  32  1   
 17   6   8  1   
 18   6  33  1   
 19   6  34  1   
 20   7   9  ar  
 21   7  10  ar  
 22   8  11  1   
 23   8  35  1   
 24   9  12  ar  
 25   9  36  1   
 26  10  13  ar  
 27  10  37  1   
 28  11  14  1   
 29  11  15  1   
 30  11  38  1   
 31  12  16  ar  
 32  12  39  1   
 33  13  16  ar  
 34  13  40  1   
 35  14  17  1   
 36  14  41  1   
 37  14  42  1   
 38  15  18  1   
 39  15  43  1   
 40  15  44  1   
 41  16  45  1   
 42  17  19  ar  
 43  17  20  ar  
 44  18  46  1   
 45  18  47  1   
 46  18  48  1   
 47  19  21  ar  
 48  19  49  1   
 49  20  22  ar  
 50  20  50  1   
 51  21  23  ar  
 52  21  51  1   
 53  22  23  ar  
 54  22  52  1   
 55  23  53  1   
@<TRIPOS>SUBSTRUCTURE
  1 ****   5 GROUP 4 **** **** 0

# MOE 2024.06 (io_trps.svl 2023.06)
