@<TRIPOS>MOLECULE
NONAME
49 51 1 0 0 
SMALL
USER_CHARGES


@<TRIPOS>ATOM
  1 F       -5.2660     0.5120    -3.3920 F     1 <1>  -0.3400 
  2 C       -5.5950     0.1980    -2.1440 C.3   1 <1>   1.1640 
  3 F       -6.7710    -0.4140    -2.2220 F     1 <1>  -0.3400 
  4 F       -5.8210     1.3540    -1.5290 F     1 <1>  -0.3400 
  5 C       -4.5400    -0.6530    -1.4280 C.ar  1 <1>  -0.1440 
  6 C       -4.6750    -0.9530    -0.0670 C.ar  1 <1>   0.1170 
  7 C       -3.4420    -1.1480    -2.1290 C.ar  1 <1>  -0.1500 
  8 N       -5.7560    -0.4660     0.6890 N.am  1 <1>  -0.5470 
  9 C       -3.7040    -1.7400     0.5450 C.ar  1 <1>  -0.1500 
 10 C       -2.4880    -1.9270    -1.5020 C.ar  1 <1>  -0.1500 
 11 C       -6.4300    -0.9890     1.7560 C.2   1 <1>   0.5690 
 12 C       -2.6210    -2.2250    -0.1610 C.ar  1 <1>  -0.1500 
 13 O       -6.1800    -2.0560     2.2630 O.2   1 <1>  -0.5700 
 14 C       -7.5790    -0.1440     2.3080 C.3   1 <1>   0.1710 
 15 N       -8.1320     0.8160     1.3070 N.3   1 <1>  -0.8100 
 16 C       -8.9880     0.1150     0.3150 C.3   1 <1>   0.1100 
 17 C       -8.9220     1.8800     1.9660 C.3   1 <1>   0.1100 
 18 C       -9.5500     1.0710    -0.7560 C.3   1 <1>   0.2090 
 19 C       -9.4960     2.8990     0.9590 C.3   1 <1>   0.2090 
 20 N      -10.2470     2.2410    -0.1490 N.pl3 1 <1>  -0.8380 
 21 C      -11.6400     2.2250    -0.0970 C.ar  1 <1>   0.1000 
 22 C      -12.3970     3.0130    -0.9660 C.ar  1 <1>  -0.1430 
 23 C      -12.3000     1.4180     0.8230 C.ar  1 <1>  -0.1500 
 24 C      -13.7800     2.9810    -0.9010 C.ar  1 <1>  -0.1500 
 25 C      -11.7100     3.9090    -1.9860 C.3   1 <1>  -0.0970 
 26 C      -13.6800     1.3880     0.8850 C.ar  1 <1>  -0.1500 
 27 C      -14.4230     2.1720     0.0210 C.ar  1 <1>  -0.1500 
 28 H       -3.3130    -0.9360    -3.1780 H     1 <1>   0.1500 
 29 H       -6.1970     0.4140     0.3880 H     1 <1>   0.3700 
 30 H       -3.7910    -1.9780     1.5900 H     1 <1>   0.1500 
 31 H       -1.6450    -2.3040    -2.0560 H     1 <1>   0.1500 
 32 H       -1.8830    -2.8330     0.3350 H     1 <1>   0.1500 
 33 H       -7.1900     0.4020     3.1480 H     1 <1>   0.0800 
 34 H       -8.3560    -0.7960     2.6670 H     1 <1>   0.0800 
 35 H       -9.8130    -0.3610     0.8140 H     1 <1>   0.0800 
 36 H       -8.4210    -0.6530    -0.1800 H     1 <1>   0.0800 
 37 H       -8.2960     2.4100     2.6620 H     1 <1>   0.0800 
 38 H       -9.7360     1.4440     2.5180 H     1 <1>   0.0800 
 39 H      -10.2360     0.5350    -1.3890 H     1 <1>   0.0800 
 40 H       -8.7440     1.4280    -1.3720 H     1 <1>   0.0800 
 41 H       -8.6870     3.4680     0.5360 H     1 <1>   0.0800 
 42 H      -10.1470     3.5840     1.4730 H     1 <1>   0.0800 
 43 H      -11.7250     0.8100     1.4920 H     1 <1>   0.1500 
 44 H      -14.3670     3.5860    -1.5680 H     1 <1>   0.1500 
 45 H      -11.1030     3.3100    -2.6400 H     1 <1>   0.0800 
 46 H      -11.0750     4.6130    -1.4790 H     1 <1>   0.0800 
 47 H      -12.4250     4.4500    -2.5760 H     1 <1>   0.0800 
 48 H      -14.1750     0.7580     1.6020 H     1 <1>   0.1500 
 49 H      -15.4980     2.1540     0.0640 H     1 <1>   0.1500 
@<TRIPOS>BOND
  1   1   2  1   
  2   2   3  1   
  3   2   4  1   
  4   2   5  1   
  5   5   6  ar  
  6   5   7  ar  
  7   6   8  1   
  8   6   9  ar  
  9   7  10  ar  
 10   7  28  1   
 11   8  11  am  
 12   8  29  1   
 13   9  12  ar  
 14   9  30  1   
 15  10  12  ar  
 16  10  31  1   
 17  11  13  2   
 18  11  14  1   
 19  12  32  1   
 20  14  15  1   
 21  14  33  1   
 22  14  34  1   
 23  15  16  1   
 24  15  17  1   
 25  16  18  1   
 26  16  35  1   
 27  16  36  1   
 28  17  19  1   
 29  17  37  1   
 30  17  38  1   
 31  18  20  1   
 32  18  39  1   
 33  18  40  1   
 34  19  20  1   
 35  19  41  1   
 36  19  42  1   
 37  20  21  1   
 38  21  22  ar  
 39  21  23  ar  
 40  22  24  ar  
 41  22  25  1   
 42  23  26  ar  
 43  23  43  1   
 44  24  27  ar  
 45  24  44  1   
 46  25  45  1   
 47  25  46  1   
 48  25  47  1   
 49  26  27  ar  
 50  26  48  1   
 51  27  49  1   
@<TRIPOS>SUBSTRUCTURE
  1 ****  16 GROUP 4 **** **** 0

# MOE 2024.06 (io_trps.svl 2023.06)
