@<TRIPOS>MOLECULE
NONAME
33 33 1 0 0 
SMALL
USER_CHARGES


@<TRIPOS>ATOM
  1 CL       1.4940     0.6870     2.2100 Cl    1 <1>  -0.1770 
  2 C        1.9860     1.2540     0.6260 C.ar  1 <1>   0.1770 
  3 C        1.1480     2.1000    -0.1070 C.ar  1 <1>   0.1990 
  4 C        3.2010     0.8230     0.1300 C.ar  1 <1>  -0.1500 
  5 N       -0.0670     2.5600     0.3950 N.am  1 <1>  -0.6930 
  6 C        1.5570     2.4870    -1.3800 C.ar  1 <1>  -0.1500 
  7 C        3.5820     1.2370    -1.1320 C.ar  1 <1>   0.1770 
  8 S       -0.1640     3.9450     1.4250 S.o2  1 <1>   1.3330 
  9 C       -1.3450     1.9180    -0.0300 C.3   1 <1>   0.2570 
 10 C        2.7710     2.0600    -1.8930 C.ar  1 <1>  -0.1500 
 11 CL       5.1120     0.7040    -1.7820 Cl    1 <1>  -0.1770 
 12 O       -1.4120     3.8440     2.1410 O.2   1 <1>  -0.6500 
 13 O        1.0920     4.0510     2.1240 O.2   1 <1>  -0.6500 
 14 C       -0.2660     5.2950     0.2680 C.3   1 <1>  -0.1350 
 15 C       -2.2160     2.8180    -0.9220 C.2   1 <1>   0.5690 
 16 O       -1.7180     3.2050    -1.9560 O.2   1 <1>  -0.5700 
 17 N       -3.4950     3.1910    -0.5670 N.am  1 <1>  -0.6600 
 18 C       -4.3040     4.1070    -1.4220 C.3   1 <1>   0.0600 
 19 C       -4.1720     2.7990     0.7030 C.3   1 <1>   0.0600 
 20 H        3.8340     0.1790     0.7110 H     1 <1>   0.1500 
 21 H        0.9190     3.1240    -1.9680 H     1 <1>   0.1500 
 22 H       -1.8780     1.6180     0.8510 H     1 <1>   0.0800 
 23 H       -1.1190     1.0280    -0.5870 H     1 <1>   0.0800 
 24 H        3.0900     2.3610    -2.8760 H     1 <1>   0.1500 
 25 H       -1.1620     5.2290    -0.3160 H     1 <1>   0.0800 
 26 H        0.5790     5.2820    -0.3920 H     1 <1>   0.0800 
 27 H       -0.2750     6.2280     0.7960 H     1 <1>   0.0800 
 28 H       -3.7620     4.3980    -2.3050 H     1 <1>   0.0800 
 29 H       -4.5550     4.9950    -0.8670 H     1 <1>   0.0800 
 30 H       -5.2100     3.6130    -1.7270 H     1 <1>   0.0800 
 31 H       -3.9860     1.7650     0.9330 H     1 <1>   0.0800 
 32 H       -5.2370     2.9320     0.6140 H     1 <1>   0.0800 
 33 H       -3.8180     3.4140     1.5120 H     1 <1>   0.0800 
@<TRIPOS>BOND
  1   1   2  1   
  2   2   3  ar  
  3   2   4  ar  
  4   3   5  1   
  5   3   6  ar  
  6   4   7  ar  
  7   4  20  1   
  8   5   8  am  
  9   5   9  1   
 10   6  10  ar  
 11   6  21  1   
 12   7  10  ar  
 13   7  11  1   
 14   8  12  2   
 15   8  13  2   
 16   8  14  1   
 17   9  15  1   
 18   9  22  1   
 19   9  23  1   
 20  10  24  1   
 21  14  25  1   
 22  14  26  1   
 23  14  27  1   
 24  15  16  2   
 25  15  17  am  
 26  17  18  1   
 27  17  19  1   
 28  18  28  1   
 29  18  29  1   
 30  18  30  1   
 31  19  31  1   
 32  19  32  1   
 33  19  33  1   
@<TRIPOS>SUBSTRUCTURE
  1 ****   5 GROUP 4 **** **** 0

# MOE 2024.06 (io_trps.svl 2023.06)
