@<TRIPOS>MOLECULE
NONAME
34 35 1 0 0 
SMALL
USER_CHARGES


@<TRIPOS>ATOM
  1 CL      -0.4880     0.2230     1.5250 Cl    1 <1>  -0.1770 
  2 C       -1.8260    -0.6560     0.8350 C.ar  1 <1>   0.1770 
  3 C       -2.2250    -0.3800    -0.4580 C.ar  1 <1>  -0.1500 
  4 C       -2.4680    -1.6180     1.5910 C.ar  1 <1>  -0.1500 
  5 C       -3.2910    -1.0770    -1.0040 C.ar  1 <1>  -0.1500 
  6 C       -3.5330    -2.3140     1.0440 C.ar  1 <1>  -0.1500 
  7 C       -3.9530    -2.0410    -0.2530 C.ar  1 <1>  -0.1430 
  8 C       -5.1300    -2.7940    -0.8490 C.3   1 <1>   0.4870 
  9 N       -6.3820    -2.3230    -0.1950 N.4   1 <1>  -0.9590 
 10 C       -7.5010    -3.2620    -0.4830 C.3   1 <1>   0.3430 
 11 C       -6.6720    -0.9000    -0.5420 C.3   1 <1>   0.3430 
 12 C       -8.7320    -2.9770     0.3790 C.3   1 <1>  -0.1600 
 13 C       -7.4200    -0.2320     0.6110 C.3   1 <1>  -0.1600 
 14 C       -9.4820    -1.7040    -0.0370 C.3   1 <1>  -0.1600 
 15 C       -8.9470    -0.4140     0.6000 C.3   1 <1>  -0.1600 
 16 H       -1.7010     0.3700    -1.0250 H     1 <1>   0.1500 
 17 H       -2.1300    -1.8160     2.5940 H     1 <1>   0.1500 
 18 H       -3.5880    -0.8560    -2.0160 H     1 <1>   0.1500 
 19 H       -4.0180    -3.0670     1.6410 H     1 <1>   0.1500 
 20 H       -4.9940    -3.8490    -0.6740 H     1 <1>   0.0800 
 21 H       -5.1780    -2.6280    -1.9130 H     1 <1>   0.0800 
 22 H       -6.2020    -2.3410     0.8150 H     1 <1>   0.4500 
 23 H       -7.1760    -4.2700    -0.2830 H     1 <1>   0.0800 
 24 H       -7.7720    -3.2030    -1.5250 H     1 <1>   0.0800 
 25 H       -7.2400    -0.8310    -1.4560 H     1 <1>   0.0800 
 26 H       -5.7450    -0.3690    -0.6820 H     1 <1>   0.0800 
 27 H       -8.4780    -2.9540     1.4250 H     1 <1>   0.0800 
 28 H       -9.4060    -3.8050     0.2410 H     1 <1>   0.0800 
 29 H       -7.2230     0.8260     0.5630 H     1 <1>   0.0800 
 30 H       -7.0160    -0.5710     1.5490 H     1 <1>   0.0800 
 31 H      -10.5150    -1.8040     0.2560 H     1 <1>   0.0800 
 32 H       -9.4790    -1.6120    -1.1110 H     1 <1>   0.0800 
 33 H       -9.3920     0.4160     0.0760 H     1 <1>   0.0800 
 34 H       -9.3000    -0.3550     1.6170 H     1 <1>   0.0800 
@<TRIPOS>BOND
  1   1   2  1   
  2   2   3  ar  
  3   2   4  ar  
  4   3   5  ar  
  5   3  16  1   
  6   4   6  ar  
  7   4  17  1   
  8   5   7  ar  
  9   5  18  1   
 10   6   7  ar  
 11   6  19  1   
 12   7   8  1   
 13   8   9  1   
 14   8  20  1   
 15   8  21  1   
 16   9  10  1   
 17   9  11  1   
 18   9  22  1   
 19  10  12  1   
 20  10  23  1   
 21  10  24  1   
 22  11  13  1   
 23  11  25  1   
 24  11  26  1   
 25  12  14  1   
 26  12  27  1   
 27  12  28  1   
 28  13  15  1   
 29  13  29  1   
 30  13  30  1   
 31  14  15  1   
 32  14  31  1   
 33  14  32  1   
 34  15  33  1   
 35  15  34  1   
@<TRIPOS>SUBSTRUCTURE
  1 ****   7 GROUP 4 **** **** 0

# MOE 2024.06 (io_trps.svl 2023.06)
