@<TRIPOS>MOLECULE
NONAME
56 58 1 0 0 
SMALL
USER_CHARGES


@<TRIPOS>ATOM
  1 O       -4.3550     1.6510     2.8830 O.2   1 <1>  -0.5700 
  2 C       -3.9550     2.2200     1.8980 C.2   1 <1>   0.5690 
  3 N       -4.3020     1.8850     0.6210 N.am  1 <1>  -0.5470 
  4 C       -2.9900     3.3960     2.0760 C.3   1 <1>   0.1710 
  5 C       -5.2460     0.9610     0.1440 C.ar  1 <1>   0.1170 
  6 N       -1.9290     3.5030     1.0230 N.3   1 <1>  -0.8100 
  7 C       -6.2810     1.4260    -0.6720 C.ar  1 <1>  -0.1430 
  8 C       -5.1660    -0.4060     0.4290 C.ar  1 <1>  -0.1430 
  9 C       -1.0030     2.3470     1.0870 C.3   1 <1>   0.1100 
 10 C       -1.1940     4.7790     1.1550 C.3   1 <1>   0.1100 
 11 C       -7.2130     0.5390    -1.1830 C.ar  1 <1>  -0.1500 
 12 C       -6.4210     2.9060    -1.0100 C.3   1 <1>  -0.0970 
 13 C       -6.1140    -1.2730    -0.0890 C.ar  1 <1>  -0.1500 
 14 C       -4.0640    -1.0020     1.2970 C.3   1 <1>  -0.0970 
 15 C        0.1070     2.4430     0.0190 C.3   1 <1>   0.3430 
 16 C       -0.0880     4.9130     0.0880 C.3   1 <1>   0.3430 
 17 C       -7.1370    -0.8110    -0.8970 C.ar  1 <1>  -0.1440 
 18 N        0.8560     3.7400     0.1150 N.4   1 <1>  -0.9590 
 19 C       -8.1670    -1.7760    -1.4560 C.3   1 <1>  -0.0970 
 20 C        1.9090     3.8580    -0.9280 C.3   1 <1>   0.4860 
 21 C        2.7330     5.0950    -0.6330 C.ar  1 <1>  -0.1430 
 22 C        2.5820     6.2360    -1.4090 C.ar  1 <1>  -0.1500 
 23 C        3.6360     5.1010     0.4220 C.ar  1 <1>  -0.1500 
 24 C        3.3150     7.3740    -1.1230 C.ar  1 <1>  -0.1500 
 25 C        4.3670     6.2400     0.7050 C.ar  1 <1>  -0.1500 
 26 C        4.2050     7.3770    -0.0650 C.ar  1 <1>  -0.1500 
 27 H       -3.9130     2.5070    -0.0860 H     1 <1>   0.3700 
 28 H       -2.5350     3.3130     3.0480 H     1 <1>   0.0800 
 29 H       -3.5860     4.2910     2.0720 H     1 <1>   0.0800 
 30 H       -1.5520     1.4350     0.9220 H     1 <1>   0.0800 
 31 H       -0.5560     2.2850     2.0650 H     1 <1>   0.0800 
 32 H       -0.7570     4.8550     2.1360 H     1 <1>   0.0800 
 33 H       -1.8840     5.5980     1.0380 H     1 <1>   0.0800 
 34 H       -8.0120     0.8980    -1.8080 H     1 <1>   0.1500 
 35 H       -6.4800     3.4830    -0.1040 H     1 <1>   0.0800 
 36 H       -7.3130     3.0890    -1.5810 H     1 <1>   0.0800 
 37 H       -5.5770     3.2360    -1.5870 H     1 <1>   0.0800 
 38 H       -6.0580    -2.3220     0.1390 H     1 <1>   0.1500 
 39 H       -3.1310    -0.5020     1.1240 H     1 <1>   0.0800 
 40 H       -3.9300    -2.0460     1.0790 H     1 <1>   0.0800 
 41 H       -4.3300    -0.9020     2.3340 H     1 <1>   0.0800 
 42 H       -0.3520     2.3590    -0.9530 H     1 <1>   0.0800 
 43 H        0.7850     1.6140     0.1390 H     1 <1>   0.0800 
 44 H        0.4570     5.8270     0.2600 H     1 <1>   0.0800 
 45 H       -0.5550     4.9820    -0.8800 H     1 <1>   0.0800 
 46 H        1.3360     3.7740     1.0220 H     1 <1>   0.4500 
 47 H       -8.5460    -1.4180    -2.3960 H     1 <1>   0.0800 
 48 H       -8.9840    -1.8730    -0.7650 H     1 <1>   0.0800 
 49 H       -7.7280    -2.7440    -1.6140 H     1 <1>   0.0800 
 50 H        1.4620     3.9360    -1.9060 H     1 <1>   0.0800 
 51 H        2.5510     2.9920    -0.9120 H     1 <1>   0.0800 
 52 H        1.9010     6.2570    -2.2430 H     1 <1>   0.1500 
 53 H        3.7870     4.2260     1.0310 H     1 <1>   0.1500 
 54 H        3.1990     8.2600    -1.7260 H     1 <1>   0.1500 
 55 H        5.0690     6.2460     1.5230 H     1 <1>   0.1500 
 56 H        4.7760     8.2640     0.1560 H     1 <1>   0.1500 
@<TRIPOS>BOND
  1   1   2  2   
  2   2   3  am  
  3   2   4  1   
  4   3   5  1   
  5   3  27  1   
  6   4   6  1   
  7   4  28  1   
  8   4  29  1   
  9   5   7  ar  
 10   5   8  ar  
 11   6   9  1   
 12   6  10  1   
 13   7  11  ar  
 14   7  12  1   
 15   8  13  ar  
 16   8  14  1   
 17   9  15  1   
 18   9  30  1   
 19   9  31  1   
 20  10  16  1   
 21  10  32  1   
 22  10  33  1   
 23  11  17  ar  
 24  11  34  1   
 25  12  35  1   
 26  12  36  1   
 27  12  37  1   
 28  13  17  ar  
 29  13  38  1   
 30  14  39  1   
 31  14  40  1   
 32  14  41  1   
 33  15  18  1   
 34  15  42  1   
 35  15  43  1   
 36  16  18  1   
 37  16  44  1   
 38  16  45  1   
 39  17  19  1   
 40  18  20  1   
 41  18  46  1   
 42  19  47  1   
 43  19  48  1   
 44  19  49  1   
 45  20  21  1   
 46  20  50  1   
 47  20  51  1   
 48  21  22  ar  
 49  21  23  ar  
 50  22  24  ar  
 51  22  52  1   
 52  23  25  ar  
 53  23  53  1   
 54  24  26  ar  
 55  24  54  1   
 56  25  26  ar  
 57  25  55  1   
 58  26  56  1   
@<TRIPOS>SUBSTRUCTURE
  1 ****   6 GROUP 4 **** **** 0

# MOE 2024.06 (io_trps.svl 2023.06)
