@<TRIPOS>MOLECULE
NONAME
54 55 1 0 0 
SMALL
USER_CHARGES


@<TRIPOS>ATOM
  1 O       -7.4230     3.5860    -0.5110 O.3   1 <1>  -0.3630 
  2 C       -8.7720     3.5040    -0.3890 C.ar  1 <1>   0.0830 
  3 C       -6.7470     4.8180    -0.3780 C.3   1 <1>   0.1200 
  4 C       -9.5940     4.5810    -0.0780 C.ar  1 <1>  -0.1500 
  5 C       -9.3400     2.2610    -0.5930 C.ar  1 <1>  -0.1500 
  6 C       -5.2490     4.5710    -0.5920 C.3   1 <1>   0.2000 
  7 C      -10.9690     4.4210     0.0270 C.ar  1 <1>  -0.1440 
  8 C      -10.7070     2.0960    -0.4900 C.ar  1 <1>  -0.1500 
  9 O       -4.8360     3.5310     0.2440 O.3   1 <1>  -0.6800 
 10 C       -4.3890     5.8190    -0.3000 C.3   1 <1>   0.3430 
 11 C      -11.5410     3.1640    -0.1800 C.ar  1 <1>  -0.1440 
 12 C      -11.8050     5.6480     0.3720 C.3   1 <1>  -0.0970 
 13 N       -2.9820     5.4220     0.0180 N.4   1 <1>  -0.9590 
 14 C      -13.0520     2.9090    -0.0810 C.3   1 <1>   0.0630 
 15 C       -2.2940     6.3970     0.9090 C.3   1 <1>   0.3430 
 16 C       -2.1880     5.0840    -1.1960 C.3   1 <1>   0.3430 
 17 C      -13.3680     1.9070     1.0350 C.3   1 <1>  -0.2400 
 18 C      -13.6150     2.4240    -1.4220 C.3   1 <1>  -0.2400 
 19 C       -0.9460     5.8270     1.3510 C.3   1 <1>  -0.1600 
 20 C       -0.8390     4.4960    -0.7800 C.3   1 <1>  -0.1600 
 21 C       -0.0690     5.4440     0.1510 C.3   1 <1>  -0.0800 
 22 C        1.2360     4.7940     0.6220 C.3   1 <1>  -0.2400 
 23 H       -6.9340     5.2030     0.6090 H     1 <1>   0.0800 
 24 H       -7.1330     5.4970    -1.1190 H     1 <1>   0.0800 
 25 H       -9.1780     5.5550     0.0870 H     1 <1>   0.1500 
 26 H       -8.7120     1.4230    -0.8340 H     1 <1>   0.1500 
 27 H       -5.0910     4.2540    -1.6090 H     1 <1>   0.0800 
 28 H      -11.1210     1.1170    -0.6540 H     1 <1>   0.1500 
 29 H       -5.5330     2.8310     0.2320 H     1 <1>   0.4000 
 30 H       -4.8150     6.3210     0.5530 H     1 <1>   0.0800 
 31 H       -4.4170     6.5010    -1.1330 H     1 <1>   0.0800 
 32 H      -11.1900     6.5210     0.4950 H     1 <1>   0.0800 
 33 H      -12.3370     5.4830     1.2910 H     1 <1>   0.0800 
 34 H      -12.5100     5.8450    -0.4160 H     1 <1>   0.0800 
 35 H       -3.1030     4.5320     0.5410 H     1 <1>   0.4500 
 36 H      -13.5690     3.8180     0.1620 H     1 <1>   0.0800 
 37 H       -2.9000     6.5960     1.7780 H     1 <1>   0.0800 
 38 H       -2.1360     7.3240     0.3820 H     1 <1>   0.0800 
 39 H       -2.0270     5.9710    -1.7870 H     1 <1>   0.0800 
 40 H       -2.7190     4.3630    -1.7960 H     1 <1>   0.0800 
 41 H      -12.9490     0.9420     0.8180 H     1 <1>   0.0800 
 42 H      -14.4320     1.8020     1.1500 H     1 <1>   0.0800 
 43 H      -12.9570     2.2580     1.9640 H     1 <1>   0.0800 
 44 H      -13.2020     1.4700    -1.6930 H     1 <1>   0.0800 
 45 H      -13.3750     3.1330    -2.1940 H     1 <1>   0.0800 
 46 H      -14.6850     2.3310    -1.3640 H     1 <1>   0.0800 
 47 H       -1.1150     4.9680     1.9780 H     1 <1>   0.0800 
 48 H       -0.4360     6.5640     1.9470 H     1 <1>   0.0800 
 49 H       -0.2550     4.3090    -1.6640 H     1 <1>   0.0800 
 50 H       -1.0030     3.5490    -0.2960 H     1 <1>   0.0800 
 51 H        0.1800     6.3390    -0.3960 H     1 <1>   0.0800 
 52 H        1.0410     3.8910     1.1750 H     1 <1>   0.0800 
 53 H        1.7850     5.4690     1.2560 H     1 <1>   0.0800 
 54 H        1.8590     4.5480    -0.2210 H     1 <1>   0.0800 
@<TRIPOS>BOND
  1   1   2  1   
  2   1   3  1   
  3   2   4  ar  
  4   2   5  ar  
  5   3   6  1   
  6   3  23  1   
  7   3  24  1   
  8   4   7  ar  
  9   4  25  1   
 10   5   8  ar  
 11   5  26  1   
 12   6   9  1   
 13   6  10  1   
 14   6  27  1   
 15   7  11  ar  
 16   7  12  1   
 17   8  11  ar  
 18   8  28  1   
 19   9  29  1   
 20  10  13  1   
 21  10  30  1   
 22  10  31  1   
 23  11  14  1   
 24  12  32  1   
 25  12  33  1   
 26  12  34  1   
 27  13  15  1   
 28  13  16  1   
 29  13  35  1   
 30  14  17  1   
 31  14  18  1   
 32  14  36  1   
 33  15  19  1   
 34  15  37  1   
 35  15  38  1   
 36  16  20  1   
 37  16  39  1   
 38  16  40  1   
 39  17  41  1   
 40  17  42  1   
 41  17  43  1   
 42  18  44  1   
 43  18  45  1   
 44  18  46  1   
 45  19  21  1   
 46  19  47  1   
 47  19  48  1   
 48  20  21  1   
 49  20  49  1   
 50  20  50  1   
 51  21  22  1   
 52  21  51  1   
 53  22  52  1   
 54  22  53  1   
 55  22  54  1   
@<TRIPOS>SUBSTRUCTURE
  1 ****   3 GROUP 4 **** **** 0

# MOE 2024.06 (io_trps.svl 2023.06)
