@<TRIPOS>MOLECULE
NONAME
32 33 1 0 0 
SMALL
USER_CHARGES


@<TRIPOS>ATOM
  1 CL       0.1040    -0.4030    -0.1460 Cl    1 <1>  -0.2900 
  2 C       -0.5180    -1.9830    -0.6360 C.3   1 <1>   0.9310 
  3 CL       0.2250    -2.3430    -2.1900 Cl    1 <1>  -0.2900 
  4 CL       0.1170    -3.1420     0.5260 Cl    1 <1>  -0.2900 
  5 C       -2.0670    -1.9890    -0.6980 C.2   1 <1>   0.5690 
  6 O       -2.6370    -3.0000    -1.0390 O.2   1 <1>  -0.5700 
  7 N       -2.7530    -0.8320    -0.3610 N.am  1 <1>  -0.4940 
  8 C       -4.1000    -0.4980    -0.3150 C.2   1 <1>   0.1040 
  9 S       -5.3320    -1.6960    -0.7400 S.3   1 <1>  -0.0800 
 10 C       -4.6740     0.7040     0.0310 C.2   1 <1>  -0.0860 
 11 C       -6.5960    -0.5320    -0.4400 C.2   1 <1>  -0.1400 
 12 C       -6.1090     0.6350    -0.0580 C.2   1 <1>  -0.1810 
 13 C       -3.9770     1.8960     0.4300 C.2   1 <1>   0.8060 
 14 C       -8.0810    -0.6500    -0.5460 C.3   1 <1>   0.0200 
 15 C       -7.2320     1.6110     0.1890 C.3   1 <1>   0.0210 
 16 O       -4.5250     2.9530     0.6760 O.2   1 <1>  -0.5700 
 17 O       -2.6390     1.8260     0.5320 O.3   1 <1>  -0.4300 
 18 C       -8.5090     0.7790    -0.1230 C.3   1 <1>  -0.1600 
 19 C       -1.8330     2.9390     0.8670 C.3   1 <1>   0.1200 
 20 C       -1.5000     3.7040    -0.4120 C.3   1 <1>  -0.2400 
 21 H       -2.1490    -0.0460    -0.0870 H     1 <1>   0.3700 
 22 H       -8.4540    -1.3980     0.1310 H     1 <1>   0.0800 
 23 H       -8.3740    -0.8740    -1.5570 H     1 <1>   0.0800 
 24 H       -7.1460     2.4580    -0.4700 H     1 <1>   0.0800 
 25 H       -7.2220     1.9450     1.2120 H     1 <1>   0.0800 
 26 H       -9.1350     0.7290     0.7500 H     1 <1>   0.0800 
 27 H       -9.0650     1.2450    -0.9180 H     1 <1>   0.0800 
 28 H       -0.9320     2.5650     1.3220 H     1 <1>   0.0800 
 29 H       -2.3510     3.5610     1.5780 H     1 <1>   0.0800 
 30 H       -0.9880     3.0660    -1.1100 H     1 <1>   0.0800 
 31 H       -2.3970     4.0890    -0.8630 H     1 <1>   0.0800 
 32 H       -0.8590     4.5350    -0.1780 H     1 <1>   0.0800 
@<TRIPOS>BOND
  1   1   2  1   
  2   2   3  1   
  3   2   4  1   
  4   2   5  1   
  5   5   6  2   
  6   5   7  am  
  7   7   8  1   
  8   7  21  1   
  9   8   9  1   
 10   8  10  2   
 11   9  11  1   
 12  10  12  1   
 13  10  13  1   
 14  11  12  2   
 15  11  14  1   
 16  12  15  1   
 17  13  16  2   
 18  13  17  1   
 19  14  18  1   
 20  14  22  1   
 21  14  23  1   
 22  15  18  1   
 23  15  24  1   
 24  15  25  1   
 25  17  19  1   
 26  18  26  1   
 27  18  27  1   
 28  19  20  1   
 29  19  28  1   
 30  19  29  1   
 31  20  30  1   
 32  20  31  1   
 33  20  32  1   
@<TRIPOS>SUBSTRUCTURE
  1 ****   8 GROUP 4 **** **** 0

# MOE 2024.06 (io_trps.svl 2023.06)
