@<TRIPOS>MOLECULE
NONAME
30 31 1 0 0 
SMALL
USER_CHARGES


@<TRIPOS>ATOM
  1 BR       0.1520    -0.3980     1.3390 Br    1 <1>  -0.0580 
  2 C        1.8260    -0.3190     0.3970 C.2   1 <1>   0.1980 
  3 O        2.7940     0.3880     0.9210 O.3   1 <1>  -0.2800 
  4 C        2.1680    -0.9040    -0.7660 C.2   1 <1>  -0.1500 
  5 C        3.8410     0.2920     0.0990 C.2   1 <1>   0.0550 
  6 C        3.4910    -0.5010    -0.9620 C.2   1 <1>  -0.1500 
  7 C        5.0840     0.9700     0.4020 C.2   1 <1>   0.7150 
  8 O        5.0750     2.0870     0.8890 O.2   1 <1>  -0.5700 
  9 N        6.3080     0.3860     0.1420 N.am  1 <1>  -0.6600 
 10 C        6.4930    -1.0860    -0.0350 C.3   1 <1>   0.1400 
 11 C        7.5750     1.1620     0.3090 C.3   1 <1>   0.1400 
 12 C        7.8770    -1.5400     0.4700 C.3   1 <1>   0.2000 
 13 C        8.7460     0.5100    -0.4600 C.3   1 <1>   0.2000 
 14 O        8.9090    -0.8590    -0.1860 O.3   1 <1>  -0.5600 
 15 C        8.1140    -3.0300     0.2390 C.3   1 <1>  -0.2400 
 16 C       10.0800     1.1830    -0.1470 C.3   1 <1>  -0.2400 
 17 H        1.5750    -1.5330    -1.4050 H     1 <1>   0.1500 
 18 H        4.0990    -0.7700    -1.8080 H     1 <1>   0.1500 
 19 H        6.4020    -1.3350    -1.0780 H     1 <1>   0.0800 
 20 H        5.7320    -1.6160     0.5100 H     1 <1>   0.0800 
 21 H        7.8170     1.2210     1.3550 H     1 <1>   0.0800 
 22 H        7.4320     2.1660    -0.0510 H     1 <1>   0.0800 
 23 H        7.9610    -1.3260     1.5230 H     1 <1>   0.0800 
 24 H        8.5490     0.5950    -1.5140 H     1 <1>   0.0800 
 25 H        8.0690    -3.2570    -0.8110 H     1 <1>   0.0800 
 26 H        7.3690    -3.6080     0.7530 H     1 <1>   0.0800 
 27 H        9.0810    -3.3060     0.6190 H     1 <1>   0.0800 
 28 H       10.3130     1.0820     0.8970 H     1 <1>   0.0800 
 29 H       10.0330     2.2280    -0.3920 H     1 <1>   0.0800 
 30 H       10.8610     0.7300    -0.7310 H     1 <1>   0.0800 
@<TRIPOS>BOND
  1   1   2  1   
  2   2   3  1   
  3   2   4  2   
  4   3   5  1   
  5   4   6  1   
  6   4  17  1   
  7   5   6  2   
  8   5   7  1   
  9   6  18  1   
 10   7   8  2   
 11   7   9  am  
 12   9  10  1   
 13   9  11  1   
 14  10  12  1   
 15  10  19  1   
 16  10  20  1   
 17  11  13  1   
 18  11  21  1   
 19  11  22  1   
 20  12  14  1   
 21  12  15  1   
 22  12  23  1   
 23  13  14  1   
 24  13  16  1   
 25  13  24  1   
 26  15  25  1   
 27  15  26  1   
 28  15  27  1   
 29  16  28  1   
 30  16  29  1   
 31  16  30  1   
@<TRIPOS>SUBSTRUCTURE
  1 ****   9 GROUP 4 **** **** 0

# MOE 2024.06 (io_trps.svl 2023.06)
