@<TRIPOS>MOLECULE
NONAME
47 49 1 0 0 
SMALL
USER_CHARGES


@<TRIPOS>ATOM
  1 O        1.4660     0.2260     1.7780 O.3   1 <1>  -0.6800 
  2 C        2.5660    -0.5990     1.6050 C.3   1 <1>   0.1200 
  3 C        3.2340    -0.2350     0.2740 C.3   1 <1>   0.1100 
  4 N        4.4170    -1.0810    -0.0030 N.3   1 <1>  -0.8100 
  5 C        4.0360    -2.4440    -0.4540 C.3   1 <1>   0.1100 
  6 C        5.2820    -0.4330    -1.0210 C.3   1 <1>   0.1100 
  7 C        5.2680    -3.3310    -0.7630 C.3   1 <1>   0.3430 
  8 C        6.5130    -1.2920    -1.4000 C.3   1 <1>   0.3430 
  9 N        6.5460    -2.5650    -0.6050 N.4   1 <1>  -0.9590 
 10 C        7.7730    -3.3780    -0.8100 C.3   1 <1>   0.4860 
 11 C        8.9880    -2.5260    -0.4970 C.ar  1 <1>  -0.1440 
 12 C        9.8050    -2.0710    -1.5210 C.ar  1 <1>  -0.1500 
 13 C        9.2930    -2.1860     0.8130 C.ar  1 <1>  -0.1500 
 14 C       10.9020    -1.2790    -1.2370 C.ar  1 <1>  -0.1500 
 15 C       10.3930    -1.3940     1.0880 C.ar  1 <1>  -0.1500 
 16 C       11.2160    -0.9240     0.0710 C.ar  1 <1>   0.0000 
 17 C       12.3650    -0.0970     0.3620 C.ar  1 <1>   0.0000 
 18 C       13.6440    -0.4860    -0.0250 C.ar  1 <1>  -0.1500 
 19 C       12.2260     1.1130     1.0370 C.ar  1 <1>  -0.1500 
 20 C       14.7460     0.3030     0.2500 C.ar  1 <1>  -0.1500 
 21 C       13.3250     1.9060     1.3160 C.ar  1 <1>  -0.1500 
 22 C       14.5880     1.5030     0.9220 C.ar  1 <1>  -0.1500 
 23 H        1.0390     0.0650     2.6430 H     1 <1>   0.4000 
 24 H        2.2190    -1.6160     1.6060 H     1 <1>   0.0800 
 25 H        3.2450    -0.4340     2.4230 H     1 <1>   0.0800 
 26 H        3.5410     0.7960     0.3420 H     1 <1>   0.0800 
 27 H        2.5180    -0.3220    -0.5260 H     1 <1>   0.0800 
 28 H        3.4210    -2.3770    -1.3360 H     1 <1>   0.0800 
 29 H        3.4500    -2.9290     0.3080 H     1 <1>   0.0800 
 30 H        5.6300     0.5130    -0.6390 H     1 <1>   0.0800 
 31 H        4.7110    -0.2280    -1.9110 H     1 <1>   0.0800 
 32 H        5.1840    -3.7100    -1.7680 H     1 <1>   0.0800 
 33 H        5.2630    -4.1750    -0.0930 H     1 <1>   0.0800 
 34 H        7.4050    -0.7170    -1.2130 H     1 <1>   0.0800 
 35 H        6.4810    -1.5140    -2.4540 H     1 <1>   0.0800 
 36 H        6.5310    -2.2270     0.3680 H     1 <1>   0.4500 
 37 H        7.8230    -3.7230    -1.8300 H     1 <1>   0.0800 
 38 H        7.7630    -4.2360    -0.1580 H     1 <1>   0.0800 
 39 H        9.6030    -2.3250    -2.5480 H     1 <1>   0.1500 
 40 H        8.6870    -2.5320     1.6330 H     1 <1>   0.1500 
 41 H       11.5320    -0.9250    -2.0360 H     1 <1>   0.1500 
 42 H       10.6300    -1.1370     2.1070 H     1 <1>   0.1500 
 43 H       13.7770    -1.4190    -0.5430 H     1 <1>   0.1500 
 44 H       11.2480     1.4360     1.3440 H     1 <1>   0.1500 
 45 H       15.7280    -0.0140    -0.0570 H     1 <1>   0.1500 
 46 H       13.1990     2.8390     1.8380 H     1 <1>   0.1500 
 47 H       15.4430     2.1180     1.1370 H     1 <1>   0.1500 
@<TRIPOS>BOND
  1   1   2  1   
  2   1  23  1   
  3   2   3  1   
  4   2  24  1   
  5   2  25  1   
  6   3   4  1   
  7   3  26  1   
  8   3  27  1   
  9   4   5  1   
 10   4   6  1   
 11   5   7  1   
 12   5  28  1   
 13   5  29  1   
 14   6   8  1   
 15   6  30  1   
 16   6  31  1   
 17   7   9  1   
 18   7  32  1   
 19   7  33  1   
 20   8   9  1   
 21   8  34  1   
 22   8  35  1   
 23   9  10  1   
 24   9  36  1   
 25  10  11  1   
 26  10  37  1   
 27  10  38  1   
 28  11  12  ar  
 29  11  13  ar  
 30  12  14  ar  
 31  12  39  1   
 32  13  15  ar  
 33  13  40  1   
 34  14  16  ar  
 35  14  41  1   
 36  15  16  ar  
 37  15  42  1   
 38  16  17  1   
 39  17  18  ar  
 40  17  19  ar  
 41  18  20  ar  
 42  18  43  1   
 43  19  21  ar  
 44  19  44  1   
 45  20  22  ar  
 46  20  45  1   
 47  21  22  ar  
 48  21  46  1   
 49  22  47  1   
@<TRIPOS>SUBSTRUCTURE
  1 ****  13 GROUP 4 **** **** 0

# MOE 2024.06 (io_trps.svl 2023.06)
