@<TRIPOS>MOLECULE
NONAME
48 50 1 0 0 
SMALL
USER_CHARGES


@<TRIPOS>ATOM
  1 O       -0.5440     0.2550    -1.0930 O.2   1 <1>  -0.5700 
  2 C       -0.5950    -0.6250    -0.2550 C.2   1 <1>   0.6900 
  3 N       -1.8000    -1.0810     0.2050 N.am  1 <1>  -0.6600 
  4 N        0.5450    -1.1700     0.2290 N.am  1 <1>  -0.7300 
  5 C       -3.0660    -0.5640    -0.4090 C.3   1 <1>   0.3200 
  6 C       -1.9510    -1.8250     1.4840 C.3   1 <1>   0.1400 
  7 C        1.9080    -0.8290    -0.2000 C.3   1 <1>   0.2200 
  8 C       -4.0720    -1.6680    -0.6950 C.2   1 <1>   0.2980 
  9 C       -1.8420    -3.3300     1.2360 C.3   1 <1>  -0.2400 
 10 C        2.4780    -1.9970    -1.0110 C.3   1 <1>  -0.1600 
 11 C        2.7600    -0.5460     1.0420 C.3   1 <1>  -0.1600 
 12 O       -3.8190    -2.5070    -1.6660 O.3   1 <1>  -0.0190 
 13 N       -5.1610    -1.8700    -0.0710 N.2   1 <1>  -0.5650 
 14 C        3.9450    -1.7450    -1.3930 C.3   1 <1>  -0.1600 
 15 C        4.2260    -0.2910     0.6640 C.3   1 <1>  -0.1600 
 16 N       -4.8320    -3.3150    -1.6560 N.2   1 <1>  -0.4100 
 17 C       -5.6280    -2.9440    -0.7170 C.2   1 <1>   0.4620 
 18 C        4.8000    -1.4580    -0.1520 C.3   1 <1>  -0.1600 
 19 C       -6.8850    -3.5870    -0.3670 C.ar  1 <1>   0.0540 
 20 C       -7.6980    -3.1020     0.6600 C.ar  1 <1>  -0.1500 
 21 C       -7.3310    -4.7220    -1.0470 C.ar  1 <1>  -0.1500 
 22 C       -8.8920    -3.7170     0.9910 C.ar  1 <1>  -0.1500 
 23 C       -8.5240    -5.3420    -0.7220 C.ar  1 <1>  -0.1500 
 24 C       -9.3080    -4.8400     0.3000 C.ar  1 <1>  -0.1500 
 25 H        0.4550    -2.0020     0.8020 H     1 <1>   0.3700 
 26 H       -2.8620    -0.0560    -1.3350 H     1 <1>   0.0800 
 27 H       -3.5100     0.1480     0.2630 H     1 <1>   0.0800 
 28 H       -2.9050    -1.5990     1.9300 H     1 <1>   0.0800 
 29 H       -1.1870    -1.5120     2.1770 H     1 <1>   0.0800 
 30 H        1.8870     0.0530    -0.8190 H     1 <1>   0.0800 
 31 H       -2.6490    -3.6710     0.6130 H     1 <1>   0.0800 
 32 H       -1.9010    -3.8540     2.1720 H     1 <1>   0.0800 
 33 H       -0.9080    -3.5750     0.7650 H     1 <1>   0.0800 
 34 H        1.8950    -2.1230    -1.9070 H     1 <1>   0.0800 
 35 H        2.4180    -2.9020    -0.4340 H     1 <1>   0.0800 
 36 H        2.7130    -1.3870     1.7110 H     1 <1>   0.0800 
 37 H        2.3680     0.3180     1.5500 H     1 <1>   0.0800 
 38 H        3.9970    -0.9030    -2.0640 H     1 <1>   0.0800 
 39 H        4.3360    -2.6030    -1.9120 H     1 <1>   0.0800 
 40 H        4.8110    -0.1520     1.5570 H     1 <1>   0.0800 
 41 H        4.2910     0.6140     0.0840 H     1 <1>   0.0800 
 42 H        5.8060    -1.2240    -0.4550 H     1 <1>   0.0800 
 43 H        4.8390    -2.3390     0.4660 H     1 <1>   0.0800 
 44 H       -7.3920    -2.2290     1.2090 H     1 <1>   0.1500 
 45 H       -6.7330    -5.1270    -1.8460 H     1 <1>   0.1500 
 46 H       -9.4990    -3.3210     1.7880 H     1 <1>   0.1500 
 47 H       -8.8420    -6.2160    -1.2640 H     1 <1>   0.1500 
 48 H      -10.2370    -5.3200     0.5560 H     1 <1>   0.1500 
@<TRIPOS>BOND
  1   1   2  2   
  2   2   3  am  
  3   2   4  am  
  4   3   5  1   
  5   3   6  1   
  6   4   7  1   
  7   4  25  1   
  8   5   8  1   
  9   5  26  1   
 10   5  27  1   
 11   6   9  1   
 12   6  28  1   
 13   6  29  1   
 14   7  10  1   
 15   7  11  1   
 16   7  30  1   
 17   8  12  1   
 18   8  13  2   
 19   9  31  1   
 20   9  32  1   
 21   9  33  1   
 22  10  14  1   
 23  10  34  1   
 24  10  35  1   
 25  11  15  1   
 26  11  36  1   
 27  11  37  1   
 28  12  16  1   
 29  13  17  1   
 30  14  18  1   
 31  14  38  1   
 32  14  39  1   
 33  15  18  1   
 34  15  40  1   
 35  15  41  1   
 36  16  17  2   
 37  17  19  1   
 38  18  42  1   
 39  18  43  1   
 40  19  20  ar  
 41  19  21  ar  
 42  20  22  ar  
 43  20  44  1   
 44  21  23  ar  
 45  21  45  1   
 46  22  24  ar  
 47  22  46  1   
 48  23  24  ar  
 49  23  47  1   
 50  24  48  1   
@<TRIPOS>SUBSTRUCTURE
  1 ****   3 GROUP 4 **** **** 0

# MOE 2024.06 (io_trps.svl 2023.06)
