@<TRIPOS>MOLECULE
NONAME
52 52 1 0 0 
SMALL
USER_CHARGES


@<TRIPOS>ATOM
  1 O       -1.9070    -0.5250    -1.1280 O.2   1 <1>  -0.5700 
  2 C       -1.3510    -0.1600    -0.1130 C.2   1 <1>   0.7060 
  3 O       -0.2700     0.6220    -0.2040 O.3   1 <1>  -0.4300 
  4 C       -1.7940    -0.5270     1.2000 C.2   1 <1>   0.0790 
  5 C        0.2930     1.0100    -1.4410 C.3   1 <1>   0.1200 
  6 C       -1.9400     0.5810     2.0830 C.1   1 <1>   0.4920 
  7 C       -2.0670    -1.7950     1.6060 C.2   1 <1>  -0.1780 
  8 C        1.2250    -0.0980    -1.9300 C.3   1 <1>  -0.2400 
  9 N       -2.0700     1.4520     2.8070 N.1   1 <1>  -0.5570 
 10 C       -1.9070    -2.9920     0.8280 C.ar  1 <1>   0.0280 
 11 C       -0.6280    -3.4920     0.5470 C.ar  1 <1>  -0.1430 
 12 C       -3.0290    -3.6700     0.3370 C.ar  1 <1>  -0.1430 
 13 C       -0.4750    -4.6160    -0.2540 C.ar  1 <1>  -0.1430 
 14 C        0.6020    -2.7920     1.1400 C.3   1 <1>  -0.0970 
 15 C       -2.8770    -4.8430    -0.3910 C.ar  1 <1>  -0.1430 
 16 C       -4.4260    -3.0950     0.6070 C.3   1 <1>  -0.0970 
 17 C       -1.5990    -5.3170    -0.7120 C.ar  1 <1>   0.0280 
 18 C        0.9290    -5.0910    -0.6530 C.3   1 <1>  -0.0970 
 19 C       -4.1060    -5.6390    -0.8500 C.3   1 <1>  -0.0970 
 20 C       -1.4530    -6.5030    -1.5100 C.2   1 <1>  -0.1780 
 21 C       -0.9760    -7.7150    -1.1150 C.2   1 <1>   0.0790 
 22 C       -0.8550    -8.7820    -2.0520 C.1   1 <1>   0.4920 
 23 C       -0.5660    -8.0620     0.2170 C.2   1 <1>   0.7060 
 24 N       -0.7770    -9.6180    -2.8240 N.1   1 <1>  -0.5570 
 25 O       -1.1390    -7.6850     1.2170 O.2   1 <1>  -0.5700 
 26 O        0.5070    -8.8450     0.3530 O.3   1 <1>  -0.4300 
 27 C        0.9770    -9.2460     1.6210 C.3   1 <1>   0.1200 
 28 C        2.2080   -10.1220     1.4120 C.3   1 <1>  -0.2400 
 29 H       -0.4960     1.2040    -2.1490 H     1 <1>   0.0800 
 30 H        0.8450     1.9180    -1.2770 H     1 <1>   0.0800 
 31 H       -2.4390    -1.9730     2.6000 H     1 <1>   0.1500 
 32 H        0.6720    -1.0060    -2.0980 H     1 <1>   0.0800 
 33 H        2.0040    -0.2750    -1.2110 H     1 <1>   0.0800 
 34 H        1.6780     0.1970    -2.8590 H     1 <1>   0.0800 
 35 H        1.3680    -3.5030     1.3880 H     1 <1>   0.0800 
 36 H        0.3730    -2.2770     2.0540 H     1 <1>   0.0800 
 37 H        0.9980    -2.0860     0.4330 H     1 <1>   0.0800 
 38 H       -5.0890    -3.2870    -0.2160 H     1 <1>   0.0800 
 39 H       -4.4080    -2.0280     0.7250 H     1 <1>   0.0800 
 40 H       -4.8340    -3.5360     1.4980 H     1 <1>   0.0800 
 41 H        1.5910    -4.2580    -0.7980 H     1 <1>   0.0800 
 42 H        0.9250    -5.6300    -1.5820 H     1 <1>   0.0800 
 43 H        1.3310    -5.7260     0.1160 H     1 <1>   0.0800 
 44 H       -4.9050    -5.5630    -0.1360 H     1 <1>   0.0800 
 45 H       -3.8960    -6.6870    -0.9430 H     1 <1>   0.0800 
 46 H       -4.4460    -5.2670    -1.7990 H     1 <1>   0.0800 
 47 H       -1.7720    -6.3680    -2.5290 H     1 <1>   0.1500 
 48 H        1.2210    -8.3640     2.1910 H     1 <1>   0.0800 
 49 H        0.1940    -9.7930     2.1200 H     1 <1>   0.0800 
 50 H        2.9780    -9.5660     0.9070 H     1 <1>   0.0800 
 51 H        1.9510   -10.9900     0.8320 H     1 <1>   0.0800 
 52 H        2.5880   -10.4460     2.3640 H     1 <1>   0.0800 
@<TRIPOS>BOND
  1   1   2  2   
  2   2   3  1   
  3   2   4  1   
  4   3   5  1   
  5   4   6  1   
  6   4   7  2   
  7   5   8  1   
  8   5  29  1   
  9   5  30  1   
 10   6   9  3   
 11   7  10  1   
 12   7  31  1   
 13   8  32  1   
 14   8  33  1   
 15   8  34  1   
 16  10  11  ar  
 17  10  12  ar  
 18  11  13  ar  
 19  11  14  1   
 20  12  15  ar  
 21  12  16  1   
 22  13  17  ar  
 23  13  18  1   
 24  14  35  1   
 25  14  36  1   
 26  14  37  1   
 27  15  17  ar  
 28  15  19  1   
 29  16  38  1   
 30  16  39  1   
 31  16  40  1   
 32  17  20  1   
 33  18  41  1   
 34  18  42  1   
 35  18  43  1   
 36  19  44  1   
 37  19  45  1   
 38  19  46  1   
 39  20  21  2   
 40  20  47  1   
 41  21  22  1   
 42  21  23  1   
 43  22  24  3   
 44  23  25  2   
 45  23  26  1   
 46  26  27  1   
 47  27  28  1   
 48  27  48  1   
 49  27  49  1   
 50  28  50  1   
 51  28  51  1   
 52  28  52  1   
@<TRIPOS>SUBSTRUCTURE
  1 ****  13 GROUP 4 **** **** 0

# MOE 2024.06 (io_trps.svl 2023.06)
