@<TRIPOS>MOLECULE
NONAME
50 52 1 0 0 
SMALL
USER_CHARGES


@<TRIPOS>ATOM
  1 N       -2.7390    -4.4870    -3.9570 N.1   1 <1>  -0.5570 
  2 C       -2.4480    -4.0840    -2.9290 C.1   1 <1>   0.3570 
  3 C       -2.1100    -3.4810    -1.5930 C.3   1 <1>   0.5710 
  4 N       -0.8040    -3.9700    -1.0080 N.pl3 1 <1>  -0.4870 
  5 C       -3.2560    -3.6940    -0.6050 C.2   1 <1>  -0.1810 
  6 N       -0.0420    -4.9350    -1.6100 N.2   1 <1>  -0.5030 
  7 C       -0.0490    -3.2560     0.0570 C.3   1 <1>   0.2700 
  8 C       -3.6430    -4.9150    -0.0580 C.2   1 <1>   0.1080 
  9 C       -4.1130    -2.7900    -0.0670 C.2   1 <1>  -0.3320 
 10 C        1.0840    -5.0010    -1.0550 C.2   1 <1>   0.3280 
 11 C        1.2840    -4.0220     0.0710 C.3   1 <1>  -0.0990 
 12 C        0.1650    -1.7860    -0.3200 C.3   1 <1>  -0.2400 
 13 C       -0.7620    -3.3770     1.4070 C.3   1 <1>  -0.2400 
 14 N       -4.6440    -4.7910     0.7520 N.2   1 <1>  -0.7070 
 15 C       -3.0100    -6.2630    -0.3320 C.3   1 <1>  -0.0590 
 16 N       -4.9480    -3.4810     0.7470 N.pl3 1 <1>   0.3140 
 17 C       -4.2000    -1.2840    -0.2840 C.3   1 <1>  -0.0600 
 18 C        2.1990    -5.9510    -1.4280 C.3   1 <1>  -0.1790 
 19 C       -6.0560    -2.9660     1.5880 C.3   1 <1>   0.2390 
 20 C       -7.1320    -2.2570     0.7700 C.ar  1 <1>  -0.1430 
 21 C       -7.5920    -1.0050     1.1530 C.ar  1 <1>  -0.1500 
 22 C       -7.6640    -2.8590    -0.3620 C.ar  1 <1>  -0.1500 
 23 C       -8.5680    -0.3620     0.4110 C.ar  1 <1>  -0.1500 
 24 C       -8.6380    -2.2160    -1.1040 C.ar  1 <1>  -0.1500 
 25 C       -9.0910    -0.9670    -0.7190 C.ar  1 <1>  -0.1500 
 26 H       -2.0100    -2.4300    -1.7720 H     1 <1>   0.0800 
 27 H        1.4390    -4.5480     0.9950 H     1 <1>   0.0800 
 28 H        2.1240    -3.3830    -0.1260 H     1 <1>   0.0800 
 29 H        0.5970    -1.7110    -1.3030 H     1 <1>   0.0800 
 30 H        0.8340    -1.3220     0.3820 H     1 <1>   0.0800 
 31 H       -0.7620    -1.2440    -0.2950 H     1 <1>   0.0800 
 32 H       -0.9930    -4.4060     1.6170 H     1 <1>   0.0800 
 33 H       -1.6740    -2.8100     1.4120 H     1 <1>   0.0800 
 34 H       -0.1350    -2.9980     2.1930 H     1 <1>   0.0800 
 35 H       -2.0190    -6.2910     0.0810 H     1 <1>   0.0800 
 36 H       -2.9570    -6.4430    -1.3890 H     1 <1>   0.0800 
 37 H       -3.5970    -7.0410     0.1210 H     1 <1>   0.0800 
 38 H       -3.3940    -0.9300    -0.8980 H     1 <1>   0.0800 
 39 H       -4.1580    -0.7700     0.6590 H     1 <1>   0.0800 
 40 H       -5.1260    -1.0370    -0.7720 H     1 <1>   0.0800 
 41 H        3.0690    -5.3960    -1.7260 H     1 <1>   0.0800 
 42 H        1.8850    -6.5720    -2.2480 H     1 <1>   0.0800 
 43 H        2.4420    -6.5770    -0.5900 H     1 <1>   0.0800 
 44 H       -5.6360    -2.3000     2.3170 H     1 <1>   0.0800 
 45 H       -6.4960    -3.7980     2.1060 H     1 <1>   0.0800 
 46 H       -7.1980    -0.5220     2.0290 H     1 <1>   0.1500 
 47 H       -7.3170    -3.8320    -0.6710 H     1 <1>   0.1500 
 48 H       -8.9230     0.6090     0.7120 H     1 <1>   0.1500 
 49 H       -9.0420    -2.6890    -1.9820 H     1 <1>   0.1500 
 50 H       -9.8500    -0.4670    -1.2960 H     1 <1>   0.1500 
@<TRIPOS>BOND
  1   1   2  3   
  2   2   3  1   
  3   3   4  1   
  4   3   5  1   
  5   3  26  1   
  6   4   6  1   
  7   4   7  1   
  8   5   8  1   
  9   5   9  2   
 10   6  10  2   
 11   7  11  1   
 12   7  12  1   
 13   7  13  1   
 14   8  14  2   
 15   8  15  1   
 16   9  16  1   
 17   9  17  1   
 18  10  11  1   
 19  10  18  1   
 20  11  27  1   
 21  11  28  1   
 22  12  29  1   
 23  12  30  1   
 24  12  31  1   
 25  13  32  1   
 26  13  33  1   
 27  13  34  1   
 28  14  16  1   
 29  15  35  1   
 30  15  36  1   
 31  15  37  1   
 32  16  19  1   
 33  17  38  1   
 34  17  39  1   
 35  17  40  1   
 36  18  41  1   
 37  18  42  1   
 38  18  43  1   
 39  19  20  1   
 40  19  44  1   
 41  19  45  1   
 42  20  21  ar  
 43  20  22  ar  
 44  21  23  ar  
 45  21  46  1   
 46  22  24  ar  
 47  22  47  1   
 48  23  25  ar  
 49  23  48  1   
 50  24  25  ar  
 51  24  49  1   
 52  25  50  1   
@<TRIPOS>SUBSTRUCTURE
  1 ****   5 GROUP 4 **** **** 0

# MOE 2024.06 (io_trps.svl 2023.06)
