@<TRIPOS>MOLECULE
NONAME
43 44 1 0 0 
SMALL
USER_CHARGES


@<TRIPOS>ATOM
  1 S        0.0460     0.1750    -0.2720 S.o2  1 <1>   1.3330 
  2 O        0.2120     0.5820    -1.6500 O.2   1 <1>  -0.6500 
  3 O        0.3980    -1.1710     0.1210 O.2   1 <1>  -0.6500 
  4 N       -1.5770     0.4420     0.1430 N.am  1 <1>  -0.8490 
  5 C        0.9210     1.3170     0.8040 C.3   1 <1>  -0.0550 
  6 C       -2.3890    -0.7680    -0.0200 C.3   1 <1>   0.1960 
  7 C       -2.1540     1.5840    -0.5770 C.3   1 <1>   0.1960 
  8 C        2.4490     1.2810     0.6350 C.3   1 <1>  -0.1600 
  9 C       -3.8090    -0.5360     0.5040 C.3   1 <1>  -0.1600 
 10 C       -3.5560     1.8930    -0.0510 C.3   1 <1>  -0.1600 
 11 C        3.1380     2.2750     1.5750 C.3   1 <1>  -0.2400 
 12 C       -4.4770     0.6670    -0.1790 C.3   1 <1>  -0.0190 
 13 C       -5.8690     0.9350     0.3920 C.2   1 <1>   0.5690 
 14 O       -5.9670     1.3330     1.5270 O.2   1 <1>  -0.5700 
 15 N       -6.9460     0.7150    -0.4260 N.am  1 <1>  -0.5470 
 16 C       -8.3230     0.8520    -0.1910 C.ar  1 <1>   0.1170 
 17 C       -8.8830     0.8080     1.0870 C.ar  1 <1>  -0.1500 
 18 C       -9.1670     1.0220    -1.2880 C.ar  1 <1>  -0.1500 
 19 C      -10.2490     0.9360     1.2700 C.ar  1 <1>  -0.1500 
 20 C      -10.5350     1.1510    -1.1210 C.ar  1 <1>  -0.1500 
 21 C      -11.0520     1.1060     0.1590 C.ar  1 <1>   0.1900 
 22 F      -12.3440     1.2270     0.3240 F     1 <1>  -0.1900 
 23 H        0.6790     1.0810     1.8220 H     1 <1>   0.0800 
 24 H        0.5770     2.3140     0.6100 H     1 <1>   0.0800 
 25 H       -1.9520    -1.5790     0.5400 H     1 <1>   0.0800 
 26 H       -2.4120    -1.0530    -1.0590 H     1 <1>   0.0800 
 27 H       -2.1990     1.3670    -1.6320 H     1 <1>   0.0800 
 28 H       -1.5300     2.4520    -0.4420 H     1 <1>   0.0800 
 29 H        2.7010     1.5170    -0.3860 H     1 <1>   0.0800 
 30 H        2.8060     0.2850     0.8410 H     1 <1>   0.0800 
 31 H       -3.7600    -0.3690     1.5670 H     1 <1>   0.0800 
 32 H       -4.3970    -1.4220     0.3410 H     1 <1>   0.0800 
 33 H       -3.9710     2.7190    -0.6000 H     1 <1>   0.0800 
 34 H       -3.4820     2.1900     0.9820 H     1 <1>   0.0800 
 35 H        2.8120     3.2800     1.3690 H     1 <1>   0.0800 
 36 H        4.2040     2.2290     1.4400 H     1 <1>   0.0800 
 37 H        2.9150     2.0410     2.6020 H     1 <1>   0.0800 
 38 H       -4.5760     0.4400    -1.2260 H     1 <1>   0.0800 
 39 H       -6.7120     0.4400    -1.3770 H     1 <1>   0.3700 
 40 H       -8.2550     0.6690     1.9480 H     1 <1>   0.1500 
 41 H       -8.7540     1.0590    -2.2790 H     1 <1>   0.1500 
 42 H      -10.6850     0.9060     2.2520 H     1 <1>   0.1500 
 43 H      -11.1930     1.2850    -1.9610 H     1 <1>   0.1500 
@<TRIPOS>BOND
  1   1   2  2   
  2   1   3  2   
  3   1   4  am  
  4   1   5  1   
  5   4   6  1   
  6   4   7  1   
  7   5   8  1   
  8   5  23  1   
  9   5  24  1   
 10   6   9  1   
 11   6  25  1   
 12   6  26  1   
 13   7  10  1   
 14   7  27  1   
 15   7  28  1   
 16   8  11  1   
 17   8  29  1   
 18   8  30  1   
 19   9  12  1   
 20   9  31  1   
 21   9  32  1   
 22  10  12  1   
 23  10  33  1   
 24  10  34  1   
 25  11  35  1   
 26  11  36  1   
 27  11  37  1   
 28  12  13  1   
 29  12  38  1   
 30  13  14  2   
 31  13  15  am  
 32  15  16  1   
 33  15  39  1   
 34  16  17  ar  
 35  16  18  ar  
 36  17  19  ar  
 37  17  40  1   
 38  18  20  ar  
 39  18  41  1   
 40  19  21  ar  
 41  19  42  1   
 42  20  21  ar  
 43  20  43  1   
 44  21  22  1   
@<TRIPOS>SUBSTRUCTURE
  1 ****  12 GROUP 4 **** **** 0

# MOE 2024.06 (io_trps.svl 2023.06)
