@<TRIPOS>MOLECULE
NONAME
34 34 1 0 0 
SMALL
USER_CHARGES


@<TRIPOS>ATOM
  1 I       -0.6300    -0.6520     1.3370 I     1 <1>  -0.0810 
  2 C        1.4140    -1.2170     1.2350 C.ar  1 <1>   0.0810 
  3 C        2.2330    -0.9570     2.3170 C.ar  1 <1>  -0.1500 
  4 C        1.8790    -1.8350     0.0890 C.ar  1 <1>  -0.1500 
  5 C        3.5640    -1.3270     2.2370 C.ar  1 <1>  -0.1500 
  6 C        3.2130    -2.1970     0.0320 C.ar  1 <1>  -0.1500 
  7 C        4.0850    -1.9430     1.0960 C.ar  1 <1>   0.0860 
  8 C        5.4850    -2.3200     1.0310 C.2   1 <1>   0.5440 
  9 O        6.0050    -2.8380     2.0020 O.2   1 <1>  -0.5700 
 10 N        6.2400    -2.1050    -0.1060 N.am  1 <1>  -0.6600 
 11 C        7.1480    -3.1500    -0.6580 C.3   1 <1>   0.2200 
 12 C        6.4570    -0.7480    -0.6840 C.3   1 <1>   0.2200 
 13 C        6.4740    -4.5240    -0.6560 C.3   1 <1>  -0.2400 
 14 C        8.4730    -3.1740     0.1060 C.3   1 <1>  -0.2400 
 15 C        6.3400     0.3580     0.3680 C.3   1 <1>  -0.2400 
 16 C        5.5000    -0.5090    -1.8510 C.3   1 <1>  -0.2400 
 17 H        1.8430    -0.4800     3.1990 H     1 <1>   0.1500 
 18 H        1.2160    -2.0310    -0.7360 H     1 <1>   0.1500 
 19 H        4.2230    -1.1430     3.0690 H     1 <1>   0.1500 
 20 H        3.5970    -2.6850    -0.8460 H     1 <1>   0.1500 
 21 H        7.3590    -2.9030    -1.6850 H     1 <1>   0.0800 
 22 H        7.4630    -0.7060    -1.0690 H     1 <1>   0.0800 
 23 H        6.3090    -4.8700     0.3490 H     1 <1>   0.0800 
 24 H        7.1040    -5.2370    -1.1550 H     1 <1>   0.0800 
 25 H        5.5360    -4.4770    -1.1770 H     1 <1>   0.0800 
 26 H        8.3180    -3.4760     1.1260 H     1 <1>   0.0800 
 27 H        8.9320    -2.2030     0.0950 H     1 <1>   0.0800 
 28 H        9.1470    -3.8740    -0.3530 H     1 <1>   0.0800 
 29 H        5.3270     0.4730     0.7070 H     1 <1>   0.0800 
 30 H        6.6540     1.2940    -0.0570 H     1 <1>   0.0800 
 31 H        6.9780     0.1380     1.2050 H     1 <1>   0.0800 
 32 H        4.4900    -0.4040    -1.5040 H     1 <1>   0.0800 
 33 H        5.5570    -1.3200    -2.5540 H     1 <1>   0.0800 
 34 H        5.7720     0.3990    -2.3580 H     1 <1>   0.0800 
@<TRIPOS>BOND
  1   1   2  1   
  2   2   3  ar  
  3   2   4  ar  
  4   3   5  ar  
  5   3  17  1   
  6   4   6  ar  
  7   4  18  1   
  8   5   7  ar  
  9   5  19  1   
 10   6   7  ar  
 11   6  20  1   
 12   7   8  1   
 13   8   9  2   
 14   8  10  am  
 15  10  11  1   
 16  10  12  1   
 17  11  13  1   
 18  11  14  1   
 19  11  21  1   
 20  12  15  1   
 21  12  16  1   
 22  12  22  1   
 23  13  23  1   
 24  13  24  1   
 25  13  25  1   
 26  14  26  1   
 27  14  27  1   
 28  14  28  1   
 29  15  29  1   
 30  15  30  1   
 31  15  31  1   
 32  16  32  1   
 33  16  33  1   
 34  16  34  1   
@<TRIPOS>SUBSTRUCTURE
  1 ****   7 GROUP 4 **** **** 0

# MOE 2024.06 (io_trps.svl 2023.06)
