@<TRIPOS>MOLECULE
NONAME
41 41 1 0 0 
SMALL
USER_CHARGES


@<TRIPOS>ATOM
  1 CL       1.5090     0.9240     0.6600 Cl    1 <1>  -0.1770 
  2 C        1.2880    -0.8030     0.4800 C.ar  1 <1>   0.1770 
  3 C        2.3940    -1.6400     0.3420 C.ar  1 <1>   0.0830 
  4 C       -0.0050    -1.2990     0.4790 C.ar  1 <1>  -0.1500 
  5 O        3.6310    -1.0760     0.3520 O.3   1 <1>  -0.3630 
  6 C        2.1820    -3.0090     0.2000 C.ar  1 <1>  -0.1500 
  7 C       -0.2090    -2.6620     0.3370 C.ar  1 <1>  -0.1500 
  8 C        4.8040    -1.8470     0.2190 C.3   1 <1>   0.1200 
  9 C        0.8870    -3.4970     0.2000 C.ar  1 <1>   0.1770 
 10 C        5.9950    -0.8950     0.2740 C.3   1 <1>   0.1200 
 11 CL       0.6270    -5.2130     0.0230 Cl    1 <1>  -0.1770 
 12 O        7.1730    -1.6360     0.1430 O.3   1 <1>  -0.5600 
 13 C        8.3320    -0.8720     0.1790 C.3   1 <1>   0.1200 
 14 C        9.5160    -1.8310     0.0240 C.3   1 <1>   0.3430 
 15 N       10.8260    -1.1050     0.0500 N.4   1 <1>  -0.9060 
 16 C       12.0280    -1.9310    -0.0910 C.3   1 <1>   0.5030 
 17 C       12.0080    -2.6510    -1.4390 C.3   1 <1>  -0.2400 
 18 C       13.2130    -0.9720    -0.0350 C.3   1 <1>  -0.2400 
 19 C       12.1120    -2.9260     1.0650 C.3   1 <1>  -0.2400 
 20 H       -0.8360    -0.6240     0.5870 H     1 <1>   0.1500 
 21 H        2.9900    -3.7070     0.0900 H     1 <1>   0.1500 
 22 H       -1.2010    -3.0760     0.3330 H     1 <1>   0.1500 
 23 H        4.7710    -2.3550    -0.7290 H     1 <1>   0.0800 
 24 H        4.8440    -2.5490     1.0330 H     1 <1>   0.0800 
 25 H        6.0090    -0.3820     1.2200 H     1 <1>   0.0800 
 26 H        5.9360    -0.1890    -0.5370 H     1 <1>   0.0800 
 27 H        8.3710    -0.3610     1.1260 H     1 <1>   0.0800 
 28 H        8.2970    -0.1680    -0.6340 H     1 <1>   0.0800 
 29 H        9.4080    -2.3570    -0.9100 H     1 <1>   0.0800 
 30 H        9.4810    -2.5490     0.8270 H     1 <1>   0.0800 
 31 H       10.9170    -0.5920     0.9320 H     1 <1>   0.4500 
 32 H       10.8490    -0.4120    -0.7050 H     1 <1>   0.4500 
 33 H       11.8980    -1.9550    -2.2510 H     1 <1>   0.0800 
 34 H       11.2220    -3.3830    -1.4870 H     1 <1>   0.0800 
 35 H       12.9370    -3.1760    -1.5820 H     1 <1>   0.0800 
 36 H       13.1760    -0.2570    -0.8390 H     1 <1>   0.0800 
 37 H       14.1330    -1.5220    -0.1340 H     1 <1>   0.0800 
 38 H       13.2480    -0.4490     0.9040 H     1 <1>   0.0800 
 39 H       11.3260    -3.6580     1.0180 H     1 <1>   0.0800 
 40 H       12.0750    -2.4240     2.0150 H     1 <1>   0.0800 
 41 H       13.0450    -3.4610     1.0140 H     1 <1>   0.0800 
@<TRIPOS>BOND
  1   1   2  1   
  2   2   3  ar  
  3   2   4  ar  
  4   3   5  1   
  5   3   6  ar  
  6   4   7  ar  
  7   4  20  1   
  8   5   8  1   
  9   6   9  ar  
 10   6  21  1   
 11   7   9  ar  
 12   7  22  1   
 13   8  10  1   
 14   8  23  1   
 15   8  24  1   
 16   9  11  1   
 17  10  12  1   
 18  10  25  1   
 19  10  26  1   
 20  12  13  1   
 21  13  14  1   
 22  13  27  1   
 23  13  28  1   
 24  14  15  1   
 25  14  29  1   
 26  14  30  1   
 27  15  16  1   
 28  15  31  1   
 29  15  32  1   
 30  16  17  1   
 31  16  18  1   
 32  16  19  1   
 33  17  33  1   
 34  17  34  1   
 35  17  35  1   
 36  18  36  1   
 37  18  37  1   
 38  18  38  1   
 39  19  39  1   
 40  19  40  1   
 41  19  41  1   
@<TRIPOS>SUBSTRUCTURE
  1 ****   8 GROUP 4 **** **** 0

# MOE 2024.06 (io_trps.svl 2023.06)
