@<TRIPOS>MOLECULE
NONAME
36 36 1 0 0 
SMALL
USER_CHARGES


@<TRIPOS>ATOM
  1 S        0.0880     0.2060     0.8910 S.o2  1 <1>   1.3330 
  2 O        1.2440    -0.4030     1.5030 O.2   1 <1>  -0.6500 
  3 O       -0.9700    -0.5960     0.3280 O.2   1 <1>  -0.6500 
  4 N        0.6660     1.2730    -0.3360 N.am  1 <1>  -0.6930 
  5 C       -0.6120     1.3480     2.0630 C.3   1 <1>  -0.1350 
  6 C       -0.2070     2.0380    -1.1090 C.ar  1 <1>   0.1990 
  7 C        2.1260     1.5830    -0.3560 C.3   1 <1>   0.2570 
  8 C       -0.4330     3.3980    -0.8470 C.ar  1 <1>   0.0830 
  9 C       -0.8710     1.4360    -2.1680 C.ar  1 <1>  -0.1500 
 10 C        3.0060     0.4420    -0.8720 C.2   1 <1>   0.6590 
 11 O        0.2240     3.9560     0.2170 O.3   1 <1>  -0.3630 
 12 C       -1.3060     4.1200    -1.6540 C.ar  1 <1>  -0.1500 
 13 C       -1.7400     2.1590    -2.9650 C.ar  1 <1>  -0.1500 
 14 O        2.8560    -0.0480    -1.9640 O.2   1 <1>  -0.5700 
 15 O        3.9780     0.0450    -0.0560 O.3   1 <1>  -0.4300 
 16 C        0.0680     5.3170     0.5450 C.3   1 <1>   0.1200 
 17 C       -1.9560     3.5010    -2.7090 C.ar  1 <1>  -0.1500 
 18 C        4.8240    -1.0370    -0.3840 C.3   1 <1>   0.0400 
 19 C        0.9330     5.6050     1.7670 C.3   1 <1>  -0.2400 
 20 H       -0.9930     0.8160     2.9120 H     1 <1>   0.0800 
 21 H       -1.4160     1.8940     1.6090 H     1 <1>   0.0800 
 22 H        0.1340     2.0430     2.3930 H     1 <1>   0.0800 
 23 H        2.4430     1.8420     0.6380 H     1 <1>   0.0800 
 24 H        2.2970     2.4350    -0.9880 H     1 <1>   0.0800 
 25 H       -0.6990     0.3910    -2.3610 H     1 <1>   0.1500 
 26 H       -1.5000     5.1620    -1.4850 H     1 <1>   0.1500 
 27 H       -2.2450     1.6740    -3.7830 H     1 <1>   0.1500 
 28 H       -0.9700     5.5010     0.7620 H     1 <1>   0.0800 
 29 H        0.3860     5.9100    -0.2950 H     1 <1>   0.0800 
 30 H       -2.6310     4.0620    -3.3320 H     1 <1>   0.1500 
 31 H        5.5210    -1.1810     0.4220 H     1 <1>   0.0800 
 32 H        5.3480    -0.8070    -1.2950 H     1 <1>   0.0800 
 33 H        4.2200    -1.9190    -0.5140 H     1 <1>   0.0800 
 34 H        0.6170     4.9990     2.5970 H     1 <1>   0.0800 
 35 H        0.8380     6.6400     2.0440 H     1 <1>   0.0800 
 36 H        1.9660     5.4040     1.5470 H     1 <1>   0.0800 
@<TRIPOS>BOND
  1   1   2  2   
  2   1   3  2   
  3   1   4  am  
  4   1   5  1   
  5   4   6  1   
  6   4   7  1   
  7   5  20  1   
  8   5  21  1   
  9   5  22  1   
 10   6   8  ar  
 11   6   9  ar  
 12   7  10  1   
 13   7  23  1   
 14   7  24  1   
 15   8  11  1   
 16   8  12  ar  
 17   9  13  ar  
 18   9  25  1   
 19  10  14  2   
 20  10  15  1   
 21  11  16  1   
 22  12  17  ar  
 23  12  26  1   
 24  13  17  ar  
 25  13  27  1   
 26  15  18  1   
 27  16  19  1   
 28  16  28  1   
 29  16  29  1   
 30  17  30  1   
 31  18  31  1   
 32  18  32  1   
 33  18  33  1   
 34  19  34  1   
 35  19  35  1   
 36  19  36  1   
@<TRIPOS>SUBSTRUCTURE
  1 ****   4 GROUP 4 **** **** 0

# MOE 2024.06 (io_trps.svl 2023.06)
