@<TRIPOS>MOLECULE
NONAME
48 49 1 0 0 
SMALL
USER_CHARGES


@<TRIPOS>ATOM
  1 S        1.0080     1.3360     1.2830 S.o2  1 <1>   1.3330 
  2 O        1.8020     0.7200     0.2500 O.2   1 <1>  -0.6500 
  3 O        1.6500     2.0740     2.3460 O.2   1 <1>  -0.6500 
  4 N       -0.0920     2.4360     0.5330 N.am  1 <1>  -0.6930 
  5 C       -0.0840     0.1350     2.0130 C.3   1 <1>  -0.1350 
  6 C       -1.0600     1.9800    -0.3520 C.ar  1 <1>   0.1990 
  7 C        0.4150     3.8290     0.3240 C.3   1 <1>   0.2570 
  8 C       -0.7200     1.3650    -1.5510 C.ar  1 <1>  -0.1500 
  9 C       -2.4050     2.1310    -0.0360 C.ar  1 <1>  -0.1500 
 10 C        1.3560     3.9970    -0.8810 C.2   1 <1>   0.5690 
 11 C       -1.7000     0.9010    -2.4090 C.ar  1 <1>  -0.1500 
 12 C       -3.3890     1.6680    -0.8910 C.ar  1 <1>  -0.1500 
 13 O        0.8370     4.2760    -1.9380 O.2   1 <1>  -0.5700 
 14 N        2.7240     3.8680    -0.7930 N.am  1 <1>  -0.6600 
 15 C       -3.0370     1.0500    -2.0790 C.ar  1 <1>  -0.1500 
 16 C        3.5010     3.6500     0.4720 C.3   1 <1>   0.1400 
 17 C        3.5350     3.8810    -2.0560 C.3   1 <1>   0.1400 
 18 C        4.8950     4.2980     0.4190 C.3   1 <1>   0.1400 
 19 C        4.9160     3.2300    -1.8880 C.3   1 <1>   0.1400 
 20 N        5.6810     3.8670    -0.7750 N.am  1 <1>  -0.6600 
 21 C        7.0270     4.0900    -0.8710 C.2   1 <1>   0.7800 
 22 O        7.6830     3.7510    -1.8380 O.2   1 <1>  -0.5700 
 23 O        7.6210     4.7120     0.1490 O.3   1 <1>  -0.4300 
 24 C        9.0030     4.9820     0.1210 C.3   1 <1>   0.1200 
 25 C        9.3710     5.7040     1.4130 C.3   1 <1>  -0.2400 
 26 H        0.4830    -0.5980     2.5520 H     1 <1>   0.0800 
 27 H       -0.6510    -0.3620     1.2510 H     1 <1>   0.0800 
 28 H       -0.7610     0.6150     2.6920 H     1 <1>   0.0800 
 29 H        0.8890     4.1820     1.2190 H     1 <1>   0.0800 
 30 H       -0.4320     4.4680     0.1540 H     1 <1>   0.0800 
 31 H        0.3170     1.2570    -1.8150 H     1 <1>   0.1500 
 32 H       -2.6750     2.6130     0.8850 H     1 <1>   0.1500 
 33 H       -1.4220     0.4280    -3.3350 H     1 <1>   0.1500 
 34 H       -4.4280     1.7900    -0.6370 H     1 <1>   0.1500 
 35 H       -3.8000     0.6900    -2.7480 H     1 <1>   0.1500 
 36 H        3.6250     2.5930     0.6310 H     1 <1>   0.0800 
 37 H        2.9740     4.0550     1.3160 H     1 <1>   0.0800 
 38 H        3.6620     4.9000    -2.3780 H     1 <1>   0.0800 
 39 H        2.9980     3.3580    -2.8290 H     1 <1>   0.0800 
 40 H        5.4340     4.0390     1.3140 H     1 <1>   0.0800 
 41 H        4.7850     5.3680     0.3960 H     1 <1>   0.0800 
 42 H        5.4610     3.3200    -2.8120 H     1 <1>   0.0800 
 43 H        4.7910     2.1820    -1.6780 H     1 <1>   0.0800 
 44 H        9.2120     5.5950    -0.7390 H     1 <1>   0.0800 
 45 H        9.5300     4.0460     0.0350 H     1 <1>   0.0800 
 46 H        8.8240     6.6270     1.4900 H     1 <1>   0.0800 
 47 H       10.4230     5.9280     1.4150 H     1 <1>   0.0800 
 48 H        9.1510     5.0810     2.2610 H     1 <1>   0.0800 
@<TRIPOS>BOND
  1   1   2  2   
  2   1   3  2   
  3   1   4  am  
  4   1   5  1   
  5   4   6  1   
  6   4   7  1   
  7   5  26  1   
  8   5  27  1   
  9   5  28  1   
 10   6   8  ar  
 11   6   9  ar  
 12   7  10  1   
 13   7  29  1   
 14   7  30  1   
 15   8  11  ar  
 16   8  31  1   
 17   9  12  ar  
 18   9  32  1   
 19  10  13  2   
 20  10  14  am  
 21  11  15  ar  
 22  11  33  1   
 23  12  15  ar  
 24  12  34  1   
 25  14  16  1   
 26  14  17  1   
 27  15  35  1   
 28  16  18  1   
 29  16  36  1   
 30  16  37  1   
 31  17  19  1   
 32  17  38  1   
 33  17  39  1   
 34  18  20  1   
 35  18  40  1   
 36  18  41  1   
 37  19  20  1   
 38  19  42  1   
 39  19  43  1   
 40  20  21  am  
 41  21  22  2   
 42  21  23  1   
 43  23  24  1   
 44  24  25  1   
 45  24  44  1   
 46  24  45  1   
 47  25  46  1   
 48  25  47  1   
 49  25  48  1   
@<TRIPOS>SUBSTRUCTURE
  1 ****  14 GROUP 4 **** **** 0

# MOE 2024.06 (io_trps.svl 2023.06)
