@<TRIPOS>MOLECULE
NONAME
35 35 1 0 0 
SMALL
USER_CHARGES


@<TRIPOS>ATOM
  1 O       -9.3810    -0.5990     0.1080 O.3   1 <1>  -0.3630 
  2 C      -10.7080    -0.4880     0.3800 C.ar  1 <1>   0.0830 
  3 C       -8.4950     0.4730     0.2920 C.3   1 <1>   0.1200 
  4 C      -11.5370    -1.5450     0.0080 C.ar  1 <1>  -0.1440 
  5 C      -11.2560     0.6320     1.0040 C.ar  1 <1>  -0.1500 
  6 C       -7.1340     0.0160    -0.2330 C.3   1 <1>   0.3430 
  7 C      -12.8990    -1.4620     0.2570 C.ar  1 <1>  -0.1500 
  8 C      -10.9910    -2.7950    -0.6720 C.3   1 <1>  -0.0170 
  9 C      -12.6150     0.6990     1.2480 C.ar  1 <1>  -0.1500 
 10 N       -6.0980     1.0880    -0.1140 N.4   1 <1>  -0.9060 
 11 C      -13.4370    -0.3470     0.8740 C.ar  1 <1>  -0.1500 
 12 C      -10.8910    -2.5890    -2.1860 C.3   1 <1>  -0.2400 
 13 C       -4.7810     0.6200    -0.6410 C.3   1 <1>   0.3430 
 14 C       -3.7020     1.7040    -0.5350 C.3   1 <1>   0.1200 
 15 O       -2.5350     1.1730    -1.0490 O.3   1 <1>  -0.6800 
 16 H       -8.4560     0.6950     1.3440 H     1 <1>   0.0800 
 17 H       -8.8680     1.3120    -0.2700 H     1 <1>   0.0800 
 18 H      -10.6510     1.4620     1.3120 H     1 <1>   0.1500 
 19 H       -7.2440    -0.2680    -1.2670 H     1 <1>   0.0800 
 20 H       -6.8240    -0.8520     0.3270 H     1 <1>   0.0800 
 21 H      -13.5500    -2.2690    -0.0300 H     1 <1>   0.1500 
 22 H      -11.6380    -3.6310    -0.4700 H     1 <1>   0.0800 
 23 H      -10.0230    -3.0410    -0.2720 H     1 <1>   0.0800 
 24 H      -13.0380     1.5640     1.7300 H     1 <1>   0.1500 
 25 H       -5.9940     1.3610     0.8720 H     1 <1>   0.4500 
 26 H       -6.4000     1.9190    -0.6400 H     1 <1>   0.4500 
 27 H      -14.4960    -0.2960     1.0620 H     1 <1>   0.1500 
 28 H      -11.8620    -2.3660    -2.5920 H     1 <1>   0.0800 
 29 H      -10.5140    -3.4790    -2.6570 H     1 <1>   0.0800 
 30 H      -10.2300    -1.7710    -2.4070 H     1 <1>   0.0800 
 31 H       -4.8830     0.3390    -1.6770 H     1 <1>   0.0800 
 32 H       -4.4530    -0.2450    -0.0860 H     1 <1>   0.0800 
 33 H       -3.5190     1.9780     0.4900 H     1 <1>   0.0800 
 34 H       -3.9570     2.5710    -1.1200 H     1 <1>   0.0800 
 35 H       -1.7910     1.8130    -1.0150 H     1 <1>   0.4000 
@<TRIPOS>BOND
  1   1   2  1   
  2   1   3  1   
  3   2   4  ar  
  4   2   5  ar  
  5   3   6  1   
  6   3  16  1   
  7   3  17  1   
  8   4   7  ar  
  9   4   8  1   
 10   5   9  ar  
 11   5  18  1   
 12   6  10  1   
 13   6  19  1   
 14   6  20  1   
 15   7  11  ar  
 16   7  21  1   
 17   8  12  1   
 18   8  22  1   
 19   8  23  1   
 20   9  11  ar  
 21   9  24  1   
 22  10  13  1   
 23  10  25  1   
 24  10  26  1   
 25  11  27  1   
 26  12  28  1   
 27  12  29  1   
 28  12  30  1   
 29  13  14  1   
 30  13  31  1   
 31  13  32  1   
 32  14  15  1   
 33  14  33  1   
 34  14  34  1   
 35  15  35  1   
@<TRIPOS>SUBSTRUCTURE
  1 ****   1 GROUP 4 **** **** 0

# MOE 2024.06 (io_trps.svl 2023.06)
