@<TRIPOS>MOLECULE
NONAME
47 48 1 0 0 
SMALL
USER_CHARGES


@<TRIPOS>ATOM
  1 O        2.6730    -1.7130     3.0560 O.2   1 <1>  -0.5700 
  2 C        3.0880    -1.8040     1.9300 C.2   1 <1>   0.5690 
  3 N        3.6630    -0.7260     1.3490 N.am  1 <1>  -0.7300 
  4 C        2.9250    -3.1360     1.1920 C.3   1 <1>  -0.0190 
  5 C        4.1170    -0.4990    -0.0440 C.3   1 <1>   0.1400 
  6 C        1.5530    -3.1970     0.4980 C.3   1 <1>  -0.1600 
  7 C        3.0860    -4.3410     2.1420 C.3   1 <1>  -0.1600 
  8 C        3.4770     0.7760    -0.6140 C.3   1 <1>  -0.0800 
  9 C        1.2980    -4.5490    -0.1660 C.3   1 <1>   0.3430 
 10 C        2.8160    -5.6670     1.4380 C.3   1 <1>   0.3430 
 11 C        1.9450     0.6750    -0.6900 C.3   1 <1>  -0.2400 
 12 C        4.0380     1.0660    -2.0120 C.3   1 <1>  -0.2400 
 13 N        1.4550    -5.6420     0.8380 N.4   1 <1>  -0.9590 
 14 C        1.0860    -6.9720     0.2680 C.3   1 <1>   0.5230 
 15 C       -0.4160    -7.0590     0.0730 C.2   1 <1>  -0.0400 
 16 O       -0.9810    -6.3620    -0.8950 O.3   1 <1>  -0.2800 
 17 C       -1.3480    -7.7690     0.7470 C.2   1 <1>  -0.1500 
 18 C       -2.2740    -6.6070    -0.8650 C.2   1 <1>  -0.0400 
 19 C       -2.5680    -7.4690     0.1300 C.2   1 <1>  -0.1500 
 20 C       -3.1720    -5.9340    -1.8810 C.3   1 <1>  -0.0600 
 21 H        3.7140     0.0990     1.9530 H     1 <1>   0.3700 
 22 H        3.6970    -3.2090     0.4490 H     1 <1>   0.0800 
 23 H        3.8630    -1.3340    -0.6700 H     1 <1>   0.0800 
 24 H        5.1890    -0.3920    -0.0420 H     1 <1>   0.0800 
 25 H        1.4950    -2.4250    -0.2480 H     1 <1>   0.0800 
 26 H        0.7740    -3.0040     1.2160 H     1 <1>   0.0800 
 27 H        2.4140    -4.2490     2.9790 H     1 <1>   0.0800 
 28 H        4.0860    -4.3470     2.5400 H     1 <1>   0.0800 
 29 H        3.7380     1.6040     0.0240 H     1 <1>   0.0800 
 30 H        1.9930    -4.6930    -0.9780 H     1 <1>   0.0800 
 31 H        0.3000    -4.5530    -0.5730 H     1 <1>   0.0800 
 32 H        2.8930    -6.4710     2.1530 H     1 <1>   0.0800 
 33 H        3.5550    -5.8240     0.6680 H     1 <1>   0.0800 
 34 H        1.6470    -0.1350    -1.3310 H     1 <1>   0.0800 
 35 H        1.5320     1.5880    -1.0820 H     1 <1>   0.0800 
 36 H        1.5240     0.5160     0.2870 H     1 <1>   0.0800 
 37 H        3.8010     0.2690    -2.6940 H     1 <1>   0.0800 
 38 H        5.1080     1.1780    -1.9720 H     1 <1>   0.0800 
 39 H        3.6220     1.9800    -2.3980 H     1 <1>   0.0800 
 40 H        0.7730    -5.4530     1.5840 H     1 <1>   0.4500 
 41 H        1.3840    -7.7520     0.9480 H     1 <1>   0.0800 
 42 H        1.5830    -7.1320    -0.6740 H     1 <1>   0.0800 
 43 H       -1.2360    -8.4390     1.5820 H     1 <1>   0.1500 
 44 H       -3.5280    -7.8670     0.4150 H     1 <1>   0.1500 
 45 H       -2.8730    -6.2140    -2.8750 H     1 <1>   0.0800 
 46 H       -3.1030    -4.8660    -1.7820 H     1 <1>   0.0800 
 47 H       -4.1940    -6.2320    -1.7290 H     1 <1>   0.0800 
@<TRIPOS>BOND
  1   1   2  2   
  2   2   3  am  
  3   2   4  1   
  4   3   5  1   
  5   3  21  1   
  6   4   6  1   
  7   4   7  1   
  8   4  22  1   
  9   5   8  1   
 10   5  23  1   
 11   5  24  1   
 12   6   9  1   
 13   6  25  1   
 14   6  26  1   
 15   7  10  1   
 16   7  27  1   
 17   7  28  1   
 18   8  11  1   
 19   8  12  1   
 20   8  29  1   
 21   9  13  1   
 22   9  30  1   
 23   9  31  1   
 24  10  13  1   
 25  10  32  1   
 26  10  33  1   
 27  11  34  1   
 28  11  35  1   
 29  11  36  1   
 30  12  37  1   
 31  12  38  1   
 32  12  39  1   
 33  13  14  1   
 34  13  40  1   
 35  14  15  1   
 36  14  41  1   
 37  14  42  1   
 38  15  16  1   
 39  15  17  2   
 40  16  18  1   
 41  17  19  1   
 42  17  43  1   
 43  18  19  2   
 44  18  20  1   
 45  19  44  1   
 46  20  45  1   
 47  20  46  1   
 48  20  47  1   
@<TRIPOS>SUBSTRUCTURE
  1 ****   6 GROUP 4 **** **** 0

# MOE 2024.06 (io_trps.svl 2023.06)
