@<TRIPOS>MOLECULE
NONAME
49 50 1 0 0 
SMALL
USER_CHARGES


@<TRIPOS>ATOM
  1 N        0.0650    -0.0210    -0.0460 N.4   1 <1>  -0.9590 
  2 C       -0.1260    -1.3820    -0.6330 C.3   1 <1>   0.3430 
  3 C       -1.1320     0.8570    -0.1660 C.3   1 <1>   0.3430 
  4 C        1.2780     0.6400    -0.6190 C.3   1 <1>   0.4860 
  5 C       -1.3250    -2.0690     0.0210 C.3   1 <1>  -0.1600 
  6 C       -2.3410     0.1860     0.4910 C.3   1 <1>  -0.1600 
  7 C        2.4890    -0.1750    -0.2130 C.ar  1 <1>  -0.1440 
  8 C       -2.5830    -1.2060    -0.1110 C.3   1 <1>   0.4230 
  9 C        2.9580    -0.1280     1.0930 C.ar  1 <1>  -0.1500 
 10 C        3.1320    -0.9820    -1.1410 C.ar  1 <1>  -0.1500 
 11 N       -3.7610    -1.9050     0.4960 N.4   1 <1>  -0.9590 
 12 C        4.0450    -0.8960     1.4690 C.ar  1 <1>  -0.1500 
 13 C        4.2190    -1.7480    -0.7620 C.ar  1 <1>  -0.1500 
 14 C       -5.0520    -1.2780     0.0680 C.3   1 <1>   0.3430 
 15 C       -3.7150    -2.0660     1.9930 C.3   1 <1>   0.2630 
 16 C        4.6740    -1.7080     0.5430 C.ar  1 <1>  -0.1500 
 17 C       -6.2090    -2.2650     0.2300 C.3   1 <1>  -0.1600 
 18 C       -7.5090    -1.6670    -0.3230 C.3   1 <1>  -0.1600 
 19 C       -8.6730    -2.6500    -0.1670 C.3   1 <1>  -0.2400 
 20 H        0.3010    -0.1490     0.9490 H     1 <1>   0.4500 
 21 H        0.7590    -1.9810    -0.4720 H     1 <1>   0.0800 
 22 H       -0.2830    -1.3020    -1.6970 H     1 <1>   0.0800 
 23 H       -1.3420     1.0460    -1.2080 H     1 <1>   0.0800 
 24 H       -0.9430     1.8060     0.3140 H     1 <1>   0.0800 
 25 H        1.3810     1.6410    -0.2300 H     1 <1>   0.0800 
 26 H        1.2120     0.6950    -1.6930 H     1 <1>   0.0800 
 27 H       -1.0870    -2.2600     1.0510 H     1 <1>   0.0800 
 28 H       -1.4800    -3.0140    -0.4700 H     1 <1>   0.0800 
 29 H       -3.1990     0.8130     0.3280 H     1 <1>   0.0800 
 30 H       -2.1620     0.1270     1.5490 H     1 <1>   0.0800 
 31 H       -2.7790    -1.0810    -1.1650 H     1 <1>   0.0800 
 32 H        2.4970     0.5040     1.8330 H     1 <1>   0.1500 
 33 H        2.8050    -1.0250    -2.1670 H     1 <1>   0.1500 
 34 H       -3.7820    -2.8580     0.0990 H     1 <1>   0.4500 
 35 H        4.4110    -0.8620     2.4820 H     1 <1>   0.1500 
 36 H        4.7190    -2.3760    -1.4820 H     1 <1>   0.1500 
 37 H       -4.9920    -0.9970    -0.9720 H     1 <1>   0.0800 
 38 H       -5.2470    -0.3890     0.6460 H     1 <1>   0.0800 
 39 H       -3.7720    -1.1060     2.4790 H     1 <1>   0.0800 
 40 H       -2.8040    -2.5550     2.2970 H     1 <1>   0.0800 
 41 H       -4.5430    -2.6660     2.3330 H     1 <1>   0.0800 
 42 H        5.5220    -2.3050     0.8370 H     1 <1>   0.1500 
 43 H       -6.3610    -2.5000     1.2690 H     1 <1>   0.0800 
 44 H       -5.9940    -3.1730    -0.3060 H     1 <1>   0.0800 
 45 H       -7.3940    -1.4310    -1.3680 H     1 <1>   0.0800 
 46 H       -7.7520    -0.7570     0.2000 H     1 <1>   0.0800 
 47 H       -8.4780    -3.5630    -0.7030 H     1 <1>   0.0800 
 48 H       -9.5760    -2.2150    -0.5600 H     1 <1>   0.0800 
 49 H       -8.8380    -2.8860     0.8700 H     1 <1>   0.0800 
@<TRIPOS>BOND
  1   1   2  1   
  2   1   3  1   
  3   1   4  1   
  4   1  20  1   
  5   2   5  1   
  6   2  21  1   
  7   2  22  1   
  8   3   6  1   
  9   3  23  1   
 10   3  24  1   
 11   4   7  1   
 12   4  25  1   
 13   4  26  1   
 14   5   8  1   
 15   5  27  1   
 16   5  28  1   
 17   6   8  1   
 18   6  29  1   
 19   6  30  1   
 20   7   9  ar  
 21   7  10  ar  
 22   8  11  1   
 23   8  31  1   
 24   9  12  ar  
 25   9  32  1   
 26  10  13  ar  
 27  10  33  1   
 28  11  14  1   
 29  11  15  1   
 30  11  34  1   
 31  12  16  ar  
 32  12  35  1   
 33  13  16  ar  
 34  13  36  1   
 35  14  17  1   
 36  14  37  1   
 37  14  38  1   
 38  15  39  1   
 39  15  40  1   
 40  15  41  1   
 41  16  42  1   
 42  17  18  1   
 43  17  43  1   
 44  17  44  1   
 45  18  19  1   
 46  18  45  1   
 47  18  46  1   
 48  19  47  1   
 49  19  48  1   
 50  19  49  1   
@<TRIPOS>SUBSTRUCTURE
  1 ****   5 GROUP 4 **** **** 0

# MOE 2024.06 (io_trps.svl 2023.06)
