@<TRIPOS>MOLECULE
NONAME
42 44 1 0 0 
SMALL
USER_CHARGES


@<TRIPOS>ATOM
  1 BR      -0.0050    -0.9790     1.6210 Br    1 <1>  -0.1110 
  2 C        1.3440    -1.2530     0.2780 C.ar  1 <1>   0.1110 
  3 C        2.4720    -1.9780     0.6110 C.ar  1 <1>  -0.1500 
  4 C        1.1510    -0.7180    -0.9800 C.ar  1 <1>  -0.1500 
  5 C        3.4520    -2.1730    -0.3520 C.ar  1 <1>  -0.1440 
  6 C        2.1280    -0.9210    -1.9390 C.ar  1 <1>  -0.1500 
  7 C        3.2700    -1.6440    -1.6260 C.ar  1 <1>  -0.1500 
  8 C        4.7120    -2.9470    -0.0130 C.3   1 <1>   0.4870 
  9 N        5.8470    -1.9960     0.0890 N.4   1 <1>  -0.9590 
 10 C        7.1880    -2.6490     0.2430 C.3   1 <1>   0.3430 
 11 C        5.6590    -0.9140     1.1100 C.3   1 <1>   0.3430 
 12 C        8.3240    -1.5990     0.3350 C.3   1 <1>   0.1100 
 13 C        6.7590     0.1620     0.9650 C.3   1 <1>   0.1100 
 14 N        7.8440    -0.2340     0.0250 N.3   1 <1>  -0.8100 
 15 C        8.9580     0.7510     0.0560 C.3   1 <1>   0.2530 
 16 C        8.5020     2.1720    -0.2710 C.ar  1 <1>   0.1670 
 17 N        8.2460     2.9720     0.7580 N.ar  1 <1>  -0.6200 
 18 C        8.3750     2.5550    -1.5990 C.ar  1 <1>  -0.1500 
 19 C        7.8580     4.1990     0.4470 C.ar  1 <1>   0.1600 
 20 C        7.9660     3.8340    -1.9060 C.ar  1 <1>  -0.1500 
 21 C        7.7040     4.6730    -0.8450 C.ar  1 <1>  -0.1500 
 22 H        2.5610    -2.3750     1.6080 H     1 <1>   0.1500 
 23 H        0.2590    -0.1590    -1.2020 H     1 <1>   0.1500 
 24 H        1.9970    -0.5160    -2.9290 H     1 <1>   0.1500 
 25 H        4.0100    -1.7900    -2.3950 H     1 <1>   0.1500 
 26 H        4.9030    -3.6710    -0.7880 H     1 <1>   0.0800 
 27 H        4.5810    -3.4700     0.9200 H     1 <1>   0.0800 
 28 H        5.9150    -1.4650    -0.7920 H     1 <1>   0.4500 
 29 H        7.3780    -3.2890    -0.6030 H     1 <1>   0.0800 
 30 H        7.2050    -3.2630     1.1290 H     1 <1>   0.0800 
 31 H        5.6970    -1.3310     2.1020 H     1 <1>   0.0800 
 32 H        4.6970    -0.4420     0.9870 H     1 <1>   0.0800 
 33 H        9.1070    -1.8730    -0.3530 H     1 <1>   0.0800 
 34 H        8.7440    -1.6190     1.3270 H     1 <1>   0.0800 
 35 H        7.1700     0.3820     1.9370 H     1 <1>   0.0800 
 36 H        6.2950     1.0670     0.6080 H     1 <1>   0.0800 
 37 H        9.7070     0.4610    -0.6600 H     1 <1>   0.0800 
 38 H        9.4200     0.7540     1.0290 H     1 <1>   0.0800 
 39 H        8.5930     1.8560    -2.3860 H     1 <1>   0.1500 
 40 H        7.6520     4.8670     1.2660 H     1 <1>   0.1500 
 41 H        7.8580     4.1640    -2.9250 H     1 <1>   0.1500 
 42 H        7.3830     5.6850    -1.0140 H     1 <1>   0.1500 
@<TRIPOS>BOND
  1   1   2  1   
  2   2   3  ar  
  3   2   4  ar  
  4   3   5  ar  
  5   3  22  1   
  6   4   6  ar  
  7   4  23  1   
  8   5   7  ar  
  9   5   8  1   
 10   6   7  ar  
 11   6  24  1   
 12   7  25  1   
 13   8   9  1   
 14   8  26  1   
 15   8  27  1   
 16   9  10  1   
 17   9  11  1   
 18   9  28  1   
 19  10  12  1   
 20  10  29  1   
 21  10  30  1   
 22  11  13  1   
 23  11  31  1   
 24  11  32  1   
 25  12  14  1   
 26  12  33  1   
 27  12  34  1   
 28  13  14  1   
 29  13  35  1   
 30  13  36  1   
 31  14  15  1   
 32  15  16  1   
 33  15  37  1   
 34  15  38  1   
 35  16  17  ar  
 36  16  18  ar  
 37  17  19  ar  
 38  18  20  ar  
 39  18  39  1   
 40  19  21  ar  
 41  19  40  1   
 42  20  21  ar  
 43  20  41  1   
 44  21  42  1   
@<TRIPOS>SUBSTRUCTURE
  1 ****  11 GROUP 4 **** **** 0

# MOE 2024.06 (io_trps.svl 2023.06)
