@<TRIPOS>MOLECULE
NONAME
42 42 1 0 0 
SMALL
USER_CHARGES


@<TRIPOS>ATOM
  1 CL       0.4080     0.3340     0.3320 Cl    1 <1>  -0.1770 
  2 C        1.9960     1.0510     0.2170 C.ar  1 <1>   0.1770 
  3 C        2.9760     0.6810     1.1180 C.ar  1 <1>  -0.1500 
  4 C        2.2500     1.9810    -0.7730 C.ar  1 <1>  -0.1500 
  5 C        4.2330     1.2540     1.0230 C.ar  1 <1>  -0.1500 
  6 C        3.5100     2.5480    -0.8610 C.ar  1 <1>  -0.1500 
  7 C        4.5180     2.1920     0.0320 C.ar  1 <1>   0.1170 
  8 N        5.7730     2.8040    -0.0860 N.am  1 <1>  -0.5470 
  9 C        7.0150     2.3430     0.2640 C.2   1 <1>   0.6900 
 10 O        7.1900     1.1860     0.6040 O.2   1 <1>  -0.5700 
 11 N        8.0620     3.2120     0.2140 N.am  1 <1>  -0.4300 
 12 N        9.4810     2.8250     0.2170 N.am  1 <1>  -0.4300 
 13 C       10.2310     2.6350    -0.9010 C.2   1 <1>   0.5690 
 14 O        9.8410     2.9700    -1.9980 O.2   1 <1>  -0.5700 
 15 C       11.5690     1.9620    -0.8160 C.3   1 <1>  -0.0990 
 16 P       12.5330     2.7320     0.4350 P.3   1 <1>   1.2420 
 17 O       11.8680     2.7330     1.7370 O.2   1 <1>  -0.7000 
 18 O       12.8540     4.2060    -0.1150 O.3   1 <1>  -0.5510 
 19 O       13.9500     1.9760     0.4210 O.3   1 <1>  -0.5510 
 20 C       13.2120     5.2370     0.7430 C.3   1 <1>   0.1200 
 21 C       14.8020     2.0180    -0.6700 C.3   1 <1>   0.1200 
 22 C       14.6800     5.1040     1.1470 C.3   1 <1>  -0.2400 
 23 C       16.0820     1.2870    -0.2820 C.3   1 <1>  -0.2400 
 24 H        2.7580    -0.0450     1.8800 H     1 <1>   0.1500 
 25 H        1.4710     2.2520    -1.4630 H     1 <1>   0.1500 
 26 H        4.9960     0.9680     1.7250 H     1 <1>   0.1500 
 27 H        3.7110     3.2690    -1.6330 H     1 <1>   0.1500 
 28 H        5.7930     3.6320    -0.6730 H     1 <1>   0.3700 
 29 H        7.8770     4.2000     0.0340 H     1 <1>   0.3700 
 30 H        9.8910     2.6100     1.1440 H     1 <1>   0.3700 
 31 H       12.0420     2.0260    -1.7750 H     1 <1>   0.0800 
 32 H       11.4020     0.9270    -0.5960 H     1 <1>   0.0800 
 33 H       12.5640     5.2220     1.6040 H     1 <1>   0.0800 
 34 H       13.0630     6.1620     0.2120 H     1 <1>   0.0800 
 35 H       15.0130     3.0460    -0.9140 H     1 <1>   0.0800 
 36 H       14.3290     1.5340    -1.5060 H     1 <1>   0.0800 
 37 H       14.8420     4.2060     1.7160 H     1 <1>   0.0800 
 38 H       14.9560     5.9400     1.7630 H     1 <1>   0.0800 
 39 H       15.3100     5.1050     0.2760 H     1 <1>   0.0800 
 40 H       16.5440     1.7730     0.5590 H     1 <1>   0.0800 
 41 H       16.7720     1.2980    -1.1050 H     1 <1>   0.0800 
 42 H       15.8630     0.2650    -0.0300 H     1 <1>   0.0800 
@<TRIPOS>BOND
  1   1   2  1   
  2   2   3  ar  
  3   2   4  ar  
  4   3   5  ar  
  5   3  24  1   
  6   4   6  ar  
  7   4  25  1   
  8   5   7  ar  
  9   5  26  1   
 10   6   7  ar  
 11   6  27  1   
 12   7   8  1   
 13   8   9  am  
 14   8  28  1   
 15   9  10  2   
 16   9  11  am  
 17  11  12  1   
 18  11  29  1   
 19  12  13  am  
 20  12  30  1   
 21  13  14  2   
 22  13  15  1   
 23  15  16  1   
 24  15  31  1   
 25  15  32  1   
 26  16  17  2   
 27  16  18  1   
 28  16  19  1   
 29  18  20  1   
 30  19  21  1   
 31  20  22  1   
 32  20  33  1   
 33  20  34  1   
 34  21  23  1   
 35  21  35  1   
 36  21  36  1   
 37  22  37  1   
 38  22  38  1   
 39  22  39  1   
 40  23  40  1   
 41  23  41  1   
 42  23  42  1   
@<TRIPOS>SUBSTRUCTURE
  1 ****  12 GROUP 4 **** **** 0

# MOE 2024.06 (io_trps.svl 2023.06)
