@<TRIPOS>MOLECULE
NONAME
44 46 1 0 0 
SMALL
USER_CHARGES


@<TRIPOS>ATOM
  1 O       -0.0050     0.5720     0.2340 O.2   1 <1>  -0.5700 
  2 C       -1.1620     0.7710    -0.0890 C.2   1 <1>   0.7160 
  3 N       -1.5030     2.0050    -0.5360 N.am  1 <1>  -0.7300 
  4 C       -2.1640    -0.2730    -0.0030 C.2   1 <1>  -0.0860 
  5 C       -0.8510     3.3070    -0.1750 C.3   1 <1>   0.1140 
  6 C       -3.5750    -0.1200     0.0250 C.2   1 <1>  -0.1810 
  7 C       -1.9890    -1.6260     0.1000 C.2   1 <1>  -0.0400 
  8 C       -1.9200     4.4150    -0.0480 C.2   1 <1>   0.9060 
  9 C        0.2190     3.6560    -1.2230 C.3   1 <1>  -0.0160 
 10 C       -4.0860    -1.3540     0.1680 C.2   1 <1>  -0.0400 
 11 C       -4.4540     1.1240    -0.0510 C.3   1 <1>   0.0210 
 12 O       -3.1360    -2.2550     0.1990 O.3   1 <1>  -0.2800 
 13 C       -0.7360    -2.4800     0.1210 C.3   1 <1>  -0.0600 
 14 O       -3.1080     4.0940    -0.2350 O.co2 1 <1>  -0.9000 
 15 O       -1.5960     5.5800     0.2130 O.co2 1 <1>  -0.9000 
 16 C        1.5250     4.0700    -0.5600 C.ar  1 <1>  -0.1440 
 17 C       -5.5460    -1.7240     0.2940 C.3   1 <1>   0.0200 
 18 C       -5.9370     0.7420    -0.2410 C.3   1 <1>  -0.1600 
 19 C        1.7190     5.3830    -0.1610 C.ar  1 <1>  -0.1500 
 20 C        2.5260     3.1370    -0.3390 C.ar  1 <1>  -0.1500 
 21 C       -6.3630    -0.4610     0.6240 C.3   1 <1>  -0.1600 
 22 C        2.9090     5.7640     0.4350 C.ar  1 <1>  -0.1500 
 23 C        3.7170     3.5160     0.2560 C.ar  1 <1>  -0.1500 
 24 C        3.9110     4.8320     0.6410 C.ar  1 <1>  -0.1500 
 25 H       -2.5040     2.1970    -0.6750 H     1 <1>   0.3700 
 26 H       -0.3840     3.2000     0.7870 H     1 <1>   0.0800 
 27 H       -0.1330     4.4560    -1.8500 H     1 <1>   0.0800 
 28 H        0.4060     2.8070    -1.8540 H     1 <1>   0.0800 
 29 H       -4.1640     1.7430    -0.8790 H     1 <1>   0.0800 
 30 H       -4.3330     1.6960     0.8530 H     1 <1>   0.0800 
 31 H        0.1440    -1.8910    -0.0520 H     1 <1>   0.0800 
 32 H       -0.8020    -3.2310    -0.6440 H     1 <1>   0.0800 
 33 H       -0.6480    -2.9630     1.0770 H     1 <1>   0.0800 
 34 H       -5.6690    -2.4550     1.0740 H     1 <1>   0.0800 
 35 H       -5.8750    -2.1530    -0.6350 H     1 <1>   0.0800 
 36 H       -6.0960     0.4950    -1.2770 H     1 <1>   0.0800 
 37 H       -6.5490     1.5970    -0.0120 H     1 <1>   0.0800 
 38 H        0.9310     6.1060    -0.3070 H     1 <1>   0.1500 
 39 H        2.3700     2.1100    -0.6250 H     1 <1>   0.1500 
 40 H       -6.2100    -0.2100     1.6600 H     1 <1>   0.0800 
 41 H       -7.4100    -0.6630     0.4840 H     1 <1>   0.0800 
 42 H        3.0460     6.7860     0.7400 H     1 <1>   0.1500 
 43 H        4.4870     2.7850     0.4220 H     1 <1>   0.1500 
 44 H        4.8340     5.1280     1.1040 H     1 <1>   0.1500 
@<TRIPOS>BOND
  1   1   2  2   
  2   2   3  am  
  3   2   4  1   
  4   3   5  1   
  5   3  25  1   
  6   4   6  1   
  7   4   7  2   
  8   5   8  1   
  9   5   9  1   
 10   5  26  1   
 11   6  10  2   
 12   6  11  1   
 13   7  12  1   
 14   7  13  1   
 15   8  14  ar  
 16   8  15  ar  
 17   9  16  1   
 18   9  27  1   
 19   9  28  1   
 20  10  12  1   
 21  10  17  1   
 22  11  18  1   
 23  11  29  1   
 24  11  30  1   
 25  13  31  1   
 26  13  32  1   
 27  13  33  1   
 28  16  19  ar  
 29  16  20  ar  
 30  17  21  1   
 31  17  34  1   
 32  17  35  1   
 33  18  21  1   
 34  18  36  1   
 35  18  37  1   
 36  19  22  ar  
 37  19  38  1   
 38  20  23  ar  
 39  20  39  1   
 40  21  40  1   
 41  21  41  1   
 42  22  24  ar  
 43  22  42  1   
 44  23  24  ar  
 45  23  43  1   
 46  24  44  1   
@<TRIPOS>SUBSTRUCTURE
  1 ****   3 GROUP 4 **** **** 0

# MOE 2024.06 (io_trps.svl 2023.06)
