@<TRIPOS>MOLECULE
NONAME
49 51 1 0 0 
SMALL
USER_CHARGES


@<TRIPOS>ATOM
  1 O       -2.2600     6.0100    -0.4460 O.3   1 <1>  -0.2870 
  2 C       -1.5420     5.1160     0.2110 C.2   1 <1>  -0.0480 
  3 C       -2.1870     7.1450     0.2220 C.2   1 <1>  -0.0180 
  4 C       -1.0110     5.6610     1.3270 C.2   1 <1>  -0.1570 
  5 C       -1.4520     3.7140    -0.3530 C.3   1 <1>   0.3420 
  6 C       -1.4340     6.9960     1.3320 C.2   1 <1>  -0.1570 
  7 N       -2.8280     3.3530    -0.7210 N.pl3 1 <1>  -0.7180 
  8 C       -3.4710     2.2080    -0.5830 C.cat 1 <1>   1.0690 
  9 N       -2.9050     1.0520    -0.2740 N.pl3 1 <1>  -0.7040 
 10 N       -4.7960     2.0600    -0.7330 N.pl3 1 <1>  -0.7670 
 11 C       -3.8800     0.0760    -0.2480 C.ar  1 <1>   0.3030 
 12 C       -5.0770     0.7050    -0.5460 C.ar  1 <1>   0.3030 
 13 C       -5.8230     3.0950    -1.0470 C.3   1 <1>   0.3480 
 14 C       -3.8240    -1.2890     0.0040 C.ar  1 <1>  -0.1170 
 15 C       -6.2570    -0.0290    -0.6130 C.ar  1 <1>  -0.1170 
 16 C       -6.6700     3.4560     0.2020 C.3   1 <1>   0.3370 
 17 C       -4.9980    -2.0140    -0.0550 C.ar  1 <1>  -0.1570 
 18 C       -6.2070    -1.3880    -0.3640 C.ar  1 <1>  -0.1570 
 19 N       -7.5860     4.6420     0.0160 N.4   1 <1>  -0.9610 
 20 C       -7.0680     5.8800     0.6760 C.3   1 <1>   0.3370 
 21 C       -8.9400     4.3270     0.5530 C.3   1 <1>   0.3370 
 22 C       -5.7700     6.3380     0.0210 C.3   1 <1>  -0.2470 
 23 C       -9.9660     5.2470    -0.0960 C.3   1 <1>  -0.2470 
 24 H       -2.6930     8.0160    -0.1600 H     1 <1>   0.1430 
 25 H       -0.3850     5.2140     2.0800 H     1 <1>   0.1430 
 26 H       -1.0430     3.0380     0.3790 H     1 <1>   0.0720 
 27 H       -0.8270     3.7200    -1.2310 H     1 <1>   0.0720 
 28 H       -1.1830     7.7290     2.0800 H     1 <1>   0.1430 
 29 H       -3.3170     4.1970    -1.0190 H     1 <1>   0.4450 
 30 H       -1.9110     0.8860    -0.1360 H     1 <1>   0.4450 
 31 H       -6.4710     2.7180    -1.8210 H     1 <1>   0.0720 
 32 H       -5.3380     3.9780    -1.4240 H     1 <1>   0.0720 
 33 H       -2.8890    -1.7670     0.2370 H     1 <1>   0.1430 
 34 H       -7.1920     0.4390    -0.8590 H     1 <1>   0.1430 
 35 H       -6.0060     3.6560     1.0270 H     1 <1>   0.0720 
 36 H       -7.2590     2.5920     0.4610 H     1 <1>   0.0720 
 37 H       -4.9880    -3.0770     0.1350 H     1 <1>   0.1430 
 38 H       -7.1070    -1.9830    -0.4080 H     1 <1>   0.1430 
 39 H       -7.7250     4.8590    -0.9810 H     1 <1>   0.4450 
 40 H       -6.9050     5.7020     1.7280 H     1 <1>   0.0720 
 41 H       -7.7950     6.6710     0.5840 H     1 <1>   0.0720 
 42 H       -8.9570     4.4440     1.6260 H     1 <1>   0.0720 
 43 H       -9.1990     3.3070     0.3190 H     1 <1>   0.0720 
 44 H       -4.9620     5.6650     0.2390 H     1 <1>   0.0720 
 45 H       -5.5010     7.2970     0.4280 H     1 <1>   0.0720 
 46 H       -5.8910     6.4560    -1.0410 H     1 <1>   0.0720 
 47 H       -9.8040     6.2760     0.1700 H     1 <1>   0.0720 
 48 H      -10.9480     4.9760     0.2520 H     1 <1>   0.0720 
 49 H       -9.9570     5.1420    -1.1660 H     1 <1>   0.0720 
@<TRIPOS>BOND
  1   1   2  1   
  2   1   3  1   
  3   2   4  2   
  4   2   5  1   
  5   3   6  2   
  6   3  24  1   
  7   4   6  1   
  8   4  25  1   
  9   5   7  1   
 10   5  26  1   
 11   5  27  1   
 12   6  28  1   
 13   7   8  ar  
 14   7  29  1   
 15   8   9  ar  
 16   8  10  ar  
 17   9  11  1   
 18   9  30  1   
 19  10  12  1   
 20  10  13  1   
 21  11  12  ar  
 22  11  14  ar  
 23  12  15  ar  
 24  13  16  1   
 25  13  31  1   
 26  13  32  1   
 27  14  17  ar  
 28  14  33  1   
 29  15  18  ar  
 30  15  34  1   
 31  16  19  1   
 32  16  35  1   
 33  16  36  1   
 34  17  18  ar  
 35  17  37  1   
 36  18  38  1   
 37  19  20  1   
 38  19  21  1   
 39  19  39  1   
 40  20  22  1   
 41  20  40  1   
 42  20  41  1   
 43  21  23  1   
 44  21  42  1   
 45  21  43  1   
 46  22  44  1   
 47  22  45  1   
 48  22  46  1   
 49  23  47  1   
 50  23  48  1   
 51  23  49  1   
@<TRIPOS>SUBSTRUCTURE
  1 ****  10 GROUP 4 **** **** 0

# MOE 2024.06 (io_trps.svl 2023.06)
