@<TRIPOS>MOLECULE
NONAME
45 45 1 0 0 
SMALL
USER_CHARGES


@<TRIPOS>ATOM
  1 CL      -2.2080    -0.2770     3.2340 Cl    1 <1>  -0.1770 
  2 C       -2.6120     0.6080     1.7830 C.ar  1 <1>   0.1770 
  3 C       -1.7650     1.5810     1.2820 C.ar  1 <1>   0.1770 
  4 C       -3.8050     0.3180     1.1440 C.ar  1 <1>  -0.1500 
  5 CL      -0.2590     1.9610     2.0820 Cl    1 <1>  -0.1770 
  6 C       -2.1040     2.2700     0.1320 C.ar  1 <1>  -0.1500 
  7 C       -4.1600     1.0130    -0.0070 C.ar  1 <1>  -0.1440 
  8 C       -3.2990     1.9840    -0.5110 C.ar  1 <1>  -0.1500 
  9 C       -5.4720     0.7130    -0.7130 C.3   1 <1>   0.4870 
 10 N       -6.6040     1.2700     0.0990 N.4   1 <1>  -0.9590 
 11 C       -7.9250     0.7070    -0.3800 C.3   1 <1>   0.3430 
 12 C       -6.5220     2.7680     0.0770 C.3   1 <1>   0.3430 
 13 C       -8.9850     0.4810     0.7410 C.3   1 <1>   0.3430 
 14 C       -7.4830     3.3890     1.0830 C.3   1 <1>  -0.2400 
 15 N      -10.3230    -0.0480     0.2700 N.4   1 <1>  -0.9590 
 16 C      -10.2770    -1.3750    -0.4240 C.3   1 <1>   0.3430 
 17 C      -11.0950     0.9600    -0.5190 C.3   1 <1>   0.3430 
 18 C       -9.7430    -2.4430     0.5230 C.3   1 <1>  -0.2400 
 19 C      -12.5830     0.6450    -0.4380 C.3   1 <1>  -0.2400 
 20 H       -4.4250    -0.4560     1.5620 H     1 <1>   0.1500 
 21 H       -1.4320     3.0200    -0.2520 H     1 <1>   0.1500 
 22 H       -3.5380     2.5290    -1.4100 H     1 <1>   0.1500 
 23 H       -5.5720    -0.3560    -0.8120 H     1 <1>   0.0800 
 24 H       -5.4660     1.1460    -1.7000 H     1 <1>   0.0800 
 25 H       -6.3960     0.9780     1.0660 H     1 <1>   0.4500 
 26 H       -7.7440    -0.2460    -0.8480 H     1 <1>   0.0800 
 27 H       -8.3350     1.3680    -1.1270 H     1 <1>   0.0800 
 28 H       -6.7340     3.1440    -0.9120 H     1 <1>   0.0800 
 29 H       -5.5210     3.0780     0.3380 H     1 <1>   0.0800 
 30 H       -9.1530     1.4100     1.2570 H     1 <1>   0.0800 
 31 H       -8.5770    -0.2140     1.4560 H     1 <1>   0.0800 
 32 H       -8.5030     3.3110     0.7580 H     1 <1>   0.0800 
 33 H       -7.2600     4.4390     1.1640 H     1 <1>   0.0800 
 34 H       -7.3590     2.9580     2.0610 H     1 <1>   0.0800 
 35 H      -10.8940    -0.2090     1.1170 H     1 <1>   0.4500 
 36 H       -9.6640    -1.3230    -1.3090 H     1 <1>   0.0800 
 37 H      -11.2720    -1.6610    -0.7300 H     1 <1>   0.0800 
 38 H      -10.7760     0.9630    -1.5500 H     1 <1>   0.0800 
 39 H      -10.9360     1.9460    -0.1110 H     1 <1>   0.0800 
 40 H       -8.7100    -2.2860     0.7700 H     1 <1>   0.0800 
 41 H       -9.8150    -3.4030     0.0400 H     1 <1>   0.0800 
 42 H      -10.3320    -2.4890     1.4220 H     1 <1>   0.0800 
 43 H      -12.8230    -0.2870    -0.9180 H     1 <1>   0.0800 
 44 H      -13.1340     1.4170    -0.9460 H     1 <1>   0.0800 
 45 H      -12.9200     0.6240     0.5840 H     1 <1>   0.0800 
@<TRIPOS>BOND
  1   1   2  1   
  2   2   3  ar  
  3   2   4  ar  
  4   3   5  1   
  5   3   6  ar  
  6   4   7  ar  
  7   4  20  1   
  8   6   8  ar  
  9   6  21  1   
 10   7   8  ar  
 11   7   9  1   
 12   8  22  1   
 13   9  10  1   
 14   9  23  1   
 15   9  24  1   
 16  10  11  1   
 17  10  12  1   
 18  10  25  1   
 19  11  13  1   
 20  11  26  1   
 21  11  27  1   
 22  12  14  1   
 23  12  28  1   
 24  12  29  1   
 25  13  15  1   
 26  13  30  1   
 27  13  31  1   
 28  14  32  1   
 29  14  33  1   
 30  14  34  1   
 31  15  16  1   
 32  15  17  1   
 33  15  35  1   
 34  16  18  1   
 35  16  36  1   
 36  16  37  1   
 37  17  19  1   
 38  17  38  1   
 39  17  39  1   
 40  18  40  1   
 41  18  41  1   
 42  18  42  1   
 43  19  43  1   
 44  19  44  1   
 45  19  45  1   
@<TRIPOS>SUBSTRUCTURE
  1 ****  10 GROUP 4 **** **** 0

# MOE 2024.06 (io_trps.svl 2023.06)
