@<TRIPOS>MOLECULE
NONAME
48 50 1 0 0 
SMALL
USER_CHARGES


@<TRIPOS>ATOM
  1 S       -0.9700    -0.4640    -0.1960 S.o2  1 <1>   1.4470 
  2 O        0.3430    -0.7480     0.3450 O.2   1 <1>  -0.6500 
  3 O       -1.0870     0.1150    -1.5160 O.2   1 <1>  -0.6500 
  4 N       -1.8130    -1.9320    -0.2340 N.am  1 <1>  -0.8490 
  5 C       -1.9390     0.5210     0.9780 C.ar  1 <1>  -0.0090 
  6 C       -1.3840    -2.7690    -1.3640 C.3   1 <1>   0.1960 
  7 C       -1.6750    -2.6990     1.0160 C.3   1 <1>   0.1960 
  8 C       -3.3000     0.7100     0.7850 C.ar  1 <1>  -0.1500 
  9 C       -1.3520     1.0980     2.0980 C.ar  1 <1>  -0.1500 
 10 C       -2.1500    -4.1040    -1.3890 C.3   1 <1>   0.1200 
 11 C       -2.4460    -4.0290     0.9330 C.3   1 <1>   0.1200 
 12 C       -4.0790     1.4380     1.6740 C.ar  1 <1>   0.1170 
 13 C       -2.1050     1.8330     2.9960 C.ar  1 <1>  -0.1500 
 14 O       -2.0160    -4.7770    -0.1690 O.3   1 <1>  -0.5600 
 15 N       -5.4470     1.5800     1.4060 N.am  1 <1>  -0.5470 
 16 C       -3.4600     2.0010     2.7840 C.ar  1 <1>  -0.1500 
 17 C       -6.5090     1.8770     2.2170 C.2   1 <1>   0.5690 
 18 O       -6.4120     2.0650     3.4050 O.2   1 <1>  -0.5700 
 19 C       -7.8920     1.9630     1.5910 C.3   1 <1>   0.0440 
 20 C       -7.9040     1.5180     0.1310 C.ar  1 <1>  -0.1430 
 21 C       -8.0490     0.1780    -0.1890 C.ar  1 <1>  -0.1500 
 22 C       -7.7410     2.4460    -0.8860 C.ar  1 <1>  -0.1500 
 23 C       -8.0270    -0.2310    -1.5110 C.ar  1 <1>  -0.1500 
 24 C       -7.7190     2.0350    -2.2070 C.ar  1 <1>  -0.1500 
 25 C       -7.8610     0.6950    -2.5270 C.ar  1 <1>  -0.1430 
 26 C       -7.8360     0.2470    -3.9770 C.3   1 <1>  -0.0970 
 27 H       -0.3260    -2.9680    -1.2970 H     1 <1>   0.0800 
 28 H       -1.5650    -2.2480    -2.2890 H     1 <1>   0.0800 
 29 H       -2.0590    -2.1240     1.8410 H     1 <1>   0.0800 
 30 H       -0.6370    -2.9130     1.2120 H     1 <1>   0.0800 
 31 H       -3.7640     0.2710    -0.0820 H     1 <1>   0.1500 
 32 H       -0.2950     0.9720     2.2700 H     1 <1>   0.1500 
 33 H       -1.7600    -4.7430    -2.1610 H     1 <1>   0.0800 
 34 H       -3.1960    -3.9330    -1.5750 H     1 <1>   0.0800 
 35 H       -3.5020    -3.8480     0.8370 H     1 <1>   0.0800 
 36 H       -2.2720    -4.6170     1.8170 H     1 <1>   0.0800 
 37 H       -1.6390     2.2750     3.8600 H     1 <1>   0.1500 
 38 H       -5.7240     1.3860     0.4390 H     1 <1>   0.3700 
 39 H       -4.0340     2.5760     3.4880 H     1 <1>   0.1500 
 40 H       -8.2360     2.9780     1.6690 H     1 <1>   0.0800 
 41 H       -8.5640     1.3500     2.1630 H     1 <1>   0.0800 
 42 H       -8.1780    -0.5570     0.5870 H     1 <1>   0.1500 
 43 H       -7.6280     3.4920    -0.6590 H     1 <1>   0.1500 
 44 H       -8.1390    -1.2750    -1.7460 H     1 <1>   0.1500 
 45 H       -7.5900     2.7650    -2.9880 H     1 <1>   0.1500 
 46 H       -8.4370    -0.6340    -4.1100 H     1 <1>   0.0800 
 47 H       -6.8260     0.0270    -4.2730 H     1 <1>   0.0800 
 48 H       -8.2250     1.0200    -4.6160 H     1 <1>   0.0800 
@<TRIPOS>BOND
  1   1   2  2   
  2   1   3  2   
  3   1   4  am  
  4   1   5  1   
  5   4   6  1   
  6   4   7  1   
  7   5   8  ar  
  8   5   9  ar  
  9   6  10  1   
 10   6  27  1   
 11   6  28  1   
 12   7  11  1   
 13   7  29  1   
 14   7  30  1   
 15   8  12  ar  
 16   8  31  1   
 17   9  13  ar  
 18   9  32  1   
 19  10  14  1   
 20  10  33  1   
 21  10  34  1   
 22  11  14  1   
 23  11  35  1   
 24  11  36  1   
 25  12  15  1   
 26  12  16  ar  
 27  13  16  ar  
 28  13  37  1   
 29  15  17  am  
 30  15  38  1   
 31  16  39  1   
 32  17  18  2   
 33  17  19  1   
 34  19  20  1   
 35  19  40  1   
 36  19  41  1   
 37  20  21  ar  
 38  20  22  ar  
 39  21  23  ar  
 40  21  42  1   
 41  22  24  ar  
 42  22  43  1   
 43  23  25  ar  
 44  23  44  1   
 45  24  25  ar  
 46  24  45  1   
 47  25  26  1   
 48  26  46  1   
 49  26  47  1   
 50  26  48  1   
@<TRIPOS>SUBSTRUCTURE
  1 ****   8 GROUP 4 **** **** 0

# MOE 2024.06 (io_trps.svl 2023.06)
