@<TRIPOS>MOLECULE
NONAME
44 45 1 0 0 
SMALL
USER_CHARGES


@<TRIPOS>ATOM
  1 O        0.3270     1.4920     1.9460 O.2   1 <1>  -0.5700 
  2 C        0.7210     1.7900     0.8360 C.2   1 <1>   0.5440 
  3 N       -0.1850     2.2680    -0.0690 N.am  1 <1>  -0.7300 
  4 C        2.1120     1.6440     0.4510 C.ar  1 <1>   0.0860 
  5 C       -1.6030     2.4910     0.2330 C.3   1 <1>   0.2200 
  6 C        2.5810     0.4450    -0.0980 C.ar  1 <1>  -0.1440 
  7 C        3.0120     2.7050     0.5980 C.ar  1 <1>  -0.1430 
  8 C       -2.3770     1.2000    -0.0170 C.3   1 <1>  -0.1600 
  9 C       -2.1450     3.6270    -0.6280 C.3   1 <1>  -0.1600 
 10 C        3.9000     0.3280    -0.5030 C.ar  1 <1>  -0.1500 
 11 C        1.6530    -0.7540    -0.2520 C.3   1 <1>  -0.0970 
 12 C        4.3270     2.5710     0.1880 C.ar  1 <1>  -0.1500 
 13 C        2.5640     4.0230     1.2200 C.3   1 <1>  -0.0970 
 14 C       -3.8640     1.4200     0.2390 C.3   1 <1>   0.3430 
 15 C       -3.6390     3.8140    -0.3700 C.3   1 <1>   0.3430 
 16 C        4.7780     1.3880    -0.3680 C.ar  1 <1>  -0.1440 
 17 N       -4.3670     2.5330    -0.6220 N.4   1 <1>  -0.9590 
 18 C        6.2220     1.2500    -0.8140 C.3   1 <1>  -0.0970 
 19 C       -5.8390     2.7150    -0.4400 C.3   1 <1>   0.2630 
 20 H        0.1480     2.4850    -1.0110 H     1 <1>   0.3700 
 21 H       -1.6960     2.7610     1.2740 H     1 <1>   0.0800 
 22 H       -2.0190     0.4400     0.6560 H     1 <1>   0.0800 
 23 H       -2.2270     0.8550    -1.0250 H     1 <1>   0.0800 
 24 H       -1.9830     3.4240    -1.6710 H     1 <1>   0.0800 
 25 H       -1.6320     4.5390    -0.3760 H     1 <1>   0.0800 
 26 H        4.2540    -0.5970    -0.9240 H     1 <1>   0.1500 
 27 H        0.8580    -0.5230    -0.9370 H     1 <1>   0.0800 
 28 H        1.2280    -1.0130     0.7030 H     1 <1>   0.0800 
 29 H        2.1850    -1.6110    -0.6250 H     1 <1>   0.0800 
 30 H        5.0140     3.3920     0.3030 H     1 <1>   0.1500 
 31 H        3.3920     4.7000     1.3320 H     1 <1>   0.0800 
 32 H        1.8220     4.4920     0.6010 H     1 <1>   0.0800 
 33 H        2.1430     3.8440     2.1940 H     1 <1>   0.0800 
 34 H       -4.0140     1.6640     1.2790 H     1 <1>   0.0800 
 35 H       -4.4030     0.5110     0.0240 H     1 <1>   0.0800 
 36 H       -4.0200     4.5900    -1.0150 H     1 <1>   0.0800 
 37 H       -3.7890     4.1220     0.6530 H     1 <1>   0.0800 
 38 H       -4.1920     2.2650    -1.6020 H     1 <1>   0.4500 
 39 H        6.2980     0.5610    -1.6360 H     1 <1>   0.0800 
 40 H        6.8200     0.8850     0.0020 H     1 <1>   0.0800 
 41 H        6.6110     2.2000    -1.1310 H     1 <1>   0.0800 
 42 H       -6.0600     2.9940     0.5780 H     1 <1>   0.0800 
 43 H       -6.3610     1.7990    -0.6670 H     1 <1>   0.0800 
 44 H       -6.2060     3.4880    -1.0970 H     1 <1>   0.0800 
@<TRIPOS>BOND
  1   1   2  2   
  2   2   3  am  
  3   2   4  1   
  4   3   5  1   
  5   3  20  1   
  6   4   6  ar  
  7   4   7  ar  
  8   5   8  1   
  9   5   9  1   
 10   5  21  1   
 11   6  10  ar  
 12   6  11  1   
 13   7  12  ar  
 14   7  13  1   
 15   8  14  1   
 16   8  22  1   
 17   8  23  1   
 18   9  15  1   
 19   9  24  1   
 20   9  25  1   
 21  10  16  ar  
 22  10  26  1   
 23  11  27  1   
 24  11  28  1   
 25  11  29  1   
 26  12  16  ar  
 27  12  30  1   
 28  13  31  1   
 29  13  32  1   
 30  13  33  1   
 31  14  17  1   
 32  14  34  1   
 33  14  35  1   
 34  15  17  1   
 35  15  36  1   
 36  15  37  1   
 37  16  18  1   
 38  17  19  1   
 39  17  38  1   
 40  18  39  1   
 41  18  40  1   
 42  18  41  1   
 43  19  42  1   
 44  19  43  1   
 45  19  44  1   
@<TRIPOS>SUBSTRUCTURE
  1 ****   3 GROUP 4 **** **** 0

# MOE 2024.06 (io_trps.svl 2023.06)
