@<TRIPOS>MOLECULE
NONAME
60 62 1 0 0 
SMALL
USER_CHARGES


@<TRIPOS>ATOM
  1 O       -5.1230     2.9090    -0.9780 O.3   1 <1>  -0.3630 
  2 C       -6.1100     2.8840    -0.0510 C.ar  1 <1>   0.0830 
  3 C       -5.4610     2.4790    -2.2910 C.3   1 <1>   0.1200 
  4 C       -6.5520     4.0500     0.5930 C.ar  1 <1>  -0.1440 
  5 C       -6.6630     1.6450     0.2540 C.ar  1 <1>  -0.1500 
  6 C       -4.2160     1.9800    -3.0480 C.3   1 <1>   0.2000 
  7 C       -7.6030     3.9050     1.5010 C.ar  1 <1>  -0.1500 
  8 C       -5.9050     5.4450     0.3590 C.3   1 <1>   0.1440 
  9 C       -7.6960     1.5370     1.1600 C.ar  1 <1>  -0.1500 
 10 O       -3.6840     0.8650    -2.4030 O.3   1 <1>  -0.6800 
 11 C       -3.1260     3.0720    -3.2060 C.3   1 <1>   0.3430 
 12 C       -8.1710     2.6740     1.7770 C.ar  1 <1>  -0.1500 
 13 C       -4.4820     5.4270     0.9330 C.3   1 <1>  -0.2400 
 14 C       -5.8690     5.8260    -1.1320 C.3   1 <1>  -0.2400 
 15 C       -6.6500     6.5930     1.0690 C.3   1 <1>  -0.2400 
 16 N       -2.5500     3.5880    -1.9170 N.4   1 <1>  -0.9590 
 17 C       -1.8890     4.9310    -2.1110 C.3   1 <1>   0.3430 
 18 C       -1.5930     2.6020    -1.2850 C.3   1 <1>   0.3430 
 19 C       -1.2030     5.4790    -0.8410 C.3   1 <1>   0.2090 
 20 C       -0.9510     3.1400     0.0090 C.3   1 <1>   0.2090 
 21 N       -0.3020     4.4630    -0.2280 N.pl3 1 <1>  -0.8380 
 22 C        0.5210     4.9310     0.7900 C.ar  1 <1>   0.1000 
 23 C        1.8800     5.0880     0.5550 C.ar  1 <1>  -0.1500 
 24 C        0.0160     5.2540     2.0460 C.ar  1 <1>  -0.1500 
 25 C        2.7200     5.5580     1.5480 C.ar  1 <1>  -0.1500 
 26 C        0.8530     5.7240     3.0420 C.ar  1 <1>  -0.1500 
 27 C        2.2060     5.8770     2.7940 C.ar  1 <1>  -0.1500 
 28 H       -5.9060     3.3130    -2.8030 H     1 <1>   0.0800 
 29 H       -6.1950     1.6940    -2.2450 H     1 <1>   0.0800 
 30 H       -6.2850     0.7540    -0.2110 H     1 <1>   0.1500 
 31 H       -4.5180     1.6590    -4.0300 H     1 <1>   0.0800 
 32 H       -8.0170     4.7390     2.0320 H     1 <1>   0.1500 
 33 H       -8.1280     0.5770     1.3870 H     1 <1>   0.1500 
 34 H       -4.3490     0.1490    -2.3230 H     1 <1>   0.4000 
 35 H       -3.5710     3.8950    -3.7390 H     1 <1>   0.0800 
 36 H       -2.3340     2.6820    -3.8240 H     1 <1>   0.0800 
 37 H       -8.9820     2.6030     2.4830 H     1 <1>   0.1500 
 38 H       -4.5210     5.2170     1.9880 H     1 <1>   0.0800 
 39 H       -4.0050     6.3800     0.7950 H     1 <1>   0.0800 
 40 H       -3.8910     4.6640     0.4710 H     1 <1>   0.0800 
 41 H       -5.1540     5.2470    -1.6770 H     1 <1>   0.0800 
 42 H       -5.5980     6.8600    -1.2560 H     1 <1>   0.0800 
 43 H       -6.8420     5.6790    -1.5660 H     1 <1>   0.0800 
 44 H       -6.6430     6.4560     2.1360 H     1 <1>   0.0800 
 45 H       -7.6690     6.6490     0.7290 H     1 <1>   0.0800 
 46 H       -6.1820     7.5400     0.8670 H     1 <1>   0.0800 
 47 H       -3.3430     3.6750    -1.2550 H     1 <1>   0.4500 
 48 H       -2.6160     5.6510    -2.4490 H     1 <1>   0.0800 
 49 H       -1.1340     4.8450    -2.8740 H     1 <1>   0.0800 
 50 H       -0.8050     2.3660    -1.9790 H     1 <1>   0.0800 
 51 H       -2.1080     1.6870    -1.0480 H     1 <1>   0.0800 
 52 H       -1.9400     5.7850    -0.1230 H     1 <1>   0.0800 
 53 H       -0.6220     6.3480    -1.1000 H     1 <1>   0.0800 
 54 H       -0.2090     2.4410     0.3550 H     1 <1>   0.0800 
 55 H       -1.7020     3.2310     0.7750 H     1 <1>   0.0800 
 56 H        2.2740     4.8390    -0.4120 H     1 <1>   0.1500 
 57 H       -1.0320     5.1390     2.2440 H     1 <1>   0.1500 
 58 H        3.7720     5.6760     1.3540 H     1 <1>   0.1500 
 59 H        0.4540     5.9720     4.0100 H     1 <1>   0.1500 
 60 H        2.8590     6.2430     3.5680 H     1 <1>   0.1500 
@<TRIPOS>BOND
  1   1   2  1   
  2   1   3  1   
  3   2   4  ar  
  4   2   5  ar  
  5   3   6  1   
  6   3  28  1   
  7   3  29  1   
  8   4   7  ar  
  9   4   8  1   
 10   5   9  ar  
 11   5  30  1   
 12   6  10  1   
 13   6  11  1   
 14   6  31  1   
 15   7  12  ar  
 16   7  32  1   
 17   8  13  1   
 18   8  14  1   
 19   8  15  1   
 20   9  12  ar  
 21   9  33  1   
 22  10  34  1   
 23  11  16  1   
 24  11  35  1   
 25  11  36  1   
 26  12  37  1   
 27  13  38  1   
 28  13  39  1   
 29  13  40  1   
 30  14  41  1   
 31  14  42  1   
 32  14  43  1   
 33  15  44  1   
 34  15  45  1   
 35  15  46  1   
 36  16  17  1   
 37  16  18  1   
 38  16  47  1   
 39  17  19  1   
 40  17  48  1   
 41  17  49  1   
 42  18  20  1   
 43  18  50  1   
 44  18  51  1   
 45  19  21  1   
 46  19  52  1   
 47  19  53  1   
 48  20  21  1   
 49  20  54  1   
 50  20  55  1   
 51  21  22  1   
 52  22  23  ar  
 53  22  24  ar  
 54  23  25  ar  
 55  23  56  1   
 56  24  26  ar  
 57  24  57  1   
 58  25  27  ar  
 59  25  58  1   
 60  26  27  ar  
 61  26  59  1   
 62  27  60  1   
@<TRIPOS>SUBSTRUCTURE
  1 ****  16 GROUP 4 **** **** 0

# MOE 2024.06 (io_trps.svl 2023.06)
