@<TRIPOS>MOLECULE
NONAME
61 64 1 0 0 
SMALL
USER_CHARGES


@<TRIPOS>ATOM
  1 O       -1.1570    -2.0650    -0.6850 O.co2 1 <1>  -0.9000 
  2 C       -1.2300    -1.5230     0.4290 C.2   1 <1>   0.9060 
  3 O       -1.0380    -2.1910     1.4570 O.co2 1 <1>  -0.9000 
  4 C       -1.6070    -0.0070     0.5500 C.3   1 <1>  -0.1060 
  5 C       -0.3340     0.9440     0.6400 C.3   1 <1>  -0.0800 
  6 C       -2.5460     0.3730    -0.6380 C.3   1 <1>  -0.1600 
  7 C       -2.4530     0.1450     1.8480 C.3   1 <1>  -0.2400 
  8 C       -0.5360     2.3690     0.0370 C.3   1 <1>   0.0000 
  9 C        0.9200     0.3080    -0.0080 C.3   1 <1>  -0.1600 
 10 C       -1.7940     0.9800    -1.8240 C.3   1 <1>  -0.1600 
 11 C        0.7540     3.2700     0.1110 C.3   1 <1>  -0.0800 
 12 C       -0.9490     2.2190    -1.4610 C.3   1 <1>  -0.1600 
 13 C       -1.6610     3.1620     0.7510 C.3   1 <1>  -0.2400 
 14 C        2.2220     1.0560     0.2710 C.3   1 <1>  -0.1600 
 15 C        2.3900     2.5320    -0.2370 C.3   1 <1>   0.1380 
 16 C        0.8130     4.4660     1.4790 C.3   1 <1>  -0.1600 
 17 C        2.4700     3.6670     0.1450 C.2   1 <1>  -0.2880 
 18 C        4.0390     2.9420     0.4450 C.3   1 <1>  -0.1860 
 19 C        2.4600     5.0400     1.6180 C.3   1 <1>   0.0580 
 20 C        2.5830     5.0040     0.1880 C.2   1 <1>  -0.2760 
 21 C        4.9080     1.7420     0.8280 C.2   1 <1>   0.9060 
 22 C        3.9650     4.1710     1.7860 C.3   1 <1>  -0.1860 
 23 C        2.7170     6.1640    -0.7890 C.3   1 <1>   0.0580 
 24 O        4.9050     1.3210     1.9960 O.co2 1 <1>  -0.9000 
 25 O        5.5360     1.1430    -0.0600 O.co2 1 <1>  -0.9000 
 26 C        5.1310     5.1420     1.9340 C.2   1 <1>   0.9060 
 27 C        2.6950     5.6340    -2.2250 C.3   1 <1>  -0.2400 
 28 C        4.0000     6.9590    -0.5520 C.3   1 <1>  -0.2400 
 29 O        5.0430     6.0050     2.8240 O.co2 1 <1>  -0.9000 
 30 O        6.1130     5.1120     1.1820 O.co2 1 <1>  -0.9000 
 31 H       -0.0880     1.0600     1.6810 H     1 <1>   0.0800 
 32 H       -3.3200     1.0480    -0.3340 H     1 <1>   0.0800 
 33 H       -3.0650    -0.5080    -0.9770 H     1 <1>   0.0800 
 34 H       -1.8540    -0.1060     2.7060 H     1 <1>   0.0800 
 35 H       -3.2790    -0.5440     1.8200 H     1 <1>   0.0800 
 36 H       -2.8420     1.1310     1.9880 H     1 <1>   0.0800 
 37 H        0.7990     0.1840    -1.0670 H     1 <1>   0.0800 
 38 H        1.0770    -0.6740     0.3990 H     1 <1>   0.0800 
 39 H       -2.4890     1.2310    -2.6040 H     1 <1>   0.0800 
 40 H       -1.1460     0.2150    -2.2180 H     1 <1>   0.0800 
 41 H        0.5220     3.9250    -0.7330 H     1 <1>   0.0800 
 42 H       -0.0600     2.1710    -2.0660 H     1 <1>   0.0800 
 43 H       -1.4790     3.1010    -1.7720 H     1 <1>   0.0800 
 44 H       -1.5240     3.1340     1.8160 H     1 <1>   0.0800 
 45 H       -2.6370     2.7900     0.5360 H     1 <1>   0.0800 
 46 H       -1.6640     4.1860     0.4260 H     1 <1>   0.0800 
 47 H        2.9860     0.4700    -0.2080 H     1 <1>   0.0800 
 48 H        2.4030     0.9820     1.3310 H     1 <1>   0.0800 
 49 H        0.5420     3.9960     2.4070 H     1 <1>   0.0800 
 50 H        0.1550     5.2940     1.2910 H     1 <1>   0.0800 
 51 H        2.3010     3.0330     1.2220 H     1 <1>   0.1500 
 52 H        4.6380     3.3920    -0.3410 H     1 <1>   0.0800 
 53 H        2.5200     6.0360     2.0200 H     1 <1>   0.0800 
 54 H        3.9240     3.6400     2.7180 H     1 <1>   0.0800 
 55 H        1.8760     6.8190    -0.6470 H     1 <1>   0.0800 
 56 H        3.5170     4.9540    -2.3700 H     1 <1>   0.0800 
 57 H        2.7800     6.4420    -2.9280 H     1 <1>   0.0800 
 58 H        1.7800     5.1040    -2.4080 H     1 <1>   0.0800 
 59 H        4.0370     7.3180     0.4610 H     1 <1>   0.0800 
 60 H        4.0600     7.7990    -1.2180 H     1 <1>   0.0800 
 61 H        4.8570     6.3280    -0.7110 H     1 <1>   0.0800 
@<TRIPOS>BOND
  1   1   2  ar  
  2   2   3  ar  
  3   2   4  1   
  4   4   5  1   
  5   4   6  1   
  6   4   7  1   
  7   5   8  1   
  8   5   9  1   
  9   5  31  1   
 10   6  10  1   
 11   6  32  1   
 12   6  33  1   
 13   7  34  1   
 14   7  35  1   
 15   7  36  1   
 16   8  11  1   
 17   8  12  1   
 18   8  13  1   
 19   9  14  1   
 20   9  37  1   
 21   9  38  1   
 22  10  12  1   
 23  10  39  1   
 24  10  40  1   
 25  11  15  1   
 26  11  16  1   
 27  11  41  1   
 28  12  42  1   
 29  12  43  1   
 30  13  44  1   
 31  13  45  1   
 32  13  46  1   
 33  14  15  1   
 34  14  47  1   
 35  14  48  1   
 36  15  17  1   
 37  15  18  1   
 38  16  19  1   
 39  16  49  1   
 40  16  50  1   
 41  17  20  2   
 42  17  51  1   
 43  18  21  1   
 44  18  22  1   
 45  18  52  1   
 46  19  20  1   
 47  19  22  1   
 48  19  53  1   
 49  20  23  1   
 50  21  24  ar  
 51  21  25  ar  
 52  22  26  1   
 53  22  54  1   
 54  23  27  1   
 55  23  28  1   
 56  23  55  1   
 57  26  29  ar  
 58  26  30  ar  
 59  27  56  1   
 60  27  57  1   
 61  27  58  1   
 62  28  59  1   
 63  28  60  1   
 64  28  61  1   
@<TRIPOS>SUBSTRUCTURE
  1 ****  15 GROUP 4 **** **** 0

# MOE 2024.06 (io_trps.svl 2023.06)
