@<TRIPOS>MOLECULE
NONAME
43 44 1 0 0 
SMALL
USER_CHARGES


@<TRIPOS>ATOM
  1 O       -2.1600     5.5810    -0.0540 O.3   1 <1>  -0.3620 
  2 C       -3.5160     5.6450    -0.1160 C.ar  1 <1>   0.0830 
  3 C       -1.5040     4.4070     0.3760 C.3   1 <1>   0.1200 
  4 C       -4.0650     6.8640    -0.4790 C.ar  1 <1>  -0.1500 
  5 C       -4.3570     4.5700     0.1620 C.ar  1 <1>  -0.1500 
  6 C        0.0080     4.6660     0.3640 C.3   1 <1>   0.2000 
  7 C       -5.4370     7.0150    -0.5650 C.ar  1 <1>  -0.1500 
  8 C       -5.7310     4.7220     0.0760 C.ar  1 <1>  -0.1500 
  9 O        0.3740     5.1630    -0.8890 O.3   1 <1>  -0.6800 
 10 C        0.8310     3.3930     0.6570 C.3   1 <1>   0.3430 
 11 C       -6.2780     5.9500    -0.2890 C.ar  1 <1>   0.0830 
 12 N        2.2180     3.5310     0.1140 N.4   1 <1>  -0.9590 
 13 O       -7.6120     6.1820    -0.3960 O.3   1 <1>  -0.3620 
 14 C        2.8330     2.2200    -0.2350 C.3   1 <1>   0.3430 
 15 C        3.0950     4.3740     0.9760 C.3   1 <1>   0.3430 
 16 C       -8.5540     5.1640    -0.1410 C.3   1 <1>   0.0400 
 17 C        4.1550     2.4510    -0.9690 C.3   1 <1>  -0.1600 
 18 C        4.4200     4.6360     0.2580 C.3   1 <1>  -0.1600 
 19 C        5.1130     3.3320    -0.1560 C.3   1 <1>  -0.1600 
 20 H       -1.7600     3.6090    -0.2990 H     1 <1>   0.0800 
 21 H       -1.8430     4.1740     1.3710 H     1 <1>   0.0800 
 22 H       -3.4180     7.6950    -0.6940 H     1 <1>   0.1500 
 23 H       -3.9710     3.6100     0.4440 H     1 <1>   0.1500 
 24 H        0.2370     5.4210     1.0960 H     1 <1>   0.0800 
 25 H       -5.8660     7.9600    -0.8460 H     1 <1>   0.1500 
 26 H       -6.3580     3.8790     0.2950 H     1 <1>   0.1500 
 27 H       -0.3050     5.8210    -1.1720 H     1 <1>   0.4000 
 28 H        0.3430     2.5650     0.1710 H     1 <1>   0.0800 
 29 H        0.8510     3.1920     1.7150 H     1 <1>   0.0800 
 30 H        2.0760     4.0670    -0.7640 H     1 <1>   0.4500 
 31 H        2.1670     1.6550    -0.8680 H     1 <1>   0.0800 
 32 H        3.0160     1.6520     0.6630 H     1 <1>   0.0800 
 33 H        3.2850     3.8690     1.9090 H     1 <1>   0.0800 
 34 H        2.6120     5.3150     1.1860 H     1 <1>   0.0800 
 35 H       -9.5370     5.5740    -0.2900 H     1 <1>   0.0800 
 36 H       -8.4460     4.8350     0.8770 H     1 <1>   0.0800 
 37 H       -8.3880     4.3540    -0.8290 H     1 <1>   0.0800 
 38 H        3.9560     2.9100    -1.9220 H     1 <1>   0.0800 
 39 H        4.6220     1.5010    -1.1620 H     1 <1>   0.0800 
 40 H        5.0690     5.1940     0.9110 H     1 <1>   0.0800 
 41 H        4.2370     5.2460    -0.6100 H     1 <1>   0.0800 
 42 H        5.9910     3.5540    -0.7410 H     1 <1>   0.0800 
 43 H        5.4330     2.7990     0.7250 H     1 <1>   0.0800 
@<TRIPOS>BOND
  1   1   2  1   
  2   1   3  1   
  3   2   4  ar  
  4   2   5  ar  
  5   3   6  1   
  6   3  20  1   
  7   3  21  1   
  8   4   7  ar  
  9   4  22  1   
 10   5   8  ar  
 11   5  23  1   
 12   6   9  1   
 13   6  10  1   
 14   6  24  1   
 15   7  11  ar  
 16   7  25  1   
 17   8  11  ar  
 18   8  26  1   
 19   9  27  1   
 20  10  12  1   
 21  10  28  1   
 22  10  29  1   
 23  11  13  1   
 24  12  14  1   
 25  12  15  1   
 26  12  30  1   
 27  13  16  1   
 28  14  17  1   
 29  14  31  1   
 30  14  32  1   
 31  15  18  1   
 32  15  33  1   
 33  15  34  1   
 34  16  35  1   
 35  16  36  1   
 36  16  37  1   
 37  17  19  1   
 38  17  38  1   
 39  17  39  1   
 40  18  19  1   
 41  18  40  1   
 42  18  41  1   
 43  19  42  1   
 44  19  43  1   
@<TRIPOS>SUBSTRUCTURE
  1 ****   3 GROUP 4 **** **** 0

# MOE 2024.06 (io_trps.svl 2023.06)
