@<TRIPOS>MOLECULE
NONAME
43 44 1 0 0 
SMALL
USER_CHARGES


@<TRIPOS>ATOM
  1 S        0.2960    -0.3450     1.3160 S.3   1 <1>  -0.0800 
  2 C       -0.2960     0.3890    -0.1440 C.2   1 <1>   0.4420 
  3 C        1.8850    -0.2190     0.6430 C.2   1 <1>   0.1980 
  4 N        0.6490     0.6550    -0.9690 N.2   1 <1>  -0.3380 
  5 N       -1.6330     0.6390    -0.3610 N.am  1 <1>  -0.4940 
  6 N        1.8900     0.3110    -0.5130 N.2   1 <1>  -0.3380 
  7 C        3.0570    -0.7210     1.4570 C.3   1 <1>   0.0810 
  8 C       -2.7440     0.4560     0.4160 C.2   1 <1>   0.5690 
  9 C        2.9710    -2.2180     1.6810 C.2   1 <1>   0.5690 
 10 O       -2.6860     0.0060     1.5330 O.2   1 <1>  -0.5700 
 11 C       -4.1130     0.8580    -0.1930 C.3   1 <1>   0.0610 
 12 O        2.7600    -2.5820     2.8140 O.2   1 <1>  -0.5700 
 13 N        3.1400    -3.1190     0.6540 N.am  1 <1>  -0.6600 
 14 C       -5.2750     0.5930     0.7870 C.3   1 <1>  -0.2400 
 15 C       -4.1250     2.3600    -0.5410 C.3   1 <1>  -0.2400 
 16 C       -4.3880     0.0520    -1.4770 C.3   1 <1>  -0.2400 
 17 C        2.9980    -4.5850     0.8900 C.3   1 <1>   0.1400 
 18 C        3.4260    -2.7690    -0.7700 C.3   1 <1>   0.1400 
 19 C        4.2720    -5.3100     0.4460 C.3   1 <1>  -0.1600 
 20 C        4.7020    -3.4810    -1.2330 C.3   1 <1>  -0.1600 
 21 C        4.6190    -4.9970    -1.0160 C.3   1 <1>  -0.1600 
 22 H       -1.8110     1.0460    -1.2730 H     1 <1>   0.3700 
 23 H        3.0580    -0.2210     2.4080 H     1 <1>   0.0800 
 24 H        3.9790    -0.4860     0.9620 H     1 <1>   0.0800 
 25 H       -5.1340     1.1540     1.6940 H     1 <1>   0.0800 
 26 H       -5.3150    -0.4510     1.0450 H     1 <1>   0.0800 
 27 H       -6.2190     0.8740     0.3550 H     1 <1>   0.0800 
 28 H       -5.0860     2.6510    -0.9280 H     1 <1>   0.0800 
 29 H       -3.3810     2.5980    -1.2790 H     1 <1>   0.0800 
 30 H       -3.9260     2.9450     0.3410 H     1 <1>   0.0800 
 31 H       -5.3540     0.3010    -1.8810 H     1 <1>   0.0800 
 32 H       -4.3760    -1.0030    -1.2600 H     1 <1>   0.0800 
 33 H       -3.6490     0.2500    -2.2310 H     1 <1>   0.0800 
 34 H        2.1550    -4.9490     0.3290 H     1 <1>   0.0800 
 35 H        2.8140    -4.7900     1.9320 H     1 <1>   0.0800 
 36 H        3.5530    -1.7120    -0.9010 H     1 <1>   0.0800 
 37 H        2.5940    -3.0800    -1.3780 H     1 <1>   0.0800 
 38 H        4.1370    -6.3700     0.5670 H     1 <1>   0.0800 
 39 H        5.0820    -5.0070     1.0870 H     1 <1>   0.0800 
 40 H        5.5400    -3.0820    -0.6880 H     1 <1>   0.0800 
 41 H        4.8630    -3.2750    -2.2770 H     1 <1>   0.0800 
 42 H        3.8590    -5.4090    -1.6590 H     1 <1>   0.0800 
 43 H        5.5580    -5.4560    -1.2740 H     1 <1>   0.0800 
@<TRIPOS>BOND
  1   1   2  1   
  2   1   3  1   
  3   2   4  2   
  4   2   5  1   
  5   3   6  2   
  6   3   7  1   
  7   4   6  1   
  8   5   8  am  
  9   5  22  1   
 10   7   9  1   
 11   7  23  1   
 12   7  24  1   
 13   8  10  2   
 14   8  11  1   
 15   9  12  2   
 16   9  13  am  
 17  11  14  1   
 18  11  15  1   
 19  11  16  1   
 20  13  17  1   
 21  13  18  1   
 22  14  25  1   
 23  14  26  1   
 24  14  27  1   
 25  15  28  1   
 26  15  29  1   
 27  15  30  1   
 28  16  31  1   
 29  16  32  1   
 30  16  33  1   
 31  17  19  1   
 32  17  34  1   
 33  17  35  1   
 34  18  20  1   
 35  18  36  1   
 36  18  37  1   
 37  19  21  1   
 38  19  38  1   
 39  19  39  1   
 40  20  21  1   
 41  20  40  1   
 42  20  41  1   
 43  21  42  1   
 44  21  43  1   
@<TRIPOS>SUBSTRUCTURE
  1 ****   1 GROUP 4 **** **** 0

# MOE 2024.06 (io_trps.svl 2023.06)
