@<TRIPOS>MOLECULE
NONAME
51 52 1 0 0 
SMALL
USER_CHARGES


@<TRIPOS>ATOM
  1 S        0.3420    -0.2380     0.8420 S.o2  1 <1>   1.4470 
  2 O        0.7130    -0.1010     2.2340 O.2   1 <1>  -0.6500 
  3 O       -0.5600     0.7270     0.2510 O.2   1 <1>  -0.6500 
  4 N        1.7840    -0.1780    -0.0500 N.am  1 <1>  -0.8490 
  5 C       -0.2740    -1.9130     0.5150 C.ar  1 <1>  -0.0090 
  6 C        2.8100    -1.0800     0.5000 C.3   1 <1>   0.1960 
  7 C        2.2930     1.1940    -0.1260 C.3   1 <1>   0.1960 
  8 C       -0.6700    -2.2890    -0.7630 C.ar  1 <1>  -0.1500 
  9 C       -0.3450    -2.8700     1.5230 C.ar  1 <1>  -0.1500 
 10 C        4.0360    -1.1240    -0.4230 C.3   1 <1>  -0.0190 
 11 C        3.5140     1.2580    -1.0520 C.3   1 <1>  -0.1600 
 12 C       -1.1190    -3.5710    -1.0280 C.ar  1 <1>  -0.1500 
 13 C       -0.7920    -4.1550     1.2690 C.ar  1 <1>  -0.1500 
 14 C        5.0810    -2.0890     0.1180 C.2   1 <1>   0.5690 
 15 C        4.6180     0.2890    -0.6050 C.3   1 <1>  -0.1600 
 16 C       -1.1820    -4.5140    -0.0170 C.ar  1 <1>   0.0830 
 17 O        5.2240    -2.2090     1.3110 O.2   1 <1>  -0.5700 
 18 N        5.8400    -2.7890    -0.7640 N.am  1 <1>  -0.7300 
 19 O       -1.6280    -5.7470    -0.3570 O.3   1 <1>  -0.3630 
 20 C        6.8600    -3.8010    -0.3810 C.3   1 <1>   0.1400 
 21 C       -1.7440    -6.7780     0.5970 C.3   1 <1>   0.1200 
 22 C        8.1570    -3.1220     0.0580 C.3   1 <1>   0.1200 
 23 C       -2.2760    -8.0200    -0.1110 C.3   1 <1>  -0.2400 
 24 O        9.1410    -4.0990     0.1970 O.3   1 <1>  -0.5600 
 25 C       10.3520    -3.6120     0.6800 C.3   1 <1>   0.0400 
 26 H        2.4130    -2.0770     0.5920 H     1 <1>   0.0800 
 27 H        3.1040    -0.7480     1.4840 H     1 <1>   0.0800 
 28 H        2.5570     1.5420     0.8610 H     1 <1>   0.0800 
 29 H        1.5290     1.8460    -0.5170 H     1 <1>   0.0800 
 30 H       -0.6260    -1.5650    -1.5600 H     1 <1>   0.1500 
 31 H       -0.0450    -2.6030     2.5240 H     1 <1>   0.1500 
 32 H        3.7060    -1.4940    -1.3760 H     1 <1>   0.0800 
 33 H        3.8980     2.2630    -1.0620 H     1 <1>   0.0800 
 34 H        3.1990     1.0180    -2.0520 H     1 <1>   0.0800 
 35 H       -1.4230    -3.8490    -2.0210 H     1 <1>   0.1500 
 36 H       -0.8280    -4.8580     2.0800 H     1 <1>   0.1500 
 37 H        5.4110     0.2740    -1.3330 H     1 <1>   0.0800 
 38 H        5.0300     0.6260     0.3310 H     1 <1>   0.0800 
 39 H        5.7160    -2.6460    -1.7680 H     1 <1>   0.3700 
 40 H        7.0560    -4.4420    -1.2230 H     1 <1>   0.0800 
 41 H        6.4830    -4.3980     0.4320 H     1 <1>   0.0800 
 42 H       -2.4260    -6.4560     1.3650 H     1 <1>   0.0800 
 43 H       -0.7700    -6.9660     1.0160 H     1 <1>   0.0800 
 44 H        8.0130    -2.6330     1.0060 H     1 <1>   0.0800 
 45 H        8.4840    -2.4160    -0.6850 H     1 <1>   0.0800 
 46 H       -3.2410    -7.8160    -0.5400 H     1 <1>   0.0800 
 47 H       -2.3760    -8.8260     0.5920 H     1 <1>   0.0800 
 48 H       -1.5960    -8.3230    -0.8870 H     1 <1>   0.0800 
 49 H       11.0410    -4.4360     0.7460 H     1 <1>   0.0800 
 50 H       10.1990    -3.1880     1.6570 H     1 <1>   0.0800 
 51 H       10.7350    -2.8720    -0.0010 H     1 <1>   0.0800 
@<TRIPOS>BOND
  1   1   2  2   
  2   1   3  2   
  3   1   4  am  
  4   1   5  1   
  5   4   6  1   
  6   4   7  1   
  7   5   8  ar  
  8   5   9  ar  
  9   6  10  1   
 10   6  26  1   
 11   6  27  1   
 12   7  11  1   
 13   7  28  1   
 14   7  29  1   
 15   8  12  ar  
 16   8  30  1   
 17   9  13  ar  
 18   9  31  1   
 19  10  14  1   
 20  10  15  1   
 21  10  32  1   
 22  11  15  1   
 23  11  33  1   
 24  11  34  1   
 25  12  16  ar  
 26  12  35  1   
 27  13  16  ar  
 28  13  36  1   
 29  14  17  2   
 30  14  18  am  
 31  15  37  1   
 32  15  38  1   
 33  16  19  1   
 34  18  20  1   
 35  18  39  1   
 36  19  21  1   
 37  20  22  1   
 38  20  40  1   
 39  20  41  1   
 40  21  23  1   
 41  21  42  1   
 42  21  43  1   
 43  22  24  1   
 44  22  44  1   
 45  22  45  1   
 46  23  46  1   
 47  23  47  1   
 48  23  48  1   
 49  24  25  1   
 50  25  49  1   
 51  25  50  1   
 52  25  51  1   
@<TRIPOS>SUBSTRUCTURE
  1 ****   6 GROUP 4 **** **** 0

# MOE 2024.06 (io_trps.svl 2023.06)
