@<TRIPOS>MOLECULE
NONAME
42 43 1 0 0 
SMALL
USER_CHARGES


@<TRIPOS>ATOM
  1 S       -0.5630    -0.3920    -0.8040 S.o2  1 <1>   1.3330 
  2 O       -0.0830     0.6750    -1.6510 O.2   1 <1>  -0.6500 
  3 O       -1.0190    -1.6320    -1.3870 O.2   1 <1>  -0.6500 
  4 N       -1.8160     0.2270     0.1530 N.am  1 <1>  -0.8490 
  5 C        0.7060    -0.7420     0.3940 C.3   1 <1>  -0.1350 
  6 C       -2.6370    -0.8350     0.7690 C.3   1 <1>   0.1960 
  7 C       -2.6850     1.1340    -0.6210 C.3   1 <1>   0.1960 
  8 C       -3.7050    -0.2480     1.7060 C.3   1 <1>   0.1400 
  9 C       -3.7850     1.7700     0.2500 C.3   1 <1>   0.1400 
 10 N       -4.5710     0.7240     0.9730 N.am  1 <1>  -0.6600 
 11 C       -5.8510     0.3890     0.6210 C.2   1 <1>   0.6900 
 12 O       -6.2150    -0.7700     0.6720 O.2   1 <1>  -0.5700 
 13 N       -6.7000     1.3870     0.2400 N.am  1 <1>  -0.5470 
 14 C       -7.9840     1.3450    -0.3270 C.ar  1 <1>   0.1170 
 15 C       -8.8950     2.3830    -0.0950 C.ar  1 <1>  -0.1440 
 16 C       -8.3570     0.2860    -1.1500 C.ar  1 <1>  -0.1500 
 17 C      -10.1460     2.3290    -0.6990 C.ar  1 <1>  -0.1500 
 18 C       -8.4910     3.5460     0.8220 C.3   1 <1>  -0.0170 
 19 C       -9.6040     0.2440    -1.7400 C.ar  1 <1>  -0.1500 
 20 C      -10.5010     1.2700    -1.5150 C.ar  1 <1>  -0.1500 
 21 C       -9.5910     4.5670     1.1380 C.3   1 <1>  -0.2400 
 22 H        0.9670     0.1530     0.9230 H     1 <1>   0.0800 
 23 H        1.5800    -1.1180    -0.1000 H     1 <1>   0.0800 
 24 H        0.3660    -1.4760     1.0970 H     1 <1>   0.0800 
 25 H       -2.0090    -1.5000     1.3340 H     1 <1>   0.0800 
 26 H       -3.1300    -1.4170     0.0050 H     1 <1>   0.0800 
 27 H       -3.1420     0.5940    -1.4350 H     1 <1>   0.0800 
 28 H       -2.0940     1.9280    -1.0450 H     1 <1>   0.0800 
 29 H       -3.2230     0.2550     2.5250 H     1 <1>   0.0800 
 30 H       -4.3000    -1.0470     2.1150 H     1 <1>   0.0800 
 31 H       -4.4240     2.3600    -0.3820 H     1 <1>   0.0800 
 32 H       -3.3270     2.4270     0.9690 H     1 <1>   0.0800 
 33 H       -6.3960     2.2980     0.5580 H     1 <1>   0.3700 
 34 H       -7.6640    -0.5150    -1.3340 H     1 <1>   0.1500 
 35 H      -10.8740     3.1040    -0.5490 H     1 <1>   0.1500 
 36 H       -7.6670     4.0690     0.3700 H     1 <1>   0.0800 
 37 H       -8.1500     3.1360     1.7570 H     1 <1>   0.0800 
 38 H       -9.8730    -0.5840    -2.3710 H     1 <1>   0.1500 
 39 H      -11.4740     1.2430    -1.9720 H     1 <1>   0.1500 
 40 H       -9.9160     5.0620     0.2400 H     1 <1>   0.0800 
 41 H       -9.2140     5.3120     1.8160 H     1 <1>   0.0800 
 42 H      -10.4310     4.0820     1.6020 H     1 <1>   0.0800 
@<TRIPOS>BOND
  1   1   2  2   
  2   1   3  2   
  3   1   4  am  
  4   1   5  1   
  5   4   6  1   
  6   4   7  1   
  7   5  22  1   
  8   5  23  1   
  9   5  24  1   
 10   6   8  1   
 11   6  25  1   
 12   6  26  1   
 13   7   9  1   
 14   7  27  1   
 15   7  28  1   
 16   8  10  1   
 17   8  29  1   
 18   8  30  1   
 19   9  10  1   
 20   9  31  1   
 21   9  32  1   
 22  10  11  am  
 23  11  12  2   
 24  11  13  am  
 25  13  14  1   
 26  13  33  1   
 27  14  15  ar  
 28  14  16  ar  
 29  15  17  ar  
 30  15  18  1   
 31  16  19  ar  
 32  16  34  1   
 33  17  20  ar  
 34  17  35  1   
 35  18  21  1   
 36  18  36  1   
 37  18  37  1   
 38  19  20  ar  
 39  19  38  1   
 40  20  39  1   
 41  21  40  1   
 42  21  41  1   
 43  21  42  1   
@<TRIPOS>SUBSTRUCTURE
  1 ****  11 GROUP 4 **** **** 0

# MOE 2024.06 (io_trps.svl 2023.06)
