@<TRIPOS>MOLECULE
NONAME
48 49 1 0 0 
SMALL
USER_CHARGES


@<TRIPOS>ATOM
  1 O       -1.2790    -3.7710    -0.2380 O.3   1 <1>  -0.3630 
  2 C       -2.4440    -3.0770    -0.1870 C.ar  1 <1>   0.0830 
  3 C       -1.2650    -5.1840    -0.1630 C.3   1 <1>   0.1200 
  4 C       -2.3560    -1.6970    -0.2900 C.ar  1 <1>  -0.1500 
  5 C       -3.6930    -3.6750    -0.0350 C.ar  1 <1>  -0.1500 
  6 C        0.1920    -5.6720    -0.1490 C.3   1 <1>   0.2000 
  7 C       -3.4940    -0.9120    -0.2320 C.ar  1 <1>  -0.1440 
  8 C       -4.8350    -2.8950     0.0260 C.ar  1 <1>  -0.1440 
  9 O        0.2020    -7.0540    -0.0260 O.3   1 <1>  -0.6800 
 10 C        1.0510    -5.0730     0.9890 C.3   1 <1>   0.3430 
 11 C       -4.7290    -1.5180    -0.0710 C.ar  1 <1>  -0.1500 
 12 C       -3.4080     0.6000    -0.3430 C.3   1 <1>  -0.0970 
 13 C       -6.2030    -3.5340     0.1920 C.3   1 <1>  -0.0970 
 14 N        1.2190    -3.5870     0.8860 N.4   1 <1>  -0.9060 
 15 C        2.0940    -3.1650    -0.2170 C.3   1 <1>   0.5660 
 16 C        3.4840    -3.7320     0.0270 C.ar  1 <1>  -0.1430 
 17 C        2.0840    -1.6440    -0.2850 C.3   1 <1>  -0.2400 
 18 C        3.9750    -4.7010    -0.8390 C.ar  1 <1>  -0.1500 
 19 C        4.2700    -3.3250     1.1000 C.ar  1 <1>  -0.1500 
 20 C        5.2240    -5.2580    -0.6330 C.ar  1 <1>  -0.1500 
 21 C        5.5190    -3.8830     1.3040 C.ar  1 <1>  -0.1500 
 22 C        5.9960    -4.8510     0.4390 C.ar  1 <1>  -0.1500 
 23 H       -1.7830    -5.5690    -1.0260 H     1 <1>   0.0800 
 24 H       -1.7710    -5.4760     0.7410 H     1 <1>   0.0800 
 25 H       -1.3980    -1.2330    -0.4200 H     1 <1>   0.1500 
 26 H       -3.8010    -4.7400     0.0330 H     1 <1>   0.1500 
 27 H        0.6480    -5.4600    -1.0990 H     1 <1>   0.0800 
 28 H       -0.4210    -7.3890     0.6520 H     1 <1>   0.4000 
 29 H        2.0210    -5.5460     0.9770 H     1 <1>   0.0800 
 30 H        0.5780    -5.3060     1.9280 H     1 <1>   0.0800 
 31 H       -5.6170    -0.9110    -0.0260 H     1 <1>   0.1500 
 32 H       -2.4430     0.9060    -0.7050 H     1 <1>   0.0800 
 33 H       -3.5740     1.0460     0.6210 H     1 <1>   0.0800 
 34 H       -4.1560     0.9620    -1.0250 H     1 <1>   0.0800 
 35 H       -6.1170    -4.5280     0.5920 H     1 <1>   0.0800 
 36 H       -6.6980    -3.5860    -0.7610 H     1 <1>   0.0800 
 37 H       -6.8060    -2.9500     0.8640 H     1 <1>   0.0800 
 38 H        1.6110    -3.2150     1.7540 H     1 <1>   0.4500 
 39 H        0.2870    -3.1660     0.7360 H     1 <1>   0.4500 
 40 H        1.7150    -3.5530    -1.1490 H     1 <1>   0.0800 
 41 H        2.3920    -1.2000     0.6440 H     1 <1>   0.0800 
 42 H        1.1040    -1.2860    -0.5470 H     1 <1>   0.0800 
 43 H        2.7670    -1.3220    -1.0510 H     1 <1>   0.0800 
 44 H        3.3980    -5.0370    -1.6850 H     1 <1>   0.1500 
 45 H        3.9340    -2.5710     1.7900 H     1 <1>   0.1500 
 46 H        5.6010    -6.0090    -1.3070 H     1 <1>   0.1500 
 47 H        6.1280    -3.5650     2.1340 H     1 <1>   0.1500 
 48 H        6.9690    -5.2840     0.5980 H     1 <1>   0.1500 
@<TRIPOS>BOND
  1   1   2  1   
  2   1   3  1   
  3   2   4  ar  
  4   2   5  ar  
  5   3   6  1   
  6   3  23  1   
  7   3  24  1   
  8   4   7  ar  
  9   4  25  1   
 10   5   8  ar  
 11   5  26  1   
 12   6   9  1   
 13   6  10  1   
 14   6  27  1   
 15   7  11  ar  
 16   7  12  1   
 17   8  11  ar  
 18   8  13  1   
 19   9  28  1   
 20  10  14  1   
 21  10  29  1   
 22  10  30  1   
 23  11  31  1   
 24  12  32  1   
 25  12  33  1   
 26  12  34  1   
 27  13  35  1   
 28  13  36  1   
 29  13  37  1   
 30  14  15  1   
 31  14  38  1   
 32  14  39  1   
 33  15  16  1   
 34  15  17  1   
 35  15  40  1   
 36  16  18  ar  
 37  16  19  ar  
 38  17  41  1   
 39  17  42  1   
 40  17  43  1   
 41  18  20  ar  
 42  18  44  1   
 43  19  21  ar  
 44  19  45  1   
 45  20  22  ar  
 46  20  46  1   
 47  21  22  ar  
 48  21  47  1   
 49  22  48  1   
@<TRIPOS>SUBSTRUCTURE
  1 ****   1 GROUP 4 **** **** 0

# MOE 2024.06 (io_trps.svl 2023.06)
