@<TRIPOS>MOLECULE
NONAME
38 39 1 0 0 
SMALL
USER_CHARGES


@<TRIPOS>ATOM
  1 CL      -0.1210     1.1490     1.8820 Cl    1 <1>  -0.1770 
  2 C        1.4890     1.1290     1.2070 C.ar  1 <1>   0.1770 
  3 C        1.6850     0.6260    -0.0640 C.ar  1 <1>  -0.1500 
  4 C        2.5420     1.6180     1.9550 C.ar  1 <1>  -0.1500 
  5 C        2.9610     0.6060    -0.6070 C.ar  1 <1>  -0.1440 
  6 C        3.8180     1.6030     1.4200 C.ar  1 <1>  -0.1500 
  7 C        4.0340     1.0960     0.1370 C.ar  1 <1>   0.0830 
  8 C        3.1670     0.0500    -2.0090 C.3   1 <1>  -0.0960 
  9 O        5.2650     1.0540    -0.4400 O.3   1 <1>  -0.3630 
 10 C        6.4170     1.4950     0.2330 C.3   1 <1>   0.1200 
 11 C        7.6010     1.2920    -0.7180 C.3   1 <1>   0.3430 
 12 N        8.9060     1.7570    -0.1400 N.4   1 <1>  -0.9590 
 13 C        9.9500     1.7970    -1.2080 C.3   1 <1>   0.3430 
 14 C        9.3500     0.9150     1.0140 C.3   1 <1>   0.3430 
 15 C       11.2360     2.4080    -0.6490 C.3   1 <1>  -0.1600 
 16 C       10.6230     1.5050     1.6230 C.3   1 <1>  -0.1600 
 17 C       11.7400     1.6440     0.5810 C.3   1 <1>  -0.1600 
 18 H        0.8400     0.2550    -0.6140 H     1 <1>   0.1500 
 19 H        2.3570     2.0050     2.9420 H     1 <1>   0.1500 
 20 H        4.6190     1.9890     2.0200 H     1 <1>   0.1500 
 21 H        2.2370    -0.2790    -2.4370 H     1 <1>   0.0800 
 22 H        3.8410    -0.7880    -1.9750 H     1 <1>   0.0800 
 23 H        3.5860     0.8080    -2.6460 H     1 <1>   0.0800 
 24 H        6.5240     0.9040     1.1250 H     1 <1>   0.0800 
 25 H        6.2880     2.5360     0.4690 H     1 <1>   0.0800 
 26 H        7.3970     1.8430    -1.6220 H     1 <1>   0.0800 
 27 H        7.6700     0.2460    -0.9700 H     1 <1>   0.0800 
 28 H        8.7980     2.7220     0.2000 H     1 <1>   0.4500 
 29 H        9.6060     2.3890    -2.0420 H     1 <1>   0.0800 
 30 H       10.1500     0.7980    -1.5610 H     1 <1>   0.0800 
 31 H        9.5460    -0.0910     0.6780 H     1 <1>   0.0800 
 32 H        8.5810     0.8770     1.7680 H     1 <1>   0.0800 
 33 H       11.0630     3.4400    -0.3970 H     1 <1>   0.0800 
 34 H       11.9950     2.3890    -1.4130 H     1 <1>   0.0800 
 35 H       10.9600     0.8660     2.4210 H     1 <1>   0.0800 
 36 H       10.4020     2.4660     2.0550 H     1 <1>   0.0800 
 37 H       12.5830     2.1580     1.0130 H     1 <1>   0.0800 
 38 H       12.0760     0.6640     0.2830 H     1 <1>   0.0800 
@<TRIPOS>BOND
  1   1   2  1   
  2   2   3  ar  
  3   2   4  ar  
  4   3   5  ar  
  5   3  18  1   
  6   4   6  ar  
  7   4  19  1   
  8   5   7  ar  
  9   5   8  1   
 10   6   7  ar  
 11   6  20  1   
 12   7   9  1   
 13   8  21  1   
 14   8  22  1   
 15   8  23  1   
 16   9  10  1   
 17  10  11  1   
 18  10  24  1   
 19  10  25  1   
 20  11  12  1   
 21  11  26  1   
 22  11  27  1   
 23  12  13  1   
 24  12  14  1   
 25  12  28  1   
 26  13  15  1   
 27  13  29  1   
 28  13  30  1   
 29  14  16  1   
 30  14  31  1   
 31  14  32  1   
 32  15  17  1   
 33  15  33  1   
 34  15  34  1   
 35  16  17  1   
 36  16  35  1   
 37  16  36  1   
 38  17  37  1   
 39  17  38  1   
@<TRIPOS>SUBSTRUCTURE
  1 ****  10 GROUP 4 **** **** 0

# MOE 2024.06 (io_trps.svl 2023.06)
