@<TRIPOS>MOLECULE
NONAME
41 42 1 0 0 
SMALL
USER_CHARGES


@<TRIPOS>ATOM
  1 O       -8.9530     1.8580    -0.2980 O.3   1 <1>  -0.3630 
  2 C       -7.6040     1.7410    -0.2870 C.ar  1 <1>   0.0830 
  3 C       -9.5970     3.0400     0.1150 C.3   1 <1>   0.1200 
  4 C       -6.7390     2.7530     0.1200 C.ar  1 <1>  -0.1500 
  5 C       -7.0780     0.5320    -0.7110 C.ar  1 <1>  -0.1500 
  6 C      -11.1040     2.8260    -0.0230 C.3   1 <1>  -0.1600 
  7 C       -5.3710     2.5430     0.0990 C.ar  1 <1>  -0.1500 
  8 C       -5.7100     0.3290    -0.7300 C.ar  1 <1>  -0.1500 
  9 C      -11.8790     4.0580     0.4530 C.3   1 <1>   0.1100 
 10 C       -4.8350     1.3320    -0.3250 C.ar  1 <1>   0.0730 
 11 N      -13.3100     3.9250     0.1370 N.3   1 <1>  -0.8100 
 12 C       -3.4150     1.1210    -0.3440 C.1   1 <1>   0.4840 
 13 C      -14.0000     2.9250     0.9960 C.3   1 <1>   0.1100 
 14 C      -14.0010     5.2340     0.2160 C.3   1 <1>   0.1100 
 15 N       -2.2870     0.9560    -0.3590 N.1   1 <1>  -0.5570 
 16 C      -15.5210     2.8410     0.7090 C.3   1 <1>   0.3430 
 17 C      -15.4960     5.1360    -0.1810 C.3   1 <1>   0.3430 
 18 N      -15.8960     3.7150    -0.4490 N.4   1 <1>  -0.9590 
 19 C      -17.3150     3.5650    -0.8800 C.3   1 <1>   0.2630 
 20 H       -9.2650     3.8460    -0.5170 H     1 <1>   0.0800 
 21 H       -9.3290     3.2300     1.1400 H     1 <1>   0.0800 
 22 H       -7.1110     3.7030     0.4540 H     1 <1>   0.1500 
 23 H       -7.7490    -0.2470    -1.0260 H     1 <1>   0.1500 
 24 H      -11.3760     1.9680     0.5630 H     1 <1>   0.0800 
 25 H      -11.3330     2.6420    -1.0580 H     1 <1>   0.0800 
 26 H       -4.7110     3.3330     0.4170 H     1 <1>   0.1500 
 27 H       -5.3190    -0.6180    -1.0620 H     1 <1>   0.1500 
 28 H      -11.4860     4.9200    -0.0620 H     1 <1>   0.0800 
 29 H      -11.7380     4.2060     1.5110 H     1 <1>   0.0800 
 30 H      -13.8510     3.1670     2.0350 H     1 <1>   0.0800 
 31 H      -13.5750     1.9510     0.8280 H     1 <1>   0.0800 
 32 H      -13.5170     5.9360    -0.4430 H     1 <1>   0.0800 
 33 H      -13.9260     5.6270     1.2160 H     1 <1>   0.0800 
 34 H      -16.0650     3.1420     1.5880 H     1 <1>   0.0800 
 35 H      -15.7790     1.8160     0.4970 H     1 <1>   0.0800 
 36 H      -15.6600     5.7330    -1.0630 H     1 <1>   0.0800 
 37 H      -16.1000     5.5490     0.6100 H     1 <1>   0.0800 
 38 H      -15.2470     3.4180    -1.1980 H     1 <1>   0.4500 
 39 H      -17.9810     3.8770    -0.0930 H     1 <1>   0.0800 
 40 H      -17.5230     2.5350    -1.1230 H     1 <1>   0.0800 
 41 H      -17.5050     4.1670    -1.7540 H     1 <1>   0.0800 
@<TRIPOS>BOND
  1   1   2  1   
  2   1   3  1   
  3   2   4  ar  
  4   2   5  ar  
  5   3   6  1   
  6   3  20  1   
  7   3  21  1   
  8   4   7  ar  
  9   4  22  1   
 10   5   8  ar  
 11   5  23  1   
 12   6   9  1   
 13   6  24  1   
 14   6  25  1   
 15   7  10  ar  
 16   7  26  1   
 17   8  10  ar  
 18   8  27  1   
 19   9  11  1   
 20   9  28  1   
 21   9  29  1   
 22  10  12  1   
 23  11  13  1   
 24  11  14  1   
 25  12  15  3   
 26  13  16  1   
 27  13  30  1   
 28  13  31  1   
 29  14  17  1   
 30  14  32  1   
 31  14  33  1   
 32  16  18  1   
 33  16  34  1   
 34  16  35  1   
 35  17  18  1   
 36  17  36  1   
 37  17  37  1   
 38  18  19  1   
 39  18  38  1   
 40  19  39  1   
 41  19  40  1   
 42  19  41  1   
@<TRIPOS>SUBSTRUCTURE
  1 ****   3 GROUP 4 **** **** 0

# MOE 2024.06 (io_trps.svl 2023.06)
