@<TRIPOS>MOLECULE
NONAME
47 47 1 0 0 
SMALL
USER_CHARGES


@<TRIPOS>ATOM
  1 O       -8.6030    -1.5730     0.5840 O.3   1 <1>  -0.3630 
  2 C       -9.9310    -1.4450     0.3400 C.ar  1 <1>   0.0830 
  3 C       -7.9460    -2.8120     0.4280 C.3   1 <1>   0.1200 
  4 C      -10.7420    -2.4800    -0.1120 C.ar  1 <1>  -0.1500 
  5 C      -10.4920    -0.2010     0.5610 C.ar  1 <1>  -0.1500 
  6 C       -6.4660    -2.6180     0.7840 C.3   1 <1>   0.2000 
  7 C      -12.0890    -2.2550    -0.3340 C.ar  1 <1>  -0.1500 
  8 C      -11.8400     0.0160     0.3370 C.ar  1 <1>  -0.1500 
  9 O       -5.9640    -1.5310     0.0670 O.3   1 <1>  -0.6800 
 10 C       -5.6040    -3.8560     0.4630 C.3   1 <1>   0.3430 
 11 C      -12.6680    -1.0080    -0.1160 C.ar  1 <1>  -0.1440 
 12 N       -4.1790    -3.4440     0.2970 N.4   1 <1>  -0.9060 
 13 C      -14.1780    -0.8150    -0.3810 C.3   1 <1>   0.1440 
 14 C       -3.3430    -4.3460    -0.4990 C.3   1 <1>   0.4230 
 15 C      -14.6650     0.6160    -0.0950 C.3   1 <1>  -0.2400 
 16 C      -14.9830    -1.7660     0.5170 C.3   1 <1>  -0.2400 
 17 C      -14.4850    -1.1210    -1.8550 C.3   1 <1>  -0.2400 
 18 C       -3.0860    -5.6240     0.2930 C.3   1 <1>  -0.2400 
 19 C       -2.0400    -3.6170    -0.7950 C.3   1 <1>  -0.2400 
 20 H       -8.0560    -3.1270    -0.5950 H     1 <1>   0.0800 
 21 H       -8.4090    -3.5270     1.0860 H     1 <1>   0.0800 
 22 H      -10.3550    -3.4620    -0.2990 H     1 <1>   0.1500 
 23 H       -9.8710     0.6030     0.9110 H     1 <1>   0.1500 
 24 H       -6.3870    -2.3840     1.8320 H     1 <1>   0.0800 
 25 H      -12.6910    -3.0740    -0.6840 H     1 <1>   0.1500 
 26 H      -12.2200     1.0020     0.5260 H     1 <1>   0.1500 
 27 H       -6.6420    -0.8120     0.0820 H     1 <1>   0.4000 
 28 H       -5.9600    -4.2850    -0.4590 H     1 <1>   0.0800 
 29 H       -5.7040    -4.5970     1.2390 H     1 <1>   0.0800 
 30 H       -3.7390    -3.2580     1.2030 H     1 <1>   0.4500 
 31 H       -4.2420    -2.5200    -0.1690 H     1 <1>   0.4500 
 32 H       -3.8370    -4.5830    -1.4300 H     1 <1>   0.0800 
 33 H      -14.4980     0.8730     0.9360 H     1 <1>   0.0800 
 34 H      -15.7180     0.7040    -0.2930 H     1 <1>   0.0800 
 35 H      -14.1490     1.3230    -0.7200 H     1 <1>   0.0800 
 36 H      -14.7470    -1.5820     1.5500 H     1 <1>   0.0800 
 37 H      -14.7570    -2.7920     0.2980 H     1 <1>   0.0800 
 38 H      -16.0390    -1.6200     0.3750 H     1 <1>   0.0800 
 39 H      -13.8990    -0.4840    -2.4920 H     1 <1>   0.0800 
 40 H      -15.5260    -0.9560    -2.0690 H     1 <1>   0.0800 
 41 H      -14.2540    -2.1420    -2.0950 H     1 <1>   0.0800 
 42 H       -2.6090    -5.4110     1.2330 H     1 <1>   0.0800 
 43 H       -2.4340    -6.2690    -0.2700 H     1 <1>   0.0800 
 44 H       -3.9990    -6.1640     0.4660 H     1 <1>   0.0800 
 45 H       -1.5160    -3.3680     0.1110 H     1 <1>   0.0800 
 46 H       -2.2260    -2.7210    -1.3600 H     1 <1>   0.0800 
 47 H       -1.4000    -4.2480    -1.3870 H     1 <1>   0.0800 
@<TRIPOS>BOND
  1   1   2  1   
  2   1   3  1   
  3   2   4  ar  
  4   2   5  ar  
  5   3   6  1   
  6   3  20  1   
  7   3  21  1   
  8   4   7  ar  
  9   4  22  1   
 10   5   8  ar  
 11   5  23  1   
 12   6   9  1   
 13   6  10  1   
 14   6  24  1   
 15   7  11  ar  
 16   7  25  1   
 17   8  11  ar  
 18   8  26  1   
 19   9  27  1   
 20  10  12  1   
 21  10  28  1   
 22  10  29  1   
 23  11  13  1   
 24  12  14  1   
 25  12  30  1   
 26  12  31  1   
 27  13  15  1   
 28  13  16  1   
 29  13  17  1   
 30  14  18  1   
 31  14  19  1   
 32  14  32  1   
 33  15  33  1   
 34  15  34  1   
 35  15  35  1   
 36  16  36  1   
 37  16  37  1   
 38  16  38  1   
 39  17  39  1   
 40  17  40  1   
 41  17  41  1   
 42  18  42  1   
 43  18  43  1   
 44  18  44  1   
 45  19  45  1   
 46  19  46  1   
 47  19  47  1   
@<TRIPOS>SUBSTRUCTURE
  1 ****   1 GROUP 4 **** **** 0

# MOE 2024.06 (io_trps.svl 2023.06)
