@<TRIPOS>MOLECULE
NONAME
33 34 1 0 0 
SMALL
USER_CHARGES


@<TRIPOS>ATOM
  1 BR      -5.6240    -1.6270     2.1260 Br    1 <1>  -0.1110 
  2 C       -4.9100     0.0050     1.4090 C.ar  1 <1>   0.1110 
  3 C       -4.2580    -0.0270     0.1920 C.ar  1 <1>  -0.1500 
  4 C       -5.0610     1.1750     2.1270 C.ar  1 <1>  -0.1500 
  5 C       -3.7480     1.1540    -0.3160 C.ar  1 <1>  -0.1500 
  6 C       -4.5430     2.3460     1.6020 C.ar  1 <1>  -0.1500 
  7 C       -3.8830     2.3670     0.3680 C.ar  1 <1>   0.0860 
  8 C       -3.3270     3.5810    -0.2020 C.2   1 <1>   0.5440 
  9 O       -2.1850     3.5730    -0.6270 O.2   1 <1>  -0.5700 
 10 N       -4.0510     4.7640    -0.2860 N.am  1 <1>  -0.2980 
 11 N       -5.2530     5.0380     0.3350 N.2   1 <1>  -0.5120 
 12 C       -3.5520     5.9610    -1.0320 C.3   1 <1>   0.5800 
 13 C       -5.5560     6.2490     0.1840 C.2   1 <1>   0.3280 
 14 O       -2.3230     6.2990    -0.4540 O.3   1 <1>  -0.6800 
 15 C       -3.5020     5.7730    -2.6080 C.3   1 <1>   1.0200 
 16 C       -4.5650     7.0460    -0.6220 C.3   1 <1>  -0.0990 
 17 C       -6.7910     6.9610     0.7200 C.3   1 <1>  -0.0990 
 18 F       -3.2590     6.9190    -3.2440 F     1 <1>  -0.3400 
 19 F       -4.6560     5.3340    -3.1070 F     1 <1>  -0.3400 
 20 F       -2.5740     4.9270    -3.0440 F     1 <1>  -0.3400 
 21 C       -7.7250     6.0490     1.5290 C.3   1 <1>  -0.2400 
 22 H       -4.1520    -0.9550    -0.3410 H     1 <1>   0.1500 
 23 H       -5.5720     1.1670     3.0730 H     1 <1>   0.1500 
 24 H       -3.2300     1.1470    -1.2610 H     1 <1>   0.1500 
 25 H       -4.6510     3.2620     2.1550 H     1 <1>   0.1500 
 26 H       -1.7880     5.4700    -0.4350 H     1 <1>   0.4000 
 27 H       -5.0550     7.4900    -1.4680 H     1 <1>   0.0800 
 28 H       -4.1120     7.8130    -0.0200 H     1 <1>   0.0800 
 29 H       -7.3390     7.3730    -0.1080 H     1 <1>   0.0800 
 30 H       -6.4730     7.7760     1.3460 H     1 <1>   0.0800 
 31 H       -8.0730     5.2340     0.9180 H     1 <1>   0.0800 
 32 H       -8.5770     6.6040     1.8800 H     1 <1>   0.0800 
 33 H       -7.2060     5.6410     2.3790 H     1 <1>   0.0800 
@<TRIPOS>BOND
  1   1   2  1   
  2   2   3  ar  
  3   2   4  ar  
  4   3   5  ar  
  5   3  22  1   
  6   4   6  ar  
  7   4  23  1   
  8   5   7  ar  
  9   5  24  1   
 10   6   7  ar  
 11   6  25  1   
 12   7   8  1   
 13   8   9  2   
 14   8  10  am  
 15  10  11  1   
 16  10  12  1   
 17  11  13  2   
 18  12  14  1   
 19  12  15  1   
 20  12  16  1   
 21  13  16  1   
 22  13  17  1   
 23  14  26  1   
 24  15  18  1   
 25  15  19  1   
 26  15  20  1   
 27  16  27  1   
 28  16  28  1   
 29  17  21  1   
 30  17  29  1   
 31  17  30  1   
 32  21  31  1   
 33  21  32  1   
 34  21  33  1   
@<TRIPOS>SUBSTRUCTURE
  1 ****  10 GROUP 4 **** **** 0

# MOE 2024.06 (io_trps.svl 2023.06)
