@<TRIPOS>MOLECULE
NONAME
42 43 1 0 0 
SMALL
USER_CHARGES


@<TRIPOS>ATOM
  1 O       -0.0910    -0.2230    -0.9890 O.2   1 <1>  -0.5700 
  2 C        0.1040    -1.3910    -0.7500 C.2   1 <1>   0.5690 
  3 N       -0.9090    -2.2210    -0.3560 N.am  1 <1>  -0.6600 
  4 C        1.5240    -1.9090    -0.8820 C.3   1 <1>  -0.0990 
  5 C       -0.8040    -3.6590    -0.0210 C.3   1 <1>   0.1400 
  6 C       -2.2920    -1.7320    -0.1680 C.3   1 <1>   0.1400 
  7 C        2.2840    -1.7790     0.4430 C.3   1 <1>  -0.0160 
  8 C       -2.2420    -4.1150     0.2050 C.3   1 <1>  -0.1600 
  9 C       -2.9960    -2.8470     0.5960 C.3   1 <1>  -0.1600 
 10 C        3.6880    -2.3480     0.3150 C.ar  1 <1>  -0.1440 
 11 C        4.6980    -1.5880    -0.2530 C.ar  1 <1>  -0.1500 
 12 C        3.9780    -3.6280     0.7580 C.ar  1 <1>  -0.1500 
 13 C        5.9770    -2.1000    -0.3750 C.ar  1 <1>  -0.1500 
 14 C        5.2580    -4.1380     0.6350 C.ar  1 <1>  -0.1500 
 15 C        6.2780    -3.3850     0.0640 C.ar  1 <1>   0.1170 
 16 N        7.5630    -3.9460    -0.0260 N.am  1 <1>  -0.5470 
 17 C        8.6270    -3.6340    -0.8250 C.2   1 <1>   0.5690 
 18 O        8.6120    -2.7700    -1.6650 O.2   1 <1>  -0.5700 
 19 C        9.8980    -4.4460    -0.6460 C.3   1 <1>  -0.0990 
 20 C       10.5910    -4.1850     0.7020 C.3   1 <1>  -0.2400 
 21 H        2.0270    -1.3310    -1.6360 H     1 <1>   0.0800 
 22 H        1.5220    -2.9300    -1.2100 H     1 <1>   0.0800 
 23 H       -0.2310    -3.7710     0.8830 H     1 <1>   0.0800 
 24 H       -0.3450    -4.2130    -0.8210 H     1 <1>   0.0800 
 25 H       -2.7440    -1.5860    -1.1340 H     1 <1>   0.0800 
 26 H       -2.3010    -0.8040     0.3780 H     1 <1>   0.0800 
 27 H        1.7500    -2.2940     1.2220 H     1 <1>   0.0800 
 28 H        2.3400    -0.7400     0.7210 H     1 <1>   0.0800 
 29 H       -2.3070    -4.8790     0.9580 H     1 <1>   0.0800 
 30 H       -2.6350    -4.5000    -0.7200 H     1 <1>   0.0800 
 31 H       -4.0430    -2.8970     0.3520 H     1 <1>   0.0800 
 32 H       -2.8900    -2.6660     1.6510 H     1 <1>   0.0800 
 33 H        4.4930    -0.5910    -0.6040 H     1 <1>   0.1500 
 34 H        3.2070    -4.2340     1.2020 H     1 <1>   0.1500 
 35 H        6.7420    -1.4880    -0.8150 H     1 <1>   0.1500 
 36 H        5.4630    -5.1330     0.9830 H     1 <1>   0.1500 
 37 H        7.7250    -4.7320     0.5990 H     1 <1>   0.3700 
 38 H       10.5760    -4.1960    -1.4430 H     1 <1>   0.0800 
 39 H        9.6600    -5.4900    -0.7390 H     1 <1>   0.0800 
 40 H       10.8360    -3.1400     0.7920 H     1 <1>   0.0800 
 41 H       11.5010    -4.7550     0.7660 H     1 <1>   0.0800 
 42 H        9.9540    -4.4610     1.5220 H     1 <1>   0.0800 
@<TRIPOS>BOND
  1   1   2  2   
  2   2   3  am  
  3   2   4  1   
  4   3   5  1   
  5   3   6  1   
  6   4   7  1   
  7   4  21  1   
  8   4  22  1   
  9   5   8  1   
 10   5  23  1   
 11   5  24  1   
 12   6   9  1   
 13   6  25  1   
 14   6  26  1   
 15   7  10  1   
 16   7  27  1   
 17   7  28  1   
 18   8   9  1   
 19   8  29  1   
 20   8  30  1   
 21   9  31  1   
 22   9  32  1   
 23  10  11  ar  
 24  10  12  ar  
 25  11  13  ar  
 26  11  33  1   
 27  12  14  ar  
 28  12  34  1   
 29  13  15  ar  
 30  13  35  1   
 31  14  15  ar  
 32  14  36  1   
 33  15  16  1   
 34  16  17  am  
 35  16  37  1   
 36  17  18  2   
 37  17  19  1   
 38  19  20  1   
 39  19  38  1   
 40  19  39  1   
 41  20  40  1   
 42  20  41  1   
 43  20  42  1   
@<TRIPOS>SUBSTRUCTURE
  1 ****  10 GROUP 4 **** **** 0

# MOE 2024.06 (io_trps.svl 2023.06)
