@<TRIPOS>MOLECULE
NONAME
43 45 1 0 0 
SMALL
USER_CHARGES


@<TRIPOS>ATOM
  1 S        0.0220    -0.3980     0.9690 S.o2  1 <1>   1.4470 
  2 O       -0.2210     0.9850     0.6240 O.2   1 <1>  -0.6500 
  3 O       -0.2050    -0.8410     2.3280 O.2   1 <1>  -0.6500 
  4 N       -0.9520    -1.3570    -0.0350 N.am  1 <1>  -0.8490 
  5 C        1.7100    -0.8420     0.4580 C.ar  1 <1>  -0.0090 
  6 C       -2.3270    -0.8510    -0.0880 C.3   1 <1>   0.1960 
  7 C       -0.9300    -2.7690     0.3630 C.3   1 <1>   0.1960 
  8 C        2.0480    -0.9630    -0.8830 C.ar  1 <1>  -0.1500 
  9 C        2.7170    -1.0560     1.3920 C.ar  1 <1>  -0.1500 
 10 C       -3.1420    -1.6350    -1.1230 C.3   1 <1>  -0.1600 
 11 C       -1.6790    -3.6190    -0.6670 C.3   1 <1>  -0.1600 
 12 C        3.3330    -1.2970    -1.2740 C.ar  1 <1>  -0.1500 
 13 C        4.0030    -1.3860     1.0040 C.ar  1 <1>  -0.1500 
 14 C       -3.1260    -3.1400    -0.8320 C.3   1 <1>  -0.1600 
 15 C        4.3450    -1.5250    -0.3420 C.ar  1 <1>   0.0860 
 16 C        5.6870    -1.8820    -0.7720 C.2   1 <1>   0.5440 
 17 O        6.1000    -1.5150    -1.8520 O.2   1 <1>  -0.5700 
 18 N        6.4800    -2.6670     0.0350 N.am  1 <1>  -0.5470 
 19 C        7.8380    -3.0250    -0.0890 C.ar  1 <1>   0.1170 
 20 C        8.3140    -4.2040     0.4900 C.ar  1 <1>   0.1600 
 21 C        8.7590    -2.2330    -0.7570 C.ar  1 <1>  -0.1500 
 22 N        9.5660    -4.6350     0.4630 N.ar  1 <1>  -0.6200 
 23 C       10.0670    -2.6640    -0.8030 C.ar  1 <1>  -0.1500 
 24 C       10.4140    -3.8540    -0.1870 C.ar  1 <1>   0.1600 
 25 H       -2.3240     0.1890    -0.3740 H     1 <1>   0.0800 
 26 H       -2.7850    -0.9300     0.8850 H     1 <1>   0.0800 
 27 H       -1.3860    -2.8860     1.3330 H     1 <1>   0.0800 
 28 H        0.0880    -3.1140     0.4260 H     1 <1>   0.0800 
 29 H        1.2920    -0.7910    -1.6320 H     1 <1>   0.1500 
 30 H        2.4860    -0.9550     2.4410 H     1 <1>   0.1500 
 31 H       -2.7290    -1.4490    -2.0990 H     1 <1>   0.0800 
 32 H       -4.1560    -1.2770    -1.1220 H     1 <1>   0.0800 
 33 H       -1.6720    -4.6480    -0.3540 H     1 <1>   0.0800 
 34 H       -1.1640    -3.5570    -1.6100 H     1 <1>   0.0800 
 35 H        3.5630    -1.3800    -2.3240 H     1 <1>   0.1500 
 36 H        4.7530    -1.5250     1.7640 H     1 <1>   0.1500 
 37 H       -3.6040    -3.6770    -1.6340 H     1 <1>   0.0800 
 38 H       -3.6730    -3.3350     0.0750 H     1 <1>   0.0800 
 39 H        5.9850    -3.1130     0.8050 H     1 <1>   0.3700 
 40 H        7.6110    -4.8310     1.0070 H     1 <1>   0.1500 
 41 H        8.4690    -1.3100    -1.2250 H     1 <1>   0.1500 
 42 H       10.8130    -2.0830    -1.3140 H     1 <1>   0.1500 
 43 H       11.4400    -4.1790    -0.2300 H     1 <1>   0.1500 
@<TRIPOS>BOND
  1   1   2  2   
  2   1   3  2   
  3   1   4  am  
  4   1   5  1   
  5   4   6  1   
  6   4   7  1   
  7   5   8  ar  
  8   5   9  ar  
  9   6  10  1   
 10   6  25  1   
 11   6  26  1   
 12   7  11  1   
 13   7  27  1   
 14   7  28  1   
 15   8  12  ar  
 16   8  29  1   
 17   9  13  ar  
 18   9  30  1   
 19  10  14  1   
 20  10  31  1   
 21  10  32  1   
 22  11  14  1   
 23  11  33  1   
 24  11  34  1   
 25  12  15  ar  
 26  12  35  1   
 27  13  15  ar  
 28  13  36  1   
 29  14  37  1   
 30  14  38  1   
 31  15  16  1   
 32  16  17  2   
 33  16  18  am  
 34  18  19  1   
 35  18  39  1   
 36  19  20  ar  
 37  19  21  ar  
 38  20  22  ar  
 39  20  40  1   
 40  21  23  ar  
 41  21  41  1   
 42  22  24  ar  
 43  23  24  ar  
 44  23  42  1   
 45  24  43  1   
@<TRIPOS>SUBSTRUCTURE
  1 ****  15 GROUP 4 **** **** 0

# MOE 2024.06 (io_trps.svl 2023.06)
