@<TRIPOS>MOLECULE
NONAME
30 30 1 0 0 
SMALL
USER_CHARGES


@<TRIPOS>ATOM
  1 S        0.0950     0.0890     0.1490 S.o2  1 <1>   1.3330 
  2 O        0.4220    -1.3090     0.2920 O.2   1 <1>  -0.6500 
  3 O        1.0280     1.1100     0.5620 O.2   1 <1>  -0.6500 
  4 N       -1.3790     0.3930     1.0080 N.am  1 <1>  -0.6930 
  5 C       -0.3800     0.4260    -1.5320 C.3   1 <1>  -0.1350 
  6 C       -2.5660    -0.2790     0.7290 C.ar  1 <1>   0.1990 
  7 C       -1.2510     1.0830     2.3130 C.3   1 <1>   0.1160 
  8 C       -3.7070     0.4490     0.4240 C.ar  1 <1>  -0.1500 
  9 C       -2.6440    -1.6660     0.7500 C.ar  1 <1>  -0.1500 
 10 C       -4.9140    -0.1720     0.1330 C.ar  1 <1>   0.1170 
 11 C       -3.8350    -2.3050     0.4590 C.ar  1 <1>  -0.1500 
 12 N       -6.0260     0.6280    -0.1780 N.am  1 <1>  -0.5470 
 13 C       -4.9600    -1.5630     0.1500 C.ar  1 <1>  -0.1500 
 14 C       -7.3640     0.3560    -0.1310 C.2   1 <1>   0.5690 
 15 O       -7.8330    -0.6900     0.2350 O.2   1 <1>  -0.5700 
 16 C       -8.3050     1.4540    -0.5580 C.3   1 <1>  -0.1790 
 17 H        0.4630     0.3020    -2.1820 H     1 <1>   0.0800 
 18 H       -0.7390     1.4320    -1.6190 H     1 <1>   0.0800 
 19 H       -1.1540    -0.2490    -1.8400 H     1 <1>   0.0800 
 20 H       -0.5520     0.5500     2.9350 H     1 <1>   0.0800 
 21 H       -2.2030     1.1260     2.8140 H     1 <1>   0.0800 
 22 H       -0.8860     2.0850     2.1610 H     1 <1>   0.0800 
 23 H       -3.6430     1.5200     0.4170 H     1 <1>   0.1500 
 24 H       -1.7750    -2.2480     1.0010 H     1 <1>   0.1500 
 25 H       -3.8880    -3.3800     0.4740 H     1 <1>   0.1500 
 26 H       -5.8000     1.5830    -0.4460 H     1 <1>   0.3700 
 27 H       -5.8760    -2.0760    -0.0790 H     1 <1>   0.1500 
 28 H       -8.2060     2.2970     0.0990 H     1 <1>   0.0800 
 29 H       -9.3190     1.0980    -0.5110 H     1 <1>   0.0800 
 30 H       -8.0900     1.7510    -1.5670 H     1 <1>   0.0800 
@<TRIPOS>BOND
  1   1   2  2   
  2   1   3  2   
  3   1   4  am  
  4   1   5  1   
  5   4   6  1   
  6   4   7  1   
  7   5  17  1   
  8   5  18  1   
  9   5  19  1   
 10   6   8  ar  
 11   6   9  ar  
 12   7  20  1   
 13   7  21  1   
 14   7  22  1   
 15   8  10  ar  
 16   8  23  1   
 17   9  11  ar  
 18   9  24  1   
 19  10  12  1   
 20  10  13  ar  
 21  11  13  ar  
 22  11  25  1   
 23  12  14  am  
 24  12  26  1   
 25  13  27  1   
 26  14  15  2   
 27  14  16  1   
 28  16  28  1   
 29  16  29  1   
 30  16  30  1   
@<TRIPOS>SUBSTRUCTURE
  1 ****   8 GROUP 4 **** **** 0

# MOE 2024.06 (io_trps.svl 2023.06)
