@<TRIPOS>MOLECULE
NONAME
47 49 1 0 0 
SMALL
USER_CHARGES


@<TRIPOS>ATOM
  1 S        0.1010    -0.4500     1.0100 S.3   1 <1>  -0.3320 
  2 C       -1.5170    -1.0650     0.5170 C.ar  1 <1>   0.4120 
  3 C        1.1430    -1.9580     1.3110 C.3   1 <1>   0.0700 
  4 N       -1.6180    -2.3790     0.4950 N.ar  1 <1>  -0.6200 
  5 C       -2.5190    -0.1510     0.2020 C.ar  1 <1>   0.0730 
  6 C        1.5890    -2.5520    -0.0280 C.3   1 <1>   0.1200 
  7 C       -2.7960    -2.8530     0.1250 C.ar  1 <1>   0.4100 
  8 C       -2.2790     1.2580     0.2600 C.1   1 <1>   0.4840 
  9 C       -3.7540    -0.6710    -0.1740 C.ar  1 <1>  -0.1440 
 10 O        2.2980    -1.5970    -0.7380 O.3   1 <1>  -0.6800 
 11 N       -2.9060    -4.2230     0.0840 N.pl3 1 <1>  -0.8380 
 12 C       -3.8800    -2.0430    -0.2160 C.ar  1 <1>  -0.1430 
 13 N       -2.1410     2.3900     0.2910 N.1   1 <1>  -0.5570 
 14 C       -4.9460     0.2040    -0.5520 C.3   1 <1>  -0.0170 
 15 C       -2.6400    -4.9590     1.3570 C.3   1 <1>   0.2090 
 16 C       -2.2510    -4.8950    -1.0760 C.3   1 <1>   0.2090 
 17 C       -5.1980    -2.7030    -0.6130 C.3   1 <1>   0.2630 
 18 C       -6.2780    -0.5670    -0.4870 C.3   1 <1>   0.2800 
 19 C       -2.9650    -6.4560     1.2050 C.3   1 <1>   0.1200 
 20 C       -2.5910    -6.3960    -1.1100 C.3   1 <1>   0.1200 
 21 O       -6.1190    -1.7860    -1.1430 O.3   1 <1>  -0.5600 
 22 C       -7.3660     0.1780    -1.2610 C.3   1 <1>  -0.2400 
 23 C       -6.7560    -0.8050     0.9540 C.3   1 <1>  -0.2400 
 24 O       -2.2820    -7.0080     0.1130 O.3   1 <1>  -0.5600 
 25 H        0.5530    -2.6580     1.8750 H     1 <1>   0.0800 
 26 H        1.9920    -1.6530     1.8960 H     1 <1>   0.0800 
 27 H        0.7400    -2.8520    -0.6170 H     1 <1>   0.0800 
 28 H        2.2320    -3.4010     0.1250 H     1 <1>   0.0800 
 29 H        1.7910    -0.7590    -0.7470 H     1 <1>   0.4000 
 30 H       -4.7970     0.5670    -1.5530 H     1 <1>   0.0800 
 31 H       -5.0130     1.0600     0.0960 H     1 <1>   0.0800 
 32 H       -3.2390    -4.5370     2.1450 H     1 <1>   0.0800 
 33 H       -1.6040    -4.8490     1.6280 H     1 <1>   0.0800 
 34 H       -1.1830    -4.7750    -1.0030 H     1 <1>   0.0800 
 35 H       -2.5770    -4.4310    -1.9900 H     1 <1>   0.0800 
 36 H       -5.6460    -3.1840     0.2380 H     1 <1>   0.0800 
 37 H       -5.0250    -3.4490    -1.3690 H     1 <1>   0.0800 
 38 H       -4.0210    -6.5980     1.0590 H     1 <1>   0.0800 
 39 H       -2.6610    -6.9920     2.0860 H     1 <1>   0.0800 
 40 H       -2.0210    -6.8880    -1.8760 H     1 <1>   0.0800 
 41 H       -3.6390    -6.5380    -1.3110 H     1 <1>   0.0800 
 42 H       -7.0760     0.3020    -2.2890 H     1 <1>   0.0800 
 43 H       -7.5330     1.1500    -0.8330 H     1 <1>   0.0800 
 44 H       -8.2890    -0.3730    -1.2260 H     1 <1>   0.0800 
 45 H       -5.9880    -1.2510     1.5580 H     1 <1>   0.0800 
 46 H       -7.6250    -1.4370     0.9570 H     1 <1>   0.0800 
 47 H       -7.0210     0.1320     1.4100 H     1 <1>   0.0800 
@<TRIPOS>BOND
  1   1   2  1   
  2   1   3  1   
  3   2   4  ar  
  4   2   5  ar  
  5   3   6  1   
  6   3  25  1   
  7   3  26  1   
  8   4   7  ar  
  9   5   8  1   
 10   5   9  ar  
 11   6  10  1   
 12   6  27  1   
 13   6  28  1   
 14   7  11  1   
 15   7  12  ar  
 16   8  13  3   
 17   9  12  ar  
 18   9  14  1   
 19  10  29  1   
 20  11  15  1   
 21  11  16  1   
 22  12  17  1   
 23  14  18  1   
 24  14  30  1   
 25  14  31  1   
 26  15  19  1   
 27  15  32  1   
 28  15  33  1   
 29  16  20  1   
 30  16  34  1   
 31  16  35  1   
 32  17  21  1   
 33  17  36  1   
 34  17  37  1   
 35  18  21  1   
 36  18  22  1   
 37  18  23  1   
 38  19  24  1   
 39  19  38  1   
 40  19  39  1   
 41  20  24  1   
 42  20  40  1   
 43  20  41  1   
 44  22  42  1   
 45  22  43  1   
 46  22  44  1   
 47  23  45  1   
 48  23  46  1   
 49  23  47  1   
@<TRIPOS>SUBSTRUCTURE
  1 ****   7 GROUP 4 **** **** 0

# MOE 2024.06 (io_trps.svl 2023.06)
