@<TRIPOS>MOLECULE
NONAME
42 42 1 0 0 
SMALL
USER_CHARGES


@<TRIPOS>ATOM
  1 O       -3.0610     2.2730    -2.4410 O.2   1 <1>  -0.5700 
  2 C       -2.9740     2.0020    -1.2670 C.2   1 <1>   0.5690 
  3 N       -4.1450     1.8670    -0.5970 N.am  1 <1>  -0.7300 
  4 C       -1.5600     1.8280    -0.6310 C.3   1 <1>   0.0610 
  5 C       -4.4870     1.4990     0.7810 C.3   1 <1>   0.3640 
  6 C       -0.4530     2.1660    -1.6570 C.3   1 <1>  -0.2400 
  7 C       -1.3420     2.7770     0.5660 C.3   1 <1>  -0.2400 
  8 C       -1.3200     0.3680    -0.1950 C.3   1 <1>  -0.2400 
  9 C       -5.4760     0.3390     0.7560 C.ar  1 <1>  -0.1430 
 10 C       -5.0800     2.7230     1.4730 C.3   1 <1>  -0.2400 
 11 C       -6.6910     0.4330     0.0870 C.ar  1 <1>  -0.1500 
 12 C       -5.1640    -0.8390     1.4160 C.ar  1 <1>  -0.1500 
 13 C       -7.5950    -0.6290     0.0680 C.ar  1 <1>   0.0820 
 14 C       -6.0480    -1.9020     1.4030 C.ar  1 <1>  -0.1500 
 15 O       -8.8010    -0.5230    -0.5650 O.3   1 <1>  -0.3630 
 16 C       -7.2550    -1.8190     0.7320 C.ar  1 <1>   0.0820 
 17 C       -9.2280     0.6690    -1.1870 C.3   1 <1>   0.0400 
 18 O       -8.0210    -2.9460     0.7930 O.3   1 <1>  -0.3630 
 19 C       -8.8680    -3.3140    -0.2730 C.3   1 <1>   0.0400 
 20 H       -4.9610     1.9550    -1.1990 H     1 <1>   0.3700 
 21 H       -3.6100     1.1950     1.3170 H     1 <1>   0.0800 
 22 H        0.5270     2.0480    -1.2290 H     1 <1>   0.0800 
 23 H       -0.5570     3.1820    -1.9960 H     1 <1>   0.0800 
 24 H       -0.5280     1.5210    -2.5150 H     1 <1>   0.0800 
 25 H       -1.5440     3.7910     0.2700 H     1 <1>   0.0800 
 26 H       -0.3240     2.7230     0.9110 H     1 <1>   0.0800 
 27 H       -1.9770     2.5370     1.3950 H     1 <1>   0.0800 
 28 H       -2.0060     0.0570     0.5670 H     1 <1>   0.0800 
 29 H       -0.3220     0.2450     0.1860 H     1 <1>   0.0800 
 30 H       -1.4440    -0.2890    -1.0390 H     1 <1>   0.0800 
 31 H       -5.9540     3.0730     0.9550 H     1 <1>   0.0800 
 32 H       -4.3530     3.5130     1.5120 H     1 <1>   0.0800 
 33 H       -5.3600     2.4660     2.4790 H     1 <1>   0.0800 
 34 H       -6.9210     1.3500    -0.4170 H     1 <1>   0.1500 
 35 H       -4.2330    -0.9410     1.9450 H     1 <1>   0.1500 
 36 H       -5.8020    -2.8140     1.9170 H     1 <1>   0.1500 
 37 H       -8.5500     0.9070    -1.9880 H     1 <1>   0.0800 
 38 H       -9.2560     1.4560    -0.4540 H     1 <1>   0.0800 
 39 H      -10.2140     0.5040    -1.5820 H     1 <1>   0.0800 
 40 H       -9.0810    -4.3640    -0.1840 H     1 <1>   0.0800 
 41 H       -8.3680    -3.1160    -1.2040 H     1 <1>   0.0800 
 42 H       -9.7810    -2.7520    -0.2000 H     1 <1>   0.0800 
@<TRIPOS>BOND
  1   1   2  2   
  2   2   3  am  
  3   2   4  1   
  4   3   5  1   
  5   3  20  1   
  6   4   6  1   
  7   4   7  1   
  8   4   8  1   
  9   5   9  1   
 10   5  10  1   
 11   5  21  1   
 12   6  22  1   
 13   6  23  1   
 14   6  24  1   
 15   7  25  1   
 16   7  26  1   
 17   7  27  1   
 18   8  28  1   
 19   8  29  1   
 20   8  30  1   
 21   9  11  ar  
 22   9  12  ar  
 23  10  31  1   
 24  10  32  1   
 25  10  33  1   
 26  11  13  ar  
 27  11  34  1   
 28  12  14  ar  
 29  12  35  1   
 30  13  15  1   
 31  13  16  ar  
 32  14  16  ar  
 33  14  36  1   
 34  15  17  1   
 35  16  18  1   
 36  17  37  1   
 37  17  38  1   
 38  17  39  1   
 39  18  19  1   
 40  19  40  1   
 41  19  41  1   
 42  19  42  1   
@<TRIPOS>SUBSTRUCTURE
  1 ****   9 GROUP 4 **** **** 0

# MOE 2024.06 (io_trps.svl 2023.06)
