@<TRIPOS>MOLECULE
NONAME
33 33 1 0 0 
SMALL
USER_CHARGES


@<TRIPOS>ATOM
  1 O       -0.2160    -0.6780     2.2280 O.2   1 <1>  -0.5700 
  2 C       -0.6690    -1.4370     1.3960 C.2   1 <1>   0.6160 
  3 N       -1.7370    -1.0440     0.6440 N.am  1 <1>  -0.7300 
  4 C       -0.0790    -2.7320     1.2170 C.2   1 <1>  -0.1360 
  5 C       -2.4140     0.2670     0.7310 C.3   1 <1>   0.1400 
  6 C       -0.4220    -3.7170     0.3510 C.2   1 <1>  -0.1780 
  7 C       -2.5710     0.8410    -0.6770 C.3   1 <1>  -0.1600 
  8 C        0.1820    -5.0150     0.1800 C.ar  1 <1>   0.0280 
  9 C       -3.2710     2.2040    -0.6480 C.3   1 <1>  -0.2400 
 10 C       -0.3750    -5.9300    -0.7140 C.ar  1 <1>  -0.1500 
 11 C        1.3230    -5.4190     0.8760 C.ar  1 <1>  -0.1500 
 12 C        0.1710    -7.1850    -0.9090 C.ar  1 <1>  -0.1500 
 13 C        1.8750    -6.6720     0.6880 C.ar  1 <1>  -0.1500 
 14 C        1.3080    -7.5670    -0.2030 C.ar  1 <1>   0.0830 
 15 O        1.9080    -8.7740    -0.3300 O.3   1 <1>  -0.3620 
 16 C        1.4130    -9.7590    -1.2100 C.3   1 <1>   0.0400 
 17 H       -2.1250    -1.6970    -0.0330 H     1 <1>   0.3700 
 18 H        0.7410    -2.8770     1.8940 H     1 <1>   0.1500 
 19 H       -3.3790     0.1370     1.1910 H     1 <1>   0.0800 
 20 H       -1.8360     0.9420     1.3400 H     1 <1>   0.0800 
 21 H       -1.2490    -3.5470    -0.3140 H     1 <1>   0.1500 
 22 H       -1.5970     0.9560    -1.1210 H     1 <1>   0.0800 
 23 H       -3.1480     0.1630    -1.2820 H     1 <1>   0.0800 
 24 H       -2.7010     2.9060    -0.0640 H     1 <1>   0.0800 
 25 H       -4.2550     2.1150    -0.2210 H     1 <1>   0.0800 
 26 H       -3.3660     2.5910    -1.6470 H     1 <1>   0.0800 
 27 H       -1.2540    -5.6550    -1.2690 H     1 <1>   0.1500 
 28 H        1.7940    -4.7540     1.5740 H     1 <1>   0.1500 
 29 H       -0.2960    -7.8510    -1.6080 H     1 <1>   0.1500 
 30 H        2.7530    -6.9680     1.2320 H     1 <1>   0.1500 
 31 H        2.0500   -10.6210    -1.1370 H     1 <1>   0.0800 
 32 H        1.4340    -9.3730    -2.2140 H     1 <1>   0.0800 
 33 H        0.4120   -10.0180    -0.9160 H     1 <1>   0.0800 
@<TRIPOS>BOND
  1   1   2  2   
  2   2   3  am  
  3   2   4  1   
  4   3   5  1   
  5   3  17  1   
  6   4   6  2   
  7   4  18  1   
  8   5   7  1   
  9   5  19  1   
 10   5  20  1   
 11   6   8  1   
 12   6  21  1   
 13   7   9  1   
 14   7  22  1   
 15   7  23  1   
 16   8  10  ar  
 17   8  11  ar  
 18   9  24  1   
 19   9  25  1   
 20   9  26  1   
 21  10  12  ar  
 22  10  27  1   
 23  11  13  ar  
 24  11  28  1   
 25  12  14  ar  
 26  12  29  1   
 27  13  14  ar  
 28  13  30  1   
 29  14  15  1   
 30  15  16  1   
 31  16  31  1   
 32  16  32  1   
 33  16  33  1   
@<TRIPOS>SUBSTRUCTURE
  1 ****   6 GROUP 4 **** **** 0

# MOE 2024.06 (io_trps.svl 2023.06)
