@<TRIPOS>MOLECULE
NONAME
33 34 1 0 0 
SMALL
USER_CHARGES


@<TRIPOS>ATOM
  1 CL       0.0250    -1.2070    -2.1830 Cl    1 <1>  -0.1400 
  2 C        0.0170    -1.9480    -0.6020 C.2   1 <1>   0.0020 
  3 C        1.0670    -1.9070     0.2400 C.2   1 <1>  -0.1780 
  4 C       -1.3100    -2.6320    -0.3300 C.3   1 <1>   0.4810 
  5 C        2.3510    -1.2680     0.0740 C.ar  1 <1>   0.0280 
  6 N       -2.4120    -1.6300    -0.3860 N.4   1 <1>  -0.9590 
  7 C        3.4980    -1.8970     0.5530 C.ar  1 <1>  -0.1500 
  8 C        2.5020    -0.0220    -0.5320 C.ar  1 <1>  -0.1500 
  9 C       -2.2730    -0.5130     0.6100 C.3   1 <1>   0.3430 
 10 C       -3.7860    -2.2330    -0.3360 C.3   1 <1>   0.3430 
 11 C        4.7450    -1.3130     0.4250 C.ar  1 <1>  -0.1500 
 12 C        3.7470     0.5660    -0.6640 C.ar  1 <1>  -0.1500 
 13 C       -3.4140     0.5200     0.4570 C.3   1 <1>   0.1200 
 14 C       -4.8850    -1.1450    -0.3310 C.3   1 <1>   0.1200 
 15 C        4.8720    -0.0790    -0.1860 C.ar  1 <1>  -0.1500 
 16 O       -4.3330     0.1290    -0.5290 O.3   1 <1>  -0.5600 
 17 H        0.9960    -2.4160     1.1860 H     1 <1>   0.1500 
 18 H       -1.2850    -3.1030     0.6390 H     1 <1>   0.0800 
 19 H       -1.4670    -3.3940    -1.0760 H     1 <1>   0.0800 
 20 H       -2.3530    -1.1600    -1.3050 H     1 <1>   0.4500 
 21 H        3.4200    -2.8580     1.0280 H     1 <1>   0.1500 
 22 H        1.6430     0.5050    -0.9020 H     1 <1>   0.1500 
 23 H       -2.2910    -0.9070     1.6120 H     1 <1>   0.0800 
 24 H       -1.3290    -0.0100     0.4760 H     1 <1>   0.0800 
 25 H       -3.9360    -2.8740    -1.1900 H     1 <1>   0.0800 
 26 H       -3.8950    -2.8390     0.5480 H     1 <1>   0.0800 
 27 H        5.6190    -1.8180     0.7990 H     1 <1>   0.1500 
 28 H        3.8420     1.5280    -1.1390 H     1 <1>   0.1500 
 29 H       -3.0120     1.4750     0.1650 H     1 <1>   0.0800 
 30 H       -3.9400     0.6480     1.3880 H     1 <1>   0.0800 
 31 H       -5.4220    -1.1460     0.6020 H     1 <1>   0.0800 
 32 H       -5.5900    -1.3250    -1.1240 H     1 <1>   0.0800 
 33 H        5.8420     0.3770    -0.2880 H     1 <1>   0.1500 
@<TRIPOS>BOND
  1   1   2  1   
  2   2   3  2   
  3   2   4  1   
  4   3   5  1   
  5   3  17  1   
  6   4   6  1   
  7   4  18  1   
  8   4  19  1   
  9   5   7  ar  
 10   5   8  ar  
 11   6   9  1   
 12   6  10  1   
 13   6  20  1   
 14   7  11  ar  
 15   7  21  1   
 16   8  12  ar  
 17   8  22  1   
 18   9  13  1   
 19   9  23  1   
 20   9  24  1   
 21  10  14  1   
 22  10  25  1   
 23  10  26  1   
 24  11  15  ar  
 25  11  27  1   
 26  12  15  ar  
 27  12  28  1   
 28  13  16  1   
 29  13  29  1   
 30  13  30  1   
 31  14  16  1   
 32  14  31  1   
 33  14  32  1   
 34  15  33  1   
@<TRIPOS>SUBSTRUCTURE
  1 ****   2 GROUP 4 **** **** 0

# MOE 2024.06 (io_trps.svl 2023.06)
