@<TRIPOS>MOLECULE
NONAME
45 48 1 0 0 
SMALL
USER_CHARGES


@<TRIPOS>ATOM
  1 N       -0.2880     0.0790     0.0210 N.ar  1 <1>  -0.6200 
  2 C        0.9690    -0.3070     0.2410 C.ar  1 <1>   0.6200 
  3 C       -0.5480     1.3830     0.0750 C.ar  1 <1>   0.2870 
  4 N        1.9890     0.5030     0.5050 N.ar  1 <1>  -0.6200 
  5 C        1.2490    -1.7360     0.1840 C.ar  1 <1>   0.0000 
  6 N       -1.8860     1.8470    -0.1560 N.pl3 1 <1>   0.5930 
  7 C        0.4610     2.2720     0.3500 C.ar  1 <1>  -0.1500 
  8 C        1.7280     1.7820     0.5540 C.ar  1 <1>   0.4100 
  9 C        0.2920    -2.6860     0.5540 C.ar  1 <1>  -0.1500 
 10 C        2.4870    -2.2230    -0.2440 C.ar  1 <1>  -0.1500 
 11 N       -2.2480     3.1670    -0.1680 N.2   1 <1>  -0.7070 
 12 C       -2.9880     1.0870    -0.3990 C.2   1 <1>  -0.3020 
 13 N        2.8000     2.5720     0.8270 N.pl3 1 <1>  -0.8690 
 14 C        0.5550    -4.0430     0.5000 C.ar  1 <1>  -0.1500 
 15 C        2.7580    -3.5780    -0.3000 C.ar  1 <1>  -0.1500 
 16 C       -3.5200     3.1850    -0.4080 C.2   1 <1>   0.1390 
 17 C       -4.0440     1.9080    -0.5640 C.2   1 <1>  -0.1500 
 18 C        3.0460     3.8630     0.1690 C.3   1 <1>   0.2890 
 19 C        1.7900    -4.4930     0.0730 C.ar  1 <1>  -0.1500 
 20 C        4.4090     3.8090    -0.5270 C.3   1 <1>  -0.1600 
 21 C        3.0060     4.9700     1.2250 C.3   1 <1>  -0.1600 
 22 C        4.7710     5.1680    -1.1440 C.3   1 <1>  -0.1600 
 23 C        3.3650     6.3340     0.6170 C.3   1 <1>  -0.1600 
 24 C        4.7270     6.2840    -0.0910 C.3   1 <1>  -0.1600 
 25 H        0.2750     3.3260     0.4140 H     1 <1>   0.1500 
 26 H       -0.6740    -2.3550     0.8920 H     1 <1>   0.1500 
 27 H        3.2530    -1.5260    -0.5380 H     1 <1>   0.1500 
 28 H       -2.9380     0.0140    -0.4380 H     1 <1>   0.1500 
 29 H        3.6510     2.0290     0.9870 H     1 <1>   0.4000 
 30 H       -0.2020    -4.7500     0.7920 H     1 <1>   0.1500 
 31 H        3.7220    -3.9220    -0.6330 H     1 <1>   0.1500 
 32 H       -4.1000     4.0910    -0.4790 H     1 <1>   0.1500 
 33 H       -5.0710     1.6640    -0.7700 H     1 <1>   0.1500 
 34 H        2.2860     4.0500    -0.5720 H     1 <1>   0.0800 
 35 H        1.9980    -5.5480     0.0300 H     1 <1>   0.1500 
 36 H        4.3840     3.0610    -1.2990 H     1 <1>   0.0800 
 37 H        5.1650     3.5380     0.1890 H     1 <1>   0.0800 
 38 H        3.7050     4.7370     2.0090 H     1 <1>   0.0800 
 39 H        2.0200     5.0170     1.6530 H     1 <1>   0.0800 
 40 H        4.0770     5.3970    -1.9360 H     1 <1>   0.0800 
 41 H        5.7560     5.1180    -1.5750 H     1 <1>   0.0800 
 42 H        3.3900     7.0790     1.3940 H     1 <1>   0.0800 
 43 H        2.6060     6.6210    -0.0910 H     1 <1>   0.0800 
 44 H        4.9230     7.2320    -0.5610 H     1 <1>   0.0800 
 45 H        5.5000     6.1140     0.6390 H     1 <1>   0.0800 
@<TRIPOS>BOND
  1   1   2  ar  
  2   1   3  ar  
  3   2   4  ar  
  4   2   5  1   
  5   3   6  1   
  6   3   7  ar  
  7   4   8  ar  
  8   5   9  ar  
  9   5  10  ar  
 10   6  11  1   
 11   6  12  1   
 12   7   8  ar  
 13   7  25  1   
 14   8  13  1   
 15   9  14  ar  
 16   9  26  1   
 17  10  15  ar  
 18  10  27  1   
 19  11  16  2   
 20  12  17  2   
 21  12  28  1   
 22  13  18  1   
 23  13  29  1   
 24  14  19  ar  
 25  14  30  1   
 26  15  19  ar  
 27  15  31  1   
 28  16  17  1   
 29  16  32  1   
 30  17  33  1   
 31  18  20  1   
 32  18  21  1   
 33  18  34  1   
 34  19  35  1   
 35  20  22  1   
 36  20  36  1   
 37  20  37  1   
 38  21  23  1   
 39  21  38  1   
 40  21  39  1   
 41  22  24  1   
 42  22  40  1   
 43  22  41  1   
 44  23  24  1   
 45  23  42  1   
 46  23  43  1   
 47  24  44  1   
 48  24  45  1   
@<TRIPOS>SUBSTRUCTURE
  1 ****   8 GROUP 4 **** **** 0

# MOE 2024.06 (io_trps.svl 2023.06)
