@<TRIPOS>MOLECULE
NONAME
50 50 1 0 0 
SMALL
USER_CHARGES


@<TRIPOS>ATOM
  1 O       -1.6420    -4.1550    -0.9760 O.3   1 <1>  -0.3630 
  2 C       -0.9480    -4.6530     0.0870 C.ar  1 <1>   0.0830 
  3 C       -2.9910    -4.4780    -1.2340 C.3   1 <1>   0.0400 
  4 C       -1.2960    -5.7600     0.8810 C.ar  1 <1>   0.0830 
  5 C        0.2150    -3.9560     0.3640 C.ar  1 <1>  -0.1500 
  6 O       -2.4260    -6.4740     0.6100 O.3   1 <1>  -0.3630 
  7 C       -0.4580    -6.1160     1.9370 C.ar  1 <1>  -0.1500 
  8 C        1.0500    -4.3260     1.4060 C.ar  1 <1>  -0.1430 
  9 C       -2.8400    -7.5770     1.3880 C.3   1 <1>   0.0400 
 10 C        0.7030    -5.4090     2.1970 C.ar  1 <1>  -0.1500 
 11 C        2.3260    -3.5590     1.6530 C.3   1 <1>   0.4860 
 12 N        3.3030    -4.0700     0.6650 N.4   1 <1>  -0.9060 
 13 C        4.6490    -3.4790     0.6100 C.3   1 <1>   0.5030 
 14 C        5.3550    -4.2220    -0.5580 C.3   1 <1>  -0.1600 
 15 C        5.3090    -3.6920     1.9730 C.3   1 <1>  -0.2400 
 16 C        4.4830    -1.9810     0.3240 C.3   1 <1>  -0.2400 
 17 C        6.8950    -4.2060    -0.7980 C.3   1 <1>   0.0000 
 18 C        7.5190    -2.8040    -0.7610 C.3   1 <1>  -0.2400 
 19 C        7.1380    -4.7750    -2.2070 C.3   1 <1>  -0.2400 
 20 C        7.6510    -5.1220     0.1820 C.3   1 <1>  -0.2400 
 21 H       -3.3550    -3.8160    -1.9980 H     1 <1>   0.0800 
 22 H       -3.5620    -4.3490    -0.3320 H     1 <1>   0.0800 
 23 H       -3.0450    -5.4950    -1.5800 H     1 <1>   0.0800 
 24 H        0.4460    -3.1100    -0.2600 H     1 <1>   0.1500 
 25 H       -0.6900    -6.9490     2.5730 H     1 <1>   0.1500 
 26 H       -3.7590    -7.9500     0.9750 H     1 <1>   0.0800 
 27 H       -3.0030    -7.2500     2.4000 H     1 <1>   0.0800 
 28 H       -2.0850    -8.3420     1.3430 H     1 <1>   0.0800 
 29 H        1.3230    -5.7170     3.0220 H     1 <1>   0.1500 
 30 H        2.6720    -3.7280     2.6590 H     1 <1>   0.0800 
 31 H        2.1500    -2.5050     1.5100 H     1 <1>   0.0800 
 32 H        2.8710    -3.9790    -0.2590 H     1 <1>   0.4500 
 33 H        3.3960    -5.0770     0.8220 H     1 <1>   0.4500 
 34 H        4.9000    -3.8570    -1.4630 H     1 <1>   0.0800 
 35 H        5.0910    -5.2630    -0.4940 H     1 <1>   0.0800 
 36 H        5.4370    -4.7390     2.1800 H     1 <1>   0.0800 
 37 H        4.7480    -3.2390     2.7690 H     1 <1>   0.0800 
 38 H        6.2750    -3.2250     1.9890 H     1 <1>   0.0800 
 39 H        3.9660    -1.8180    -0.6050 H     1 <1>   0.0800 
 40 H        5.4370    -1.4990     0.2520 H     1 <1>   0.0800 
 41 H        3.9560    -1.4790     1.1140 H     1 <1>   0.0800 
 42 H        7.0060    -2.1390    -1.4330 H     1 <1>   0.0800 
 43 H        8.5500    -2.8490    -1.0690 H     1 <1>   0.0800 
 44 H        7.5050    -2.3900     0.2290 H     1 <1>   0.0800 
 45 H        6.6770    -4.1590    -2.9580 H     1 <1>   0.0800 
 46 H        6.7410    -5.7710    -2.2940 H     1 <1>   0.0800 
 47 H        8.1920    -4.8210    -2.4250 H     1 <1>   0.0800 
 48 H        7.6660    -4.7340     1.1800 H     1 <1>   0.0800 
 49 H        8.6780    -5.2240    -0.1250 H     1 <1>   0.0800 
 50 H        7.2180    -6.1070     0.2010 H     1 <1>   0.0800 
@<TRIPOS>BOND
  1   1   2  1   
  2   1   3  1   
  3   2   4  ar  
  4   2   5  ar  
  5   3  21  1   
  6   3  22  1   
  7   3  23  1   
  8   4   6  1   
  9   4   7  ar  
 10   5   8  ar  
 11   5  24  1   
 12   6   9  1   
 13   7  10  ar  
 14   7  25  1   
 15   8  10  ar  
 16   8  11  1   
 17   9  26  1   
 18   9  27  1   
 19   9  28  1   
 20  10  29  1   
 21  11  12  1   
 22  11  30  1   
 23  11  31  1   
 24  12  13  1   
 25  12  32  1   
 26  12  33  1   
 27  13  14  1   
 28  13  15  1   
 29  13  16  1   
 30  14  17  1   
 31  14  34  1   
 32  14  35  1   
 33  15  36  1   
 34  15  37  1   
 35  15  38  1   
 36  16  39  1   
 37  16  40  1   
 38  16  41  1   
 39  17  18  1   
 40  17  19  1   
 41  17  20  1   
 42  18  42  1   
 43  18  43  1   
 44  18  44  1   
 45  19  45  1   
 46  19  46  1   
 47  19  47  1   
 48  20  48  1   
 49  20  49  1   
 50  20  50  1   
@<TRIPOS>SUBSTRUCTURE
  1 ****  12 GROUP 4 **** **** 0

# MOE 2024.06 (io_trps.svl 2023.06)
