@<TRIPOS>MOLECULE
NONAME
38 39 1 0 0 
SMALL
USER_CHARGES


@<TRIPOS>ATOM
  1 O       -1.2350     0.6780     1.1360 O.2   1 <1>  -0.5700 
  2 C       -1.9380    -0.2190     0.7190 C.2   1 <1>   0.7060 
  3 O       -3.2440    -0.0020     0.5960 O.3   1 <1>  -0.2330 
  4 C       -1.4420    -1.5000     0.3530 C.2   1 <1>  -0.1360 
  5 C       -4.1070    -0.9430     0.1470 C.ar  1 <1>   0.0820 
  6 C       -2.2470    -2.4860    -0.1060 C.2   1 <1>  -0.1670 
  7 C       -3.6680    -2.2300    -0.2270 C.ar  1 <1>   0.0280 
  8 C       -5.4370    -0.5720     0.0810 C.ar  1 <1>  -0.1500 
  9 C       -1.6110    -3.8210    -0.4750 C.3   1 <1>  -0.1020 
 10 C       -4.6640    -3.1290    -0.6780 C.ar  1 <1>   0.0830 
 11 C       -6.3910    -1.4620    -0.3600 C.ar  1 <1>   0.0830 
 12 O       -4.2950    -4.3880    -1.0340 O.3   1 <1>  -0.3630 
 13 C       -5.9960    -2.7350    -0.7520 C.ar  1 <1>  -0.1500 
 14 O       -7.6730    -1.0350    -0.3790 O.3   1 <1>  -0.3630 
 15 C       -5.2010    -5.4280    -1.3770 C.3   1 <1>   0.1810 
 16 C       -8.7600    -1.9400    -0.4950 C.3   1 <1>   0.1810 
 17 C       -6.0670    -5.8330    -0.1910 C.2   1 <1>   0.4480 
 18 C      -10.0820    -1.2060    -0.3280 C.2   1 <1>   0.4480 
 19 O       -7.2590    -5.7870    -0.2530 O.2   1 <1>  -0.5700 
 20 C       -5.3630    -6.2910     1.0680 C.3   1 <1>  -0.1790 
 21 O      -10.9360    -1.6100     0.4030 O.2   1 <1>  -0.5700 
 22 C      -10.2930     0.0520    -1.1440 C.3   1 <1>  -0.1790 
 23 H       -0.3820    -1.6200     0.4670 H     1 <1>   0.1500 
 24 H       -5.7330     0.4170     0.3800 H     1 <1>   0.1500 
 25 H       -2.0180    -4.6080     0.1340 H     1 <1>   0.0800 
 26 H       -0.5470    -3.8020    -0.3230 H     1 <1>   0.0800 
 27 H       -1.7930    -4.0440    -1.5120 H     1 <1>   0.0800 
 28 H       -6.7430    -3.4070    -1.1160 H     1 <1>   0.1500 
 29 H       -4.6170    -6.2700    -1.6980 H     1 <1>   0.0800 
 30 H       -5.8080    -5.0990    -2.2010 H     1 <1>   0.0800 
 31 H       -8.6630    -2.6920     0.2690 H     1 <1>   0.0800 
 32 H       -8.7230    -2.3970    -1.4660 H     1 <1>   0.0800 
 33 H       -4.7670    -5.4900     1.4640 H     1 <1>   0.0800 
 34 H       -4.7320    -7.1330     0.8530 H     1 <1>   0.0800 
 35 H       -6.0910    -6.5790     1.8050 H     1 <1>   0.0800 
 36 H       -9.5900     0.8060    -0.8400 H     1 <1>   0.0800 
 37 H      -11.2890     0.4240    -0.9870 H     1 <1>   0.0800 
 38 H      -10.1580    -0.1590    -2.1880 H     1 <1>   0.0800 
@<TRIPOS>BOND
  1   1   2  2   
  2   2   3  1   
  3   2   4  1   
  4   3   5  1   
  5   4   6  2   
  6   4  23  1   
  7   5   7  ar  
  8   5   8  ar  
  9   6   7  1   
 10   6   9  1   
 11   7  10  ar  
 12   8  11  ar  
 13   8  24  1   
 14   9  25  1   
 15   9  26  1   
 16   9  27  1   
 17  10  12  1   
 18  10  13  ar  
 19  11  13  ar  
 20  11  14  1   
 21  12  15  1   
 22  13  28  1   
 23  14  16  1   
 24  15  17  1   
 25  15  29  1   
 26  15  30  1   
 27  16  18  1   
 28  16  31  1   
 29  16  32  1   
 30  17  19  2   
 31  17  20  1   
 32  18  21  2   
 33  18  22  1   
 34  20  33  1   
 35  20  34  1   
 36  20  35  1   
 37  22  36  1   
 38  22  37  1   
 39  22  38  1   
@<TRIPOS>SUBSTRUCTURE
  1 ****  13 GROUP 4 **** **** 0

# MOE 2024.06 (io_trps.svl 2023.06)
