@<TRIPOS>MOLECULE
NONAME
47 49 1 0 0 
SMALL
USER_CHARGES


@<TRIPOS>ATOM
  1 O        1.7830     0.6040     1.6650 O.2   1 <1>  -0.5700 
  2 C        2.3780     1.0870     0.7200 C.2   1 <1>   0.5440 
  3 N        3.4080     0.3660     0.1530 N.am  1 <1>  -0.6600 
  4 C        2.0030     2.3960     0.2300 C.ar  1 <1>   0.0860 
  5 C        3.8240    -0.9510     0.6910 C.3   1 <1>   0.1400 
  6 C        3.8600     0.5240    -1.2510 C.3   1 <1>   0.1400 
  7 C        2.9410     3.4380     0.1270 C.ar  1 <1>   0.1170 
  8 C        0.6800     2.6470    -0.1350 C.ar  1 <1>  -0.1500 
  9 C        4.7380    -1.5450    -0.3740 C.3   1 <1>  -0.1600 
 10 C        4.3060    -0.8710    -1.6730 C.3   1 <1>  -0.1600 
 11 N        4.2700     3.1990     0.5100 N.am  1 <1>  -0.5470 
 12 C        2.5260     4.6760    -0.3600 C.ar  1 <1>  -0.1500 
 13 C        0.2840     3.8800    -0.6110 C.ar  1 <1>  -0.1500 
 14 C        5.3430     4.0070     0.7770 C.2   1 <1>   0.5690 
 15 C        1.2140     4.8980    -0.7260 C.ar  1 <1>  -0.1500 
 16 O        5.3000     5.2140     0.7370 O.2   1 <1>  -0.5700 
 17 C        6.6600     3.3280     1.1690 C.3   1 <1>   0.2610 
 18 O        6.8290     2.1500     0.3900 O.3   1 <1>  -0.3630 
 19 C        6.6720     2.9290     2.6530 C.3   1 <1>  -0.2400 
 20 C        8.0500     1.6620     0.0530 C.ar  1 <1>   0.0820 
 21 C        9.2520     2.1190     0.5880 C.ar  1 <1>  -0.1500 
 22 C        8.0700     0.6460    -0.8900 C.ar  1 <1>  -0.1500 
 23 C       10.4500     1.5570     0.1800 C.ar  1 <1>  -0.1500 
 24 C        9.2680     0.0850    -1.2960 C.ar  1 <1>  -0.1500 
 25 C       10.4590     0.5420    -0.7600 C.ar  1 <1>  -0.1500 
 26 H        2.9520    -1.5690     0.8270 H     1 <1>   0.0800 
 27 H        4.3310    -0.8340     1.6340 H     1 <1>   0.0800 
 28 H        4.6950     1.2020    -1.2870 H     1 <1>   0.0800 
 29 H        3.0660     0.8900    -1.8810 H     1 <1>   0.0800 
 30 H       -0.0420     1.8540    -0.0360 H     1 <1>   0.1500 
 31 H        4.6520    -2.6160    -0.4180 H     1 <1>   0.0800 
 32 H        5.7560    -1.2870    -0.1400 H     1 <1>   0.0800 
 33 H        5.0940    -0.8380    -2.4030 H     1 <1>   0.0800 
 34 H        3.4630    -1.3940    -2.0910 H     1 <1>   0.0800 
 35 H        4.4880     2.2000     0.6240 H     1 <1>   0.3700 
 36 H        3.2320     5.4810    -0.4570 H     1 <1>   0.1500 
 37 H       -0.7420     4.0530    -0.8890 H     1 <1>   0.1500 
 38 H        0.9140     5.8630    -1.0980 H     1 <1>   0.1500 
 39 H        7.4580     4.0120     0.9420 H     1 <1>   0.0800 
 40 H        5.8610     2.2550     2.8640 H     1 <1>   0.0800 
 41 H        6.5500     3.8070     3.2610 H     1 <1>   0.0800 
 42 H        7.6000     2.4580     2.9170 H     1 <1>   0.0800 
 43 H        9.2830     2.9010     1.3210 H     1 <1>   0.1500 
 44 H        7.1450     0.2990    -1.3080 H     1 <1>   0.1500 
 45 H       11.3790     1.9100     0.5940 H     1 <1>   0.1500 
 46 H        9.2740    -0.7030    -2.0290 H     1 <1>   0.1500 
 47 H       11.3930     0.1070    -1.0750 H     1 <1>   0.1500 
@<TRIPOS>BOND
  1   1   2  2   
  2   2   3  am  
  3   2   4  1   
  4   3   5  1   
  5   3   6  1   
  6   4   7  ar  
  7   4   8  ar  
  8   5   9  1   
  9   5  26  1   
 10   5  27  1   
 11   6  10  1   
 12   6  28  1   
 13   6  29  1   
 14   7  11  1   
 15   7  12  ar  
 16   8  13  ar  
 17   8  30  1   
 18   9  10  1   
 19   9  31  1   
 20   9  32  1   
 21  10  33  1   
 22  10  34  1   
 23  11  14  am  
 24  11  35  1   
 25  12  15  ar  
 26  12  36  1   
 27  13  15  ar  
 28  13  37  1   
 29  14  16  2   
 30  14  17  1   
 31  15  38  1   
 32  17  18  1   
 33  17  19  1   
 34  17  39  1   
 35  18  20  1   
 36  19  40  1   
 37  19  41  1   
 38  19  42  1   
 39  20  21  ar  
 40  20  22  ar  
 41  21  23  ar  
 42  21  43  1   
 43  22  24  ar  
 44  22  44  1   
 45  23  25  ar  
 46  23  45  1   
 47  24  25  ar  
 48  24  46  1   
 49  25  47  1   
@<TRIPOS>SUBSTRUCTURE
  1 ****  11 GROUP 4 **** **** 0

# MOE 2024.06 (io_trps.svl 2023.06)
