@<TRIPOS>MOLECULE
NONAME
36 36 1 0 0 
SMALL
USER_CHARGES


@<TRIPOS>ATOM
  1 F       -0.5370    -0.9230    -0.3360 F     1 <1>  -0.3400 
  2 C        0.7650    -0.6420    -0.3360 C.3   1 <1>   1.0200 
  3 F        0.8400     0.6840    -0.2340 F     1 <1>  -0.3400 
  4 F        1.1940    -0.9160    -1.5670 F     1 <1>  -0.3400 
  5 C        1.5550    -1.3870     0.7840 C.3   1 <1>   0.4850 
  6 O        1.2170    -0.8960     2.0780 O.3   1 <1>  -0.6800 
  7 C        3.0840    -1.1800     0.6400 C.ar  1 <1>  -0.1440 
  8 C        1.1440    -2.8700     0.7160 C.2   1 <1>   0.6590 
  9 C        3.9290    -2.1570     0.1190 C.ar  1 <1>  -0.1500 
 10 C        3.6550     0.0270     1.0340 C.ar  1 <1>  -0.1500 
 11 O        0.9320    -3.5050     1.7240 O.2   1 <1>  -0.5700 
 12 O        1.0560    -3.4570    -0.4770 O.3   1 <1>  -0.4300 
 13 C        5.2880    -1.9310     0.0000 C.ar  1 <1>  -0.1500 
 14 C        5.0140     0.2490     0.9150 C.ar  1 <1>  -0.1500 
 15 C        0.6930    -4.8150    -0.6280 C.3   1 <1>   0.0400 
 16 C        5.8540    -0.7260     0.3930 C.ar  1 <1>   0.1170 
 17 N        7.2330    -0.4920     0.2580 N.am  1 <1>  -0.4770 
 18 C        8.2010    -1.3310     0.7740 C.2   1 <1>   0.7800 
 19 C        7.6420     0.7280    -0.4890 C.3   1 <1>   0.0600 
 20 O        7.9470    -2.3630     1.3670 O.2   1 <1>  -0.5700 
 21 O        9.4800    -0.9740     0.6060 O.3   1 <1>  -0.4300 
 22 C       10.5350    -1.7700     1.1090 C.3   1 <1>   0.0400 
 23 H        1.3990    -1.6080     2.7290 H     1 <1>   0.4000 
 24 H        3.5630    -3.1140    -0.2090 H     1 <1>   0.1500 
 25 H        3.0400     0.8120     1.4450 H     1 <1>   0.1500 
 26 H        5.9250    -2.7000    -0.3990 H     1 <1>   0.1500 
 27 H        5.4290     1.1870     1.2370 H     1 <1>   0.1500 
 28 H        0.6870    -5.0530    -1.6770 H     1 <1>   0.0800 
 29 H       -0.2880    -4.9630    -0.2100 H     1 <1>   0.0800 
 30 H        1.4120    -5.4290    -0.1130 H     1 <1>   0.0800 
 31 H        6.8030     1.1380    -1.0230 H     1 <1>   0.0800 
 32 H        8.4120     0.4820    -1.2000 H     1 <1>   0.0800 
 33 H        8.0190     1.4630     0.2000 H     1 <1>   0.0800 
 34 H       11.4680    -1.2940     0.8630 H     1 <1>   0.0800 
 35 H       10.4830    -2.7440     0.6550 H     1 <1>   0.0800 
 36 H       10.4300    -1.8520     2.1770 H     1 <1>   0.0800 
@<TRIPOS>BOND
  1   1   2  1   
  2   2   3  1   
  3   2   4  1   
  4   2   5  1   
  5   5   6  1   
  6   5   7  1   
  7   5   8  1   
  8   6  23  1   
  9   7   9  ar  
 10   7  10  ar  
 11   8  11  2   
 12   8  12  1   
 13   9  13  ar  
 14   9  24  1   
 15  10  14  ar  
 16  10  25  1   
 17  12  15  1   
 18  13  16  ar  
 19  13  26  1   
 20  14  16  ar  
 21  14  27  1   
 22  15  28  1   
 23  15  29  1   
 24  15  30  1   
 25  16  17  1   
 26  17  18  am  
 27  17  19  1   
 28  18  20  2   
 29  18  21  1   
 30  19  31  1   
 31  19  32  1   
 32  19  33  1   
 33  21  22  1   
 34  22  34  1   
 35  22  35  1   
 36  22  36  1   
@<TRIPOS>SUBSTRUCTURE
  1 ****   9 GROUP 4 **** **** 0

# MOE 2024.06 (io_trps.svl 2023.06)
