@<TRIPOS>MOLECULE
NONAME
42 43 1 0 0 
SMALL
USER_CHARGES


@<TRIPOS>ATOM
  1 O       -2.3410    -0.1080     1.4320 O.3   1 <1>  -0.3630 
  2 C       -2.5650     0.7800     0.4220 C.ar  1 <1>   0.0830 
  3 C       -1.1150    -0.1840     2.1270 C.3   1 <1>   0.0400 
  4 C       -1.7650     1.8740     0.0530 C.ar  1 <1>   0.0830 
  5 C       -3.7300     0.5380    -0.2840 C.ar  1 <1>  -0.1500 
  6 O       -0.6140     2.1970     0.6800 O.3   1 <1>  -0.5330 
  7 C       -2.1540     2.6850    -1.0020 C.ar  1 <1>  -0.1500 
  8 C       -4.1310     1.3630    -1.3250 C.ar  1 <1>  -0.1440 
  9 C       -3.3300     2.4350    -1.6880 C.ar  1 <1>  -0.1500 
 10 C       -5.4420     1.0920    -2.0330 C.3   1 <1>   0.4860 
 11 N       -6.5350     1.3330    -1.0370 N.4   1 <1>  -0.9590 
 12 C       -7.8310     0.7110    -1.4890 C.3   1 <1>   0.3430 
 13 C       -6.5910     2.7960    -0.7210 C.3   1 <1>   0.3430 
 14 C       -8.7330     0.2170    -0.3190 C.3   1 <1>   0.3430 
 15 C       -7.8220     3.2170     0.0850 C.3   1 <1>  -0.1600 
 16 N       -9.2600     1.2700     0.6320 N.4   1 <1>  -0.9590 
 17 C       -8.2590     2.2400     1.1750 C.3   1 <1>   0.3430 
 18 C       -9.9700     0.6020     1.7750 C.3   1 <1>   0.2630 
 19 H       -1.1500    -1.0380     2.7780 H     1 <1>   0.0800 
 20 H       -0.9860     0.7110     2.7080 H     1 <1>   0.0800 
 21 H       -0.3160    -0.2980     1.4160 H     1 <1>   0.0800 
 22 H       -4.3060    -0.3220     0.0060 H     1 <1>   0.1500 
 23 H       -0.1510     2.9570     0.2840 H     1 <1>   0.4500 
 24 H       -1.5400     3.5190    -1.2950 H     1 <1>   0.1500 
 25 H       -3.6020     3.0860    -2.5030 H     1 <1>   0.1500 
 26 H       -5.4520     0.0680    -2.3700 H     1 <1>   0.0800 
 27 H       -5.5510     1.7400    -2.8880 H     1 <1>   0.0800 
 28 H       -6.1850     0.8530    -0.1950 H     1 <1>   0.4500 
 29 H       -7.6090    -0.1480    -2.1020 H     1 <1>   0.0800 
 30 H       -8.3800     1.4050    -2.1050 H     1 <1>   0.0800 
 31 H       -6.5700     3.3680    -1.6360 H     1 <1>   0.0800 
 32 H       -5.7040     3.0620    -0.1640 H     1 <1>   0.0800 
 33 H       -8.1760    -0.5150     0.2420 H     1 <1>   0.0800 
 34 H       -9.5750    -0.3010    -0.7500 H     1 <1>   0.0800 
 35 H       -8.6400     3.4440    -0.5750 H     1 <1>   0.0800 
 36 H       -7.5650     4.1460     0.5650 H     1 <1>   0.0800 
 37 H       -9.9820     1.8260     0.1420 H     1 <1>   0.4500 
 38 H       -8.7230     2.8080     1.9670 H     1 <1>   0.0800 
 39 H       -7.4100     1.7250     1.5970 H     1 <1>   0.0800 
 40 H       -9.2800     0.0100     2.3570 H     1 <1>   0.0800 
 41 H      -10.7520    -0.0450     1.4100 H     1 <1>   0.0800 
 42 H      -10.4180     1.3390     2.4240 H     1 <1>   0.0800 
@<TRIPOS>BOND
  1   1   2  1   
  2   1   3  1   
  3   2   4  ar  
  4   2   5  ar  
  5   3  19  1   
  6   3  20  1   
  7   3  21  1   
  8   4   6  1   
  9   4   7  ar  
 10   5   8  ar  
 11   5  22  1   
 12   6  23  1   
 13   7   9  ar  
 14   7  24  1   
 15   8   9  ar  
 16   8  10  1   
 17   9  25  1   
 18  10  11  1   
 19  10  26  1   
 20  10  27  1   
 21  11  12  1   
 22  11  13  1   
 23  11  28  1   
 24  12  14  1   
 25  12  29  1   
 26  12  30  1   
 27  13  15  1   
 28  13  31  1   
 29  13  32  1   
 30  14  16  1   
 31  14  33  1   
 32  14  34  1   
 33  15  17  1   
 34  15  35  1   
 35  15  36  1   
 36  16  17  1   
 37  16  18  1   
 38  16  37  1   
 39  17  38  1   
 40  17  39  1   
 41  18  40  1   
 42  18  41  1   
 43  18  42  1   
@<TRIPOS>SUBSTRUCTURE
  1 ****   8 GROUP 4 **** **** 0

# MOE 2024.06 (io_trps.svl 2023.06)
