@<TRIPOS>MOLECULE
NONAME
44 45 1 0 0 
SMALL
USER_CHARGES


@<TRIPOS>ATOM
  1 F        0.4840     0.9000     0.5860 F     1 <1>  -0.3400 
  2 C       -0.8450     0.8200     0.5510 C.3   1 <1>   1.0200 
  3 F       -1.1180    -0.4740     0.4040 F     1 <1>  -0.3400 
  4 F       -1.2530     1.1290     1.7770 F     1 <1>  -0.3400 
  5 C       -1.4760     1.7370    -0.5810 C.3   1 <1>   0.5670 
  6 O       -0.9500     1.3280    -1.8250 O.3   1 <1>  -0.6800 
  7 C       -3.0370     1.5480    -0.6390 C.ar  1 <1>  -0.1440 
  8 C       -1.0570     3.2300    -0.5700 C.ar  1 <1>  -0.1440 
  9 C       -4.0500     2.3080     0.0020 C.ar  1 <1>  -0.1440 
 10 C       -3.4600     0.4560    -1.4070 C.ar  1 <1>  -0.1500 
 11 C       -0.3520     3.8360     0.4690 C.ar  1 <1>  -0.1500 
 12 C       -1.3620     4.0130    -1.6840 C.ar  1 <1>  -0.1500 
 13 C       -5.3830     1.9450    -0.1910 C.ar  1 <1>  -0.1500 
 14 C       -3.9700     3.5270     0.9450 C.3   1 <1>   0.5660 
 15 C       -4.7850     0.1220    -1.5810 C.ar  1 <1>  -0.1500 
 16 C       -0.0010     5.1730     0.4100 C.ar  1 <1>  -0.1500 
 17 C       -1.0050     5.3480    -1.7490 C.ar  1 <1>  -0.1500 
 18 C       -5.7570     0.8740    -0.9720 C.ar  1 <1>  -0.1500 
 19 N       -3.5040     4.7600     0.2590 N.4   1 <1>  -0.9590 
 20 C       -3.2560     3.2700     2.2670 C.3   1 <1>  -0.2400 
 21 C       -0.3290     5.9320    -0.6960 C.ar  1 <1>  -0.1500 
 22 C       -3.4540     5.9680     1.1380 C.3   1 <1>   0.2630 
 23 C       -4.3300     5.0400    -0.9570 C.3   1 <1>   0.2630 
 24 H       -0.0070     1.5810    -1.8780 H     1 <1>   0.4000 
 25 H       -2.7540    -0.1910    -1.9020 H     1 <1>   0.1500 
 26 H       -0.0410     3.2910     1.3460 H     1 <1>   0.1500 
 27 H       -1.8800     3.5780    -2.5270 H     1 <1>   0.1500 
 28 H       -6.1850     2.4920     0.2770 H     1 <1>   0.1500 
 29 H       -4.9880     3.7250     1.2380 H     1 <1>   0.0800 
 30 H       -5.0550    -0.7260    -2.1880 H     1 <1>   0.1500 
 31 H        0.5480     5.6220     1.2220 H     1 <1>   0.1500 
 32 H       -1.2390     5.9300    -2.6260 H     1 <1>   0.1500 
 33 H       -6.7960     0.6200    -1.1000 H     1 <1>   0.1500 
 34 H       -2.5370     4.5710    -0.0650 H     1 <1>   0.4500 
 35 H       -2.1970     3.3760     2.1890 H     1 <1>   0.0800 
 36 H       -3.4830     2.2750     2.6070 H     1 <1>   0.0800 
 37 H       -3.6140     3.9480     3.0190 H     1 <1>   0.0800 
 38 H       -0.0400     6.9700    -0.7460 H     1 <1>   0.1500 
 39 H       -4.4340     6.1910     1.5280 H     1 <1>   0.0800 
 40 H       -3.1020     6.8190     0.5770 H     1 <1>   0.0800 
 41 H       -2.7790     5.8050     1.9620 H     1 <1>   0.0800 
 42 H       -5.3550     5.2280    -0.6820 H     1 <1>   0.0800 
 43 H       -4.3040     4.1970    -1.6300 H     1 <1>   0.0800 
 44 H       -3.9460     5.9020    -1.4780 H     1 <1>   0.0800 
@<TRIPOS>BOND
  1   1   2  1   
  2   2   3  1   
  3   2   4  1   
  4   2   5  1   
  5   5   6  1   
  6   5   7  1   
  7   5   8  1   
  8   6  24  1   
  9   7   9  ar  
 10   7  10  ar  
 11   8  11  ar  
 12   8  12  ar  
 13   9  13  ar  
 14   9  14  1   
 15  10  15  ar  
 16  10  25  1   
 17  11  16  ar  
 18  11  26  1   
 19  12  17  ar  
 20  12  27  1   
 21  13  18  ar  
 22  13  28  1   
 23  14  19  1   
 24  14  20  1   
 25  14  29  1   
 26  15  18  ar  
 27  15  30  1   
 28  16  21  ar  
 29  16  31  1   
 30  17  21  ar  
 31  17  32  1   
 32  18  33  1   
 33  19  22  1   
 34  19  23  1   
 35  19  34  1   
 36  20  35  1   
 37  20  36  1   
 38  20  37  1   
 39  21  38  1   
 40  22  39  1   
 41  22  40  1   
 42  22  41  1   
 43  23  42  1   
 44  23  43  1   
 45  23  44  1   
@<TRIPOS>SUBSTRUCTURE
  1 ****   5 GROUP 4 **** **** 0

# MOE 2024.06 (io_trps.svl 2023.06)
