@<TRIPOS>MOLECULE
NONAME
40 41 1 0 0 
SMALL
USER_CHARGES


@<TRIPOS>ATOM
  1 CL       3.5520    -0.3890    -3.5220 Cl    1 <1>  -0.1770 
  2 C        3.6280     0.5610    -2.0550 C.ar  1 <1>   0.1770 
  3 C        2.8910     1.7320    -1.9460 C.ar  1 <1>  -0.1440 
  4 C        4.4340     0.1100    -1.0310 C.ar  1 <1>  -0.1500 
  5 C        2.9850     2.4550    -0.7670 C.ar  1 <1>  -0.1500 
  6 C        2.0070     2.2210    -3.0830 C.3   1 <1>  -0.0960 
  7 C        4.5260     0.8300     0.1560 C.ar  1 <1>   0.1990 
  8 C        3.7910     2.0070     0.2640 C.ar  1 <1>  -0.1500 
  9 N        5.3260     0.4110     1.2230 N.am  1 <1>  -0.6930 
 10 S        5.4810    -1.2370     1.7250 S.o2  1 <1>   1.3330 
 11 C        6.3470     1.3550     1.7920 C.3   1 <1>   0.2570 
 12 O        6.0560    -1.2090     3.0480 O.2   1 <1>  -0.6500 
 13 O        6.1440    -1.9500     0.6610 O.2   1 <1>  -0.6500 
 14 C        3.7870    -1.7650     1.8700 C.3   1 <1>  -0.1350 
 15 C        6.9770     2.3160     0.7770 C.2   1 <1>   0.5690 
 16 O        6.7290     3.4960     0.8880 O.2   1 <1>  -0.5700 
 17 N        7.8030     1.8510    -0.2120 N.am  1 <1>  -0.6600 
 18 C        8.1540     0.4340    -0.4630 C.3   1 <1>   0.1400 
 19 C        8.3750     2.7320    -1.2510 C.3   1 <1>   0.1400 
 20 C        9.2080     0.4880    -1.5620 C.3   1 <1>  -0.1600 
 21 C        8.9110     1.7810    -2.3150 C.3   1 <1>  -0.1600 
 22 H        4.9920    -0.7940    -1.1770 H     1 <1>   0.1500 
 23 H        2.4340     3.3730    -0.6470 H     1 <1>   0.1500 
 24 H        1.2580     1.4830    -3.3100 H     1 <1>   0.0800 
 25 H        2.6020     2.3930    -3.9620 H     1 <1>   0.0800 
 26 H        1.5130     3.1390    -2.8210 H     1 <1>   0.0800 
 27 H        3.8540     2.5860     1.1690 H     1 <1>   0.1500 
 28 H        7.1510     0.8030     2.2430 H     1 <1>   0.0800 
 29 H        5.8820     1.9350     2.5690 H     1 <1>   0.0800 
 30 H        3.2640    -1.1400     2.5670 H     1 <1>   0.0800 
 31 H        3.7480    -2.7780     2.2190 H     1 <1>   0.0800 
 32 H        3.2950    -1.7110     0.9190 H     1 <1>   0.0800 
 33 H        7.2840    -0.0900    -0.8180 H     1 <1>   0.0800 
 34 H        8.5300    -0.0450     0.4250 H     1 <1>   0.0800 
 35 H        9.1740     3.3100    -0.8180 H     1 <1>   0.0800 
 36 H        7.6240     3.3950    -1.6480 H     1 <1>   0.0800 
 37 H        9.1650    -0.3790    -2.1980 H     1 <1>   0.0800 
 38 H       10.1830     0.5420    -1.1090 H     1 <1>   0.0800 
 39 H        9.7790     2.1810    -2.8070 H     1 <1>   0.0800 
 40 H        8.1410     1.6090    -3.0470 H     1 <1>   0.0800 
@<TRIPOS>BOND
  1   1   2  1   
  2   2   3  ar  
  3   2   4  ar  
  4   3   5  ar  
  5   3   6  1   
  6   4   7  ar  
  7   4  22  1   
  8   5   8  ar  
  9   5  23  1   
 10   6  24  1   
 11   6  25  1   
 12   6  26  1   
 13   7   8  ar  
 14   7   9  1   
 15   8  27  1   
 16   9  10  am  
 17   9  11  1   
 18  10  12  2   
 19  10  13  2   
 20  10  14  1   
 21  11  15  1   
 22  11  28  1   
 23  11  29  1   
 24  14  30  1   
 25  14  31  1   
 26  14  32  1   
 27  15  16  2   
 28  15  17  am  
 29  17  18  1   
 30  17  19  1   
 31  18  20  1   
 32  18  33  1   
 33  18  34  1   
 34  19  21  1   
 35  19  35  1   
 36  19  36  1   
 37  20  21  1   
 38  20  37  1   
 39  20  38  1   
 40  21  39  1   
 41  21  40  1   
@<TRIPOS>SUBSTRUCTURE
  1 ****   7 GROUP 4 **** **** 0

# MOE 2024.06 (io_trps.svl 2023.06)
