@<TRIPOS>MOLECULE
NONAME
51 54 1 0 0 
SMALL
USER_CHARGES


@<TRIPOS>ATOM
  1 O       -0.5230    -0.9300     1.1630 O.3   1 <1>  -0.5640 
  2 C       -0.3270    -2.1100     1.8950 C.3   1 <1>   0.1130 
  3 C       -0.3720    -1.1060    -0.2240 C.3   1 <1>   0.1130 
  4 C       -1.3430    -3.2010     1.4790 C.3   1 <1>   0.1030 
  5 C       -1.2410    -2.2710    -0.7580 C.3   1 <1>   0.1030 
  6 N       -2.1290    -2.7790     0.3010 N.3   1 <1>  -0.8130 
  7 C       -3.1760    -3.7110    -0.1330 C.3   1 <1>   0.1030 
  8 C       -4.4980    -3.4060     0.6010 C.3   1 <1>   0.3480 
  9 N       -5.0830    -2.0830     0.2260 N.pl3 1 <1>  -0.7670 
 10 C       -4.6680    -0.8630     0.5840 C.cat 1 <1>   1.0690 
 11 C       -6.2790    -1.9220    -0.4620 C.ar  1 <1>   0.3030 
 12 N       -3.5570    -0.5920     1.2110 N.pl3 1 <1>  -0.8390 
 13 N       -5.5410     0.0730     0.2060 N.pl3 1 <1>  -0.7670 
 14 C       -6.5670    -0.5680    -0.4720 C.ar  1 <1>   0.3030 
 15 C       -7.1350    -2.8310    -1.0770 C.ar  1 <1>  -0.1160 
 16 C       -5.5220     1.5270     0.5660 C.3   1 <1>   0.3480 
 17 C       -7.7170    -0.0910    -1.0920 C.ar  1 <1>  -0.1160 
 18 C       -8.2770    -2.3580    -1.6930 C.ar  1 <1>  -0.1570 
 19 C       -4.4770     2.3580    -0.2090 C.3   1 <1>   0.3740 
 20 C       -8.5680    -0.9940    -1.7000 C.ar  1 <1>  -0.1570 
 21 O       -3.1880     1.9710     0.1390 O.3   1 <1>  -0.6840 
 22 C       -4.6150     3.8320     0.1200 C.2   1 <1>  -0.0480 
 23 O       -4.5700     4.2130     1.3830 O.3   1 <1>  -0.2860 
 24 C       -4.7880     4.9000    -0.6890 C.2   1 <1>  -0.1570 
 25 C       -4.7110     5.5230     1.4100 C.2   1 <1>  -0.0180 
 26 C       -4.8520     6.0120     0.1600 C.2   1 <1>  -0.1570 
 27 H       -0.4360    -1.8750     2.9390 H     1 <1>   0.0720 
 28 H        0.6810    -2.4490     1.7280 H     1 <1>   0.0720 
 29 H        0.6680    -1.2840    -0.4350 H     1 <1>   0.0720 
 30 H       -0.6590    -0.1850    -0.6990 H     1 <1>   0.0720 
 31 H       -2.0020    -3.3970     2.3070 H     1 <1>   0.0720 
 32 H       -0.8120    -4.1120     1.2600 H     1 <1>   0.0720 
 33 H       -0.6030    -3.0640    -1.1120 H     1 <1>   0.0720 
 34 H       -1.8230    -1.9190    -1.5930 H     1 <1>   0.0720 
 35 H       -2.8670    -4.7230     0.0660 H     1 <1>   0.0720 
 36 H       -3.3440    -3.6180    -1.1920 H     1 <1>   0.0720 
 37 H       -4.3270    -3.4320     1.6630 H     1 <1>   0.0720 
 38 H       -5.2020    -4.1850     0.3740 H     1 <1>   0.0720 
 39 H       -3.1920     0.3640     1.1940 H     1 <1>   0.4450 
 40 H       -2.7930    -1.2870     1.1580 H     1 <1>   0.4450 
 41 H       -6.9120    -3.8820    -1.0770 H     1 <1>   0.1430 
 42 H       -5.3350     1.6310     1.6220 H     1 <1>   0.0720 
 43 H       -6.4940     1.9480     0.3800 H     1 <1>   0.0720 
 44 H       -7.9420     0.9600    -1.1000 H     1 <1>   0.1430 
 45 H       -8.9560    -3.0440    -2.1760 H     1 <1>   0.1430 
 46 H       -4.5960     2.2140    -1.2690 H     1 <1>   0.0720 
 47 H       -9.4660    -0.6490    -2.1870 H     1 <1>   0.1430 
 48 H       -2.6150     2.7690     0.1130 H     1 <1>   0.3940 
 49 H       -4.8650     4.9400    -1.7620 H     1 <1>   0.1430 
 50 H       -4.6990     6.0290     2.3600 H     1 <1>   0.1430 
 51 H       -4.9850     7.0330    -0.1520 H     1 <1>   0.1430 
@<TRIPOS>BOND
  1   1   2  1   
  2   1   3  1   
  3   2   4  1   
  4   2  27  1   
  5   2  28  1   
  6   3   5  1   
  7   3  29  1   
  8   3  30  1   
  9   4   6  1   
 10   4  31  1   
 11   4  32  1   
 12   5   6  1   
 13   5  33  1   
 14   5  34  1   
 15   6   7  1   
 16   7   8  1   
 17   7  35  1   
 18   7  36  1   
 19   8   9  1   
 20   8  37  1   
 21   8  38  1   
 22   9  10  ar  
 23   9  11  1   
 24  10  12  ar  
 25  10  13  ar  
 26  11  14  ar  
 27  11  15  ar  
 28  12  39  1   
 29  12  40  1   
 30  13  14  1   
 31  13  16  1   
 32  14  17  ar  
 33  15  18  ar  
 34  15  41  1   
 35  16  19  1   
 36  16  42  1   
 37  16  43  1   
 38  17  20  ar  
 39  17  44  1   
 40  18  20  ar  
 41  18  45  1   
 42  19  21  1   
 43  19  22  1   
 44  19  46  1   
 45  20  47  1   
 46  21  48  1   
 47  22  23  1   
 48  22  24  2   
 49  23  25  1   
 50  24  26  1   
 51  24  49  1   
 52  25  26  2   
 53  25  50  1   
 54  26  51  1   
@<TRIPOS>SUBSTRUCTURE
  1 ****  10 GROUP 4 **** **** 0

# MOE 2024.06 (io_trps.svl 2023.06)
