@<TRIPOS>MOLECULE
NONAME
41 43 1 0 0 
SMALL
USER_CHARGES


@<TRIPOS>ATOM
  1 O       -0.2890    -1.6920     0.8400 O.3   1 <1>  -0.3630 
  2 C       -1.1140    -0.7390     0.3490 C.ar  1 <1>   0.3920 
  3 C        0.6860    -2.3530     0.0550 C.3   1 <1>   0.1200 
  4 N       -0.8810    -0.2480    -0.8650 N.ar  1 <1>  -0.6200 
  5 C       -2.1500    -0.3250     1.1740 C.ar  1 <1>  -0.1500 
  6 C        2.0940    -1.7780     0.3110 C.3   1 <1>  -0.0800 
  7 C       -1.7360     0.6780    -1.2720 C.ar  1 <1>   0.1600 
  8 C       -3.0210     0.6480     0.7380 C.ar  1 <1>  -0.1500 
  9 C        2.1430    -0.2430     0.0960 C.3   1 <1>   0.4230 
 10 C        3.0880    -2.5150    -0.6070 C.3   1 <1>  -0.1600 
 11 C       -2.8000     1.1550    -0.5250 C.ar  1 <1>  -0.1500 
 12 N        3.4360     0.2220    -0.5310 N.4   1 <1>  -0.9590 
 13 C        1.8890     0.5640     1.3810 C.3   1 <1>  -0.1600 
 14 C        4.5240    -2.0000    -0.4150 C.3   1 <1>  -0.1600 
 15 C        4.6110    -0.5260    -0.0110 C.3   1 <1>   0.3430 
 16 C        3.6820     1.7000    -0.4290 C.3   1 <1>   0.3430 
 17 C        1.6570     2.0500     1.0550 C.3   1 <1>  -0.1600 
 18 C        2.3770     2.4760    -0.2370 C.3   1 <1>  -0.1600 
 19 H        0.4140    -2.2980    -0.9850 H     1 <1>   0.0800 
 20 H        0.6620    -3.3900     0.3430 H     1 <1>   0.0800 
 21 H       -2.2630    -0.7720     2.1440 H     1 <1>   0.1500 
 22 H        2.3540    -1.9990     1.3320 H     1 <1>   0.0800 
 23 H       -1.5850     1.0840    -2.2580 H     1 <1>   0.1500 
 24 H       -3.8380     0.9920     1.3510 H     1 <1>   0.1500 
 25 H        1.3560     0.0060    -0.5930 H     1 <1>   0.0800 
 26 H        2.7960    -2.3660    -1.6330 H     1 <1>   0.0800 
 27 H        3.0600    -3.5760    -0.4160 H     1 <1>   0.0800 
 28 H       -3.4490     1.9120    -0.9280 H     1 <1>   0.1500 
 29 H        3.3470    -0.0110    -1.5260 H     1 <1>   0.4500 
 30 H        2.7280     0.4550     2.0440 H     1 <1>   0.0800 
 31 H        1.0280     0.1910     1.9040 H     1 <1>   0.0800 
 32 H        5.0810    -2.1560    -1.3230 H     1 <1>   0.0800 
 33 H        5.0120    -2.5790     0.3510 H     1 <1>   0.0800 
 34 H        4.6270    -0.4520     1.0640 H     1 <1>   0.0800 
 35 H        5.5280    -0.1030    -0.3910 H     1 <1>   0.0800 
 36 H        4.1910     2.0500    -1.3130 H     1 <1>   0.0800 
 37 H        4.3140     1.9000     0.4210 H     1 <1>   0.0800 
 38 H        1.9980     2.6480     1.8850 H     1 <1>   0.0800 
 39 H        0.6010     2.2330     0.9380 H     1 <1>   0.0800 
 40 H        1.7390     2.3080    -1.0880 H     1 <1>   0.0800 
 41 H        2.5860     3.5310    -0.1970 H     1 <1>   0.0800 
@<TRIPOS>BOND
  1   1   2  1   
  2   1   3  1   
  3   2   4  ar  
  4   2   5  ar  
  5   3   6  1   
  6   3  19  1   
  7   3  20  1   
  8   4   7  ar  
  9   5   8  ar  
 10   5  21  1   
 11   6   9  1   
 12   6  10  1   
 13   6  22  1   
 14   7  11  ar  
 15   7  23  1   
 16   8  11  ar  
 17   8  24  1   
 18   9  12  1   
 19   9  13  1   
 20   9  25  1   
 21  10  14  1   
 22  10  26  1   
 23  10  27  1   
 24  11  28  1   
 25  12  15  1   
 26  12  16  1   
 27  12  29  1   
 28  13  17  1   
 29  13  30  1   
 30  13  31  1   
 31  14  15  1   
 32  14  32  1   
 33  14  33  1   
 34  15  34  1   
 35  15  35  1   
 36  16  18  1   
 37  16  36  1   
 38  16  37  1   
 39  17  18  1   
 40  17  38  1   
 41  17  39  1   
 42  18  40  1   
 43  18  41  1   
@<TRIPOS>SUBSTRUCTURE
  1 ****   9 GROUP 4 **** **** 0

# MOE 2024.06 (io_trps.svl 2023.06)
