@<TRIPOS>MOLECULE
NONAME
40 42 1 0 0 
SMALL
USER_CHARGES


@<TRIPOS>ATOM
  1 BR       1.1420    -1.0910    -2.0330 Br    1 <1>  -0.1110 
  2 C        0.2240    -2.2140    -0.7640 C.ar  1 <1>   0.1110 
  3 C        0.7100    -2.3650     0.5210 C.ar  1 <1>   0.1900 
  4 C       -0.9310    -2.8610    -1.1670 C.ar  1 <1>  -0.1500 
  5 F        1.8000    -1.7460     0.8910 F     1 <1>  -0.1900 
  6 C        0.0530    -3.1680     1.4330 C.ar  1 <1>  -0.1500 
  7 C       -1.6070    -3.6660    -0.2560 C.ar  1 <1>  -0.1440 
  8 C       -1.1080    -3.8190     1.0370 C.ar  1 <1>  -0.1500 
  9 C       -2.8830    -4.3780    -0.6720 C.3   1 <1>   0.4870 
 10 N       -4.0490    -3.6550    -0.0950 N.4   1 <1>  -0.9590 
 11 C       -5.3320    -4.4300    -0.2910 C.3   1 <1>   0.3430 
 12 C       -4.1730    -2.2520    -0.6520 C.3   1 <1>   0.3430 
 13 C       -6.5690    -3.6880     0.2610 C.3   1 <1>   0.2090 
 14 C       -5.4030    -1.4970    -0.1050 C.3   1 <1>   0.2090 
 15 N       -6.6420    -2.3060    -0.2930 N.pl3 1 <1>  -0.8380 
 16 C       -7.8480    -1.6360    -0.1240 C.ar  1 <1>   0.1000 
 17 C       -8.2720    -1.2110     1.1350 C.ar  1 <1>  -0.1500 
 18 C       -8.6480    -1.3830    -1.2340 C.ar  1 <1>  -0.1500 
 19 C       -9.4760    -0.5450     1.2850 C.ar  1 <1>  -0.1500 
 20 C       -9.8540    -0.7180    -1.1000 C.ar  1 <1>  -0.1500 
 21 C      -10.2460    -0.3110     0.1610 C.ar  1 <1>   0.1900 
 22 F      -11.3850     0.3180     0.2970 F     1 <1>  -0.1900 
 23 H       -1.2750    -2.7270    -2.1790 H     1 <1>   0.1500 
 24 H        0.4490    -3.2800     2.4280 H     1 <1>   0.1500 
 25 H       -1.6090    -4.4510     1.7530 H     1 <1>   0.1500 
 26 H       -2.8580    -5.3920    -0.3080 H     1 <1>   0.0800 
 27 H       -2.9560    -4.4050    -1.7480 H     1 <1>   0.0800 
 28 H       -3.8800    -3.5600     0.9130 H     1 <1>   0.4500 
 29 H       -5.2590    -5.3920     0.1880 H     1 <1>   0.0800 
 30 H       -5.4930    -4.5970    -1.3440 H     1 <1>   0.0800 
 31 H       -4.2650    -2.2980    -1.7250 H     1 <1>   0.0800 
 32 H       -3.2860    -1.6840    -0.4220 H     1 <1>   0.0800 
 33 H       -6.5250    -3.6480     1.3350 H     1 <1>   0.0800 
 34 H       -7.4610    -4.2260    -0.0140 H     1 <1>   0.0800 
 35 H       -5.5100    -0.5610    -0.6270 H     1 <1>   0.0800 
 36 H       -5.2660    -1.2790     0.9400 H     1 <1>   0.0800 
 37 H       -7.6600    -1.4020     1.9970 H     1 <1>   0.1500 
 38 H       -8.3180    -1.7120    -2.2020 H     1 <1>   0.1500 
 39 H       -9.8170    -0.2110     2.2480 H     1 <1>   0.1500 
 40 H      -10.4810    -0.5170    -1.9500 H     1 <1>   0.1500 
@<TRIPOS>BOND
  1   1   2  1   
  2   2   3  ar  
  3   2   4  ar  
  4   3   5  1   
  5   3   6  ar  
  6   4   7  ar  
  7   4  23  1   
  8   6   8  ar  
  9   6  24  1   
 10   7   8  ar  
 11   7   9  1   
 12   8  25  1   
 13   9  10  1   
 14   9  26  1   
 15   9  27  1   
 16  10  11  1   
 17  10  12  1   
 18  10  28  1   
 19  11  13  1   
 20  11  29  1   
 21  11  30  1   
 22  12  14  1   
 23  12  31  1   
 24  12  32  1   
 25  13  15  1   
 26  13  33  1   
 27  13  34  1   
 28  14  15  1   
 29  14  35  1   
 30  14  36  1   
 31  15  16  1   
 32  16  17  ar  
 33  16  18  ar  
 34  17  19  ar  
 35  17  37  1   
 36  18  20  ar  
 37  18  38  1   
 38  19  21  ar  
 39  19  39  1   
 40  20  21  ar  
 41  20  40  1   
 42  21  22  1   
@<TRIPOS>SUBSTRUCTURE
  1 ****  12 GROUP 4 **** **** 0

# MOE 2024.06 (io_trps.svl 2023.06)
