@<TRIPOS>MOLECULE
NONAME
46 48 1 0 0 
SMALL
USER_CHARGES


@<TRIPOS>ATOM
  1 CL       0.4940     2.3070    -0.8470 Cl    1 <1>  -0.1770 
  2 C        2.1430     1.7560    -0.7140 C.ar  1 <1>   0.1770 
  3 C        2.7820     1.8190     0.5100 C.ar  1 <1>  -0.1500 
  4 C        2.7870     1.2640    -1.8330 C.ar  1 <1>  -0.1500 
  5 C        4.0900     1.3770     0.6160 C.ar  1 <1>  -0.1500 
  6 C        4.0940     0.8220    -1.7240 C.ar  1 <1>  -0.1500 
  7 C        4.7500     0.8700    -0.4990 C.ar  1 <1>  -0.1430 
  8 C        6.1780     0.3700    -0.3800 C.3   1 <1>   0.4870 
  9 N        6.1680    -0.9410     0.3200 N.4   1 <1>  -0.9590 
 10 C        7.5660    -1.4030     0.6380 C.3   1 <1>   0.3430 
 11 C        5.4240    -1.9860    -0.4760 C.3   1 <1>   0.3430 
 12 C        7.5730    -2.7670     1.3450 C.3   1 <1>   0.1100 
 13 C        5.4310    -3.3590     0.2150 C.3   1 <1>   0.1100 
 14 N        6.8320    -3.7590     0.5310 N.pl3 1 <1>  -0.4870 
 15 N        7.5620    -4.3930    -0.4240 N.2   1 <1>  -0.5030 
 16 C        7.2550    -5.5740    -0.8330 C.2   1 <1>   0.3030 
 17 C        6.1920    -6.4330    -0.3600 C.ar  1 <1>   0.0860 
 18 C        8.1220    -6.1500    -1.9380 C.3   1 <1>  -0.1790 
 19 C        6.0020    -6.6750     1.0020 C.ar  1 <1>  -0.1500 
 20 C        5.3110    -7.0590    -1.2460 C.ar  1 <1>  -0.1500 
 21 C        4.9840    -7.4900     1.4610 C.ar  1 <1>  -0.1500 
 22 C        4.2910    -7.8760    -0.7950 C.ar  1 <1>  -0.1500 
 23 C        4.1240    -8.0920     0.5600 C.ar  1 <1>  -0.1500 
 24 H        2.2560     2.2130     1.3620 H     1 <1>   0.1500 
 25 H        2.2650     1.2340    -2.7740 H     1 <1>   0.1500 
 26 H        4.5800     1.4390     1.5730 H     1 <1>   0.1500 
 27 H        4.5890     0.4460    -2.6050 H     1 <1>   0.1500 
 28 H        6.7590     1.0850     0.1790 H     1 <1>   0.0800 
 29 H        6.6150     0.2650    -1.3600 H     1 <1>   0.0800 
 30 H        5.6560    -0.8160     1.2000 H     1 <1>   0.4500 
 31 H        8.1310    -1.5030    -0.2750 H     1 <1>   0.0800 
 32 H        8.0630    -0.6800     1.2620 H     1 <1>   0.0800 
 33 H        4.4030    -1.6760    -0.6290 H     1 <1>   0.0800 
 34 H        5.8860    -2.1000    -1.4420 H     1 <1>   0.0800 
 35 H        7.1270    -2.6940     2.3200 H     1 <1>   0.0800 
 36 H        8.5890    -3.1030     1.4670 H     1 <1>   0.0800 
 37 H        4.9800    -4.0830    -0.4390 H     1 <1>   0.0800 
 38 H        4.8530    -3.3290     1.1210 H     1 <1>   0.0800 
 39 H        8.3230    -7.1880    -1.7470 H     1 <1>   0.0800 
 40 H        9.0610    -5.6270    -1.9880 H     1 <1>   0.0800 
 41 H        7.6260    -6.0530    -2.8860 H     1 <1>   0.0800 
 42 H        6.6710    -6.2130     1.7070 H     1 <1>   0.1500 
 43 H        5.4230    -6.9030    -2.3040 H     1 <1>   0.1500 
 44 H        4.8610    -7.6600     2.5170 H     1 <1>   0.1500 
 45 H        3.6240    -8.3470    -1.4980 H     1 <1>   0.1500 
 46 H        3.3300    -8.7290     0.9140 H     1 <1>   0.1500 
@<TRIPOS>BOND
  1   1   2  1   
  2   2   3  ar  
  3   2   4  ar  
  4   3   5  ar  
  5   3  24  1   
  6   4   6  ar  
  7   4  25  1   
  8   5   7  ar  
  9   5  26  1   
 10   6   7  ar  
 11   6  27  1   
 12   7   8  1   
 13   8   9  1   
 14   8  28  1   
 15   8  29  1   
 16   9  10  1   
 17   9  11  1   
 18   9  30  1   
 19  10  12  1   
 20  10  31  1   
 21  10  32  1   
 22  11  13  1   
 23  11  33  1   
 24  11  34  1   
 25  12  14  1   
 26  12  35  1   
 27  12  36  1   
 28  13  14  1   
 29  13  37  1   
 30  13  38  1   
 31  14  15  1   
 32  15  16  2   
 33  16  17  1   
 34  16  18  1   
 35  17  19  ar  
 36  17  20  ar  
 37  18  39  1   
 38  18  40  1   
 39  18  41  1   
 40  19  21  ar  
 41  19  42  1   
 42  20  22  ar  
 43  20  43  1   
 44  21  23  ar  
 45  21  44  1   
 46  22  23  ar  
 47  22  45  1   
 48  23  46  1   
@<TRIPOS>SUBSTRUCTURE
  1 ****  13 GROUP 4 **** **** 0

# MOE 2024.06 (io_trps.svl 2023.06)
