@<TRIPOS>MOLECULE
NONAME
49 50 1 0 0 
SMALL
USER_CHARGES


@<TRIPOS>ATOM
  1 O       -3.5130     2.4000    -0.5410 O.3   1 <1>  -0.5600 
  2 C       -4.2440     1.6020     0.3510 C.3   1 <1>   0.2000 
  3 C       -3.4110     3.7720    -0.2580 C.3   1 <1>   0.2000 
  4 C       -5.7120     2.0990     0.4480 C.3   1 <1>   0.3430 
  5 C       -3.5240     1.5480     1.7040 C.3   1 <1>  -0.2400 
  6 C       -4.7520     4.3500     0.2660 C.3   1 <1>   0.3430 
  7 C       -2.9800     4.4400    -1.5630 C.3   1 <1>  -0.2400 
  8 N       -5.9040     3.4770    -0.1370 N.4   1 <1>  -0.9590 
  9 C       -7.2280     4.0980     0.1890 C.3   1 <1>   0.3430 
 10 C       -8.4050     3.3530    -0.4480 C.3   1 <1>   0.1200 
 11 O       -9.5790     4.0070    -0.0380 O.3   1 <1>  -0.3630 
 12 C      -10.8050     3.5660    -0.4190 C.ar  1 <1>   0.0820 
 13 C      -11.8980     4.2350     0.1040 C.ar  1 <1>  -0.1500 
 14 C      -11.0080     2.4970    -1.2900 C.ar  1 <1>  -0.1500 
 15 C      -13.1880     3.8540    -0.2240 C.ar  1 <1>   0.0820 
 16 C      -12.2960     2.1120    -1.6220 C.ar  1 <1>  -0.1500 
 17 O      -14.1970     4.5660     0.3370 O.3   1 <1>  -0.3630 
 18 C      -13.3850     2.7840    -1.0940 C.ar  1 <1>  -0.1500 
 19 C      -15.5470     4.2640     0.0680 C.3   1 <1>   0.1200 
 20 C      -16.4210     5.2460     0.8490 C.3   1 <1>  -0.1600 
 21 C      -17.9110     4.9810     0.6080 C.3   1 <1>  -0.2400 
 22 H       -4.2480     0.6060    -0.0610 H     1 <1>   0.0800 
 23 H       -2.6370     3.9110     0.4790 H     1 <1>   0.0800 
 24 H       -6.0060     2.0950     1.4850 H     1 <1>   0.0800 
 25 H       -6.3460     1.3960    -0.0660 H     1 <1>   0.0800 
 26 H       -3.5470     2.4930     2.2150 H     1 <1>   0.0800 
 27 H       -2.5010     1.2470     1.5590 H     1 <1>   0.0800 
 28 H       -3.9940     0.8170     2.3380 H     1 <1>   0.0800 
 29 H       -4.8800     5.3490    -0.1160 H     1 <1>   0.0800 
 30 H       -4.7060     4.4150     1.3410 H     1 <1>   0.0800 
 31 H       -3.7160     4.2910    -2.3330 H     1 <1>   0.0800 
 32 H       -2.0430     4.0230    -1.8910 H     1 <1>   0.0800 
 33 H       -2.8400     5.4960    -1.4160 H     1 <1>   0.0800 
 34 H       -5.8030     3.3680    -1.1580 H     1 <1>   0.4500 
 35 H       -7.2440     5.1150    -0.1690 H     1 <1>   0.0800 
 36 H       -7.3650     4.1140     1.2580 H     1 <1>   0.0800 
 37 H       -8.4590     2.3360    -0.1040 H     1 <1>   0.0800 
 38 H       -8.3530     3.3990    -1.5210 H     1 <1>   0.0800 
 39 H      -11.7520     5.0610     0.7740 H     1 <1>   0.1500 
 40 H      -10.1910     1.9540    -1.7220 H     1 <1>   0.1500 
 41 H      -12.4550     1.2870    -2.2950 H     1 <1>   0.1500 
 42 H      -14.3710     2.4630    -1.3690 H     1 <1>   0.1500 
 43 H      -15.7380     3.2530     0.3830 H     1 <1>   0.0800 
 44 H      -15.7130     4.3660    -0.9900 H     1 <1>   0.0800 
 45 H      -16.1840     6.2500     0.5420 H     1 <1>   0.0800 
 46 H      -16.2080     5.1490     1.9000 H     1 <1>   0.0800 
 47 H      -18.1490     5.0890    -0.4360 H     1 <1>   0.0800 
 48 H      -18.5040     5.6840     1.1670 H     1 <1>   0.0800 
 49 H      -18.1730     3.9870     0.9240 H     1 <1>   0.0800 
@<TRIPOS>BOND
  1   1   2  1   
  2   1   3  1   
  3   2   4  1   
  4   2   5  1   
  5   2  22  1   
  6   3   6  1   
  7   3   7  1   
  8   3  23  1   
  9   4   8  1   
 10   4  24  1   
 11   4  25  1   
 12   5  26  1   
 13   5  27  1   
 14   5  28  1   
 15   6   8  1   
 16   6  29  1   
 17   6  30  1   
 18   7  31  1   
 19   7  32  1   
 20   7  33  1   
 21   8   9  1   
 22   8  34  1   
 23   9  10  1   
 24   9  35  1   
 25   9  36  1   
 26  10  11  1   
 27  10  37  1   
 28  10  38  1   
 29  11  12  1   
 30  12  13  ar  
 31  12  14  ar  
 32  13  15  ar  
 33  13  39  1   
 34  14  16  ar  
 35  14  40  1   
 36  15  17  1   
 37  15  18  ar  
 38  16  18  ar  
 39  16  41  1   
 40  17  19  1   
 41  18  42  1   
 42  19  20  1   
 43  19  43  1   
 44  19  44  1   
 45  20  21  1   
 46  20  45  1   
 47  20  46  1   
 48  21  47  1   
 49  21  48  1   
 50  21  49  1   
@<TRIPOS>SUBSTRUCTURE
  1 ****  11 GROUP 4 **** **** 0

# MOE 2024.06 (io_trps.svl 2023.06)
