@<TRIPOS>MOLECULE
NONAME
51 52 1 0 0 
SMALL
USER_CHARGES


@<TRIPOS>ATOM
  1 S       -1.9900     0.0150     0.9840 S.o2  1 <1>   1.3330 
  2 O       -0.6820     0.6100     1.0980 O.2   1 <1>  -0.6500 
  3 O       -3.1070     0.6020     1.6850 O.2   1 <1>  -0.6500 
  4 N       -1.8730    -1.6450     1.4710 N.am  1 <1>  -0.6930 
  5 C       -2.4020    -0.1260    -0.7440 C.3   1 <1>  -0.1350 
  6 C       -0.8320    -2.4380     0.9940 C.ar  1 <1>   0.1990 
  7 C       -3.0340    -2.3380     2.1210 C.3   1 <1>   0.3370 
  8 C       -1.0780    -3.4870     0.1130 C.ar  1 <1>  -0.1500 
  9 C        0.4790    -2.2000     1.3880 C.ar  1 <1>  -0.1500 
 10 C       -4.3220    -2.3860     1.2700 C.2   1 <1>   0.5690 
 11 C       -3.2390    -1.8350     3.5580 C.3   1 <1>  -0.2400 
 12 C       -0.0430    -4.2730    -0.3600 C.ar  1 <1>  -0.1500 
 13 C        1.5160    -2.9840     0.9160 C.ar  1 <1>  -0.1500 
 14 O       -4.6060    -3.4390     0.7470 O.2   1 <1>  -0.5700 
 15 N       -5.0870    -1.2640     1.1020 N.am  1 <1>  -0.5470 
 16 C        1.2610    -4.0250     0.0380 C.ar  1 <1>  -0.1430 
 17 C       -6.2170    -1.0540     0.2870 C.ar  1 <1>   0.1170 
 18 C        2.3990    -4.8870    -0.4780 C.3   1 <1>  -0.0970 
 19 C       -6.3890     0.1820    -0.3460 C.ar  1 <1>   0.0830 
 20 C       -7.1810    -2.0380     0.1060 C.ar  1 <1>  -0.1500 
 21 O       -5.4240     1.1260    -0.1550 O.3   1 <1>  -0.3620 
 22 C       -7.5060     0.4080    -1.1410 C.ar  1 <1>  -0.1500 
 23 C       -8.2920    -1.8110    -0.6870 C.ar  1 <1>  -0.1500 
 24 C       -5.6760     2.4870    -0.4290 C.3   1 <1>   0.0400 
 25 C       -8.4580    -0.5810    -1.3150 C.ar  1 <1>   0.0830 
 26 O       -9.5160    -0.2730    -2.1110 O.3   1 <1>  -0.3620 
 27 C      -10.5280    -1.2210    -2.3690 C.3   1 <1>   0.0400 
 28 H       -2.5290     0.8500    -1.1690 H     1 <1>   0.0800 
 29 H       -3.3140    -0.6730    -0.8750 H     1 <1>   0.0800 
 30 H       -1.6170    -0.6320    -1.2700 H     1 <1>   0.0800 
 31 H       -2.7450    -3.3690     2.2340 H     1 <1>   0.0800 
 32 H       -2.0830    -3.6910    -0.2100 H     1 <1>   0.1500 
 33 H        0.6840    -1.3920     2.0670 H     1 <1>   0.1500 
 34 H       -3.6460    -0.8430     3.5860 H     1 <1>   0.0800 
 35 H       -2.3040    -1.8500     4.0880 H     1 <1>   0.0800 
 36 H       -3.9280    -2.4850     4.0660 H     1 <1>   0.0800 
 37 H       -0.2560    -5.0800    -1.0390 H     1 <1>   0.1500 
 38 H        2.5220    -2.7780     1.2360 H     1 <1>   0.1500 
 39 H       -4.6740    -0.3850     1.4540 H     1 <1>   0.3700 
 40 H        2.1660    -5.2740    -1.4540 H     1 <1>   0.0800 
 41 H        2.5640    -5.7110     0.1920 H     1 <1>   0.0800 
 42 H        3.3040    -4.3110    -0.5490 H     1 <1>   0.0800 
 43 H       -7.0630    -2.9910     0.5890 H     1 <1>   0.1500 
 44 H       -7.6610     1.3420    -1.6450 H     1 <1>   0.1500 
 45 H       -9.0110    -2.6010    -0.8000 H     1 <1>   0.1500 
 46 H       -4.8430     3.0600    -0.0620 H     1 <1>   0.0800 
 47 H       -6.5760     2.7850     0.0800 H     1 <1>   0.0800 
 48 H       -5.7710     2.6190    -1.4920 H     1 <1>   0.0800 
 49 H      -11.2520    -0.7670    -3.0210 H     1 <1>   0.0800 
 50 H      -10.9960    -1.4950    -1.4400 H     1 <1>   0.0800 
 51 H      -10.0900    -2.0780    -2.8490 H     1 <1>   0.0800 
@<TRIPOS>BOND
  1   1   2  2   
  2   1   3  2   
  3   1   4  am  
  4   1   5  1   
  5   4   6  1   
  6   4   7  1   
  7   5  28  1   
  8   5  29  1   
  9   5  30  1   
 10   6   8  ar  
 11   6   9  ar  
 12   7  10  1   
 13   7  11  1   
 14   7  31  1   
 15   8  12  ar  
 16   8  32  1   
 17   9  13  ar  
 18   9  33  1   
 19  10  14  2   
 20  10  15  am  
 21  11  34  1   
 22  11  35  1   
 23  11  36  1   
 24  12  16  ar  
 25  12  37  1   
 26  13  16  ar  
 27  13  38  1   
 28  15  17  1   
 29  15  39  1   
 30  16  18  1   
 31  17  19  ar  
 32  17  20  ar  
 33  18  40  1   
 34  18  41  1   
 35  18  42  1   
 36  19  21  1   
 37  19  22  ar  
 38  20  23  ar  
 39  20  43  1   
 40  21  24  1   
 41  22  25  ar  
 42  22  44  1   
 43  23  25  ar  
 44  23  45  1   
 45  24  46  1   
 46  24  47  1   
 47  24  48  1   
 48  25  26  1   
 49  26  27  1   
 50  27  49  1   
 51  27  50  1   
 52  27  51  1   
@<TRIPOS>SUBSTRUCTURE
  1 ****  10 GROUP 4 **** **** 0

# MOE 2024.06 (io_trps.svl 2023.06)
