@<TRIPOS>MOLECULE
NONAME
44 45 1 0 0 
SMALL
USER_CHARGES


@<TRIPOS>ATOM
  1 O       -0.1110    -0.0430    -0.7240 O.2   1 <1>  -0.5700 
  2 C        0.6310     0.9060    -0.7810 C.2   1 <1>   0.5690 
  3 N        1.9610     0.8540    -0.4950 N.am  1 <1>  -0.5470 
  4 C        0.0630     2.2520    -1.1920 C.3   1 <1>  -0.0990 
  5 C        2.8240    -0.1600    -0.0530 C.ar  1 <1>   0.1170 
  6 C        0.1170     3.2870    -0.0550 C.3   1 <1>  -0.1600 
  7 C        4.1110     0.2440     0.3300 C.ar  1 <1>   0.1000 
  8 C        2.4750    -1.5010     0.0160 C.ar  1 <1>  -0.1500 
  9 C       -0.4740     4.6290    -0.4950 C.3   1 <1>  -0.2400 
 10 N        4.4690     1.6040     0.2640 N.pl3 1 <1>  -0.8380 
 11 C        5.0130    -0.7130     0.7810 C.ar  1 <1>  -0.1500 
 12 C        3.3860    -2.4430     0.4640 C.ar  1 <1>  -0.1500 
 13 C        5.6240     1.9360    -0.6250 C.3   1 <1>   0.2090 
 14 C        4.5650     2.2950     1.5870 C.3   1 <1>   0.2090 
 15 C        4.6560    -2.0480     0.8470 C.ar  1 <1>  -0.1500 
 16 C        5.7460     3.4580    -0.8280 C.3   1 <1>   0.1400 
 17 C        4.6730     3.8180     1.4070 C.3   1 <1>   0.1400 
 18 N        5.7990     4.1800     0.4850 N.am  1 <1>  -0.6600 
 19 C        6.7790     5.0530     0.8760 C.2   1 <1>   0.5690 
 20 O        6.7880     5.5540     1.9740 O.2   1 <1>  -0.5700 
 21 C        7.9010     5.4250    -0.0640 C.3   1 <1>  -0.1790 
 22 H        2.4730     1.7390    -0.5190 H     1 <1>   0.3700 
 23 H       -0.9590     2.1090    -1.4970 H     1 <1>   0.0800 
 24 H        0.6130     2.6090    -2.0430 H     1 <1>   0.0800 
 25 H        1.1360     3.4350     0.2590 H     1 <1>   0.0800 
 26 H       -0.4380     2.9130     0.7900 H     1 <1>   0.0800 
 27 H        1.4920    -1.8180    -0.2800 H     1 <1>   0.1500 
 28 H        0.0780     5.0310    -1.3270 H     1 <1>   0.0800 
 29 H       -0.4300     5.3350     0.3170 H     1 <1>   0.0800 
 30 H       -1.5030     4.5100    -0.7860 H     1 <1>   0.0800 
 31 H        5.9970    -0.4110     1.0840 H     1 <1>   0.1500 
 32 H        3.1030    -3.4800     0.5130 H     1 <1>   0.1500 
 33 H        5.4870     1.4560    -1.5780 H     1 <1>   0.0800 
 34 H        6.5350     1.5640    -0.1900 H     1 <1>   0.0800 
 35 H        5.4290     1.9390     2.1210 H     1 <1>   0.0800 
 36 H        3.6920     2.0650     2.1730 H     1 <1>   0.0800 
 37 H        5.3630    -2.7790     1.1970 H     1 <1>   0.1500 
 38 H        4.8900     3.8030    -1.3810 H     1 <1>   0.0800 
 39 H        6.6210     3.6590    -1.4170 H     1 <1>   0.0800 
 40 H        4.8110     4.2740     2.3720 H     1 <1>   0.0800 
 41 H        3.7520     4.1900     0.9980 H     1 <1>   0.0800 
 42 H        8.4970     4.5600    -0.2820 H     1 <1>   0.0800 
 43 H        8.5270     6.1660     0.3970 H     1 <1>   0.0800 
 44 H        7.4980     5.8350    -0.9710 H     1 <1>   0.0800 
@<TRIPOS>BOND
  1   1   2  2   
  2   2   3  am  
  3   2   4  1   
  4   3   5  1   
  5   3  22  1   
  6   4   6  1   
  7   4  23  1   
  8   4  24  1   
  9   5   7  ar  
 10   5   8  ar  
 11   6   9  1   
 12   6  25  1   
 13   6  26  1   
 14   7  10  1   
 15   7  11  ar  
 16   8  12  ar  
 17   8  27  1   
 18   9  28  1   
 19   9  29  1   
 20   9  30  1   
 21  10  13  1   
 22  10  14  1   
 23  11  15  ar  
 24  11  31  1   
 25  12  15  ar  
 26  12  32  1   
 27  13  16  1   
 28  13  33  1   
 29  13  34  1   
 30  14  17  1   
 31  14  35  1   
 32  14  36  1   
 33  15  37  1   
 34  16  18  1   
 35  16  38  1   
 36  16  39  1   
 37  17  18  1   
 38  17  40  1   
 39  17  41  1   
 40  18  19  am  
 41  19  20  2   
 42  19  21  1   
 43  21  42  1   
 44  21  43  1   
 45  21  44  1   
@<TRIPOS>SUBSTRUCTURE
  1 ****  10 GROUP 4 **** **** 0

# MOE 2024.06 (io_trps.svl 2023.06)
