@<TRIPOS>MOLECULE
NONAME
27 28 1 0 0 
SMALL
USER_CHARGES


@<TRIPOS>ATOM
  1 I       -0.5680    -0.2160     0.1930 I     1 <1>  -0.0810 
  2 C        1.3670    -1.0280    -0.1420 C.ar  1 <1>   0.0810 
  3 C        2.0250    -1.6360     0.9100 C.ar  1 <1>  -0.1500 
  4 C        1.9210    -0.9310    -1.4040 C.ar  1 <1>  -0.1500 
  5 C        3.2860    -2.1580     0.6820 C.ar  1 <1>  -0.1500 
  6 C        3.1830    -1.4600    -1.6090 C.ar  1 <1>  -0.1500 
  7 C        3.8950    -2.0740    -0.5740 C.ar  1 <1>   0.0860 
  8 C        5.2220    -2.6110    -0.8090 C.2   1 <1>   0.5440 
  9 O        5.4100    -3.3320    -1.7700 O.2   1 <1>  -0.5700 
 10 N        6.2850    -2.3180     0.0210 N.am  1 <1>  -0.6600 
 11 C        7.5910    -3.0390    -0.0760 C.3   1 <1>   0.1400 
 12 C        6.3460    -1.1150     0.9050 C.3   1 <1>   0.1400 
 13 C        8.7320    -2.0550    -0.3750 C.3   1 <1>   0.1200 
 14 C        7.5670    -0.2460     0.5550 C.3   1 <1>   0.1200 
 15 O        8.7380    -1.0100     0.5570 O.3   1 <1>  -0.5600 
 16 H        1.5640    -1.7030     1.8800 H     1 <1>   0.1500 
 17 H        1.3820    -0.4590    -2.2060 H     1 <1>   0.1500 
 18 H        3.8140    -2.6460     1.4840 H     1 <1>   0.1500 
 19 H        3.6350    -1.4060    -2.5850 H     1 <1>   0.1500 
 20 H        7.5580    -3.7900    -0.8460 H     1 <1>   0.0800 
 21 H        7.7890    -3.5360     0.8570 H     1 <1>   0.0800 
 22 H        6.4220    -1.4330     1.9310 H     1 <1>   0.0800 
 23 H        5.4580    -0.5190     0.8030 H     1 <1>   0.0800 
 24 H        8.6240    -1.6410    -1.3620 H     1 <1>   0.0800 
 25 H        9.6810    -2.5580    -0.3130 H     1 <1>   0.0800 
 26 H        7.6850     0.5390     1.2810 H     1 <1>   0.0800 
 27 H        7.4470     0.1980    -0.4180 H     1 <1>   0.0800 
@<TRIPOS>BOND
  1   1   2  1   
  2   2   3  ar  
  3   2   4  ar  
  4   3   5  ar  
  5   3  16  1   
  6   4   6  ar  
  7   4  17  1   
  8   5   7  ar  
  9   5  18  1   
 10   6   7  ar  
 11   6  19  1   
 12   7   8  1   
 13   8   9  2   
 14   8  10  am  
 15  10  11  1   
 16  10  12  1   
 17  11  13  1   
 18  11  20  1   
 19  11  21  1   
 20  12  14  1   
 21  12  22  1   
 22  12  23  1   
 23  13  15  1   
 24  13  24  1   
 25  13  25  1   
 26  14  15  1   
 27  14  26  1   
 28  14  27  1   
@<TRIPOS>SUBSTRUCTURE
  1 ****   7 GROUP 4 **** **** 0

# MOE 2024.06 (io_trps.svl 2023.06)
