@<TRIPOS>MOLECULE
NONAME
48 49 1 0 0 
SMALL
USER_CHARGES


@<TRIPOS>ATOM
  1 S       -0.2400    -0.2430     0.2160 S.o2  1 <1>   1.4470 
  2 O       -0.6820    -1.2120    -0.7600 O.2   1 <1>  -0.6500 
  3 O       -0.5030    -0.4560     1.6210 O.2   1 <1>  -0.6500 
  4 N       -1.0470     1.1570    -0.2330 N.am  1 <1>  -0.9140 
  5 C        1.5050     0.1700    -0.0500 C.ar  1 <1>  -0.0090 
  6 C       -2.3830     1.2380     0.3230 C.3   1 <1>   0.1960 
  7 C        2.3330    -0.6440    -0.8150 C.ar  1 <1>  -0.1500 
  8 C        2.0670     1.3110     0.5110 C.ar  1 <1>  -0.1500 
  9 C       -3.0800     2.4680    -0.2580 C.3   1 <1>  -0.1600 
 10 C        3.6660    -0.3290    -1.0140 C.ar  1 <1>  -0.1500 
 11 C        3.3990     1.6300     0.3130 C.ar  1 <1>  -0.1500 
 12 C       -4.4990     2.6200     0.3000 C.3   1 <1>  -0.2400 
 13 C        4.2230     0.8120    -0.4520 C.ar  1 <1>   0.1170 
 14 N        5.5740     1.0960    -0.6930 N.am  1 <1>  -0.5470 
 15 C        6.4700     1.8460     0.0120 C.2   1 <1>   0.6900 
 16 O        6.1970     2.3310     1.0920 O.2   1 <1>  -0.5700 
 17 N        7.6970     2.0250    -0.5340 N.am  1 <1>  -0.7300 
 18 C        8.7940     2.7830     0.0910 C.3   1 <1>   0.2200 
 19 C        9.0130     4.0790    -0.6970 C.3   1 <1>  -0.1600 
 20 C       10.0560     1.9140     0.0960 C.3   1 <1>  -0.1600 
 21 C       10.2180     4.8610    -0.1550 C.3   1 <1>  -0.1600 
 22 C       11.2630     2.6920     0.6390 C.3   1 <1>  -0.1600 
 23 C       11.4840     3.9930    -0.1460 C.3   1 <1>  -0.1600 
 24 H       -1.1520     1.0540    -1.2400 H     1 <1>   0.4200 
 25 H       -2.3260     1.3240     1.3960 H     1 <1>   0.0800 
 26 H       -2.9400     0.3460     0.0780 H     1 <1>   0.0800 
 27 H        1.9270    -1.5370    -1.2610 H     1 <1>   0.1500 
 28 H        1.4510     1.9590     1.1130 H     1 <1>   0.1500 
 29 H       -3.1320     2.3820    -1.3290 H     1 <1>   0.0800 
 30 H       -2.5090     3.3460    -0.0100 H     1 <1>   0.0800 
 31 H        4.2780    -0.9820    -1.6100 H     1 <1>   0.1500 
 32 H        3.7950     2.5240     0.7590 H     1 <1>   0.1500 
 33 H       -5.0980     1.7610     0.0520 H     1 <1>   0.0800 
 34 H       -4.9670     3.4940    -0.1190 H     1 <1>   0.0800 
 35 H       -4.4740     2.7290     1.3710 H     1 <1>   0.0800 
 36 H        5.9950     0.5810    -1.4560 H     1 <1>   0.3700 
 37 H        7.8700     1.7450    -1.4940 H     1 <1>   0.3700 
 38 H        8.5360     3.0300     1.1090 H     1 <1>   0.0800 
 39 H        8.1310     4.6910    -0.6220 H     1 <1>   0.0800 
 40 H        9.1830     3.8480    -1.7340 H     1 <1>   0.0800 
 41 H       10.2730     1.5870    -0.9060 H     1 <1>   0.0800 
 42 H        9.8870     1.0480     0.7110 H     1 <1>   0.0800 
 43 H       10.0060     5.1900     0.8480 H     1 <1>   0.0800 
 44 H       10.3840     5.7350    -0.7610 H     1 <1>   0.0800 
 45 H       12.1460     2.0790     0.5780 H     1 <1>   0.0800 
 46 H       11.0960     2.9270     1.6770 H     1 <1>   0.0800 
 47 H       12.2960     4.5450     0.2950 H     1 <1>   0.0800 
 48 H       11.7610     3.7550    -1.1590 H     1 <1>   0.0800 
@<TRIPOS>BOND
  1   1   2  2   
  2   1   3  2   
  3   1   4  am  
  4   1   5  1   
  5   4   6  1   
  6   4  24  1   
  7   5   7  ar  
  8   5   8  ar  
  9   6   9  1   
 10   6  25  1   
 11   6  26  1   
 12   7  10  ar  
 13   7  27  1   
 14   8  11  ar  
 15   8  28  1   
 16   9  12  1   
 17   9  29  1   
 18   9  30  1   
 19  10  13  ar  
 20  10  31  1   
 21  11  13  ar  
 22  11  32  1   
 23  12  33  1   
 24  12  34  1   
 25  12  35  1   
 26  13  14  1   
 27  14  15  am  
 28  14  36  1   
 29  15  16  2   
 30  15  17  am  
 31  17  18  1   
 32  17  37  1   
 33  18  19  1   
 34  18  20  1   
 35  18  38  1   
 36  19  21  1   
 37  19  39  1   
 38  19  40  1   
 39  20  22  1   
 40  20  41  1   
 41  20  42  1   
 42  21  23  1   
 43  21  43  1   
 44  21  44  1   
 45  22  23  1   
 46  22  45  1   
 47  22  46  1   
 48  23  47  1   
 49  23  48  1   
@<TRIPOS>SUBSTRUCTURE
  1 ****  11 GROUP 4 **** **** 0

# MOE 2024.06 (io_trps.svl 2023.06)
