@<TRIPOS>MOLECULE
NONAME
59 62 1 0 0 
SMALL
USER_CHARGES


@<TRIPOS>ATOM
  1 O       -0.1890    -0.1060    -0.8180 O.2   1 <1>  -0.5700 
  2 C       -0.9170    -0.5380     0.0290 C.2   1 <1>   0.4480 
  3 C       -1.2720    -2.0430     0.1490 C.3   1 <1>   0.3410 
  4 C       -1.5050     0.4240     1.0470 C.3   1 <1>  -0.1790 
  5 O       -0.8920    -2.4860     1.4230 O.3   1 <1>  -0.6800 
  6 C       -2.7710    -2.4000    -0.0920 C.3   1 <1>   0.0000 
  7 C       -0.5320    -2.9430    -0.8880 C.3   1 <1>  -0.0800 
  8 C       -2.7000    -3.9210    -0.3100 C.3   1 <1>  -0.0800 
  9 C       -3.7570    -2.1660     1.0760 C.3   1 <1>  -0.0220 
 10 C       -3.3140    -1.6610    -1.3520 C.3   1 <1>  -0.2400 
 11 C       -1.4390    -4.1650    -1.1470 C.3   1 <1>  -0.1600 
 12 C        0.9150    -3.3460    -0.5430 C.3   1 <1>  -0.2400 
 13 C       -4.0240    -4.5470    -0.7950 C.3   1 <1>   0.0580 
 14 C       -5.0500    -2.9530     0.8640 C.2   1 <1>  -0.2880 
 15 C       -5.2070    -4.0070     0.0390 C.2   1 <1>  -0.2760 
 16 C       -3.9220    -6.0780    -0.7290 C.3   1 <1>  -0.1600 
 17 C       -6.5550    -4.7300    -0.2070 C.3   1 <1>   0.1380 
 18 C       -5.2290    -6.7440    -1.1520 C.3   1 <1>  -0.1600 
 19 C       -6.3760    -6.2740    -0.2490 C.3   1 <1>  -0.0800 
 20 C       -7.5880    -4.4170     0.9180 C.3   1 <1>  -0.1600 
 21 C       -7.0820    -4.1670    -1.5460 C.3   1 <1>  -0.2400 
 22 C       -7.6780    -7.0260    -0.6120 C.3   1 <1>  -0.1600 
 23 C       -8.6500    -5.5070     1.1970 C.3   1 <1>  -0.1600 
 24 C       -8.9440    -6.3900    -0.0150 C.3   1 <1>   0.2000 
 25 O       -9.7910    -7.4010     0.3880 O.3   1 <1>  -0.6800 
 26 H       -2.5180     0.6610     0.7860 H     1 <1>   0.0800 
 27 H       -0.9330     1.3330     1.0510 H     1 <1>   0.0800 
 28 H       -1.4780    -0.0030     2.0320 H     1 <1>   0.0800 
 29 H        0.0760    -2.6080     1.4260 H     1 <1>   0.4000 
 30 H       -0.4900    -2.3980    -1.8160 H     1 <1>   0.0800 
 31 H       -2.5030    -4.3580     0.6560 H     1 <1>   0.0800 
 32 H       -3.9920    -1.1200     1.1500 H     1 <1>   0.0800 
 33 H       -3.3330    -2.4750     2.0150 H     1 <1>   0.0800 
 34 H       -4.3330    -1.9330    -1.5580 H     1 <1>   0.0800 
 35 H       -3.3010    -0.5960    -1.2090 H     1 <1>   0.0800 
 36 H       -2.7340    -1.8860    -2.2280 H     1 <1>   0.0800 
 37 H       -0.9700    -5.0870    -0.8500 H     1 <1>   0.0800 
 38 H       -1.6830    -4.2210    -2.1940 H     1 <1>   0.0800 
 39 H        0.9490    -3.9930     0.3160 H     1 <1>   0.0800 
 40 H        1.5100    -2.4700    -0.3540 H     1 <1>   0.0800 
 41 H        1.3510    -3.8720    -1.3740 H     1 <1>   0.0800 
 42 H       -4.1790    -4.2710    -1.8230 H     1 <1>   0.0800 
 43 H       -5.8430    -2.5390     1.4580 H     1 <1>   0.1500 
 44 H       -3.6850    -6.3760     0.2780 H     1 <1>   0.0800 
 45 H       -3.1300    -6.4200    -1.3710 H     1 <1>   0.0800 
 46 H       -5.1220    -7.8120    -1.0700 H     1 <1>   0.0800 
 47 H       -5.4390    -6.5140    -2.1820 H     1 <1>   0.0800 
 48 H       -6.1120    -6.5720     0.7530 H     1 <1>   0.0800 
 49 H       -8.0750    -3.4820     0.7050 H     1 <1>   0.0800 
 50 H       -7.0630    -4.2940     1.8480 H     1 <1>   0.0800 
 51 H       -8.0680    -4.5130    -1.7780 H     1 <1>   0.0800 
 52 H       -7.1140    -3.0940    -1.4970 H     1 <1>   0.0800 
 53 H       -6.4370    -4.4370    -2.3600 H     1 <1>   0.0800 
 54 H       -7.5830    -8.0420    -0.2700 H     1 <1>   0.0800 
 55 H       -7.7960    -7.0520    -1.6800 H     1 <1>   0.0800 
 56 H       -9.5530    -5.0390     1.5430 H     1 <1>   0.0800 
 57 H       -8.2790    -6.1400     1.9840 H     1 <1>   0.0800 
 58 H       -9.4620    -5.8180    -0.7660 H     1 <1>   0.0800 
 59 H      -10.5920    -7.0240     0.7970 H     1 <1>   0.4000 
@<TRIPOS>BOND
  1   1   2  2   
  2   2   3  1   
  3   2   4  1   
  4   3   5  1   
  5   3   6  1   
  6   3   7  1   
  7   4  26  1   
  8   4  27  1   
  9   4  28  1   
 10   5  29  1   
 11   6   8  1   
 12   6   9  1   
 13   6  10  1   
 14   7  11  1   
 15   7  12  1   
 16   7  30  1   
 17   8  11  1   
 18   8  13  1   
 19   8  31  1   
 20   9  14  1   
 21   9  32  1   
 22   9  33  1   
 23  10  34  1   
 24  10  35  1   
 25  10  36  1   
 26  11  37  1   
 27  11  38  1   
 28  12  39  1   
 29  12  40  1   
 30  12  41  1   
 31  13  15  1   
 32  13  16  1   
 33  13  42  1   
 34  14  15  2   
 35  14  43  1   
 36  15  17  1   
 37  16  18  1   
 38  16  44  1   
 39  16  45  1   
 40  17  19  1   
 41  17  20  1   
 42  17  21  1   
 43  18  19  1   
 44  18  46  1   
 45  18  47  1   
 46  19  22  1   
 47  19  48  1   
 48  20  23  1   
 49  20  49  1   
 50  20  50  1   
 51  21  51  1   
 52  21  52  1   
 53  21  53  1   
 54  22  24  1   
 55  22  54  1   
 56  22  55  1   
 57  23  24  1   
 58  23  56  1   
 59  23  57  1   
 60  24  25  1   
 61  24  58  1   
 62  25  59  1   
@<TRIPOS>SUBSTRUCTURE
  1 ****  13 GROUP 4 **** **** 0

# MOE 2024.06 (io_trps.svl 2023.06)
