@<TRIPOS>MOLECULE
NONAME
44 45 1 0 0 
SMALL
USER_CHARGES


@<TRIPOS>ATOM
  1 S        0.6550     0.8580    -0.8730 S.3   1 <1>  -0.3320 
  2 C       -0.9730     1.3240    -0.3420 C.ar  1 <1>   0.7720 
  3 C        0.7590    -0.9760    -0.6280 C.3   1 <1>  -0.0100 
  4 N       -1.7220     0.3600     0.1310 N.ar  1 <1>  -0.6200 
  5 N       -1.3300     2.6150    -0.4290 N.ar  1 <1>  -0.1150 
  6 C       -2.9320     0.6920     0.5480 C.ar  1 <1>   0.1670 
  7 C       -0.4610     3.5250    -1.0170 C.2   1 <1>   0.9020 
  8 C       -2.5640     2.9840    -0.0110 C.ar  1 <1>   0.3610 
  9 C       -3.4030     2.0000     0.4870 C.ar  1 <1>  -0.1440 
 10 C       -3.7390    -0.4780     1.0940 C.3   1 <1>  -0.0960 
 11 O       -0.4980     3.7340    -2.1940 O.2   1 <1>  -0.5700 
 12 C        0.5120     4.2800    -0.1370 C.3   1 <1>  -0.1790 
 13 C       -2.9530     4.3710    -0.0770 C.ar  1 <1>   0.0000 
 14 C       -4.7970     2.4160     0.9510 C.3   1 <1>   0.6240 
 15 C       -2.9860     5.1540     1.0780 C.ar  1 <1>  -0.1500 
 16 C       -3.3100     4.9680    -1.2860 C.ar  1 <1>  -0.1500 
 17 O       -4.8480     2.3310     2.3070 O.3   1 <1>  -0.6800 
 18 O       -5.7540     1.5330     0.4990 O.3   1 <1>  -0.5600 
 19 C       -3.3500     6.4850     1.0240 C.ar  1 <1>  -0.1500 
 20 C       -3.6730     6.3000    -1.3400 C.ar  1 <1>  -0.1500 
 21 C       -7.0160     2.0730     0.2550 C.3   1 <1>   0.1200 
 22 C       -3.6930     7.0610    -0.1860 C.ar  1 <1>  -0.1500 
 23 C       -7.0200     2.7380    -1.1210 C.3   1 <1>  -0.2400 
 24 H        0.6130    -1.1860     0.4170 H     1 <1>   0.0800 
 25 H        1.7340    -1.2980    -0.9500 H     1 <1>   0.0800 
 26 H       -0.0100    -1.4390    -1.2220 H     1 <1>   0.0800 
 27 H       -3.0950    -1.3020     1.3430 H     1 <1>   0.0800 
 28 H       -4.4430    -0.8130     0.3530 H     1 <1>   0.0800 
 29 H       -4.2730    -0.2020     1.9830 H     1 <1>   0.0800 
 30 H        1.0230     3.6100     0.5290 H     1 <1>   0.0800 
 31 H       -0.0100     5.0250     0.4340 H     1 <1>   0.0800 
 32 H        1.2430     4.7730    -0.7530 H     1 <1>   0.0800 
 33 H       -5.0670     3.4160     0.6560 H     1 <1>   0.0800 
 34 H       -2.7330     4.7250     2.0350 H     1 <1>   0.1500 
 35 H       -3.3040     4.3970    -2.2010 H     1 <1>   0.1500 
 36 H       -5.7500     2.0400     2.5340 H     1 <1>   0.4000 
 37 H       -3.3720     7.0810     1.9220 H     1 <1>   0.1500 
 38 H       -3.9430     6.7520    -2.2810 H     1 <1>   0.1500 
 39 H       -7.2800     2.7680     1.0360 H     1 <1>   0.0800 
 40 H       -7.7210     1.2580     0.2650 H     1 <1>   0.0800 
 41 H       -3.9770     8.1000    -0.2290 H     1 <1>   0.1500 
 42 H       -6.3720     3.5940    -1.1500 H     1 <1>   0.0800 
 43 H       -8.0170     3.0700    -1.3520 H     1 <1>   0.0800 
 44 H       -6.7220     2.0300    -1.8750 H     1 <1>   0.0800 
@<TRIPOS>BOND
  1   1   2  1   
  2   1   3  1   
  3   2   4  ar  
  4   2   5  ar  
  5   3  24  1   
  6   3  25  1   
  7   3  26  1   
  8   4   6  ar  
  9   5   7  1   
 10   5   8  ar  
 11   6   9  ar  
 12   6  10  1   
 13   7  11  2   
 14   7  12  1   
 15   8   9  ar  
 16   8  13  1   
 17   9  14  1   
 18  10  27  1   
 19  10  28  1   
 20  10  29  1   
 21  12  30  1   
 22  12  31  1   
 23  12  32  1   
 24  13  15  ar  
 25  13  16  ar  
 26  14  17  1   
 27  14  18  1   
 28  14  33  1   
 29  15  19  ar  
 30  15  34  1   
 31  16  20  ar  
 32  16  35  1   
 33  17  36  1   
 34  18  21  1   
 35  19  22  ar  
 36  19  37  1   
 37  20  22  ar  
 38  20  38  1   
 39  21  23  1   
 40  21  39  1   
 41  21  40  1   
 42  22  41  1   
 43  23  42  1   
 44  23  43  1   
 45  23  44  1   
@<TRIPOS>SUBSTRUCTURE
  1 ****   8 GROUP 4 **** **** 0

# MOE 2024.06 (io_trps.svl 2023.06)
