@<TRIPOS>MOLECULE
NONAME
42 44 1 0 0 
SMALL
USER_CHARGES


@<TRIPOS>ATOM
  1 S        0.0120     1.3460    -1.1420 S.o2  1 <1>   1.4470 
  2 O       -0.4080     2.4540    -1.9710 O.2   1 <1>  -0.6500 
  3 O        1.0720     0.4730    -1.5870 O.2   1 <1>  -0.6500 
  4 N        0.5780     2.0220     0.3040 N.am  1 <1>  -0.8490 
  5 C       -1.4150     0.3530    -0.6210 C.ar  1 <1>  -0.0090 
  6 C        1.7210     2.9490     0.0950 C.3   1 <1>   0.3370 
  7 C       -0.4480     2.8080     0.9810 C.3   1 <1>   0.1960 
  8 C       -2.7050     0.6680    -1.0370 C.ar  1 <1>  -0.1500 
  9 C       -1.2520    -0.7390     0.2230 C.ar  1 <1>  -0.1500 
 10 C        3.1380     2.3280    -0.0120 C.2   1 <1>   0.5690 
 11 C        1.6500     3.9250     1.2820 C.3   1 <1>  -0.1600 
 12 C        0.3160     3.6640     1.9700 C.3   1 <1>  -0.1600 
 13 C       -3.7940    -0.0790    -0.6220 C.ar  1 <1>  -0.1500 
 14 C       -2.3360    -1.4910     0.6420 C.ar  1 <1>  -0.1500 
 15 O        4.0800     3.0790    -0.0990 O.2   1 <1>  -0.5700 
 16 N        3.2850     0.9690     0.0100 N.am  1 <1>  -0.4940 
 17 C       -3.6100    -1.1600     0.2190 C.ar  1 <1>  -0.1500 
 18 C        4.3870     0.1550     0.1480 C.2   1 <1>   0.4420 
 19 S        5.9630     0.7960     0.5000 S.3   1 <1>  -0.0800 
 20 N        4.3940    -1.1250     0.0650 N.2   1 <1>  -0.3380 
 21 C        6.5440    -0.8330     0.4950 C.2   1 <1>   0.1980 
 22 N        5.6280    -1.6830     0.2630 N.2   1 <1>  -0.3380 
 23 C        8.0190    -1.0720     0.7620 C.3   1 <1>   0.0200 
 24 C        8.8940    -0.6310    -0.4170 C.3   1 <1>  -0.2400 
 25 H        1.5530     3.5190    -0.8030 H     1 <1>   0.0800 
 26 H       -1.1640     2.1740     1.4770 H     1 <1>   0.0800 
 27 H       -0.9600     3.4480     0.2790 H     1 <1>   0.0800 
 28 H       -2.8620     1.5070    -1.6950 H     1 <1>   0.1500 
 29 H       -0.2630    -1.0070     0.5570 H     1 <1>   0.1500 
 30 H        1.7140     4.9350     0.9180 H     1 <1>   0.0800 
 31 H        2.4610     3.7640     1.9720 H     1 <1>   0.0800 
 32 H        0.4700     3.1030     2.8760 H     1 <1>   0.0800 
 33 H       -0.2130     4.5720     2.2030 H     1 <1>   0.0800 
 34 H       -4.7850     0.1790    -0.9560 H     1 <1>   0.1500 
 35 H       -2.1870    -2.3350     1.2950 H     1 <1>   0.1500 
 36 H        2.4290     0.4540    -0.2170 H     1 <1>   0.3700 
 37 H       -4.4550    -1.7440     0.5430 H     1 <1>   0.1500 
 38 H        8.1680    -2.1220     0.9420 H     1 <1>   0.0800 
 39 H        8.3060    -0.5390     1.6510 H     1 <1>   0.0800 
 40 H        8.6050    -1.1610    -1.3090 H     1 <1>   0.0800 
 41 H        9.9280    -0.8430    -0.2100 H     1 <1>   0.0800 
 42 H        8.7860     0.4250    -0.5930 H     1 <1>   0.0800 
@<TRIPOS>BOND
  1   1   2  2   
  2   1   3  2   
  3   1   4  am  
  4   1   5  1   
  5   4   6  1   
  6   4   7  1   
  7   5   8  ar  
  8   5   9  ar  
  9   6  10  1   
 10   6  11  1   
 11   6  25  1   
 12   7  12  1   
 13   7  26  1   
 14   7  27  1   
 15   8  13  ar  
 16   8  28  1   
 17   9  14  ar  
 18   9  29  1   
 19  10  15  2   
 20  10  16  am  
 21  11  12  1   
 22  11  30  1   
 23  11  31  1   
 24  12  32  1   
 25  12  33  1   
 26  13  17  ar  
 27  13  34  1   
 28  14  17  ar  
 29  14  35  1   
 30  16  18  1   
 31  16  36  1   
 32  17  37  1   
 33  18  19  1   
 34  18  20  2   
 35  19  21  1   
 36  20  22  1   
 37  21  22  2   
 38  21  23  1   
 39  23  24  1   
 40  23  38  1   
 41  23  39  1   
 42  24  40  1   
 43  24  41  1   
 44  24  42  1   
@<TRIPOS>SUBSTRUCTURE
  1 ****  16 GROUP 4 **** **** 0

# MOE 2024.06 (io_trps.svl 2023.06)
