@<TRIPOS>MOLECULE
NONAME
42 43 1 0 0 
SMALL
USER_CHARGES


@<TRIPOS>ATOM
  1 O       -0.2180    -0.3490     1.5390 O.2   1 <1>  -0.5700 
  2 C       -0.6930    -1.0770     0.7010 C.2   1 <1>   0.5690 
  3 N       -1.8740    -0.7950     0.1010 N.am  1 <1>  -0.7300 
  4 C        0.0550    -2.3500     0.3120 C.3   1 <1>  -0.0190 
  5 C       -2.7450     0.3260     0.4540 C.3   1 <1>   0.3640 
  6 C        0.4370    -2.4360    -1.1680 C.3   1 <1>  -0.1600 
  7 C       -0.7220    -3.6460     0.5600 C.3   1 <1>  -0.1600 
  8 C       -4.1910    -0.1210     0.2640 C.ar  1 <1>  -0.1440 
  9 C       -2.3900     1.5250    -0.4200 C.3   1 <1>  -0.2400 
 10 C        0.7120    -3.9200    -1.4170 C.3   1 <1>  -0.1600 
 11 C       -0.0560    -4.6920    -0.3360 C.3   1 <1>  -0.1600 
 12 C       -5.0320    -0.2110     1.3650 C.ar  1 <1>  -0.1500 
 13 C       -4.6890    -0.4530    -0.9900 C.ar  1 <1>  -0.1500 
 14 C       -6.3470    -0.6190     1.2210 C.ar  1 <1>  -0.1500 
 15 C       -6.0030    -0.8620    -1.1370 C.ar  1 <1>  -0.1500 
 16 C       -6.8410    -0.9480    -0.0380 C.ar  1 <1>   0.0820 
 17 O       -8.1130    -1.3560    -0.2700 O.3   1 <1>  -0.3620 
 18 C       -9.0510    -1.4640     0.7750 C.3   1 <1>   0.1200 
 19 C      -10.3720    -1.9380     0.1770 C.3   1 <1>  -0.2400 
 20 H       -2.2920    -1.4630    -0.5430 H     1 <1>   0.3700 
 21 H        0.9620    -2.3920     0.8910 H     1 <1>   0.0800 
 22 H       -2.5800     0.5890     1.4870 H     1 <1>   0.0800 
 23 H        1.2930    -1.8230    -1.3930 H     1 <1>   0.0800 
 24 H       -0.3890    -2.1230    -1.7820 H     1 <1>   0.0800 
 25 H       -1.7480    -3.5260     0.2580 H     1 <1>   0.0800 
 26 H       -0.6960    -3.9290     1.5980 H     1 <1>   0.0800 
 27 H       -2.4650     1.2820    -1.4640 H     1 <1>   0.0800 
 28 H       -1.3870     1.8450    -0.2030 H     1 <1>   0.0800 
 29 H       -3.0600     2.3370    -0.2050 H     1 <1>   0.0800 
 30 H        1.7660    -4.1150    -1.3140 H     1 <1>   0.0800 
 31 H        0.4020    -4.2100    -2.4060 H     1 <1>   0.0800 
 32 H       -0.7930    -5.3460    -0.7710 H     1 <1>   0.0800 
 33 H        0.6330    -5.2850     0.2410 H     1 <1>   0.0800 
 34 H       -4.6640     0.0370     2.3460 H     1 <1>   0.1500 
 35 H       -4.0610    -0.3950    -1.8600 H     1 <1>   0.1500 
 36 H       -6.9660    -0.6760     2.0950 H     1 <1>   0.1500 
 37 H       -6.3900    -1.1170    -2.1070 H     1 <1>   0.1500 
 38 H       -9.1660    -0.4960     1.2310 H     1 <1>   0.0800 
 39 H       -8.6810    -2.1760     1.4920 H     1 <1>   0.0800 
 40 H      -10.7240    -1.2280    -0.5510 H     1 <1>   0.0800 
 41 H      -11.1110    -2.0310     0.9510 H     1 <1>   0.0800 
 42 H      -10.2420    -2.8970    -0.2920 H     1 <1>   0.0800 
@<TRIPOS>BOND
  1   1   2  2   
  2   2   3  am  
  3   2   4  1   
  4   3   5  1   
  5   3  20  1   
  6   4   6  1   
  7   4   7  1   
  8   4  21  1   
  9   5   8  1   
 10   5   9  1   
 11   5  22  1   
 12   6  10  1   
 13   6  23  1   
 14   6  24  1   
 15   7  11  1   
 16   7  25  1   
 17   7  26  1   
 18   8  12  ar  
 19   8  13  ar  
 20   9  27  1   
 21   9  28  1   
 22   9  29  1   
 23  10  11  1   
 24  10  30  1   
 25  10  31  1   
 26  11  32  1   
 27  11  33  1   
 28  12  14  ar  
 29  12  34  1   
 30  13  15  ar  
 31  13  35  1   
 32  14  16  ar  
 33  14  36  1   
 34  15  16  ar  
 35  15  37  1   
 36  16  17  1   
 37  17  18  1   
 38  18  19  1   
 39  18  38  1   
 40  18  39  1   
 41  19  40  1   
 42  19  41  1   
 43  19  42  1   
@<TRIPOS>SUBSTRUCTURE
  1 ****   8 GROUP 4 **** **** 0

# MOE 2024.06 (io_trps.svl 2023.06)
