@<TRIPOS>MOLECULE
NONAME
45 48 1 0 0 
SMALL
USER_CHARGES


@<TRIPOS>ATOM
  1 CL      -0.0430    -0.0550     0.3710 Cl    1 <1>  -0.1230 
  2 C        0.5180     1.6040     0.2160 C.2   1 <1>   0.1230 
  3 C        1.8100     1.9820     0.0720 C.2   1 <1>  -0.0260 
  4 C       -0.2650     2.7500     0.2390 C.2   1 <1>   0.2030 
  5 N        2.9600     1.2450     0.0170 N.2   1 <1>  -0.5760 
  6 N        1.7770     3.3510     0.0000 N.pl3 1 <1>   0.6010 
  7 N        0.5160     3.8180     0.1120 N.2   1 <1>  -0.7070 
  8 C       -1.7140     2.7480     0.3820 C.2   1 <1>   0.7160 
  9 C        4.0910     1.8820    -0.0700 C.2   1 <1>   0.3490 
 10 C        2.9630     4.0510    -0.1300 C.2   1 <1>  -0.1690 
 11 O       -2.2920     3.5810     1.0590 O.2   1 <1>  -0.5700 
 12 N       -2.4740     1.7920    -0.2350 N.am  1 <1>  -0.7300 
 13 C        5.3250     1.1130    -0.1350 C.ar  1 <1>   0.0860 
 14 C        4.1330     3.3270    -0.1140 C.2   1 <1>  -0.1240 
 15 C        2.7370     5.5560    -0.2800 C.3   1 <1>   1.1580 
 16 C       -3.9230     1.5560    -0.0500 C.3   1 <1>   0.1400 
 17 C        6.5470     1.6990     0.1990 C.ar  1 <1>  -0.1440 
 18 C        5.3440    -0.2270    -0.5330 C.ar  1 <1>  -0.1500 
 19 C        5.5360     3.9540    -0.1540 C.3   1 <1>  -0.0220 
 20 F        1.8850     5.8700    -1.2480 F     1 <1>  -0.3400 
 21 F        2.2920     6.1190     0.8350 F     1 <1>  -0.3400 
 22 F        3.8390     6.2230    -0.5910 F     1 <1>  -0.3400 
 23 C       -4.1520     0.0870     0.3190 C.3   1 <1>   0.1200 
 24 C        7.7290     0.9800     0.1340 C.ar  1 <1>  -0.1500 
 25 C        6.5580     3.1450     0.6490 C.3   1 <1>  -0.0170 
 26 C        6.5220    -0.9470    -0.6000 C.ar  1 <1>  -0.1500 
 27 O       -3.4560    -0.7260    -0.5800 O.3   1 <1>  -0.5600 
 28 C        7.7190    -0.3430    -0.2670 C.ar  1 <1>  -0.1500 
 29 C       -3.4770    -2.0780    -0.2520 C.3   1 <1>   0.0400 
 30 H       -2.0150     0.9990    -0.6960 H     1 <1>   0.3700 
 31 H       -4.4380     1.7790    -0.9680 H     1 <1>   0.0800 
 32 H       -4.3170     2.1950     0.7220 H     1 <1>   0.0800 
 33 H        4.4190    -0.7120    -0.7940 H     1 <1>   0.1500 
 34 H        5.5480     4.9400     0.2670 H     1 <1>   0.0800 
 35 H        5.8640     4.0170    -1.1770 H     1 <1>   0.0800 
 36 H       -5.1990    -0.1550     0.2720 H     1 <1>   0.0800 
 37 H       -3.7830    -0.0970     1.3140 H     1 <1>   0.0800 
 38 H        8.6650     1.4420     0.3960 H     1 <1>   0.1500 
 39 H        7.5370     3.5720     0.5170 H     1 <1>   0.0800 
 40 H        6.3110     3.1860     1.6960 H     1 <1>   0.0800 
 41 H        6.5060    -1.9780    -0.9100 H     1 <1>   0.1500 
 42 H        8.6380    -0.9020    -0.3170 H     1 <1>   0.1500 
 43 H       -2.9320    -2.6140    -1.0100 H     1 <1>   0.0800 
 44 H       -4.4960    -2.4230    -0.2250 H     1 <1>   0.0800 
 45 H       -3.0010    -2.2190     0.7030 H     1 <1>   0.0800 
@<TRIPOS>BOND
  1   1   2  1   
  2   2   3  2   
  3   2   4  1   
  4   3   5  1   
  5   3   6  1   
  6   4   7  2   
  7   4   8  1   
  8   5   9  2   
  9   6   7  1   
 10   6  10  1   
 11   8  11  2   
 12   8  12  am  
 13   9  13  1   
 14   9  14  1   
 15  10  14  2   
 16  10  15  1   
 17  12  16  1   
 18  12  30  1   
 19  13  17  ar  
 20  13  18  ar  
 21  14  19  1   
 22  15  20  1   
 23  15  21  1   
 24  15  22  1   
 25  16  23  1   
 26  16  31  1   
 27  16  32  1   
 28  17  24  ar  
 29  17  25  1   
 30  18  26  ar  
 31  18  33  1   
 32  19  25  1   
 33  19  34  1   
 34  19  35  1   
 35  23  27  1   
 36  23  36  1   
 37  23  37  1   
 38  24  28  ar  
 39  24  38  1   
 40  25  39  1   
 41  25  40  1   
 42  26  28  ar  
 43  26  41  1   
 44  27  29  1   
 45  28  42  1   
 46  29  43  1   
 47  29  44  1   
 48  29  45  1   
@<TRIPOS>SUBSTRUCTURE
  1 ****   3 GROUP 4 **** **** 0

# MOE 2024.06 (io_trps.svl 2023.06)
