@<TRIPOS>MOLECULE
NONAME
51 54 1 0 0 
SMALL
USER_CHARGES


@<TRIPOS>ATOM
  1 S        0.9530    -0.1520    -0.6740 S.3   1 <1>  -0.0800 
  2 C        1.0300     1.4960    -0.0580 C.2   1 <1>   0.1040 
  3 C       -0.7900    -0.1800    -0.5180 C.2   1 <1>  -0.1400 
  4 N        2.3180     2.0160     0.0410 N.am  1 <1>  -0.4940 
  5 C       -0.2230     1.9670     0.2070 C.2   1 <1>   0.0190 
  6 C       -1.2490     0.9930    -0.0580 C.2   1 <1>  -0.1810 
  7 C       -1.5780    -1.4180    -0.8840 C.3   1 <1>   0.0200 
  8 C        2.8450     2.9810     0.8470 C.2   1 <1>   0.5690 
  9 C       -0.5670     3.2830     0.6570 C.1   1 <1>   0.5380 
 10 C       -2.7400     1.2240     0.1560 C.3   1 <1>   0.0210 
 11 C       -3.0120    -1.2780    -0.3410 C.3   1 <1>  -0.1600 
 12 O        2.2170     3.5600     1.6970 O.2   1 <1>  -0.5700 
 13 C        4.3300     3.2890     0.6570 C.3   1 <1>   0.1710 
 14 N       -0.9370     4.3180     0.9680 N.1   1 <1>  -0.5570 
 15 C       -3.5770     0.1410    -0.5580 C.3   1 <1>  -0.1600 
 16 N        5.0980     2.1380     0.0970 N.3   1 <1>  -0.8100 
 17 C        6.4140     2.5860    -0.4150 C.3   1 <1>   0.1100 
 18 C        5.3100     1.0910     1.1320 C.3   1 <1>   0.1100 
 19 C        7.2410     1.4200    -0.9910 C.3   1 <1>   0.2090 
 20 C        6.1110    -0.1080     0.5910 C.3   1 <1>   0.2090 
 21 N        7.4130     0.3370     0.0190 N.pl3 1 <1>  -0.8380 
 22 C        8.3080    -0.6720    -0.3140 C.ar  1 <1>   0.1000 
 23 C        9.4870    -0.8060     0.4050 C.ar  1 <1>  -0.1500 
 24 C        8.0560    -1.5600    -1.3550 C.ar  1 <1>  -0.1500 
 25 C       10.3970    -1.8010     0.0970 C.ar  1 <1>  -0.1500 
 26 C        8.9620    -2.5570    -1.6680 C.ar  1 <1>  -0.1500 
 27 C       10.1350    -2.6790    -0.9420 C.ar  1 <1>  -0.1500 
 28 H        3.0540     1.5310    -0.4840 H     1 <1>   0.3700 
 29 H       -1.1120    -2.2930    -0.4670 H     1 <1>   0.0800 
 30 H       -1.5960    -1.5160    -1.9550 H     1 <1>   0.0800 
 31 H       -3.0270     2.1910    -0.2210 H     1 <1>   0.0800 
 32 H       -2.9450     1.2030     1.2120 H     1 <1>   0.0800 
 33 H       -3.0050    -1.4890     0.7150 H     1 <1>   0.0800 
 34 H       -3.6480    -2.0040    -0.8170 H     1 <1>   0.0800 
 35 H        4.7500     3.5930     1.6000 H     1 <1>   0.0800 
 36 H        4.3940     4.1230    -0.0180 H     1 <1>   0.0800 
 37 H       -3.5870     0.3520    -1.6140 H     1 <1>   0.0800 
 38 H       -4.5920     0.1880    -0.2050 H     1 <1>   0.0800 
 39 H        6.9800     3.0460     0.3780 H     1 <1>   0.0800 
 40 H        6.2670     3.3170    -1.1900 H     1 <1>   0.0800 
 41 H        4.3620     0.7340     1.4930 H     1 <1>   0.0800 
 42 H        5.8480     1.5060     1.9680 H     1 <1>   0.0800 
 43 H        8.2100     1.7790    -1.2900 H     1 <1>   0.0800 
 44 H        6.7440     1.0280    -1.8610 H     1 <1>   0.0800 
 45 H        5.5340    -0.6100    -0.1660 H     1 <1>   0.0800 
 46 H        6.2970    -0.8060     1.3890 H     1 <1>   0.0800 
 47 H        9.6790    -0.1190     1.2080 H     1 <1>   0.1500 
 48 H        7.1470    -1.4640    -1.9170 H     1 <1>   0.1500 
 49 H       11.3070    -1.8920     0.6630 H     1 <1>   0.1500 
 50 H        8.7560    -3.2370    -2.4750 H     1 <1>   0.1500 
 51 H       10.8410    -3.4540    -1.1840 H     1 <1>   0.1500 
@<TRIPOS>BOND
  1   1   2  1   
  2   1   3  1   
  3   2   4  1   
  4   2   5  2   
  5   3   6  2   
  6   3   7  1   
  7   4   8  am  
  8   4  28  1   
  9   5   6  1   
 10   5   9  1   
 11   6  10  1   
 12   7  11  1   
 13   7  29  1   
 14   7  30  1   
 15   8  12  2   
 16   8  13  1   
 17   9  14  3   
 18  10  15  1   
 19  10  31  1   
 20  10  32  1   
 21  11  15  1   
 22  11  33  1   
 23  11  34  1   
 24  13  16  1   
 25  13  35  1   
 26  13  36  1   
 27  15  37  1   
 28  15  38  1   
 29  16  17  1   
 30  16  18  1   
 31  17  19  1   
 32  17  39  1   
 33  17  40  1   
 34  18  20  1   
 35  18  41  1   
 36  18  42  1   
 37  19  21  1   
 38  19  43  1   
 39  19  44  1   
 40  20  21  1   
 41  20  45  1   
 42  20  46  1   
 43  21  22  1   
 44  22  23  ar  
 45  22  24  ar  
 46  23  25  ar  
 47  23  47  1   
 48  24  26  ar  
 49  24  48  1   
 50  25  27  ar  
 51  25  49  1   
 52  26  27  ar  
 53  26  50  1   
 54  27  51  1   
@<TRIPOS>SUBSTRUCTURE
  1 ****   4 GROUP 4 **** **** 0

# MOE 2024.06 (io_trps.svl 2023.06)
