@<TRIPOS>MOLECULE
NONAME
43 46 1 0 0 
SMALL
USER_CHARGES


@<TRIPOS>ATOM
  1 O       -0.7220     1.3360     0.5790 O.3   1 <1>  -0.2800 
  2 C       -1.3420     1.1030    -0.5730 C.2   1 <1>   0.1400 
  3 C        0.5750     1.3830     0.3560 C.2   1 <1>  -0.0100 
  4 C       -2.7710     0.9660    -0.6400 C.2   1 <1>   0.1860 
  5 C       -0.4070     0.9890    -1.5550 C.2   1 <1>  -0.1500 
  6 C        0.8380     1.1770    -0.9510 C.2   1 <1>  -0.1500 
  7 N       -3.3450    -0.1170    -1.0820 N.2   1 <1>  -0.3380 
  8 N       -3.7040     1.8820    -0.3050 N.pl3 1 <1>   0.0480 
  9 N       -4.6530     0.0660    -1.0370 N.2   1 <1>  -0.3380 
 10 C       -4.8650     1.2630    -0.5800 C.2   1 <1>   0.1330 
 11 C       -3.6640     3.3520     0.0100 C.3   1 <1>   0.2560 
 12 C       -6.1420     1.9080    -0.4010 C.ar  1 <1>   0.0530 
 13 C       -4.9190     3.7120     0.8430 C.3   1 <1>  -0.0160 
 14 C       -3.6690     4.1300    -1.3180 C.3   1 <1>  -0.2400 
 15 C       -2.4250     3.7740     0.8170 C.3   1 <1>  -0.2400 
 16 C       -6.2060     3.1290     0.2710 C.ar  1 <1>  -0.1430 
 17 C       -7.3270     1.3680    -0.8900 C.ar  1 <1>  -0.1500 
 18 C       -7.4130     3.7880     0.4310 C.ar  1 <1>  -0.1500 
 19 C       -8.5410     2.0090    -0.7290 C.ar  1 <1>   0.0830 
 20 C       -8.5940     3.2480    -0.0730 C.ar  1 <1>   0.0830 
 21 O       -9.6210     1.3660    -1.2500 O.3   1 <1>  -0.3630 
 22 O       -9.7860     3.8990     0.0440 O.3   1 <1>  -0.3630 
 23 C      -10.8140     1.2850    -0.5010 C.3   1 <1>   0.0400 
 24 C       -9.8780     5.2250     0.5170 C.3   1 <1>   0.0400 
 25 H        1.2400     1.5640     1.1830 H     1 <1>   0.1500 
 26 H       -0.5800     0.7820    -2.5960 H     1 <1>   0.1500 
 27 H        1.7900     1.1510    -1.4510 H     1 <1>   0.1500 
 28 H       -5.0050     4.7820     0.9180 H     1 <1>   0.0800 
 29 H       -4.7990     3.3310     1.8420 H     1 <1>   0.0800 
 30 H       -4.5490     3.9000    -1.8940 H     1 <1>   0.0800 
 31 H       -2.8010     3.8790    -1.9030 H     1 <1>   0.0800 
 32 H       -3.6570     5.1890    -1.1360 H     1 <1>   0.0800 
 33 H       -2.5210     4.7950     1.1400 H     1 <1>   0.0800 
 34 H       -2.3110     3.1560     1.6900 H     1 <1>   0.0800 
 35 H       -1.5360     3.7170     0.2160 H     1 <1>   0.0800 
 36 H       -7.3010     0.4260    -1.4080 H     1 <1>   0.1500 
 37 H       -7.4200     4.7240     0.9550 H     1 <1>   0.1500 
 38 H      -11.3640     0.4270    -0.8410 H     1 <1>   0.0800 
 39 H      -11.3910     2.1760    -0.6690 H     1 <1>   0.0800 
 40 H      -10.5700     1.1800     0.5420 H     1 <1>   0.0800 
 41 H      -10.9040     5.5370     0.4360 H     1 <1>   0.0800 
 42 H       -9.2560     5.8570    -0.0910 H     1 <1>   0.0800 
 43 H       -9.5710     5.2510     1.5470 H     1 <1>   0.0800 
@<TRIPOS>BOND
  1   1   2  1   
  2   1   3  1   
  3   2   4  1   
  4   2   5  2   
  5   3   6  2   
  6   3  25  1   
  7   4   7  2   
  8   4   8  1   
  9   5   6  1   
 10   5  26  1   
 11   6  27  1   
 12   7   9  1   
 13   8  10  1   
 14   8  11  1   
 15   9  10  2   
 16  10  12  1   
 17  11  13  1   
 18  11  14  1   
 19  11  15  1   
 20  12  16  ar  
 21  12  17  ar  
 22  13  16  1   
 23  13  28  1   
 24  13  29  1   
 25  14  30  1   
 26  14  31  1   
 27  14  32  1   
 28  15  33  1   
 29  15  34  1   
 30  15  35  1   
 31  16  18  ar  
 32  17  19  ar  
 33  17  36  1   
 34  18  20  ar  
 35  18  37  1   
 36  19  20  ar  
 37  19  21  1   
 38  20  22  1   
 39  21  23  1   
 40  22  24  1   
 41  23  38  1   
 42  23  39  1   
 43  23  40  1   
 44  24  41  1   
 45  24  42  1   
 46  24  43  1   
@<TRIPOS>SUBSTRUCTURE
  1 ****  10 GROUP 4 **** **** 0

# MOE 2024.06 (io_trps.svl 2023.06)
