@<TRIPOS>MOLECULE
NONAME
31 32 1 0 0 
SMALL
USER_CHARGES


@<TRIPOS>ATOM
  1 F        5.1940    -0.0550    -1.1420 F     1 <1>  -0.1900 
  2 C        4.6220    -1.0380    -0.5030 C.ar  1 <1>   0.1900 
  3 C        3.4470    -1.5630    -1.0070 C.ar  1 <1>  -0.1500 
  4 C        5.2100    -1.5150     0.6520 C.ar  1 <1>  -0.1500 
  5 C        2.8300    -2.6040    -0.3280 C.ar  1 <1>  -0.1440 
  6 C        4.5950    -2.5580     1.3220 C.ar  1 <1>  -0.1500 
  7 C        3.4140    -3.0990     0.8330 C.ar  1 <1>  -0.1500 
  8 C        1.5290    -3.1980    -0.8440 C.3   1 <1>  -0.0160 
  9 C        0.3300    -2.7000    -0.0230 C.3   1 <1>   0.4230 
 10 N       -0.9070    -3.4010    -0.4600 N.4   1 <1>  -0.9060 
 11 C        0.1150    -1.1830    -0.1540 C.3   1 <1>  -0.1600 
 12 C       -2.1000    -3.0320     0.3500 C.3   1 <1>   0.3430 
 13 C       -1.1250    -0.7090     0.6160 C.3   1 <1>  -0.1600 
 14 C       -2.3580    -1.5300     0.2200 C.3   1 <1>  -0.1600 
 15 H        3.0410    -1.1510    -1.9130 H     1 <1>   0.1500 
 16 H        6.1260    -1.0800     1.0110 H     1 <1>   0.1500 
 17 H        5.0380    -2.9500     2.2220 H     1 <1>   0.1500 
 18 H        2.9630    -3.9140     1.3720 H     1 <1>   0.1500 
 19 H        1.6000    -4.2690    -0.7730 H     1 <1>   0.0800 
 20 H        1.4030    -2.9380    -1.8810 H     1 <1>   0.0800 
 21 H        0.5140    -2.9280     1.0150 H     1 <1>   0.0800 
 22 H       -0.7630    -4.4160    -0.4190 H     1 <1>   0.4500 
 23 H       -1.0900    -3.1540    -1.4390 H     1 <1>   0.4500 
 24 H        0.0240    -0.9140    -1.1920 H     1 <1>   0.0800 
 25 H        0.9750    -0.6650     0.2350 H     1 <1>   0.0800 
 26 H       -1.9310    -3.2790     1.3860 H     1 <1>   0.0800 
 27 H       -2.9660    -3.5780     0.0080 H     1 <1>   0.0800 
 28 H       -1.3010     0.3360     0.4170 H     1 <1>   0.0800 
 29 H       -0.9490    -0.8110     1.6750 H     1 <1>   0.0800 
 30 H       -3.1840    -1.2590     0.8560 H     1 <1>   0.0800 
 31 H       -2.6450    -1.2990    -0.7910 H     1 <1>   0.0800 
@<TRIPOS>BOND
  1   1   2  1   
  2   2   3  ar  
  3   2   4  ar  
  4   3   5  ar  
  5   3  15  1   
  6   4   6  ar  
  7   4  16  1   
  8   5   7  ar  
  9   5   8  1   
 10   6   7  ar  
 11   6  17  1   
 12   7  18  1   
 13   8   9  1   
 14   8  19  1   
 15   8  20  1   
 16   9  10  1   
 17   9  11  1   
 18   9  21  1   
 19  10  12  1   
 20  10  22  1   
 21  10  23  1   
 22  11  13  1   
 23  11  24  1   
 24  11  25  1   
 25  12  14  1   
 26  12  26  1   
 27  12  27  1   
 28  13  14  1   
 29  13  28  1   
 30  13  29  1   
 31  14  30  1   
 32  14  31  1   
@<TRIPOS>SUBSTRUCTURE
  1 ****   5 GROUP 4 **** **** 0

# MOE 2024.06 (io_trps.svl 2023.06)
