@<TRIPOS>MOLECULE
NONAME
41 43 1 0 0 
SMALL
USER_CHARGES


@<TRIPOS>ATOM
  1 O        0.6440     0.3090    -1.2330 O.2   1 <1>  -0.5700 
  2 C        1.4910    -0.4500    -0.7820 C.2   1 <1>   0.7060 
  3 O        2.7430     0.0160    -0.7520 O.3   1 <1>  -0.2320 
  4 C        1.2400    -1.8030    -0.3720 C.2   1 <1>   0.1230 
  5 C        3.7960    -0.7430    -0.3890 C.ar  1 <1>   0.0830 
  6 N       -0.0910    -2.3090    -0.3670 N.am  1 <1>  -0.5390 
  7 C        2.2810    -2.6230    -0.0200 C.2   1 <1>   0.0720 
  8 C        3.6140    -2.0770    -0.0020 C.ar  1 <1>   0.0280 
  9 C        5.0550    -0.1610    -0.4030 C.ar  1 <1>  -0.1500 
 10 C       -1.1040    -1.8550     0.4070 C.2   1 <1>   0.6900 
 11 N        2.0680    -3.9580     0.3360 N.pl3 1 <1>  -0.8690 
 12 C        4.7510    -2.7850     0.4030 C.ar  1 <1>  -0.1500 
 13 C        6.1620    -0.8910    -0.0180 C.ar  1 <1>  -0.1500 
 14 O       -0.8920    -1.0820     1.3210 O.2   1 <1>  -0.5700 
 15 N       -2.3480    -2.3170     0.1500 N.am  1 <1>  -0.7300 
 16 C        2.5550    -5.0700    -0.5210 C.3   1 <1>   0.1290 
 17 C        6.0050    -2.2060     0.3900 C.ar  1 <1>  -0.1500 
 18 C       -3.5550    -1.8630     0.8600 C.3   1 <1>   0.2200 
 19 C       -4.5290    -3.0300     0.9630 C.3   1 <1>  -0.1600 
 20 C       -4.2960    -0.8650    -0.0200 C.3   1 <1>  -0.1600 
 21 C       -5.2490    -3.0950    -0.3900 C.3   1 <1>  -0.1600 
 22 C       -5.0980    -1.7040    -1.0210 C.3   1 <1>  -0.1600 
 23 H       -0.2240    -3.2270    -0.7770 H     1 <1>   0.3700 
 24 H        5.1600     0.8640    -0.7130 H     1 <1>   0.1500 
 25 H        1.1870    -4.1570     0.8290 H     1 <1>   0.4000 
 26 H        4.6450    -3.7990     0.7400 H     1 <1>   0.1500 
 27 H        7.1400    -0.4430    -0.0290 H     1 <1>   0.1500 
 28 H       -2.5420    -2.6790    -0.7790 H     1 <1>   0.3700 
 29 H        3.2460    -4.6980    -1.2590 H     1 <1>   0.0800 
 30 H        1.7260    -5.5370    -1.0240 H     1 <1>   0.0800 
 31 H        3.0550    -5.8030     0.0870 H     1 <1>   0.0800 
 32 H        6.8650    -2.7750     0.7010 H     1 <1>   0.1500 
 33 H       -3.3020    -1.4530     1.8250 H     1 <1>   0.0800 
 34 H       -5.2490    -2.8020     1.7300 H     1 <1>   0.0800 
 35 H       -4.0370    -3.9510     1.2200 H     1 <1>   0.0800 
 36 H       -3.6270    -0.1690    -0.4960 H     1 <1>   0.0800 
 37 H       -4.9800    -0.3110     0.5990 H     1 <1>   0.0800 
 38 H       -6.2850    -3.3570    -0.2600 H     1 <1>   0.0800 
 39 H       -4.7810    -3.8320    -1.0200 H     1 <1>   0.0800 
 40 H       -4.5570    -1.7820    -1.9490 H     1 <1>   0.0800 
 41 H       -6.0560    -1.2540    -1.2170 H     1 <1>   0.0800 
@<TRIPOS>BOND
  1   1   2  2   
  2   2   3  1   
  3   2   4  1   
  4   3   5  1   
  5   4   6  1   
  6   4   7  2   
  7   5   8  ar  
  8   5   9  ar  
  9   6  10  am  
 10   6  23  1   
 11   7   8  1   
 12   7  11  1   
 13   8  12  ar  
 14   9  13  ar  
 15   9  24  1   
 16  10  14  2   
 17  10  15  am  
 18  11  16  1   
 19  11  25  1   
 20  12  17  ar  
 21  12  26  1   
 22  13  17  ar  
 23  13  27  1   
 24  15  18  1   
 25  15  28  1   
 26  16  29  1   
 27  16  30  1   
 28  16  31  1   
 29  17  32  1   
 30  18  19  1   
 31  18  20  1   
 32  18  33  1   
 33  19  21  1   
 34  19  34  1   
 35  19  35  1   
 36  20  22  1   
 37  20  36  1   
 38  20  37  1   
 39  21  22  1   
 40  21  38  1   
 41  21  39  1   
 42  22  40  1   
 43  22  41  1   
@<TRIPOS>SUBSTRUCTURE
  1 ****   4 GROUP 4 **** **** 0

# MOE 2024.06 (io_trps.svl 2023.06)
