@<TRIPOS>MOLECULE
NONAME
50 54 1 0 0 
SMALL
USER_CHARGES


@<TRIPOS>ATOM
  1 O       -4.7100    -4.9130     0.1920 O.3   1 <1>  -0.3630 
  2 C       -3.5630    -4.2010     0.0130 C.ar  1 <1>   0.0830 
  3 C       -5.9730    -4.3370    -0.0610 C.3   1 <1>   0.0400 
  4 C       -2.3830    -4.8440     0.3030 C.ar  1 <1>  -0.1500 
  5 C       -3.5460    -2.8680    -0.4460 C.ar  1 <1>  -0.1500 
  6 C       -1.1650    -4.1730     0.1440 C.ar  1 <1>   0.0000 
  7 C       -2.3560    -2.1970    -0.6070 C.ar  1 <1>  -0.1500 
  8 C       -1.1570    -2.8530    -0.3060 C.ar  1 <1>  -0.1520 
  9 C        0.1800    -4.5300     0.3220 C.2   1 <1>  -0.1810 
 10 N        0.1460    -2.4300    -0.3770 N.pl3 1 <1>   0.0480 
 11 C        0.9480    -3.4580     0.0110 C.2   1 <1>  -0.2270 
 12 C        0.8170    -5.8510     0.7020 C.3   1 <1>   0.0210 
 13 C        0.7160    -1.2720    -1.0800 C.3   1 <1>   0.0960 
 14 C        2.3630    -3.4010     0.0260 C.cat 1 <1>   0.7840 
 15 C        2.3190    -5.6890     1.0570 C.3   1 <1>   0.3300 
 16 C        2.1790    -1.0350    -0.6480 C.3   1 <1>   0.3300 
 17 N        2.9900    -4.4820     0.4550 N.pl3 1 <1>  -0.7940 
 18 N        2.9870    -2.2820    -0.3560 N.pl3 1 <1>  -0.8330 
 19 C        4.4620    -2.0530    -0.4260 C.3   1 <1>   0.4100 
 20 C        5.1360    -3.0050    -1.4270 C.3   1 <1>  -0.1600 
 21 C        5.1060    -2.1060     0.9680 C.3   1 <1>  -0.1600 
 22 C        6.6500    -2.7540    -1.4920 C.3   1 <1>  -0.1600 
 23 C        6.6210    -1.8640     0.8850 C.3   1 <1>  -0.1600 
 24 C        7.2890    -2.8340    -0.0990 C.3   1 <1>  -0.1600 
 25 H       -6.7240    -5.0750     0.1540 H     1 <1>   0.0800 
 26 H       -6.0270    -4.0540    -1.0970 H     1 <1>   0.0800 
 27 H       -6.1030    -3.4850     0.5820 H     1 <1>   0.0800 
 28 H       -2.3920    -5.8600     0.6490 H     1 <1>   0.1500 
 29 H       -4.4620    -2.3600    -0.6770 H     1 <1>   0.1500 
 30 H       -2.3430    -1.1810    -0.9570 H     1 <1>   0.1500 
 31 H        0.7210    -6.5260    -0.1300 H     1 <1>   0.0800 
 32 H        0.2940    -6.2850     1.5350 H     1 <1>   0.0800 
 33 H        0.1200    -0.4010    -0.8770 H     1 <1>   0.0800 
 34 H        0.6790    -1.4720    -2.1360 H     1 <1>   0.0800 
 35 H        2.8440    -6.5780     0.7530 H     1 <1>   0.0800 
 36 H        2.4040    -5.6120     2.1280 H     1 <1>   0.0800 
 37 H        2.1750    -0.4230     0.2380 H     1 <1>   0.0800 
 38 H        2.6570    -0.4640    -1.4270 H     1 <1>   0.0800 
 39 H        4.0060    -4.4850     0.4780 H     1 <1>   0.4500 
 40 H        4.6370    -1.0570    -0.7990 H     1 <1>   0.0800 
 41 H        4.7130    -2.8500    -2.4040 H     1 <1>   0.0800 
 42 H        4.9810    -4.0300    -1.1550 H     1 <1>   0.0800 
 43 H        4.9470    -3.0600     1.4330 H     1 <1>   0.0800 
 44 H        4.6650    -1.3510     1.5950 H     1 <1>   0.0800 
 45 H        6.8380    -1.7800    -1.9130 H     1 <1>   0.0800 
 46 H        7.1100    -3.4810    -2.1410 H     1 <1>   0.0800 
 47 H        7.0610    -1.9820     1.8620 H     1 <1>   0.0800 
 48 H        6.8090    -0.8510     0.5670 H     1 <1>   0.0800 
 49 H        8.3380    -2.5990    -0.1740 H     1 <1>   0.0800 
 50 H        7.2110    -3.8400     0.2770 H     1 <1>   0.0800 
@<TRIPOS>BOND
  1   1   2  1   
  2   1   3  1   
  3   2   4  ar  
  4   2   5  ar  
  5   3  25  1   
  6   3  26  1   
  7   3  27  1   
  8   4   6  ar  
  9   4  28  1   
 10   5   7  ar  
 11   5  29  1   
 12   6   8  ar  
 13   6   9  1   
 14   7   8  ar  
 15   7  30  1   
 16   8  10  1   
 17   9  11  2   
 18   9  12  1   
 19  10  11  1   
 20  10  13  1   
 21  11  14  1   
 22  12  15  1   
 23  12  31  1   
 24  12  32  1   
 25  13  16  1   
 26  13  33  1   
 27  13  34  1   
 28  14  17  ar  
 29  14  18  ar  
 30  15  17  1   
 31  15  35  1   
 32  15  36  1   
 33  16  18  1   
 34  16  37  1   
 35  16  38  1   
 36  17  39  1   
 37  18  19  1   
 38  19  20  1   
 39  19  21  1   
 40  19  40  1   
 41  20  22  1   
 42  20  41  1   
 43  20  42  1   
 44  21  23  1   
 45  21  43  1   
 46  21  44  1   
 47  22  24  1   
 48  22  45  1   
 49  22  46  1   
 50  23  24  1   
 51  23  47  1   
 52  23  48  1   
 53  24  49  1   
 54  24  50  1   
@<TRIPOS>SUBSTRUCTURE
  1 ****  11 GROUP 4 **** **** 0

# MOE 2024.06 (io_trps.svl 2023.06)
