@<TRIPOS>MOLECULE
NONAME
39 40 1 0 0 
SMALL
USER_CHARGES


@<TRIPOS>ATOM
  1 O       -0.1680    -0.5140    -0.9130 O.2   1 <1>  -0.5700 
  2 C       -0.0320    -1.4630    -0.1770 C.2   1 <1>   0.5690 
  3 N        1.1790    -1.8590     0.3340 N.am  1 <1>  -0.5470 
  4 C       -1.3050    -2.2530     0.1810 C.3   1 <1>   0.4040 
  5 C        2.4750    -1.3320     0.1270 C.ar  1 <1>   0.1170 
  6 N       -2.5810    -1.4840    -0.0820 N.4   1 <1>  -0.9590 
  7 C        3.5940    -2.1670     0.2520 C.ar  1 <1>   0.0730 
  8 C        2.6800     0.0100    -0.1860 C.ar  1 <1>  -0.1500 
  9 C       -2.7520    -0.3710     0.8980 C.3   1 <1>   0.3430 
 10 C       -3.7520    -2.3930    -0.2160 C.3   1 <1>   0.3430 
 11 C        3.4150    -3.5480     0.5850 C.1   1 <1>   0.4840 
 12 C        4.8690    -1.6500     0.0540 C.ar  1 <1>  -0.1500 
 13 C        3.9520     0.5130    -0.3810 C.ar  1 <1>  -0.1500 
 14 C       -3.4970     0.7870     0.2370 C.3   1 <1>  -0.1600 
 15 C       -4.9880    -1.6720    -0.7580 C.3   1 <1>  -0.1600 
 16 N        3.1310    -4.6150     0.8690 N.1   1 <1>  -0.5570 
 17 C        5.0510    -0.3170    -0.2620 C.ar  1 <1>  -0.1500 
 18 C       -5.0310     0.6910     0.2790 C.3   1 <1>  -0.1600 
 19 C       -5.6310    -0.7220     0.2630 C.3   1 <1>  -0.1600 
 20 H        1.1810    -2.7340     0.8670 H     1 <1>   0.3700 
 21 H       -1.2630    -2.5410     1.2170 H     1 <1>   0.0800 
 22 H       -1.3030    -3.1490    -0.4160 H     1 <1>   0.0800 
 23 H       -2.4240    -1.0170    -0.9910 H     1 <1>   0.4500 
 24 H        1.8470     0.6830    -0.2790 H     1 <1>   0.1500 
 25 H       -1.7800    -0.0080     1.1940 H     1 <1>   0.0800 
 26 H       -3.2730    -0.7060     1.7800 H     1 <1>   0.0800 
 27 H       -3.9860    -2.8340     0.7390 H     1 <1>   0.0800 
 28 H       -3.5030    -3.1900    -0.8980 H     1 <1>   0.0800 
 29 H        5.7300    -2.2920     0.1470 H     1 <1>   0.1500 
 30 H        4.0890     1.5530    -0.6260 H     1 <1>   0.1500 
 31 H       -3.1610     0.8980    -0.7800 H     1 <1>   0.0800 
 32 H       -3.2180     1.6940     0.7460 H     1 <1>   0.0800 
 33 H       -5.7140    -2.4310    -0.9910 H     1 <1>   0.0800 
 34 H       -4.7660    -1.1610    -1.6790 H     1 <1>   0.0800 
 35 H        6.0420     0.0760    -0.4150 H     1 <1>   0.1500 
 36 H       -5.4240     1.2470    -0.5570 H     1 <1>   0.0800 
 37 H       -5.3860     1.1870     1.1670 H     1 <1>   0.0800 
 38 H       -5.5790    -1.1540     1.2480 H     1 <1>   0.0800 
 39 H       -6.6790    -0.6240     0.0270 H     1 <1>   0.0800 
@<TRIPOS>BOND
  1   1   2  2   
  2   2   3  am  
  3   2   4  1   
  4   3   5  1   
  5   3  20  1   
  6   4   6  1   
  7   4  21  1   
  8   4  22  1   
  9   5   7  ar  
 10   5   8  ar  
 11   6   9  1   
 12   6  10  1   
 13   6  23  1   
 14   7  11  1   
 15   7  12  ar  
 16   8  13  ar  
 17   8  24  1   
 18   9  14  1   
 19   9  25  1   
 20   9  26  1   
 21  10  15  1   
 22  10  27  1   
 23  10  28  1   
 24  11  16  3   
 25  12  17  ar  
 26  12  29  1   
 27  13  17  ar  
 28  13  30  1   
 29  14  18  1   
 30  14  31  1   
 31  14  32  1   
 32  15  19  1   
 33  15  33  1   
 34  15  34  1   
 35  17  35  1   
 36  18  19  1   
 37  18  36  1   
 38  18  37  1   
 39  19  38  1   
 40  19  39  1   
@<TRIPOS>SUBSTRUCTURE
  1 ****   2 GROUP 4 **** **** 0

# MOE 2024.06 (io_trps.svl 2023.06)
