@<TRIPOS>MOLECULE
NONAME
44 46 1 0 0 
SMALL
USER_CHARGES


@<TRIPOS>ATOM
  1 O       -0.3350     0.2340     0.3800 O.2   1 <1>  -0.5700 
  2 C       -1.2770     0.9710     0.1560 C.2   1 <1>   0.6340 
  3 O       -2.4280     0.3720    -0.1510 O.3   1 <1>  -0.2320 
  4 C       -1.2250     2.4090     0.2350 C.ar  1 <1>   0.0860 
  5 C       -3.5920     1.0320    -0.3060 C.ar  1 <1>   0.0830 
  6 C       -0.0250     3.1160     0.4500 C.ar  1 <1>   0.4270 
  7 C       -2.4120     3.1310     0.1030 C.ar  1 <1>   0.0000 
  8 C       -3.6410     2.4230    -0.1800 C.ar  1 <1>   0.0000 
  9 C       -4.7270     0.2880    -0.5870 C.ar  1 <1>  -0.1500 
 10 N        0.0270     4.4260     0.6270 N.ar  1 <1>  -0.6200 
 11 N        1.1880     2.4490     0.5130 N.am  1 <1>  -0.5470 
 12 C       -2.3160     4.5070     0.2550 C.ar  1 <1>  -0.1500 
 13 C       -4.8870     3.0350    -0.3450 C.ar  1 <1>  -0.1500 
 14 C       -5.9440     0.9180    -0.7460 C.ar  1 <1>  -0.1500 
 15 C       -1.0980     5.0990     0.5170 C.ar  1 <1>   0.1670 
 16 C        2.4400     2.8210     0.1150 C.2   1 <1>   0.5690 
 17 C       -6.0210     2.2950    -0.6240 C.ar  1 <1>  -0.1500 
 18 C       -0.9970     6.6060     0.6890 C.3   1 <1>  -0.0160 
 19 O        2.6970     3.8360    -0.4800 O.2   1 <1>  -0.5700 
 20 C        3.5700     1.8500     0.4110 C.3   1 <1>  -0.0990 
 21 C       -0.4290     7.2690    -0.5740 C.3   1 <1>  -0.1600 
 22 C        3.4420     0.5250    -0.3590 C.3   1 <1>  -0.2400 
 23 C       -0.3230     8.7910    -0.4160 C.3   1 <1>  -0.1600 
 24 C        0.2490     9.4350    -1.6810 C.3   1 <1>  -0.2400 
 25 H       -4.6520    -0.7820    -0.6780 H     1 <1>   0.1500 
 26 H        1.1000     1.4550     0.7390 H     1 <1>   0.3700 
 27 H       -3.1820     5.1330     0.1690 H     1 <1>   0.1500 
 28 H       -4.9910     4.1000    -0.2610 H     1 <1>   0.1500 
 29 H       -6.8290     0.3440    -0.9640 H     1 <1>   0.1500 
 30 H       -6.9710     2.7870    -0.7480 H     1 <1>   0.1500 
 31 H       -0.3530     6.8150     1.5250 H     1 <1>   0.0800 
 32 H       -1.9660     7.0170     0.9090 H     1 <1>   0.0800 
 33 H        3.5910     1.6580     1.4680 H     1 <1>   0.0800 
 34 H        4.5000     2.3220     0.1470 H     1 <1>   0.0800 
 35 H       -1.0600     7.0350    -1.4140 H     1 <1>   0.0800 
 36 H        0.5480     6.8590    -0.7720 H     1 <1>   0.0800 
 37 H        2.5460     0.0000    -0.0780 H     1 <1>   0.0800 
 38 H        4.2870    -0.1060    -0.1490 H     1 <1>   0.0800 
 39 H        3.4120     0.7160    -1.4180 H     1 <1>   0.0800 
 40 H        0.3190     9.0220     0.4180 H     1 <1>   0.0800 
 41 H       -1.2960     9.2070    -0.2150 H     1 <1>   0.0800 
 42 H        1.2300     9.0450    -1.8880 H     1 <1>   0.0800 
 43 H        0.3250    10.5000    -1.5510 H     1 <1>   0.0800 
 44 H       -0.3870     9.2370    -2.5260 H     1 <1>   0.0800 
@<TRIPOS>BOND
  1   1   2  2   
  2   2   3  1   
  3   2   4  1   
  4   3   5  1   
  5   4   6  ar  
  6   4   7  ar  
  7   5   8  ar  
  8   5   9  ar  
  9   6  10  ar  
 10   6  11  1   
 11   7   8  1   
 12   7  12  ar  
 13   8  13  ar  
 14   9  14  ar  
 15   9  25  1   
 16  10  15  ar  
 17  11  16  am  
 18  11  26  1   
 19  12  15  ar  
 20  12  27  1   
 21  13  17  ar  
 22  13  28  1   
 23  14  17  ar  
 24  14  29  1   
 25  15  18  1   
 26  16  19  2   
 27  16  20  1   
 28  17  30  1   
 29  18  21  1   
 30  18  31  1   
 31  18  32  1   
 32  20  22  1   
 33  20  33  1   
 34  20  34  1   
 35  21  23  1   
 36  21  35  1   
 37  21  36  1   
 38  22  37  1   
 39  22  38  1   
 40  22  39  1   
 41  23  24  1   
 42  23  40  1   
 43  23  41  1   
 44  24  42  1   
 45  24  43  1   
 46  24  44  1   
@<TRIPOS>SUBSTRUCTURE
  1 ****   4 GROUP 4 **** **** 0

# MOE 2024.06 (io_trps.svl 2023.06)
