@<TRIPOS>MOLECULE
NONAME
46 47 1 0 0 
SMALL
USER_CHARGES


@<TRIPOS>ATOM
  1 S        0.7120    -0.2580     0.2050 S.o2  1 <1>   1.3330 
  2 O       -0.4400    -0.2320     1.0750 O.2   1 <1>  -0.6500 
  3 O        1.6070    -1.3890     0.2420 O.2   1 <1>  -0.6500 
  4 N        1.6090     1.1920     0.5300 N.am  1 <1>  -0.6930 
  5 C        0.1430    -0.0310    -1.4690 C.3   1 <1>  -0.1350 
  6 C        1.0030     2.4390     0.4550 C.ar  1 <1>   0.1990 
  7 C        3.0940     1.1220     0.7020 C.3   1 <1>   0.3370 
  8 C        1.3460     3.3250    -0.5660 C.ar  1 <1>  -0.1500 
  9 C        0.0490     2.8210     1.3950 C.ar  1 <1>  -0.1500 
 10 C        3.8720     0.6690    -0.5680 C.2   1 <1>   0.5690 
 11 C        3.4010     0.3310     1.9880 C.3   1 <1>  -0.2400 
 12 C        0.7530     4.5730    -0.6460 C.ar  1 <1>  -0.1500 
 13 C       -0.5540     4.0650     1.3270 C.ar  1 <1>  -0.1500 
 14 O        3.2770     0.4810    -1.6030 O.2   1 <1>  -0.5700 
 15 N        5.2240     0.5410    -0.6030 N.am  1 <1>  -0.7300 
 16 C       -0.1880     4.9200     0.3050 C.ar  1 <1>   0.1900 
 17 C        6.2560     0.9920     0.3420 C.3   1 <1>   0.2200 
 18 F       -0.7510     6.0980     0.2350 F     1 <1>  -0.1900 
 19 C        7.2680     1.8570    -0.4130 C.3   1 <1>  -0.1600 
 20 C        6.9340    -0.2340     0.9610 C.3   1 <1>  -0.1600 
 21 C        8.4210     2.2860     0.5080 C.3   1 <1>  -0.1600 
 22 C        8.0840     0.1830     1.8900 C.3   1 <1>  -0.1600 
 23 C        9.0980     1.0680     1.1510 C.3   1 <1>  -0.1600 
 24 H       -0.4790    -0.8550    -1.7540 H     1 <1>   0.0800 
 25 H        0.9680     0.0190    -2.1490 H     1 <1>   0.0800 
 26 H       -0.4270     0.8730    -1.5470 H     1 <1>   0.0800 
 27 H        3.4260     2.1280     0.8890 H     1 <1>   0.0800 
 28 H        2.0730     3.0280    -1.3010 H     1 <1>   0.1500 
 29 H       -0.2190     2.1330     2.1790 H     1 <1>   0.1500 
 30 H        3.4060    -0.7260     1.7980 H     1 <1>   0.0800 
 31 H        2.6700     0.5510     2.7450 H     1 <1>   0.0800 
 32 H        4.3630     0.5960     2.3790 H     1 <1>   0.0800 
 33 H        1.0080     5.2660    -1.4290 H     1 <1>   0.1500 
 34 H       -1.2930     4.3670     2.0480 H     1 <1>   0.1500 
 35 H        5.5900     0.1780    -1.4850 H     1 <1>   0.3700 
 36 H        5.8140     1.5920     1.1170 H     1 <1>   0.0800 
 37 H        6.7770     2.7340    -0.7980 H     1 <1>   0.0800 
 38 H        7.6730     1.3010    -1.2410 H     1 <1>   0.0800 
 39 H        7.3270    -0.8600     0.1790 H     1 <1>   0.0800 
 40 H        6.2150    -0.8060     1.5200 H     1 <1>   0.0800 
 41 H        8.0410     2.9320     1.2810 H     1 <1>   0.0800 
 42 H        9.1470     2.8430    -0.0590 H     1 <1>   0.0800 
 43 H        8.5800    -0.6950     2.2670 H     1 <1>   0.0800 
 44 H        7.6860     0.7230     2.7320 H     1 <1>   0.0800 
 45 H        9.8560     1.3990     1.8410 H     1 <1>   0.0800 
 46 H        9.5850     0.4860     0.3860 H     1 <1>   0.0800 
@<TRIPOS>BOND
  1   1   2  2   
  2   1   3  2   
  3   1   4  am  
  4   1   5  1   
  5   4   6  1   
  6   4   7  1   
  7   5  24  1   
  8   5  25  1   
  9   5  26  1   
 10   6   8  ar  
 11   6   9  ar  
 12   7  10  1   
 13   7  11  1   
 14   7  27  1   
 15   8  12  ar  
 16   8  28  1   
 17   9  13  ar  
 18   9  29  1   
 19  10  14  2   
 20  10  15  am  
 21  11  30  1   
 22  11  31  1   
 23  11  32  1   
 24  12  16  ar  
 25  12  33  1   
 26  13  16  ar  
 27  13  34  1   
 28  15  17  1   
 29  15  35  1   
 30  16  18  1   
 31  17  19  1   
 32  17  20  1   
 33  17  36  1   
 34  19  21  1   
 35  19  37  1   
 36  19  38  1   
 37  20  22  1   
 38  20  39  1   
 39  20  40  1   
 40  21  23  1   
 41  21  41  1   
 42  21  42  1   
 43  22  23  1   
 44  22  43  1   
 45  22  44  1   
 46  23  45  1   
 47  23  46  1   
@<TRIPOS>SUBSTRUCTURE
  1 ****   7 GROUP 4 **** **** 0

# MOE 2024.06 (io_trps.svl 2023.06)
