@<TRIPOS>MOLECULE
NONAME
46 48 1 0 0 
SMALL
USER_CHARGES


@<TRIPOS>ATOM
  1 S       -0.2890    -0.0190    -0.7690 S.o2  1 <1>   1.3330 
  2 O       -1.2450     1.0620    -0.6740 O.2   1 <1>  -0.6500 
  3 O        0.2540    -0.3830    -2.0590 O.2   1 <1>  -0.6500 
  4 N       -1.0050    -1.4080    -0.1170 N.am  1 <1>  -0.8490 
  5 C        1.0510     0.3080     0.3840 C.3   1 <1>  -0.0550 
  6 C       -2.4760    -1.4070    -0.2760 C.3   1 <1>   0.1960 
  7 C       -0.3810    -2.6530    -0.5650 C.3   1 <1>   0.1960 
  8 C        1.9040     1.5420     0.0370 C.3   1 <1>  -0.2400 
  9 C       -3.1140    -2.8060    -0.1380 C.3   1 <1>  -0.0190 
 10 C       -0.8400    -3.8220     0.3230 C.3   1 <1>  -0.1600 
 11 C       -4.5710    -2.6970     0.2940 C.2   1 <1>   0.5690 
 12 C       -2.2940    -3.6920     0.8160 C.3   1 <1>  -0.1600 
 13 O       -4.8350    -2.0870     1.3000 O.2   1 <1>  -0.5700 
 14 N       -5.5120    -3.3220    -0.4780 N.am  1 <1>  -0.5470 
 15 C       -6.9100    -3.3970    -0.3460 C.ar  1 <1>   0.1170 
 16 C       -7.6600    -2.4500     0.3470 C.ar  1 <1>  -0.1500 
 17 C       -7.5750    -4.4580    -0.9550 C.ar  1 <1>  -0.1500 
 18 C       -9.0360    -2.5640     0.4300 C.ar  1 <1>   0.0820 
 19 C       -8.9510    -4.5830    -0.8710 C.ar  1 <1>  -0.1500 
 20 O       -9.7370    -1.6120     1.1000 O.3   1 <1>  -0.3620 
 21 C       -9.6850    -3.6420    -0.1730 C.ar  1 <1>   0.0820 
 22 C      -11.1380    -1.5900     0.9080 C.3   1 <1>   0.1200 
 23 O      -11.0340    -3.7930    -0.0890 O.3   1 <1>  -0.3630 
 24 C      -11.6950    -3.0200     0.8950 C.3   1 <1>   0.1200 
 25 H        1.6930    -0.5500     0.4240 H     1 <1>   0.0800 
 26 H        0.6340     0.4450     1.3630 H     1 <1>   0.0800 
 27 H       -2.7420    -1.0040    -1.2400 H     1 <1>   0.0800 
 28 H       -2.8830    -0.7440     0.4710 H     1 <1>   0.0800 
 29 H        0.6930    -2.5720    -0.5170 H     1 <1>   0.0800 
 30 H       -0.6510    -2.8350    -1.5930 H     1 <1>   0.0800 
 31 H        2.3550     1.4190    -0.9330 H     1 <1>   0.0800 
 32 H        2.6810     1.6760     0.7680 H     1 <1>   0.0800 
 33 H        1.2870     2.4230     0.0200 H     1 <1>   0.0800 
 34 H       -3.0930    -3.2620    -1.1110 H     1 <1>   0.0800 
 35 H       -0.1880    -3.8920     1.1760 H     1 <1>   0.0800 
 36 H       -0.7260    -4.7330    -0.2380 H     1 <1>   0.0800 
 37 H       -2.7430    -4.6650     0.9160 H     1 <1>   0.0800 
 38 H       -2.2940    -3.2290     1.7890 H     1 <1>   0.0800 
 39 H       -5.1420    -3.8680    -1.2530 H     1 <1>   0.3700 
 40 H       -7.1840    -1.6130     0.8220 H     1 <1>   0.1500 
 41 H       -7.0160    -5.1980    -1.4960 H     1 <1>   0.1500 
 42 H       -9.4600    -5.4070    -1.3380 H     1 <1>   0.1500 
 43 H      -11.3400    -1.1010    -0.0290 H     1 <1>   0.0800 
 44 H      -11.5730    -1.0170     1.7060 H     1 <1>   0.0800 
 45 H      -12.7450    -3.0200     0.6670 H     1 <1>   0.0800 
 46 H      -11.5390    -3.4890     1.8500 H     1 <1>   0.0800 
@<TRIPOS>BOND
  1   1   2  2   
  2   1   3  2   
  3   1   4  am  
  4   1   5  1   
  5   4   6  1   
  6   4   7  1   
  7   5   8  1   
  8   5  25  1   
  9   5  26  1   
 10   6   9  1   
 11   6  27  1   
 12   6  28  1   
 13   7  10  1   
 14   7  29  1   
 15   7  30  1   
 16   8  31  1   
 17   8  32  1   
 18   8  33  1   
 19   9  11  1   
 20   9  12  1   
 21   9  34  1   
 22  10  12  1   
 23  10  35  1   
 24  10  36  1   
 25  11  13  2   
 26  11  14  am  
 27  12  37  1   
 28  12  38  1   
 29  14  15  1   
 30  14  39  1   
 31  15  16  ar  
 32  15  17  ar  
 33  16  18  ar  
 34  16  40  1   
 35  17  19  ar  
 36  17  41  1   
 37  18  20  1   
 38  18  21  ar  
 39  19  21  ar  
 40  19  42  1   
 41  20  22  1   
 42  21  23  1   
 43  22  24  1   
 44  22  43  1   
 45  22  44  1   
 46  23  24  1   
 47  24  45  1   
 48  24  46  1   
@<TRIPOS>SUBSTRUCTURE
  1 ****  11 GROUP 4 **** **** 0

# MOE 2024.06 (io_trps.svl 2023.06)
