@<TRIPOS>MOLECULE
NONAME
36 36 1 0 0 
SMALL
USER_CHARGES


@<TRIPOS>ATOM
  1 F       -0.9550     0.6130    -1.6370 F     1 <1>  -0.1900 
  2 C       -0.0140     1.5030    -1.4320 C.ar  1 <1>   0.1900 
  3 C       -0.3460     2.6950    -0.7810 C.ar  1 <1>   0.1170 
  4 C        1.2600     1.2070    -1.8720 C.ar  1 <1>  -0.1500 
  5 N       -1.6730     2.9130    -0.3630 N.am  1 <1>  -0.5470 
  6 C        0.6830     3.6130    -0.5670 C.ar  1 <1>  -0.1500 
  7 C        2.2390     2.1520    -1.6410 C.ar  1 <1>   0.1900 
  8 C       -2.3640     4.0390    -0.0200 C.2   1 <1>   0.6900 
  9 C        1.9750     3.3480    -0.9960 C.ar  1 <1>  -0.1500 
 10 F        3.4580     1.9070    -2.0430 F     1 <1>  -0.1900 
 11 O       -1.8470     5.1380    -0.1000 O.2   1 <1>  -0.5700 
 12 N       -3.6690     3.9080     0.3900 N.am  1 <1>  -0.6600 
 13 C       -4.5190     5.1160     0.5850 C.3   1 <1>   0.1400 
 14 C       -4.2460     2.6210     0.8680 C.3   1 <1>   0.1400 
 15 C       -5.1120     5.5620    -0.7550 C.3   1 <1>  -0.1600 
 16 C       -4.9750     1.9110    -0.2760 C.3   1 <1>  -0.1600 
 17 C       -6.0010     6.7990    -0.5880 C.3   1 <1>  -0.2400 
 18 C       -5.4410     0.5130     0.1430 C.3   1 <1>  -0.2400 
 19 H        1.4830     0.2830    -2.3720 H     1 <1>   0.1500 
 20 H       -2.2840     2.1080    -0.4670 H     1 <1>   0.3700 
 21 H        0.4820     4.5400    -0.0610 H     1 <1>   0.1500 
 22 H        2.7670     4.0570    -0.8340 H     1 <1>   0.1500 
 23 H       -3.9220     5.9130     0.9960 H     1 <1>   0.0800 
 24 H       -5.3110     4.9060     1.2820 H     1 <1>   0.0800 
 25 H       -4.9290     2.8030     1.6800 H     1 <1>   0.0800 
 26 H       -3.4600     1.9910     1.2500 H     1 <1>   0.0800 
 27 H       -5.6950     4.7650    -1.1790 H     1 <1>   0.0800 
 28 H       -4.3090     5.7960    -1.4330 H     1 <1>   0.0800 
 29 H       -4.3240     1.8240    -1.1280 H     1 <1>   0.0800 
 30 H       -5.8330     2.4920    -0.5650 H     1 <1>   0.0800 
 31 H       -6.8220     6.5880     0.0740 H     1 <1>   0.0800 
 32 H       -6.3980     7.0960    -1.5430 H     1 <1>   0.0800 
 33 H       -5.4300     7.6180    -0.1870 H     1 <1>   0.0800 
 34 H       -4.6000    -0.1020     0.4150 H     1 <1>   0.0800 
 35 H       -5.9580     0.0390    -0.6730 H     1 <1>   0.0800 
 36 H       -6.1120     0.5740     0.9820 H     1 <1>   0.0800 
@<TRIPOS>BOND
  1   1   2  1   
  2   2   3  ar  
  3   2   4  ar  
  4   3   5  1   
  5   3   6  ar  
  6   4   7  ar  
  7   4  19  1   
  8   5   8  am  
  9   5  20  1   
 10   6   9  ar  
 11   6  21  1   
 12   7   9  ar  
 13   7  10  1   
 14   8  11  2   
 15   8  12  am  
 16   9  22  1   
 17  12  13  1   
 18  12  14  1   
 19  13  15  1   
 20  13  23  1   
 21  13  24  1   
 22  14  16  1   
 23  14  25  1   
 24  14  26  1   
 25  15  17  1   
 26  15  27  1   
 27  15  28  1   
 28  16  18  1   
 29  16  29  1   
 30  16  30  1   
 31  17  31  1   
 32  17  32  1   
 33  17  33  1   
 34  18  34  1   
 35  18  35  1   
 36  18  36  1   
@<TRIPOS>SUBSTRUCTURE
  1 ****   5 GROUP 4 **** **** 0

# MOE 2024.06 (io_trps.svl 2023.06)
