@<TRIPOS>MOLECULE
NONAME
41 43 1 0 0 
SMALL
USER_CHARGES


@<TRIPOS>ATOM
  1 S       -1.8330     0.0260     1.4550 S.3   1 <1>  -0.0800 
  2 C       -1.6000     0.8670    -0.0710 C.2   1 <1>  -0.1400 
  3 C       -0.4900     0.8860     2.1840 C.2   1 <1>  -0.1100 
  4 C       -0.5660     1.7260     0.0160 C.2   1 <1>  -0.1500 
  5 C       -2.5520     0.5200    -1.1950 C.3   1 <1>   0.5230 
  6 C        0.0640     1.7360     1.3010 C.2   1 <1>  -0.1500 
  7 N       -3.9330     0.8300    -0.7470 N.4   1 <1>  -0.9590 
  8 C       -4.9730     0.3070    -1.7050 C.3   1 <1>   0.3430 
  9 C       -4.1140     2.3080    -0.4890 C.3   1 <1>   0.3430 
 10 C       -6.4110     0.6480    -1.2590 C.3   1 <1>   0.2090 
 11 C       -5.5480     2.6580    -0.0390 C.3   1 <1>   0.2090 
 12 N       -6.5510     2.1090    -0.9980 N.pl3 1 <1>  -0.8380 
 13 C       -7.8540     2.5590    -0.8170 C.ar  1 <1>   0.1000 
 14 C       -8.5960     2.2050     0.3030 C.ar  1 <1>  -0.1500 
 15 C       -8.4370     3.3800    -1.7730 C.ar  1 <1>  -0.1500 
 16 C       -9.8920     2.6570     0.4710 C.ar  1 <1>   0.0830 
 17 C       -9.7320     3.8380    -1.6150 C.ar  1 <1>  -0.1500 
 18 O      -10.5330     2.2560     1.5990 O.3   1 <1>  -0.3620 
 19 C      -10.4640     3.4800    -0.4960 C.ar  1 <1>  -0.1500 
 20 C      -11.8580     2.6600     1.8670 C.3   1 <1>   0.0400 
 21 H       -0.2510     0.6610     3.2100 H     1 <1>   0.1500 
 22 H       -0.1980     2.3670    -0.7680 H     1 <1>   0.1500 
 23 H       -2.4600    -0.5300    -1.4240 H     1 <1>   0.0800 
 24 H       -2.3060     1.0890    -2.0770 H     1 <1>   0.0800 
 25 H        0.9060     2.3790     1.5010 H     1 <1>   0.1500 
 26 H       -4.0530     0.3540     0.1570 H     1 <1>   0.4500 
 27 H       -4.8820    -0.7620    -1.8030 H     1 <1>   0.0800 
 28 H       -4.8190     0.7440    -2.6780 H     1 <1>   0.0800 
 29 H       -3.9060     2.8600    -1.3900 H     1 <1>   0.0800 
 30 H       -3.4210     2.6380     0.2680 H     1 <1>   0.0800 
 31 H       -6.6610     0.0940    -0.3710 H     1 <1>   0.0800 
 32 H       -7.1030     0.3610    -2.0330 H     1 <1>   0.0800 
 33 H       -5.6560     3.7290     0.0090 H     1 <1>   0.0800 
 34 H       -5.7290     2.2640     0.9450 H     1 <1>   0.0800 
 35 H       -8.1700     1.5730     1.0560 H     1 <1>   0.1500 
 36 H       -7.8670     3.6560    -2.6410 H     1 <1>   0.1500 
 37 H      -10.1720     4.4740    -2.3640 H     1 <1>   0.1500 
 38 H      -11.4670     3.8490    -0.3960 H     1 <1>   0.1500 
 39 H      -12.1560     2.2270     2.8040 H     1 <1>   0.0800 
 40 H      -12.4980     2.3040     1.0800 H     1 <1>   0.0800 
 41 H      -11.8880     3.7330     1.9350 H     1 <1>   0.0800 
@<TRIPOS>BOND
  1   1   2  1   
  2   1   3  1   
  3   2   4  2   
  4   2   5  1   
  5   3   6  2   
  6   3  21  1   
  7   4   6  1   
  8   4  22  1   
  9   5   7  1   
 10   5  23  1   
 11   5  24  1   
 12   6  25  1   
 13   7   8  1   
 14   7   9  1   
 15   7  26  1   
 16   8  10  1   
 17   8  27  1   
 18   8  28  1   
 19   9  11  1   
 20   9  29  1   
 21   9  30  1   
 22  10  12  1   
 23  10  31  1   
 24  10  32  1   
 25  11  12  1   
 26  11  33  1   
 27  11  34  1   
 28  12  13  1   
 29  13  14  ar  
 30  13  15  ar  
 31  14  16  ar  
 32  14  35  1   
 33  15  17  ar  
 34  15  36  1   
 35  16  18  1   
 36  16  19  ar  
 37  17  19  ar  
 38  17  37  1   
 39  18  20  1   
 40  19  38  1   
 41  20  39  1   
 42  20  40  1   
 43  20  41  1   
@<TRIPOS>SUBSTRUCTURE
  1 ****  11 GROUP 4 **** **** 0

# MOE 2024.06 (io_trps.svl 2023.06)
