@<TRIPOS>MOLECULE
NONAME
58 60 1 0 0 
SMALL
USER_CHARGES


@<TRIPOS>ATOM
  1 O      -12.5440     3.0580     1.2370 O.3   1 <1>  -0.3630 
  2 C      -12.2160     1.8060     0.8010 C.ar  1 <1>   0.0830 
  3 C      -13.7220     3.3170     1.9660 C.3   1 <1>   0.0400 
  4 C      -12.7680     0.5900     1.2290 C.ar  1 <1>   0.0830 
  5 C      -11.2220     1.7780    -0.1620 C.ar  1 <1>  -0.1500 
  6 O      -13.7230     0.4920     2.1820 O.3   1 <1>  -0.5330 
  7 C      -12.3300    -0.6130     0.6800 C.ar  1 <1>   0.0830 
  8 C      -10.7640     0.5870    -0.7030 C.ar  1 <1>  -0.1430 
  9 O      -12.9210    -1.7590     1.1360 O.3   1 <1>  -0.3630 
 10 C      -11.3260    -0.6090    -0.2850 C.ar  1 <1>  -0.1500 
 11 C       -9.6420     0.6080    -1.7310 C.3   1 <1>   0.2530 
 12 C      -12.6460    -3.0120     0.5450 C.3   1 <1>   0.0400 
 13 N       -8.4660     1.3030    -1.1730 N.3   1 <1>  -0.8100 
 14 C       -7.9160     0.6290     0.0320 C.3   1 <1>   0.1100 
 15 C       -7.4050     1.5310    -2.1780 C.3   1 <1>   0.1100 
 16 C       -6.7320     1.4140     0.6470 C.3   1 <1>   0.3430 
 17 C       -6.2080     2.3180    -1.5850 C.3   1 <1>   0.3430 
 18 N       -6.4490     2.6580    -0.1400 N.4   1 <1>  -0.9590 
 19 C       -5.4650     3.5590     0.5100 C.3   1 <1>   0.4230 
 20 C       -5.6260     4.9950    -0.0200 C.3   1 <1>  -0.1600 
 21 C       -4.0260     3.0490     0.3550 C.3   1 <1>  -0.1600 
 22 C       -4.3310     5.8300     0.0790 C.3   1 <1>  -0.0800 
 23 C       -3.0480     3.9160     1.1720 C.3   1 <1>  -0.1600 
 24 C       -3.4840     5.3890     1.2830 C.3   1 <1>  -0.1600 
 25 C       -4.6550     7.3260     0.1550 C.3   1 <1>  -0.2400 
 26 H      -13.8470     4.3820     2.0360 H     1 <1>   0.0800 
 27 H      -13.6210     2.8970     2.9510 H     1 <1>   0.0800 
 28 H      -14.5580     2.8810     1.4480 H     1 <1>   0.0800 
 29 H      -10.7970     2.7110    -0.4860 H     1 <1>   0.1500 
 30 H      -13.9330    -0.4550     2.3100 H     1 <1>   0.4500 
 31 H      -10.9710    -1.5270    -0.7120 H     1 <1>   0.1500 
 32 H       -9.9900     1.1320    -2.6050 H     1 <1>   0.0800 
 33 H       -9.3760    -0.3950    -2.0200 H     1 <1>   0.0800 
 34 H      -13.2670    -3.7490     1.0210 H     1 <1>   0.0800 
 35 H      -11.6090    -3.2530     0.7030 H     1 <1>   0.0800 
 36 H      -12.8770    -2.9630    -0.5040 H     1 <1>   0.0800 
 37 H       -7.5930    -0.3670    -0.2180 H     1 <1>   0.0800 
 38 H       -8.6820     0.5400     0.7850 H     1 <1>   0.0800 
 39 H       -7.8100     2.0900    -3.0050 H     1 <1>   0.0800 
 40 H       -7.0540     0.5880    -2.5640 H     1 <1>   0.0800 
 41 H       -5.8590     0.7830     0.6700 H     1 <1>   0.0800 
 42 H       -6.9790     1.6720     1.6640 H     1 <1>   0.0800 
 43 H       -6.0650     3.2180    -2.1590 H     1 <1>   0.0800 
 44 H       -5.3140     1.7250    -1.6800 H     1 <1>   0.0800 
 45 H       -7.3680     3.1280    -0.1560 H     1 <1>   0.4500 
 46 H       -5.6760     3.5890     1.5670 H     1 <1>   0.0800 
 47 H       -6.3970     5.4660     0.5640 H     1 <1>   0.0800 
 48 H       -5.9430     5.0050    -1.0470 H     1 <1>   0.0800 
 49 H       -3.7350     3.1010    -0.6790 H     1 <1>   0.0800 
 50 H       -3.9400     2.0290     0.6840 H     1 <1>   0.0800 
 51 H       -3.7450     5.6670    -0.8110 H     1 <1>   0.0800 
 52 H       -2.0760     3.8660     0.7090 H     1 <1>   0.0800 
 53 H       -2.9440     3.5140     2.1660 H     1 <1>   0.0800 
 54 H       -4.0570     5.5280     2.1850 H     1 <1>   0.0800 
 55 H       -2.6070     6.0100     1.3650 H     1 <1>   0.0800 
 56 H       -5.2110     7.5550     1.0470 H     1 <1>   0.0800 
 57 H       -5.2340     7.6290    -0.6990 H     1 <1>   0.0800 
 58 H       -3.7460     7.9030     0.1650 H     1 <1>   0.0800 
@<TRIPOS>BOND
  1   1   2  1   
  2   1   3  1   
  3   2   4  ar  
  4   2   5  ar  
  5   3  26  1   
  6   3  27  1   
  7   3  28  1   
  8   4   6  1   
  9   4   7  ar  
 10   5   8  ar  
 11   5  29  1   
 12   6  30  1   
 13   7   9  1   
 14   7  10  ar  
 15   8  10  ar  
 16   8  11  1   
 17   9  12  1   
 18  10  31  1   
 19  11  13  1   
 20  11  32  1   
 21  11  33  1   
 22  12  34  1   
 23  12  35  1   
 24  12  36  1   
 25  13  14  1   
 26  13  15  1   
 27  14  16  1   
 28  14  37  1   
 29  14  38  1   
 30  15  17  1   
 31  15  39  1   
 32  15  40  1   
 33  16  18  1   
 34  16  41  1   
 35  16  42  1   
 36  17  18  1   
 37  17  43  1   
 38  17  44  1   
 39  18  19  1   
 40  18  45  1   
 41  19  20  1   
 42  19  21  1   
 43  19  46  1   
 44  20  22  1   
 45  20  47  1   
 46  20  48  1   
 47  21  23  1   
 48  21  49  1   
 49  21  50  1   
 50  22  24  1   
 51  22  25  1   
 52  22  51  1   
 53  23  24  1   
 54  23  52  1   
 55  23  53  1   
 56  24  54  1   
 57  24  55  1   
 58  25  56  1   
 59  25  57  1   
 60  25  58  1   
@<TRIPOS>SUBSTRUCTURE
  1 ****  13 GROUP 4 **** **** 0

# MOE 2024.06 (io_trps.svl 2023.06)
