@<TRIPOS>MOLECULE
NONAME
44 47 1 0 0 
SMALL
USER_CHARGES


@<TRIPOS>ATOM
  1 S       -0.3090     1.2660     1.4270 S.o2  1 <1>   1.4470 
  2 O       -1.0520     2.3880     1.9600 O.2   1 <1>  -0.6500 
  3 O       -0.1420     0.0800     2.2370 O.2   1 <1>  -0.6500 
  4 N       -1.1120     0.7870     0.0150 N.am  1 <1>  -0.8490 
  5 C        1.3100     1.8190     0.8230 C.ar  1 <1>  -0.0090 
  6 C       -2.2080    -0.1610     0.2940 C.3   1 <1>   0.1960 
  7 C       -1.5860     1.9070    -0.8050 C.3   1 <1>   0.1960 
  8 C        1.8890     2.9860     1.2790 C.ar  1 <1>  -0.1500 
  9 C        2.0150     1.0680    -0.1120 C.ar  1 <1>  -0.1500 
 10 C       -3.2910    -0.2070    -0.8080 C.3   1 <1>   0.1200 
 11 C       -2.1950     1.4120    -2.1380 C.3   1 <1>   0.1200 
 12 C        3.1380     3.4350     0.8360 C.ar  1 <1>   0.0280 
 13 C        3.2490     1.4690    -0.5760 C.ar  1 <1>  -0.1440 
 14 O       -2.7630     0.1290    -2.0580 O.3   1 <1>  -0.5600 
 15 C        3.8330     2.6560    -0.1120 C.ar  1 <1>   0.1170 
 16 C        3.7400     4.6560     1.3050 C.2   1 <1>  -0.1670 
 17 C        3.9640     0.6030    -1.6010 C.3   1 <1>  -0.0170 
 18 N        5.0970     3.0720    -0.5730 N.am  1 <1>  -0.4770 
 19 C        4.9480     5.0290     0.8210 C.2   1 <1>  -0.1360 
 20 C        3.0280     5.5230     2.3350 C.3   1 <1>  -0.1020 
 21 C        5.4760     0.7820    -1.4840 C.3   1 <1>  -0.1600 
 22 C        5.6590     4.2570    -0.1390 C.2   1 <1>   0.6160 
 23 C        5.8430     2.2630    -1.5790 C.3   1 <1>   0.1400 
 24 O        6.7360     4.6400    -0.5700 O.2   1 <1>  -0.5700 
 25 H       -2.6890     0.0920     1.2240 H     1 <1>   0.0800 
 26 H       -1.7850    -1.1440     0.4120 H     1 <1>   0.0800 
 27 H       -0.7750     2.5820    -1.0190 H     1 <1>   0.0800 
 28 H       -2.3350     2.4610    -0.2630 H     1 <1>   0.0800 
 29 H        1.3470     3.5640     2.0050 H     1 <1>   0.1500 
 30 H        1.5720     0.1530    -0.4720 H     1 <1>   0.1500 
 31 H       -4.0850     0.4830    -0.5830 H     1 <1>   0.0800 
 32 H       -3.7110    -1.1950    -0.8760 H     1 <1>   0.0800 
 33 H       -1.4270     1.3670    -2.8900 H     1 <1>   0.0800 
 34 H       -2.9540     2.0960    -2.4730 H     1 <1>   0.0800 
 35 H        3.6390     0.8890    -2.5860 H     1 <1>   0.0800 
 36 H        3.7150    -0.4340    -1.4530 H     1 <1>   0.0800 
 37 H        5.4430     5.9290     1.1320 H     1 <1>   0.1500 
 38 H        2.0790     5.8530     1.9510 H     1 <1>   0.0800 
 39 H        3.6130     6.3930     2.5750 H     1 <1>   0.0800 
 40 H        2.8680     4.9670     3.2420 H     1 <1>   0.0800 
 41 H        5.9720     0.2370    -2.2670 H     1 <1>   0.0800 
 42 H        5.8170     0.3960    -0.5390 H     1 <1>   0.0800 
 43 H        6.9030     2.3700    -1.4200 H     1 <1>   0.0800 
 44 H        5.6110     2.6400    -2.5600 H     1 <1>   0.0800 
@<TRIPOS>BOND
  1   1   2  2   
  2   1   3  2   
  3   1   4  am  
  4   1   5  1   
  5   4   6  1   
  6   4   7  1   
  7   5   8  ar  
  8   5   9  ar  
  9   6  10  1   
 10   6  25  1   
 11   6  26  1   
 12   7  11  1   
 13   7  27  1   
 14   7  28  1   
 15   8  12  ar  
 16   8  29  1   
 17   9  13  ar  
 18   9  30  1   
 19  10  14  1   
 20  10  31  1   
 21  10  32  1   
 22  11  14  1   
 23  11  33  1   
 24  11  34  1   
 25  12  15  ar  
 26  12  16  1   
 27  13  15  ar  
 28  13  17  1   
 29  15  18  1   
 30  16  19  2   
 31  16  20  1   
 32  17  21  1   
 33  17  35  1   
 34  17  36  1   
 35  18  22  am  
 36  18  23  1   
 37  19  22  1   
 38  19  37  1   
 39  20  38  1   
 40  20  39  1   
 41  20  40  1   
 42  21  23  1   
 43  21  41  1   
 44  21  42  1   
 45  22  24  2   
 46  23  43  1   
 47  23  44  1   
@<TRIPOS>SUBSTRUCTURE
  1 ****   5 GROUP 4 **** **** 0

# MOE 2024.06 (io_trps.svl 2023.06)
