@<TRIPOS>MOLECULE
NONAME
41 42 1 0 0 
SMALL
USER_CHARGES


@<TRIPOS>ATOM
  1 F        0.4020    -1.3180     0.8030 F     1 <1>  -0.3400 
  2 C       -0.8550    -0.9700     0.5440 C.3   1 <1>   1.1640 
  3 F       -1.1090     0.0800     1.3150 F     1 <1>  -0.3400 
  4 F       -0.8580    -0.5280    -0.7070 F     1 <1>  -0.3400 
  5 C       -1.8450    -2.1190     0.7850 C.ar  1 <1>  -0.1440 
  6 C       -3.0550    -2.1640     0.1020 C.ar  1 <1>  -0.1500 
  7 C       -1.5600    -3.1320     1.6960 C.ar  1 <1>  -0.1500 
  8 C       -3.9700    -3.1890     0.3040 C.ar  1 <1>   0.1170 
  9 C       -2.4620    -4.1610     1.9090 C.ar  1 <1>  -0.1500 
 10 N       -5.1580    -3.1540    -0.4330 N.am  1 <1>  -0.5470 
 11 C       -3.6570    -4.1890     1.2170 C.ar  1 <1>  -0.1500 
 12 C       -6.3710    -3.7680    -0.3020 C.2   1 <1>   0.5690 
 13 O       -6.5710    -4.6280     0.5260 O.2   1 <1>  -0.5700 
 14 C       -7.4740    -3.3660    -1.3030 C.3   1 <1>  -0.0190 
 15 C       -7.8720    -1.8660    -1.2560 C.3   1 <1>  -0.1860 
 16 C       -8.7580    -4.2090    -1.1540 C.3   1 <1>  -0.0220 
 17 C       -6.7610    -0.9000    -1.6490 C.2   1 <1>   0.9060 
 18 C       -8.4660    -1.5250     0.1210 C.3   1 <1>  -0.0220 
 19 C       -9.6600    -3.7420    -0.0100 C.2   1 <1>  -0.2760 
 20 O       -6.8150     0.2760    -1.2880 O.co2 1 <1>  -0.9000 
 21 O       -5.8070    -1.3250    -2.3150 O.co2 1 <1>  -0.9000 
 22 C       -9.5130    -2.5420     0.5750 C.2   1 <1>  -0.2760 
 23 C      -10.6920    -4.8070     0.3420 C.3   1 <1>  -0.1020 
 24 C      -10.3140    -2.0010     1.7540 C.3   1 <1>  -0.1020 
 25 H       -3.3150    -1.3910    -0.6060 H     1 <1>   0.1500 
 26 H       -0.6350    -3.1290     2.2490 H     1 <1>   0.1500 
 27 H       -2.2360    -4.9410     2.6150 H     1 <1>   0.1500 
 28 H       -5.1660    -2.4380    -1.1860 H     1 <1>   0.3700 
 29 H       -4.3490    -4.9920     1.3870 H     1 <1>   0.1500 
 30 H       -7.0770    -3.5740    -2.2800 H     1 <1>   0.0800 
 31 H       -8.6440    -1.7110    -1.9840 H     1 <1>   0.0800 
 32 H       -8.4840    -5.2410    -1.0130 H     1 <1>   0.0800 
 33 H       -9.3200    -4.1490    -2.0680 H     1 <1>   0.0800 
 34 H       -8.9120    -0.5470     0.0580 H     1 <1>   0.0800 
 35 H       -7.6780    -1.4750     0.8520 H     1 <1>   0.0800 
 36 H      -11.2300    -5.0980    -0.5420 H     1 <1>   0.0800 
 37 H      -11.4080    -4.4690     1.0620 H     1 <1>   0.0800 
 38 H      -10.1930    -5.6710     0.7430 H     1 <1>   0.0800 
 39 H       -9.6400    -1.6950     2.5340 H     1 <1>   0.0800 
 40 H      -10.9830    -2.7250     2.1710 H     1 <1>   0.0800 
 41 H      -10.8880    -1.1470     1.4420 H     1 <1>   0.0800 
@<TRIPOS>BOND
  1   1   2  1   
  2   2   3  1   
  3   2   4  1   
  4   2   5  1   
  5   5   6  ar  
  6   5   7  ar  
  7   6   8  ar  
  8   6  25  1   
  9   7   9  ar  
 10   7  26  1   
 11   8  10  1   
 12   8  11  ar  
 13   9  11  ar  
 14   9  27  1   
 15  10  12  am  
 16  10  28  1   
 17  11  29  1   
 18  12  13  2   
 19  12  14  1   
 20  14  15  1   
 21  14  16  1   
 22  14  30  1   
 23  15  17  1   
 24  15  18  1   
 25  15  31  1   
 26  16  19  1   
 27  16  32  1   
 28  16  33  1   
 29  17  20  ar  
 30  17  21  ar  
 31  18  22  1   
 32  18  34  1   
 33  18  35  1   
 34  19  22  2   
 35  19  23  1   
 36  22  24  1   
 37  23  36  1   
 38  23  37  1   
 39  23  38  1   
 40  24  39  1   
 41  24  40  1   
 42  24  41  1   
@<TRIPOS>SUBSTRUCTURE
  1 ****  10 GROUP 4 **** **** 0

# MOE 2024.06 (io_trps.svl 2023.06)
