@<TRIPOS>MOLECULE
Structure2393
30 32 1 0 0 
SMALL
USER_CHARGES


@<TRIPOS>ATOM
  1 N       -1.1930    -0.0400    -1.5980 N.ar  1 <1>  -0.6200 
  2 C       -1.8050     0.7490    -0.7050 C.ar  1 <1>   0.6200 
  3 C       -1.6380    -1.2460    -1.7190 C.ar  1 <1>   0.4700 
  4 N       -1.3310     2.0050    -0.5940 N.ar  1 <1>  -0.6200 
  5 C       -2.8750     0.2720     0.0580 C.ar  1 <1>   0.0000 
  6 N       -2.6550    -1.8180    -1.0620 N.ar  1 <1>  -0.6200 
  7 C       -1.9050     2.7870     0.2750 C.ar  1 <1>   0.1600 
  8 C       -3.2570    -1.0630    -0.1890 C.ar  1 <1>   0.4100 
  9 C       -3.4710     1.1370     0.9900 C.ar  1 <1>  -0.1500 
 10 C       -2.9740     2.4040     1.0900 C.ar  1 <1>  -0.1500 
 11 N       -4.3150    -1.6340     0.4700 N.pl3 1 <1>  -0.8380 
 12 C       -4.0620    -2.8820     1.2500 C.3   1 <1>   0.2090 
 13 C       -5.6450    -1.5800    -0.2030 C.3   1 <1>   0.2090 
 14 C       -4.2990    -4.1340     0.3750 C.3   1 <1>   0.3430 
 15 C       -5.8590    -2.8380    -1.0750 C.3   1 <1>   0.3430 
 16 N       -5.6450    -4.1150    -0.3040 N.4   1 <1>  -0.9060 
 17 H       -1.1370    -1.8760    -2.4360 H     1 <1>   0.1500 
 18 H       -1.5290     3.7930     0.3690 H     1 <1>   0.1500 
 19 H       -4.2890     0.7970     1.6000 H     1 <1>   0.1500 
 20 H       -3.3850     3.1160     1.7840 H     1 <1>   0.1500 
 21 H       -4.7050    -2.9040     2.1130 H     1 <1>   0.0800 
 22 H       -3.0440    -2.8850     1.6020 H     1 <1>   0.0800 
 23 H       -5.6970    -0.7030    -0.8280 H     1 <1>   0.0800 
 24 H       -6.4220    -1.5020     0.5370 H     1 <1>   0.0800 
 25 H       -4.2010    -5.0180     0.9840 H     1 <1>   0.0800 
 26 H       -3.5220    -4.1610    -0.3730 H     1 <1>   0.0800 
 27 H       -5.1580    -2.7930    -1.8930 H     1 <1>   0.0800 
 28 H       -6.8530    -2.8180    -1.4900 H     1 <1>   0.0800 
 29 H       -6.3820    -4.2120     0.4040 H     1 <1>   0.4500 
 30 H       -5.7180    -4.9190    -0.9410 H     1 <1>   0.4500 
@<TRIPOS>BOND
  1   1   2  ar  
  2   1   3  ar  
  3   2   4  ar  
  4   2   5  ar  
  5   3   6  ar  
  6   3  17  1   
  7   4   7  ar  
  8   5   8  ar  
  9   5   9  ar  
 10   6   8  ar  
 11   7  10  ar  
 12   7  18  1   
 13   8  11  1   
 14   9  10  ar  
 15   9  19  1   
 16  10  20  1   
 17  11  12  1   
 18  11  13  1   
 19  12  14  1   
 20  12  21  1   
 21  12  22  1   
 22  13  15  1   
 23  13  23  1   
 24  13  24  1   
 25  14  16  1   
 26  14  25  1   
 27  14  26  1   
 28  15  16  1   
 29  15  27  1   
 30  15  28  1   
 31  16  29  1   
 32  16  30  1   
@<TRIPOS>SUBSTRUCTURE
  1 ****   8 GROUP 4 **** **** 0

# MOE 2024.06 (io_trps.svl 2023.06)
