@<TRIPOS>MOLECULE
NONAME
47 50 1 0 0 
SMALL
USER_CHARGES


@<TRIPOS>ATOM
  1 S       -0.3120    -0.9870     2.1740 S.o2  1 <1>   1.4470 
  2 O       -0.3590    -0.1580     3.3590 O.2   1 <1>  -0.6500 
  3 O       -0.2620    -2.4220     2.3160 O.2   1 <1>  -0.6500 
  4 N       -1.7420    -0.6960     1.3500 N.am  1 <1>  -0.9140 
  5 C        0.9660    -0.4080     1.0240 C.ar  1 <1>  -0.0090 
  6 C       -2.1540     0.7050     1.3380 C.3   1 <1>   0.1960 
  7 C        0.9620    -0.8070    -0.3070 C.ar  1 <1>  -0.1500 
  8 C        1.9790     0.4470     1.4410 C.ar  1 <1>  -0.1500 
  9 C       -3.4550     0.9190     0.5350 C.3   1 <1>   0.0000 
 10 C        1.9310    -0.3670    -1.1920 C.ar  1 <1>  -0.1500 
 11 C        2.9510     0.8910     0.5620 C.ar  1 <1>  -0.1500 
 12 C       -3.8210     2.4220     0.5680 C.3   1 <1>  -0.1600 
 13 C       -3.2760     0.4950    -0.9430 C.3   1 <1>  -0.1600 
 14 C       -4.6340     0.1180     1.1420 C.3   1 <1>  -0.1600 
 15 C        2.9330     0.4860    -0.7610 C.ar  1 <1>  -0.1430 
 16 C       -5.1140     2.6910    -0.2250 C.3   1 <1>  -0.0800 
 17 C       -4.5680     0.7520    -1.7430 C.3   1 <1>  -0.0800 
 18 C       -5.9300     0.3750     0.3500 C.3   1 <1>  -0.0800 
 19 C        3.9960     0.9710    -1.7300 C.3   1 <1>  -0.0970 
 20 C       -4.9100     2.2520    -1.6860 C.3   1 <1>  -0.1600 
 21 C       -6.2640     1.8770     0.3950 C.3   1 <1>  -0.1600 
 22 C       -5.7210    -0.0540    -1.1140 C.3   1 <1>  -0.1600 
 23 H       -2.4370    -1.2230     1.8720 H     1 <1>   0.4200 
 24 H       -1.3700     1.3000     0.8980 H     1 <1>   0.0800 
 25 H       -2.3040     1.0480     2.3490 H     1 <1>   0.0800 
 26 H        0.1880    -1.4720    -0.6540 H     1 <1>   0.1500 
 27 H        2.0080     0.7700     2.4680 H     1 <1>   0.1500 
 28 H        1.9010    -0.6910    -2.2180 H     1 <1>   0.1500 
 29 H        3.7230     1.5540     0.9140 H     1 <1>   0.1500 
 30 H       -3.0200     3.0040     0.1460 H     1 <1>   0.0800 
 31 H       -3.9560     2.7450     1.5860 H     1 <1>   0.0800 
 32 H       -3.0290    -0.5500    -1.0000 H     1 <1>   0.0800 
 33 H       -2.4640     1.0440    -1.3860 H     1 <1>   0.0800 
 34 H       -4.7800     0.4000     2.1700 H     1 <1>   0.0800 
 35 H       -4.4190    -0.9360     1.1180 H     1 <1>   0.0800 
 36 H       -5.3510     3.7410    -0.1900 H     1 <1>   0.0800 
 37 H       -4.4280     0.4490    -2.7660 H     1 <1>   0.0800 
 38 H       -6.7390    -0.1900     0.7810 H     1 <1>   0.0800 
 39 H        4.2080     0.2130    -2.4640 H     1 <1>   0.0800 
 40 H        4.9070     1.2000    -1.2080 H     1 <1>   0.0800 
 41 H        3.6520     1.8560    -2.2340 H     1 <1>   0.0800 
 42 H       -4.1150     2.8240    -2.1320 H     1 <1>   0.0800 
 43 H       -5.8050     2.4420    -2.2520 H     1 <1>   0.0800 
 44 H       -6.4230     2.1860     1.4140 H     1 <1>   0.0800 
 45 H       -7.1750     2.0640    -0.1480 H     1 <1>   0.0800 
 46 H       -5.4950    -1.1050    -1.1580 H     1 <1>   0.0800 
 47 H       -6.6250     0.1090    -1.6740 H     1 <1>   0.0800 
@<TRIPOS>BOND
  1   1   2  2   
  2   1   3  2   
  3   1   4  am  
  4   1   5  1   
  5   4   6  1   
  6   4  23  1   
  7   5   7  ar  
  8   5   8  ar  
  9   6   9  1   
 10   6  24  1   
 11   6  25  1   
 12   7  10  ar  
 13   7  26  1   
 14   8  11  ar  
 15   8  27  1   
 16   9  12  1   
 17   9  13  1   
 18   9  14  1   
 19  10  15  ar  
 20  10  28  1   
 21  11  15  ar  
 22  11  29  1   
 23  12  16  1   
 24  12  30  1   
 25  12  31  1   
 26  13  17  1   
 27  13  32  1   
 28  13  33  1   
 29  14  18  1   
 30  14  34  1   
 31  14  35  1   
 32  15  19  1   
 33  16  20  1   
 34  16  21  1   
 35  16  36  1   
 36  17  20  1   
 37  17  22  1   
 38  17  37  1   
 39  18  21  1   
 40  18  22  1   
 41  18  38  1   
 42  19  39  1   
 43  19  40  1   
 44  19  41  1   
 45  20  42  1   
 46  20  43  1   
 47  21  44  1   
 48  21  45  1   
 49  22  46  1   
 50  22  47  1   
@<TRIPOS>SUBSTRUCTURE
  1 ****   6 GROUP 4 **** **** 0

# MOE 2024.06 (io_trps.svl 2023.06)
