@<TRIPOS>MOLECULE
NONAME
45 46 1 0 0 
SMALL
USER_CHARGES


@<TRIPOS>ATOM
  1 CL       0.2770    -0.0220    -0.7660 Cl    1 <1>  -0.1770 
  2 C        1.8000    -0.7070    -0.2570 C.ar  1 <1>   0.1770 
  3 C        2.4230    -1.6440    -1.0600 C.ar  1 <1>  -0.1500 
  4 C        2.3570    -0.3030     0.9400 C.ar  1 <1>  -0.1500 
  5 C        3.6330    -2.1910    -0.6630 C.ar  1 <1>  -0.1440 
  6 C        3.5650    -0.8460     1.3420 C.ar  1 <1>  -0.1500 
  7 C        4.2100    -1.7890     0.5410 C.ar  1 <1>   0.0830 
  8 C        4.3180    -3.2270    -1.5440 C.3   1 <1>  -0.0960 
  9 O        5.4000    -2.3480     0.8790 O.3   1 <1>  -0.3630 
 10 C        6.1470    -1.8950     1.9990 C.3   1 <1>   0.1810 
 11 C        7.5120    -2.5760     2.0710 C.2   1 <1>   0.5690 
 12 O        7.7370    -3.2410     3.0570 O.2   1 <1>  -0.5700 
 13 N        8.4570    -2.4150     1.0810 N.am  1 <1>  -0.6600 
 14 C        8.2560    -1.6200    -0.1640 C.3   1 <1>   0.1400 
 15 C        9.7850    -3.0820     1.1690 C.3   1 <1>   0.1400 
 16 C        9.3500    -0.5550    -0.2710 C.3   1 <1>  -0.1600 
 17 C       10.8940    -2.0320     1.0750 C.3   1 <1>  -0.1600 
 18 C       10.7620    -1.1740    -0.1980 C.3   1 <1>  -0.0190 
 19 C       11.8730    -0.1280    -0.2720 C.2   1 <1>   0.6590 
 20 O       11.6730     1.0490    -0.1110 O.2   1 <1>  -0.5700 
 21 O       13.0850    -0.6040    -0.5290 O.3   1 <1>  -0.4300 
 22 C       14.2050     0.2450    -0.6170 C.3   1 <1>   0.1200 
 23 C       15.4300    -0.6160    -0.9050 C.3   1 <1>  -0.2400 
 24 H        1.9560    -1.9350    -1.9830 H     1 <1>   0.1500 
 25 H        1.8470     0.4250     1.5460 H     1 <1>   0.1500 
 26 H        3.9800    -0.5250     2.2790 H     1 <1>   0.1500 
 27 H        3.7380    -3.4360    -2.4240 H     1 <1>   0.0800 
 28 H        4.4470    -4.1430    -0.9940 H     1 <1>   0.0800 
 29 H        5.2850    -2.8680    -1.8460 H     1 <1>   0.0800 
 30 H        5.5880    -2.1250     2.8880 H     1 <1>   0.0800 
 31 H        6.2840    -0.8340     1.9170 H     1 <1>   0.0800 
 32 H        7.2960    -1.1390    -0.1760 H     1 <1>   0.0800 
 33 H        8.3030    -2.2830    -1.0110 H     1 <1>   0.0800 
 34 H        9.8760    -3.7890     0.3620 H     1 <1>   0.0800 
 35 H        9.8820    -3.6240     2.0950 H     1 <1>   0.0800 
 36 H        9.2220     0.1550     0.5270 H     1 <1>   0.0800 
 37 H        9.2380    -0.0230    -1.1990 H     1 <1>   0.0800 
 38 H       11.8480    -2.5290     1.0820 H     1 <1>   0.0800 
 39 H       10.8490    -1.4020     1.9470 H     1 <1>   0.0800 
 40 H       10.8850    -1.8180    -1.0500 H     1 <1>   0.0800 
 41 H       14.3100     0.7680     0.3190 H     1 <1>   0.0800 
 42 H       14.0340     0.9550    -1.4090 H     1 <1>   0.0800 
 43 H       15.5800    -1.3250    -0.1110 H     1 <1>   0.0800 
 44 H       16.3020     0.0080    -0.9750 H     1 <1>   0.0800 
 45 H       15.3060    -1.1370    -1.8370 H     1 <1>   0.0800 
@<TRIPOS>BOND
  1   1   2  1   
  2   2   3  ar  
  3   2   4  ar  
  4   3   5  ar  
  5   3  24  1   
  6   4   6  ar  
  7   4  25  1   
  8   5   7  ar  
  9   5   8  1   
 10   6   7  ar  
 11   6  26  1   
 12   7   9  1   
 13   8  27  1   
 14   8  28  1   
 15   8  29  1   
 16   9  10  1   
 17  10  11  1   
 18  10  30  1   
 19  10  31  1   
 20  11  12  2   
 21  11  13  am  
 22  13  14  1   
 23  13  15  1   
 24  14  16  1   
 25  14  32  1   
 26  14  33  1   
 27  15  17  1   
 28  15  34  1   
 29  15  35  1   
 30  16  18  1   
 31  16  36  1   
 32  16  37  1   
 33  17  18  1   
 34  17  38  1   
 35  17  39  1   
 36  18  19  1   
 37  18  40  1   
 38  19  20  2   
 39  19  21  1   
 40  21  22  1   
 41  22  23  1   
 42  22  41  1   
 43  22  42  1   
 44  23  43  1   
 45  23  44  1   
 46  23  45  1   
@<TRIPOS>SUBSTRUCTURE
  1 ****  14 GROUP 4 **** **** 0

# MOE 2024.06 (io_trps.svl 2023.06)
