@<TRIPOS>MOLECULE
NONAME
43 44 1 0 0 
SMALL
USER_CHARGES


@<TRIPOS>ATOM
  1 F       -1.4730     0.9210     2.7060 F     1 <1>  -0.3400 
  2 C       -0.6280     1.4110     1.8060 C.3   1 <1>   1.1640 
  3 F        0.0180     0.3720     1.2960 F     1 <1>  -0.3400 
  4 F        0.2670     2.1210     2.4810 F     1 <1>  -0.3400 
  5 C       -1.3620     2.2190     0.7200 C.ar  1 <1>  -0.1440 
  6 C       -2.5750     1.7680     0.2050 C.ar  1 <1>  -0.1500 
  7 C       -0.8310     3.4050     0.2240 C.ar  1 <1>  -0.1500 
  8 C       -3.2490     2.4840    -0.7760 C.ar  1 <1>  -0.1440 
  9 C       -1.4930     4.1190    -0.7580 C.ar  1 <1>  -0.1500 
 10 C       -2.6960     3.6600    -1.2590 C.ar  1 <1>  -0.1500 
 11 C       -4.5770     1.9890    -1.3220 C.3   1 <1>   0.4870 
 12 N       -5.6530     2.2700    -0.3290 N.4   1 <1>  -0.9590 
 13 C       -6.9440     1.6400    -0.7590 C.3   1 <1>   0.3430 
 14 C       -5.7970     3.7370    -0.0790 C.3   1 <1>   0.3430 
 15 C       -8.0570     1.8610     0.2730 C.3   1 <1>  -0.0190 
 16 C       -6.8630     3.9780     0.9920 C.3   1 <1>  -0.1600 
 17 C       -9.3460     1.2730    -0.2720 C.2   1 <1>   0.6590 
 18 C       -8.2140     3.3580     0.6060 C.3   1 <1>  -0.1600 
 19 O       -9.4360     0.9260    -1.4210 O.2   1 <1>  -0.5700 
 20 O      -10.3450     1.1660     0.5890 O.3   1 <1>  -0.4300 
 21 C      -11.5970     0.6430     0.2080 C.3   1 <1>   0.1200 
 22 C      -12.5110     0.6700     1.4290 C.3   1 <1>  -0.2400 
 23 H       -2.9860     0.8430     0.5760 H     1 <1>   0.1500 
 24 H        0.1080     3.7840     0.5960 H     1 <1>   0.1500 
 25 H       -1.0630     5.0330    -1.1350 H     1 <1>   0.1500 
 26 H       -3.1870     4.2310    -2.0300 H     1 <1>   0.1500 
 27 H       -4.5100     0.9290    -1.5060 H     1 <1>   0.0800 
 28 H       -4.7940     2.4810    -2.2560 H     1 <1>   0.0800 
 29 H       -5.3530     1.8470     0.5580 H     1 <1>   0.4500 
 30 H       -6.8100     0.5810    -0.9090 H     1 <1>   0.0800 
 31 H       -7.2580     2.0670    -1.6990 H     1 <1>   0.0800 
 32 H       -6.0850     4.2370    -0.9900 H     1 <1>   0.0800 
 33 H       -4.8580     4.1520     0.2530 H     1 <1>   0.0800 
 34 H       -7.8110     1.3190     1.1670 H     1 <1>   0.0800 
 35 H       -6.9860     5.0390     1.1280 H     1 <1>   0.0800 
 36 H       -6.5250     3.5740     1.9310 H     1 <1>   0.0800 
 37 H       -8.9150     3.4800     1.4150 H     1 <1>   0.0800 
 38 H       -8.6130     3.8770    -0.2500 H     1 <1>   0.0800 
 39 H      -11.4560    -0.3650    -0.1450 H     1 <1>   0.0800 
 40 H      -11.9970     1.2510    -0.5860 H     1 <1>   0.0800 
 41 H      -12.0990     0.0660     2.2170 H     1 <1>   0.0800 
 42 H      -13.4760     0.2760     1.1670 H     1 <1>   0.0800 
 43 H      -12.6390     1.6800     1.7760 H     1 <1>   0.0800 
@<TRIPOS>BOND
  1   1   2  1   
  2   2   3  1   
  3   2   4  1   
  4   2   5  1   
  5   5   6  ar  
  6   5   7  ar  
  7   6   8  ar  
  8   6  23  1   
  9   7   9  ar  
 10   7  24  1   
 11   8  10  ar  
 12   8  11  1   
 13   9  10  ar  
 14   9  25  1   
 15  10  26  1   
 16  11  12  1   
 17  11  27  1   
 18  11  28  1   
 19  12  13  1   
 20  12  14  1   
 21  12  29  1   
 22  13  15  1   
 23  13  30  1   
 24  13  31  1   
 25  14  16  1   
 26  14  32  1   
 27  14  33  1   
 28  15  17  1   
 29  15  18  1   
 30  15  34  1   
 31  16  18  1   
 32  16  35  1   
 33  16  36  1   
 34  17  19  2   
 35  17  20  1   
 36  18  37  1   
 37  18  38  1   
 38  20  21  1   
 39  21  22  1   
 40  21  39  1   
 41  21  40  1   
 42  22  41  1   
 43  22  42  1   
 44  22  43  1   
@<TRIPOS>SUBSTRUCTURE
  1 ****  12 GROUP 4 **** **** 0

# MOE 2024.06 (io_trps.svl 2023.06)
