@<TRIPOS>MOLECULE
NONAME
52 54 1 0 0 
SMALL
USER_CHARGES


@<TRIPOS>ATOM
  1 F        0.5070    -0.6680    -0.1800 F     1 <1>  -0.1900 
  2 C        1.6190    -1.3140     0.0620 C.ar  1 <1>   0.1900 
  3 C        2.7950    -0.8470    -0.4940 C.ar  1 <1>  -0.1500 
  4 C        1.5770    -2.4380     0.8640 C.ar  1 <1>  -0.1500 
  5 C        3.9680    -1.5350    -0.2360 C.ar  1 <1>  -0.1500 
  6 C        2.7590    -3.1130     1.1140 C.ar  1 <1>  -0.1500 
  7 C        3.9630    -2.6750     0.5680 C.ar  1 <1>   0.1000 
  8 N        5.1300    -3.3880     0.8330 N.pl3 1 <1>  -0.8380 
  9 C        5.2770    -4.7580     0.2560 C.3   1 <1>   0.2090 
 10 C        6.3950    -2.6820     1.2080 C.3   1 <1>   0.2090 
 11 C        6.3430    -4.7880    -0.8610 C.3   1 <1>   0.3430 
 12 C        7.4500    -2.7630     0.0830 C.3   1 <1>   0.3430 
 13 N        7.6430    -4.1670    -0.4300 N.4   1 <1>  -0.9590 
 14 C        8.6910    -4.2490    -1.4760 C.3   1 <1>   0.4860 
 15 C       10.0160    -3.8510    -0.8570 C.ar  1 <1>  -0.1430 
 16 C       10.5460    -4.5810     0.2040 C.ar  1 <1>   0.0830 
 17 C       10.7030    -2.7510    -1.3500 C.ar  1 <1>  -0.1500 
 18 O        9.8190    -5.6390     0.6640 O.3   1 <1>  -0.3630 
 19 C       11.7710    -4.2110     0.7500 C.ar  1 <1>  -0.1500 
 20 C       11.9120    -2.3690    -0.7960 C.ar  1 <1>   0.0830 
 21 C       10.3850    -6.5550     1.5820 C.3   1 <1>   0.0400 
 22 C       12.4620    -3.1230     0.2460 C.ar  1 <1>   0.0830 
 23 O       12.4940    -1.2580    -1.3180 O.3   1 <1>  -0.3620 
 24 O       13.6660    -2.8450     0.7980 O.3   1 <1>  -0.3620 
 25 C       12.8280    -0.2100    -0.4300 C.3   1 <1>   0.0400 
 26 C       14.7930    -3.1050    -0.0110 C.3   1 <1>   0.0400 
 27 H        2.7820     0.0330    -1.1110 H     1 <1>   0.1500 
 28 H        0.6430    -2.7680     1.2820 H     1 <1>   0.1500 
 29 H        4.8850    -1.1840    -0.6660 H     1 <1>   0.1500 
 30 H        2.7550    -3.9850     1.7420 H     1 <1>   0.1500 
 31 H        4.3340    -5.0850    -0.1480 H     1 <1>   0.0800 
 32 H        5.5520    -5.4430     1.0390 H     1 <1>   0.0800 
 33 H        6.7910    -3.1280     2.1030 H     1 <1>   0.0800 
 34 H        6.1830    -1.6500     1.4310 H     1 <1>   0.0800 
 35 H        5.9510    -4.2510    -1.7090 H     1 <1>   0.0800 
 36 H        6.5050    -5.8100    -1.1610 H     1 <1>   0.0800 
 37 H        8.3850    -2.3770     0.4560 H     1 <1>   0.0800 
 38 H        7.1300    -2.1270    -0.7250 H     1 <1>   0.0800 
 39 H        8.0320    -4.7250     0.3500 H     1 <1>   0.4500 
 40 H        8.4510    -3.5980    -2.3010 H     1 <1>   0.0800 
 41 H        8.7680    -5.2600    -1.8430 H     1 <1>   0.0800 
 42 H       10.3180    -2.1690    -2.1690 H     1 <1>   0.1500 
 43 H       12.2190    -4.7470     1.5650 H     1 <1>   0.1500 
 44 H       10.5770    -6.0510     2.5130 H     1 <1>   0.0800 
 45 H       11.2960    -6.9520     1.1680 H     1 <1>   0.0800 
 46 H        9.6830    -7.3540     1.7420 H     1 <1>   0.0800 
 47 H       13.0050     0.6770    -1.0110 H     1 <1>   0.0800 
 48 H       13.7190    -0.4690     0.1110 H     1 <1>   0.0800 
 49 H       12.0100    -0.0490     0.2490 H     1 <1>   0.0800 
 50 H       15.6760    -2.8600     0.5520 H     1 <1>   0.0800 
 51 H       14.7440    -2.5000    -0.8990 H     1 <1>   0.0800 
 52 H       14.8010    -4.1490    -0.2710 H     1 <1>   0.0800 
@<TRIPOS>BOND
  1   1   2  1   
  2   2   3  ar  
  3   2   4  ar  
  4   3   5  ar  
  5   3  27  1   
  6   4   6  ar  
  7   4  28  1   
  8   5   7  ar  
  9   5  29  1   
 10   6   7  ar  
 11   6  30  1   
 12   7   8  1   
 13   8   9  1   
 14   8  10  1   
 15   9  11  1   
 16   9  31  1   
 17   9  32  1   
 18  10  12  1   
 19  10  33  1   
 20  10  34  1   
 21  11  13  1   
 22  11  35  1   
 23  11  36  1   
 24  12  13  1   
 25  12  37  1   
 26  12  38  1   
 27  13  14  1   
 28  13  39  1   
 29  14  15  1   
 30  14  40  1   
 31  14  41  1   
 32  15  16  ar  
 33  15  17  ar  
 34  16  18  1   
 35  16  19  ar  
 36  17  20  ar  
 37  17  42  1   
 38  18  21  1   
 39  19  22  ar  
 40  19  43  1   
 41  20  22  ar  
 42  20  23  1   
 43  21  44  1   
 44  21  45  1   
 45  21  46  1   
 46  22  24  1   
 47  23  25  1   
 48  24  26  1   
 49  25  47  1   
 50  25  48  1   
 51  25  49  1   
 52  26  50  1   
 53  26  51  1   
 54  26  52  1   
@<TRIPOS>SUBSTRUCTURE
  1 ****  12 GROUP 4 **** **** 0

# MOE 2024.06 (io_trps.svl 2023.06)
