@<TRIPOS>MOLECULE
NONAME
41 43 1 0 0 
SMALL
USER_CHARGES


@<TRIPOS>ATOM
  1 O       -0.0510    -0.9210    -0.0170 O.2   1 <1>  -0.5700 
  2 C        0.0950    -1.9420     0.6250 C.2   1 <1>   0.5440 
  3 N       -0.9530    -2.3950     1.3770 N.am  1 <1>  -0.7300 
  4 C        1.3590    -2.6570     0.5990 C.ar  1 <1>   0.0860 
  5 C       -2.2770    -1.7180     1.4910 C.3   1 <1>   0.1400 
  6 C        2.5510    -1.9790     0.3500 C.ar  1 <1>  -0.1500 
  7 C        1.4370    -4.0340     0.8160 C.ar  1 <1>  -0.1500 
  8 C       -3.0870    -1.8030     0.1890 C.3   1 <1>   0.2000 
  9 C        3.7820    -2.6190     0.3240 C.ar  1 <1>   0.1170 
 10 C        2.6520    -4.6930     0.7940 C.ar  1 <1>  -0.1500 
 11 O       -4.3890    -1.3820     0.4300 O.3   1 <1>  -0.5600 
 12 C       -3.2590    -3.2080    -0.3790 C.3   1 <1>  -0.1600 
 13 N        4.9280    -1.8590     0.0510 N.am  1 <1>  -0.5470 
 14 C        3.8170    -3.9910     0.5490 C.ar  1 <1>  -0.1500 
 15 C       -5.2250    -1.8380    -0.5830 C.3   1 <1>   0.1200 
 16 C       -4.5960    -3.1300    -1.1000 C.3   1 <1>  -0.1600 
 17 C        6.2520    -2.0580     0.3720 C.2   1 <1>   0.7150 
 18 O        6.5650    -2.9900     1.0890 O.2   1 <1>  -0.5700 
 19 C        7.2360    -1.1330    -0.1480 C.2   1 <1>   0.0550 
 20 O        8.5040    -1.1800     0.2560 O.3   1 <1>  -0.2800 
 21 C        7.1200    -0.1210    -1.0570 C.2   1 <1>  -0.1500 
 22 C        9.1860    -0.2420    -0.3590 C.2   1 <1>  -0.0100 
 23 C        8.3840     0.4550    -1.1900 C.2   1 <1>  -0.1500 
 24 H       -0.8110    -3.1860     2.0040 H     1 <1>   0.3700 
 25 H       -2.1220    -0.6810     1.7350 H     1 <1>   0.0800 
 26 H       -2.8380    -2.1790     2.2850 H     1 <1>   0.0800 
 27 H        2.5040    -0.9190     0.1760 H     1 <1>   0.1500 
 28 H        0.5410    -4.5990     0.9950 H     1 <1>   0.1500 
 29 H       -2.6660    -1.1440    -0.5530 H     1 <1>   0.0800 
 30 H        2.6960    -5.7560     0.9650 H     1 <1>   0.1500 
 31 H       -3.3110    -3.9220     0.4240 H     1 <1>   0.0800 
 32 H       -2.4470    -3.4660    -1.0350 H     1 <1>   0.0800 
 33 H        4.7490    -0.9690    -0.4050 H     1 <1>   0.3700 
 34 H        4.7540    -4.5190     0.5300 H     1 <1>   0.1500 
 35 H       -5.2590    -1.0850    -1.3520 H     1 <1>   0.0800 
 36 H       -6.2080    -1.9950    -0.1740 H     1 <1>   0.0800 
 37 H       -5.2160    -3.9790    -0.8710 H     1 <1>   0.0800 
 38 H       -4.4630    -3.0680    -2.1660 H     1 <1>   0.0800 
 39 H        6.2470     0.2020    -1.5940 H     1 <1>   0.1500 
 40 H       10.2370    -0.1380    -0.1470 H     1 <1>   0.1500 
 41 H        8.6400     1.2800    -1.8310 H     1 <1>   0.1500 
@<TRIPOS>BOND
  1   1   2  2   
  2   2   3  am  
  3   2   4  1   
  4   3   5  1   
  5   3  24  1   
  6   4   6  ar  
  7   4   7  ar  
  8   5   8  1   
  9   5  25  1   
 10   5  26  1   
 11   6   9  ar  
 12   6  27  1   
 13   7  10  ar  
 14   7  28  1   
 15   8  11  1   
 16   8  12  1   
 17   8  29  1   
 18   9  13  1   
 19   9  14  ar  
 20  10  14  ar  
 21  10  30  1   
 22  11  15  1   
 23  12  16  1   
 24  12  31  1   
 25  12  32  1   
 26  13  17  am  
 27  13  33  1   
 28  14  34  1   
 29  15  16  1   
 30  15  35  1   
 31  15  36  1   
 32  16  37  1   
 33  16  38  1   
 34  17  18  2   
 35  17  19  1   
 36  19  20  1   
 37  19  21  2   
 38  20  22  1   
 39  21  23  1   
 40  21  39  1   
 41  22  23  2   
 42  22  40  1   
 43  23  41  1   
@<TRIPOS>SUBSTRUCTURE
  1 ****   6 GROUP 4 **** **** 0

# MOE 2024.06 (io_trps.svl 2023.06)
