@<TRIPOS>MOLECULE
NONAME
41 42 1 0 0 
SMALL
USER_CHARGES


@<TRIPOS>ATOM
  1 S       -0.1240     0.0800     0.6410 S.o2  1 <1>   1.3330 
  2 O        0.2810    -1.1810     1.2180 O.2   1 <1>  -0.6500 
  3 O       -0.9260     1.0010     1.4140 O.2   1 <1>  -0.6500 
  4 N        1.2750     0.8850     0.1250 N.am  1 <1>  -0.8490 
  5 C       -0.9790    -0.2240    -0.8900 C.3   1 <1>  -0.1350 
  6 C        2.3310    -0.0470    -0.2900 C.3   1 <1>   0.1960 
  7 C        1.7570     1.8400     1.1280 C.3   1 <1>   0.1960 
  8 C        3.5060     0.7170    -0.9030 C.3   1 <1>  -0.1600 
  9 C        2.9280     2.6560     0.5730 C.3   1 <1>  -0.1600 
 10 C        4.0700     1.7500     0.0870 C.3   1 <1>  -0.0190 
 11 C        5.2090     2.5650    -0.5260 C.2   1 <1>   0.5690 
 12 O        5.0160     3.1460    -1.5650 O.2   1 <1>  -0.5700 
 13 N        6.4040     2.5870     0.1440 N.am  1 <1>  -0.5470 
 14 C        7.6180     3.2340    -0.1380 C.ar  1 <1>   0.1170 
 15 C        8.7660     2.7900     0.5060 C.ar  1 <1>  -0.1500 
 16 C        7.7310     4.3080    -1.0180 C.ar  1 <1>  -0.1500 
 17 C        9.9830     3.4000     0.2720 C.ar  1 <1>   0.1010 
 18 C        8.9520     4.9160    -1.2530 C.ar  1 <1>  -0.1500 
 19 S       11.4080     2.7440     1.1610 S.3   1 <1>  -0.3320 
 20 C       10.0900     4.4650    -0.6080 C.ar  1 <1>  -0.1500 
 21 C       12.8700     3.7420     0.6340 C.3   1 <1>  -0.0100 
 22 H       -0.3860    -0.8430    -1.5330 H     1 <1>   0.0800 
 23 H       -1.1780     0.7040    -1.3880 H     1 <1>   0.0800 
 24 H       -1.9100    -0.7190    -0.6970 H     1 <1>   0.0800 
 25 H        1.9410    -0.7350    -1.0200 H     1 <1>   0.0800 
 26 H        2.6690    -0.6180     0.5600 H     1 <1>   0.0800 
 27 H        2.0530     1.3120     2.0200 H     1 <1>   0.0800 
 28 H        0.9650     2.5230     1.3910 H     1 <1>   0.0800 
 29 H        3.1690     1.2120    -1.7980 H     1 <1>   0.0800 
 30 H        4.2770     0.0230    -1.1830 H     1 <1>   0.0800 
 31 H        3.2890     3.3230     1.3360 H     1 <1>   0.0800 
 32 H        2.5700     3.2600    -0.2430 H     1 <1>   0.0800 
 33 H        4.4530     1.2150     0.9370 H     1 <1>   0.0800 
 34 H        6.4360     2.0050     0.9780 H     1 <1>   0.3700 
 35 H        8.7240     1.9660     1.1930 H     1 <1>   0.1500 
 36 H        6.8620     4.6820    -1.5280 H     1 <1>   0.1500 
 37 H        9.0140     5.7430    -1.9400 H     1 <1>   0.1500 
 38 H       11.0300     4.9440    -0.7980 H     1 <1>   0.1500 
 39 H       13.7290     3.3590     1.1540 H     1 <1>   0.0800 
 40 H       12.6870     4.7670     0.9020 H     1 <1>   0.0800 
 41 H       12.9850     3.6270    -0.4290 H     1 <1>   0.0800 
@<TRIPOS>BOND
  1   1   2  2   
  2   1   3  2   
  3   1   4  am  
  4   1   5  1   
  5   4   6  1   
  6   4   7  1   
  7   5  22  1   
  8   5  23  1   
  9   5  24  1   
 10   6   8  1   
 11   6  25  1   
 12   6  26  1   
 13   7   9  1   
 14   7  27  1   
 15   7  28  1   
 16   8  10  1   
 17   8  29  1   
 18   8  30  1   
 19   9  10  1   
 20   9  31  1   
 21   9  32  1   
 22  10  11  1   
 23  10  33  1   
 24  11  12  2   
 25  11  13  am  
 26  13  14  1   
 27  13  34  1   
 28  14  15  ar  
 29  14  16  ar  
 30  15  17  ar  
 31  15  35  1   
 32  16  18  ar  
 33  16  36  1   
 34  17  19  1   
 35  17  20  ar  
 36  18  20  ar  
 37  18  37  1   
 38  19  21  1   
 39  20  38  1   
 40  21  39  1   
 41  21  40  1   
 42  21  41  1   
@<TRIPOS>SUBSTRUCTURE
  1 ****  11 GROUP 4 **** **** 0

# MOE 2024.06 (io_trps.svl 2023.06)
