@<TRIPOS>MOLECULE
NONAME
49 50 1 0 0 
SMALL
USER_CHARGES


@<TRIPOS>ATOM
  1 O        2.7660    -1.9050    -1.5800 O.2   1 <1>  -0.5700 
  2 C        1.6020    -1.9480    -1.2240 C.2   1 <1>   0.5440 
  3 N        0.6740    -1.1700    -1.8920 N.am  1 <1>  -0.6600 
  4 C        1.2340    -2.7930    -0.1080 C.ar  1 <1>   0.0860 
  5 C        1.0170    -0.4640    -3.1570 C.3   1 <1>   0.0600 
  6 C       -0.6600    -0.8210    -1.3290 C.3   1 <1>   0.0600 
  7 C        1.8720    -2.6700     1.1370 C.ar  1 <1>   0.1170 
  8 C        0.2270    -3.7500    -0.2540 C.ar  1 <1>  -0.1500 
  9 N        2.9030    -1.7300     1.2990 N.am  1 <1>  -0.5470 
 10 C        1.4750    -3.4970     2.1850 C.ar  1 <1>  -0.1500 
 11 C       -0.1560    -4.5600     0.7960 C.ar  1 <1>  -0.1500 
 12 C        3.3620    -1.0580     2.4020 C.2   1 <1>   0.5690 
 13 C        0.4700    -4.4310     2.0220 C.ar  1 <1>  -0.1500 
 14 O        2.8930    -1.1990     3.5060 O.2   1 <1>  -0.5700 
 15 C        4.5010    -0.0600     2.2410 C.3   1 <1>   0.1810 
 16 O        4.9960    -0.0350     0.9100 O.3   1 <1>  -0.3630 
 17 C        5.9530     0.8490     0.5160 C.ar  1 <1>   0.0820 
 18 C        6.3280     0.8600    -0.8300 C.ar  1 <1>  -0.1440 
 19 C        6.5520     1.7360     1.4090 C.ar  1 <1>  -0.1500 
 20 C        7.2790     1.7800    -1.2520 C.ar  1 <1>  -0.1500 
 21 C        5.7070    -0.1080    -1.8460 C.3   1 <1>   0.0630 
 22 C        7.5040     2.6370     0.9700 C.ar  1 <1>  -0.1500 
 23 C        7.8660     2.6610    -0.3620 C.ar  1 <1>  -0.1500 
 24 C        6.7750    -0.8630    -2.6480 C.3   1 <1>  -0.2400 
 25 C        4.7550     0.6390    -2.7830 C.3   1 <1>  -0.2400 
 26 H        1.2590     0.5630    -2.9440 H     1 <1>   0.0800 
 27 H        0.1850    -0.5020    -3.8370 H     1 <1>   0.0800 
 28 H        1.8650    -0.9290    -3.6300 H     1 <1>   0.0800 
 29 H       -0.7250    -1.0950    -0.2900 H     1 <1>   0.0800 
 30 H       -1.4300    -1.3330    -1.8780 H     1 <1>   0.0800 
 31 H       -0.8200     0.2410    -1.4060 H     1 <1>   0.0800 
 32 H       -0.2550    -3.8550    -1.2100 H     1 <1>   0.1500 
 33 H        3.3650    -1.4540     0.4190 H     1 <1>   0.3700 
 34 H        1.9590    -3.4170     3.1410 H     1 <1>   0.1500 
 35 H       -0.9360    -5.2910     0.6650 H     1 <1>   0.1500 
 36 H        0.1790    -5.0580     2.8470 H     1 <1>   0.1500 
 37 H        5.3070    -0.3330     2.8960 H     1 <1>   0.0800 
 38 H        4.1400     0.9210     2.4870 H     1 <1>   0.0800 
 39 H        6.2960     1.7470     2.4500 H     1 <1>   0.1500 
 40 H        7.5720     1.8190    -2.2860 H     1 <1>   0.1500 
 41 H        5.1330    -0.8570    -1.3320 H     1 <1>   0.0800 
 42 H        7.9640     3.3200     1.6640 H     1 <1>   0.1500 
 43 H        8.6040     3.3630    -0.7090 H     1 <1>   0.1500 
 44 H        7.3230    -0.2010    -3.2930 H     1 <1>   0.0800 
 45 H        6.3090    -1.6200    -3.2530 H     1 <1>   0.0800 
 46 H        7.4630    -1.3410    -1.9740 H     1 <1>   0.0800 
 47 H        5.2820     1.3810    -3.3540 H     1 <1>   0.0800 
 48 H        3.9900     1.1250    -2.2040 H     1 <1>   0.0800 
 49 H        4.2830    -0.0530    -3.4560 H     1 <1>   0.0800 
@<TRIPOS>BOND
  1   1   2  2   
  2   2   3  am  
  3   2   4  1   
  4   3   5  1   
  5   3   6  1   
  6   4   7  ar  
  7   4   8  ar  
  8   5  26  1   
  9   5  27  1   
 10   5  28  1   
 11   6  29  1   
 12   6  30  1   
 13   6  31  1   
 14   7   9  1   
 15   7  10  ar  
 16   8  11  ar  
 17   8  32  1   
 18   9  12  am  
 19   9  33  1   
 20  10  13  ar  
 21  10  34  1   
 22  11  13  ar  
 23  11  35  1   
 24  12  14  2   
 25  12  15  1   
 26  13  36  1   
 27  15  16  1   
 28  15  37  1   
 29  15  38  1   
 30  16  17  1   
 31  17  18  ar  
 32  17  19  ar  
 33  18  20  ar  
 34  18  21  1   
 35  19  22  ar  
 36  19  39  1   
 37  20  23  ar  
 38  20  40  1   
 39  21  24  1   
 40  21  25  1   
 41  21  41  1   
 42  22  23  ar  
 43  22  42  1   
 44  23  43  1   
 45  24  44  1   
 46  24  45  1   
 47  24  46  1   
 48  25  47  1   
 49  25  48  1   
 50  25  49  1   
@<TRIPOS>SUBSTRUCTURE
  1 ****   9 GROUP 4 **** **** 0

# MOE 2024.06 (io_trps.svl 2023.06)
