@<TRIPOS>MOLECULE
NONAME
47 48 1 0 0 
SMALL
USER_CHARGES


@<TRIPOS>ATOM
  1 S        0.4220    -1.2480     1.1110 S.o2  1 <1>   1.3330 
  2 O       -0.6920    -1.1270     2.0200 O.2   1 <1>  -0.6500 
  3 O        1.5390    -2.0920     1.4760 O.2   1 <1>  -0.6500 
  4 N       -0.0900    -1.7390    -0.4340 N.am  1 <1>  -0.8490 
  5 C        1.0080     0.4090     0.8190 C.3   1 <1>  -0.1350 
  6 C       -1.3930    -2.4110    -0.5670 C.3   1 <1>   0.2760 
  7 C        0.9620    -2.4580    -1.2120 C.3   1 <1>   0.2570 
  8 C       -2.5670    -1.4320    -0.4220 C.3   1 <1>  -0.1600 
  9 C       -1.5520    -3.6510     0.3310 C.3   1 <1>  -0.1600 
 10 C        2.2230    -1.6510    -1.5580 C.2   1 <1>   0.5690 
 11 C       -3.9010    -2.1420    -0.6970 C.3   1 <1>  -0.1600 
 12 C       -2.8920    -4.3500     0.0540 C.3   1 <1>  -0.1600 
 13 O        2.2310    -1.0310    -2.5950 O.2   1 <1>  -0.5700 
 14 N        3.2820    -1.6790    -0.6900 N.am  1 <1>  -0.5470 
 15 C       -4.0690    -3.3740     0.2040 C.3   1 <1>  -0.1600 
 16 C        4.5750    -1.1190    -0.7320 C.ar  1 <1>   0.1170 
 17 C        5.5190    -1.5150     0.2190 C.ar  1 <1>   0.1010 
 18 C        4.9630    -0.1690    -1.6730 C.ar  1 <1>  -0.1500 
 19 S        5.0190    -2.7550     1.4440 S.3   1 <1>  -0.3320 
 20 C        6.8010    -0.9890     0.2310 C.ar  1 <1>  -0.1500 
 21 C        6.2420     0.3610    -1.6660 C.ar  1 <1>  -0.1500 
 22 C        6.4320    -2.9720     2.6140 C.3   1 <1>  -0.0100 
 23 C        7.1620    -0.0470    -0.7160 C.ar  1 <1>  -0.1500 
 24 H        1.8000     0.4210     0.0990 H     1 <1>   0.0800 
 25 H        1.3720     0.8330     1.7330 H     1 <1>   0.0800 
 26 H        0.2060     1.0190     0.4540 H     1 <1>   0.0800 
 27 H       -1.4650    -2.7660    -1.5820 H     1 <1>   0.0800 
 28 H        0.5500    -2.7730    -2.1540 H     1 <1>   0.0800 
 29 H        1.2570    -3.3480    -0.6840 H     1 <1>   0.0800 
 30 H       -2.4430    -0.6220    -1.1180 H     1 <1>   0.0800 
 31 H       -2.6080    -1.0230     0.5690 H     1 <1>   0.0800 
 32 H       -1.5340    -3.3730     1.3680 H     1 <1>   0.0800 
 33 H       -0.7520    -4.3460     0.1530 H     1 <1>   0.0800 
 34 H       -3.9420    -2.4450    -1.7290 H     1 <1>   0.0800 
 35 H       -4.7140    -1.4570    -0.5240 H     1 <1>   0.0800 
 36 H       -3.0180    -5.1700     0.7390 H     1 <1>   0.0800 
 37 H       -2.8890    -4.7530    -0.9450 H     1 <1>   0.0800 
 38 H        3.1030    -2.1880     0.1910 H     1 <1>   0.3700 
 39 H       -4.9880    -3.8770    -0.0410 H     1 <1>   0.0800 
 40 H       -4.1330    -3.0540     1.2310 H     1 <1>   0.0800 
 41 H        4.2730     0.1710    -2.4210 H     1 <1>   0.1500 
 42 H        7.5260    -1.2960     0.9580 H     1 <1>   0.1500 
 43 H        6.5210     1.0930    -2.4040 H     1 <1>   0.1500 
 44 H        6.1230    -3.6750     3.3670 H     1 <1>   0.0800 
 45 H        6.6510    -2.0160     3.0530 H     1 <1>   0.0800 
 46 H        7.2700    -3.3540     2.0580 H     1 <1>   0.0800 
 47 H        8.1560     0.3680    -0.7160 H     1 <1>   0.1500 
@<TRIPOS>BOND
  1   1   2  2   
  2   1   3  2   
  3   1   4  am  
  4   1   5  1   
  5   4   6  1   
  6   4   7  1   
  7   5  24  1   
  8   5  25  1   
  9   5  26  1   
 10   6   8  1   
 11   6   9  1   
 12   6  27  1   
 13   7  10  1   
 14   7  28  1   
 15   7  29  1   
 16   8  11  1   
 17   8  30  1   
 18   8  31  1   
 19   9  12  1   
 20   9  32  1   
 21   9  33  1   
 22  10  13  2   
 23  10  14  am  
 24  11  15  1   
 25  11  34  1   
 26  11  35  1   
 27  12  15  1   
 28  12  36  1   
 29  12  37  1   
 30  14  16  1   
 31  14  38  1   
 32  15  39  1   
 33  15  40  1   
 34  16  17  ar  
 35  16  18  ar  
 36  17  19  1   
 37  17  20  ar  
 38  18  21  ar  
 39  18  41  1   
 40  19  22  1   
 41  20  23  ar  
 42  20  42  1   
 43  21  23  ar  
 44  21  43  1   
 45  22  44  1   
 46  22  45  1   
 47  22  46  1   
 48  23  47  1   
@<TRIPOS>SUBSTRUCTURE
  1 ****  10 GROUP 4 **** **** 0

# MOE 2024.06 (io_trps.svl 2023.06)
