@<TRIPOS>MOLECULE
NONAME
50 52 1 0 0 
SMALL
USER_CHARGES


@<TRIPOS>ATOM
  1 O       -0.8730    -0.0750    -3.0050 O.2   1 <1>  -0.5700 
  2 C       -0.3070     0.5330    -2.1260 C.2   1 <1>   0.5690 
  3 N       -0.9080     0.8890    -0.9510 N.am  1 <1>  -0.5470 
  4 C        1.1450     0.9820    -2.3470 C.3   1 <1>   0.1710 
  5 C       -2.1590     0.6010    -0.3760 C.ar  1 <1>   0.1170 
  6 N        2.2020     0.2640    -1.5730 N.3   1 <1>  -0.8100 
  7 C       -2.3130     0.8240     0.9960 C.ar  1 <1>   0.0830 
  8 C       -3.2380     0.1160    -1.1050 C.ar  1 <1>  -0.1500 
  9 C        2.0690     0.4020    -0.0990 C.3   1 <1>   0.1100 
 10 C        3.5460     0.7100    -2.0130 C.3   1 <1>   0.1100 
 11 O       -1.2250     1.3020     1.6770 O.3   1 <1>  -0.3630 
 12 C       -3.5310     0.5580     1.6110 C.ar  1 <1>  -0.1500 
 13 C       -4.4490    -0.1480    -0.4900 C.ar  1 <1>  -0.1500 
 14 C        3.2080    -0.2890     0.6750 C.3   1 <1>   0.2090 
 15 C        4.6870     0.0050    -1.2560 C.3   1 <1>   0.2090 
 16 C       -1.2690     1.4880     3.0750 C.3   1 <1>   0.0400 
 17 C       -4.5990     0.0730     0.8750 C.ar  1 <1>   0.0830 
 18 N        4.5400     0.1990     0.2120 N.pl3 1 <1>  -0.8380 
 19 O       -5.7520    -0.1590     1.5580 O.3   1 <1>  -0.3630 
 20 C        5.6470    -0.0540     1.0000 C.ar  1 <1>   0.4100 
 21 C       -6.8940    -0.6640     0.9020 C.3   1 <1>   0.0400 
 22 N        5.6090    -1.1210     1.7910 N.ar  1 <1>  -0.6200 
 23 C        6.7430     0.8020     0.9310 C.ar  1 <1>  -0.1500 
 24 C        6.6890    -1.3390     2.5210 C.ar  1 <1>   0.1600 
 25 C        7.8610     0.5640     1.6960 C.ar  1 <1>  -0.1500 
 26 C        7.8230    -0.5460     2.5140 C.ar  1 <1>  -0.1500 
 27 H       -0.2930     1.3460    -0.2780 H     1 <1>   0.3700 
 28 H        1.2050     2.0340    -2.1380 H     1 <1>   0.0800 
 29 H        1.3490     0.8520    -3.3960 H     1 <1>   0.0800 
 30 H       -3.1390    -0.0570    -2.1610 H     1 <1>   0.1500 
 31 H        1.1490    -0.0510     0.2240 H     1 <1>   0.0800 
 32 H        2.0560     1.4430     0.1730 H     1 <1>   0.0800 
 33 H        3.6440     1.7720    -1.8620 H     1 <1>   0.0800 
 34 H        3.6580     0.5080    -3.0640 H     1 <1>   0.0800 
 35 H       -3.6860     0.7180     2.6590 H     1 <1>   0.1500 
 36 H       -5.2560    -0.5230    -1.0900 H     1 <1>   0.1500 
 37 H        3.1460    -1.3530     0.5280 H     1 <1>   0.0800 
 38 H        3.1000    -0.0900     1.7270 H     1 <1>   0.0800 
 39 H        5.6330     0.3990    -1.5840 H     1 <1>   0.0800 
 40 H        4.6660    -1.0480    -1.4800 H     1 <1>   0.0800 
 41 H       -0.3050     1.8380     3.3980 H     1 <1>   0.0800 
 42 H       -1.4920     0.5480     3.5470 H     1 <1>   0.0800 
 43 H       -2.0190     2.2230     3.3070 H     1 <1>   0.0800 
 44 H       -7.6770    -0.7730     1.6300 H     1 <1>   0.0800 
 45 H       -6.6570    -1.6220     0.4740 H     1 <1>   0.0800 
 46 H       -7.1970     0.0340     0.1410 H     1 <1>   0.0800 
 47 H        6.6930     1.6510     0.2780 H     1 <1>   0.1500 
 48 H        6.6700    -2.2020     3.1640 H     1 <1>   0.1500 
 49 H        8.7200     1.2110     1.6610 H     1 <1>   0.1500 
 50 H        8.6610    -0.7930     3.1390 H     1 <1>   0.1500 
@<TRIPOS>BOND
  1   1   2  2   
  2   2   3  am  
  3   2   4  1   
  4   3   5  1   
  5   3  27  1   
  6   4   6  1   
  7   4  28  1   
  8   4  29  1   
  9   5   7  ar  
 10   5   8  ar  
 11   6   9  1   
 12   6  10  1   
 13   7  11  1   
 14   7  12  ar  
 15   8  13  ar  
 16   8  30  1   
 17   9  14  1   
 18   9  31  1   
 19   9  32  1   
 20  10  15  1   
 21  10  33  1   
 22  10  34  1   
 23  11  16  1   
 24  12  17  ar  
 25  12  35  1   
 26  13  17  ar  
 27  13  36  1   
 28  14  18  1   
 29  14  37  1   
 30  14  38  1   
 31  15  18  1   
 32  15  39  1   
 33  15  40  1   
 34  16  41  1   
 35  16  42  1   
 36  16  43  1   
 37  17  19  1   
 38  18  20  1   
 39  19  21  1   
 40  20  22  ar  
 41  20  23  ar  
 42  21  44  1   
 43  21  45  1   
 44  21  46  1   
 45  22  24  ar  
 46  23  25  ar  
 47  23  47  1   
 48  24  26  ar  
 49  24  48  1   
 50  25  26  ar  
 51  25  49  1   
 52  26  50  1   
@<TRIPOS>SUBSTRUCTURE
  1 ****   9 GROUP 4 **** **** 0

# MOE 2024.06 (io_trps.svl 2023.06)
