@<TRIPOS>MOLECULE
NONAME
38 39 1 0 0 
SMALL
USER_CHARGES


@<TRIPOS>ATOM
  1 CL       1.6810     1.0330     1.1560 Cl    1 <1>  -0.1770 
  2 C        2.6490    -0.3340     0.6690 C.ar  1 <1>   0.1770 
  3 C        2.8470    -1.3750     1.5560 C.ar  1 <1>  -0.1500 
  4 C        3.2050    -0.3550    -0.5960 C.ar  1 <1>  -0.1500 
  5 C        3.6160    -2.4590     1.1670 C.ar  1 <1>  -0.1500 
  6 C        3.9740    -1.4410    -0.9790 C.ar  1 <1>  -0.1500 
  7 C        4.1810    -2.4970    -0.1010 C.ar  1 <1>  -0.1430 
  8 C        5.0280    -3.6820    -0.5320 C.3   1 <1>   0.2840 
  9 N        6.4420    -3.2860    -0.4470 N.am  1 <1>  -0.7300 
 10 C        7.4240    -3.7330    -1.2690 C.2   1 <1>   0.5690 
 11 O        7.2060    -4.5720    -2.1090 O.2   1 <1>  -0.5700 
 12 C        8.8350    -3.1830    -1.1310 C.3   1 <1>   0.1310 
 13 S        8.8210    -1.4540    -0.4430 S.3   1 <1>  -0.2860 
 14 C       10.5710    -1.0890    -0.2710 C.2   1 <1>   0.2420 
 15 N       11.5030    -1.9250    -0.5560 N.2   1 <1>  -0.3380 
 16 N       11.0200     0.0840     0.1730 N.pl3 1 <1>   0.0480 
 17 N       12.6480    -1.2900    -0.2900 N.2   1 <1>  -0.3380 
 18 C       12.3480    -0.1060     0.1410 C.2   1 <1>   0.0060 
 19 C       10.2290     1.2600     0.5900 C.3   1 <1>   0.0160 
 20 C       13.3560     0.9590     0.5650 C.3   1 <1>   0.0200 
 21 C       14.8080     0.4660     0.5350 C.3   1 <1>  -0.2400 
 22 H        2.4020    -1.3340     2.5340 H     1 <1>   0.1500 
 23 H        3.0370     0.4680    -1.2680 H     1 <1>   0.1500 
 24 H        3.7730    -3.2720     1.8570 H     1 <1>   0.1500 
 25 H        4.4140    -1.4640    -1.9620 H     1 <1>   0.1500 
 26 H        4.7850    -3.9670    -1.5420 H     1 <1>   0.0800 
 27 H        4.8550    -4.5270     0.1110 H     1 <1>   0.0800 
 28 H        6.6360    -2.5160     0.1970 H     1 <1>   0.3700 
 29 H        9.3190    -3.1390    -2.0890 H     1 <1>   0.0800 
 30 H        9.4110    -3.7920    -0.4600 H     1 <1>   0.0800 
 31 H        9.4260     1.4150    -0.1070 H     1 <1>   0.0800 
 32 H       10.8520     2.1350     0.6100 H     1 <1>   0.0800 
 33 H        9.8230     1.0840     1.5690 H     1 <1>   0.0800 
 34 H       13.1230     1.2800     1.5650 H     1 <1>   0.0800 
 35 H       13.2630     1.8050    -0.0910 H     1 <1>   0.0800 
 36 H       14.9280    -0.3760     1.1930 H     1 <1>   0.0800 
 37 H       15.4750     1.2490     0.8480 H     1 <1>   0.0800 
 38 H       15.0750     0.1610    -0.4620 H     1 <1>   0.0800 
@<TRIPOS>BOND
  1   1   2  1   
  2   2   3  ar  
  3   2   4  ar  
  4   3   5  ar  
  5   3  22  1   
  6   4   6  ar  
  7   4  23  1   
  8   5   7  ar  
  9   5  24  1   
 10   6   7  ar  
 11   6  25  1   
 12   7   8  1   
 13   8   9  1   
 14   8  26  1   
 15   8  27  1   
 16   9  10  am  
 17   9  28  1   
 18  10  11  2   
 19  10  12  1   
 20  12  13  1   
 21  12  29  1   
 22  12  30  1   
 23  13  14  1   
 24  14  15  2   
 25  14  16  1   
 26  15  17  1   
 27  16  18  1   
 28  16  19  1   
 29  17  18  2   
 30  18  20  1   
 31  19  31  1   
 32  19  32  1   
 33  19  33  1   
 34  20  21  1   
 35  20  34  1   
 36  20  35  1   
 37  21  36  1   
 38  21  37  1   
 39  21  38  1   
@<TRIPOS>SUBSTRUCTURE
  1 ****  13 GROUP 4 **** **** 0

# MOE 2024.06 (io_trps.svl 2023.06)
