@<TRIPOS>MOLECULE
NONAME
49 51 1 0 0 
SMALL
USER_CHARGES


@<TRIPOS>ATOM
  1 S       -0.6270     0.0300    -0.2380 S.3   1 <1>  -0.2860 
  2 C        1.0750     0.5310    -0.5180 C.2   1 <1>   0.2420 
  3 C       -1.3970     0.2560    -1.9160 C.3   1 <1>   0.1310 
  4 N        1.5100     0.9610    -1.6470 N.2   1 <1>  -0.3380 
  5 N        2.0050     0.4870     0.4350 N.pl3 1 <1>   0.0480 
  6 C       -2.8900    -0.0260    -1.8880 C.2   1 <1>   0.5690 
  7 N        2.8050     1.2230    -1.4560 N.2   1 <1>  -0.3380 
  8 C        3.0870     0.9360    -0.2240 C.2   1 <1>   0.0060 
  9 C        1.8540     0.0420     1.8360 C.3   1 <1>   0.0160 
 10 O       -3.4140    -0.3880    -2.9130 O.2   1 <1>  -0.5700 
 11 N       -3.5660     0.1580    -0.7130 N.am  1 <1>  -0.5470 
 12 C        4.4660     1.0900     0.4160 C.3   1 <1>   0.1000 
 13 C       -4.9140     0.0240    -0.3300 C.ar  1 <1>   0.1170 
 14 C        4.5880     2.4660     1.0920 C.3   1 <1>  -0.1600 
 15 C        5.6030     0.8950    -0.6050 C.3   1 <1>  -0.1600 
 16 C       -5.2390     0.2360     1.0150 C.ar  1 <1>   0.0830 
 17 C       -5.9300    -0.3050    -1.2200 C.ar  1 <1>  -0.1500 
 18 C        5.9650     2.6570     1.7450 C.3   1 <1>  -0.1600 
 19 C        6.9820     1.0740     0.0460 C.3   1 <1>  -0.1600 
 20 O       -4.2140     0.5600     1.8620 O.3   1 <1>  -0.3630 
 21 C       -6.5590     0.1140     1.4420 C.ar  1 <1>  -0.1500 
 22 C       -7.2400    -0.4240    -0.7910 C.ar  1 <1>  -0.1500 
 23 C        7.0950     2.4430     0.7290 C.3   1 <1>  -0.1600 
 24 C       -4.4470     0.8010     3.2330 C.3   1 <1>   0.0400 
 25 C       -7.5550    -0.2150     0.5390 C.ar  1 <1>  -0.1500 
 26 H       -0.8990    -0.4190    -2.5870 H     1 <1>   0.0800 
 27 H       -1.2140     1.2700    -2.2190 H     1 <1>   0.0800 
 28 H        2.0040    -1.0210     1.8860 H     1 <1>   0.0800 
 29 H        0.8670     0.2810     2.1860 H     1 <1>   0.0800 
 30 H        2.5750     0.5390     2.4580 H     1 <1>   0.0800 
 31 H       -2.9760     0.4080     0.0850 H     1 <1>   0.3700 
 32 H        4.5800     0.3290     1.1660 H     1 <1>   0.0800 
 33 H        3.8200     2.5790     1.8360 H     1 <1>   0.0800 
 34 H        4.4370     3.2330     0.3500 H     1 <1>   0.0800 
 35 H        5.4950     1.6130    -1.4010 H     1 <1>   0.0800 
 36 H        5.5310    -0.0860    -1.0390 H     1 <1>   0.0800 
 37 H       -5.7100    -0.4700    -2.2580 H     1 <1>   0.1500 
 38 H        6.0780     1.9580     2.5560 H     1 <1>   0.0800 
 39 H        6.0340     3.6510     2.1540 H     1 <1>   0.0800 
 40 H        7.7480     0.9840    -0.7060 H     1 <1>   0.0800 
 41 H        7.1410     0.2960     0.7730 H     1 <1>   0.0800 
 42 H       -6.8360     0.2700     2.4660 H     1 <1>   0.1500 
 43 H       -8.0130    -0.6790    -1.4950 H     1 <1>   0.1500 
 44 H        8.0470     2.5220     1.2250 H     1 <1>   0.0800 
 45 H        7.0490     3.2170    -0.0190 H     1 <1>   0.0800 
 46 H       -3.5060     1.0410     3.6950 H     1 <1>   0.0800 
 47 H       -4.8570    -0.0880     3.6800 H     1 <1>   0.0800 
 48 H       -5.1240     1.6310     3.3330 H     1 <1>   0.0800 
 49 H       -8.5750    -0.3090     0.8700 H     1 <1>   0.1500 
@<TRIPOS>BOND
  1   1   2  1   
  2   1   3  1   
  3   2   4  2   
  4   2   5  1   
  5   3   6  1   
  6   3  26  1   
  7   3  27  1   
  8   4   7  1   
  9   5   8  1   
 10   5   9  1   
 11   6  10  2   
 12   6  11  am  
 13   7   8  2   
 14   8  12  1   
 15   9  28  1   
 16   9  29  1   
 17   9  30  1   
 18  11  13  1   
 19  11  31  1   
 20  12  14  1   
 21  12  15  1   
 22  12  32  1   
 23  13  16  ar  
 24  13  17  ar  
 25  14  18  1   
 26  14  33  1   
 27  14  34  1   
 28  15  19  1   
 29  15  35  1   
 30  15  36  1   
 31  16  20  1   
 32  16  21  ar  
 33  17  22  ar  
 34  17  37  1   
 35  18  23  1   
 36  18  38  1   
 37  18  39  1   
 38  19  23  1   
 39  19  40  1   
 40  19  41  1   
 41  20  24  1   
 42  21  25  ar  
 43  21  42  1   
 44  22  25  ar  
 45  22  43  1   
 46  23  44  1   
 47  23  45  1   
 48  24  46  1   
 49  24  47  1   
 50  24  48  1   
 51  25  49  1   
@<TRIPOS>SUBSTRUCTURE
  1 ****   1 GROUP 4 **** **** 0

# MOE 2024.06 (io_trps.svl 2023.06)
