@<TRIPOS>MOLECULE
NONAME
49 52 1 0 0 
SMALL
USER_CHARGES


@<TRIPOS>ATOM
  1 O       -0.1540     0.2480     0.7660 O.2   1 <1>  -0.5700 
  2 C       -0.1470     1.3480     0.2510 C.2   1 <1>   0.5440 
  3 N       -1.2620     1.8010    -0.4200 N.am  1 <1>  -0.5470 
  4 C        1.0390     2.1800     0.3060 C.ar  1 <1>   0.0860 
  5 C       -2.5420     1.2430    -0.5520 C.ar  1 <1>   0.1170 
  6 C        2.3130     1.6090     0.2840 C.ar  1 <1>  -0.1500 
  7 C        0.9570     3.5750     0.3790 C.ar  1 <1>  -0.1500 
  8 C       -3.0870     0.3770     0.3900 C.ar  1 <1>  -0.1500 
  9 C       -3.3100     1.5700    -1.6620 C.ar  1 <1>  -0.1500 
 10 C        3.4510     2.3910     0.3130 C.ar  1 <1>   0.0830 
 11 C        2.0910     4.3670     0.4150 C.ar  1 <1>  -0.1500 
 12 C       -4.3520    -0.1550     0.2240 C.ar  1 <1>  -0.1500 
 13 C       -4.5790     1.0460    -1.8330 C.ar  1 <1>  -0.1500 
 14 O        4.6650     1.7860     0.2620 O.3   1 <1>  -0.3630 
 15 C        3.3430     3.7800     0.3870 C.ar  1 <1>   0.0830 
 16 C       -5.1110     0.1800    -0.8880 C.ar  1 <1>  -0.1430 
 17 C        5.7810     2.6060    -0.0340 C.3   1 <1>   0.1200 
 18 O        4.4410     4.5680     0.4390 O.3   1 <1>  -0.3620 
 19 C       -6.5020    -0.3970    -1.0650 C.3   1 <1>   0.4860 
 20 C        5.6780     3.9390     0.7200 C.3   1 <1>   0.1200 
 21 N       -7.4090     0.2520    -0.0820 N.4   1 <1>  -0.9590 
 22 C       -8.7550    -0.4140    -0.0340 C.3   1 <1>   0.3430 
 23 C       -7.5490     1.7290    -0.3430 C.3   1 <1>   0.3430 
 24 C       -9.7210     0.3360     0.9040 C.3   1 <1>   0.1200 
 25 C       -8.5760     2.3750     0.6060 C.3   1 <1>   0.1200 
 26 O       -9.7910     1.6850     0.5460 O.3   1 <1>  -0.5600 
 27 H       -1.0860     2.6170    -1.0030 H     1 <1>   0.3700 
 28 H        2.4130     0.5390     0.2390 H     1 <1>   0.1500 
 29 H       -0.0070     4.0510     0.4210 H     1 <1>   0.1500 
 30 H       -2.5150     0.1100     1.2620 H     1 <1>   0.1500 
 31 H       -2.9060     2.2350    -2.4050 H     1 <1>   0.1500 
 32 H        2.0160     5.4380     0.4740 H     1 <1>   0.1500 
 33 H       -4.7230    -0.8350     0.9710 H     1 <1>   0.1500 
 34 H       -5.1380     1.3170    -2.7130 H     1 <1>   0.1500 
 35 H        5.7970     2.7780    -1.0960 H     1 <1>   0.0800 
 36 H        6.6690     2.0730     0.2510 H     1 <1>   0.0800 
 37 H       -6.4670    -1.4610    -0.8940 H     1 <1>   0.0800 
 38 H       -6.8500    -0.2230    -2.0700 H     1 <1>   0.0800 
 39 H        6.4650     4.6090     0.4240 H     1 <1>   0.0800 
 40 H        5.7350     3.7730     1.7810 H     1 <1>   0.0800 
 41 H       -6.9620     0.1560     0.8370 H     1 <1>   0.4500 
 42 H       -8.6530    -1.4330     0.3020 H     1 <1>   0.0800 
 43 H       -9.1900    -0.4310    -1.0200 H     1 <1>   0.0800 
 44 H       -7.8760     1.8920    -1.3560 H     1 <1>   0.0800 
 45 H       -6.5950     2.2170    -0.2210 H     1 <1>   0.0800 
 46 H       -9.4060     0.2640     1.9310 H     1 <1>   0.0800 
 47 H      -10.7130    -0.0750     0.8210 H     1 <1>   0.0800 
 48 H       -8.7630     3.3940     0.3120 H     1 <1>   0.0800 
 49 H       -8.2240     2.3720     1.6230 H     1 <1>   0.0800 
@<TRIPOS>BOND
  1   1   2  2   
  2   2   3  am  
  3   2   4  1   
  4   3   5  1   
  5   3  27  1   
  6   4   6  ar  
  7   4   7  ar  
  8   5   8  ar  
  9   5   9  ar  
 10   6  10  ar  
 11   6  28  1   
 12   7  11  ar  
 13   7  29  1   
 14   8  12  ar  
 15   8  30  1   
 16   9  13  ar  
 17   9  31  1   
 18  10  14  1   
 19  10  15  ar  
 20  11  15  ar  
 21  11  32  1   
 22  12  16  ar  
 23  12  33  1   
 24  13  16  ar  
 25  13  34  1   
 26  14  17  1   
 27  15  18  1   
 28  16  19  1   
 29  17  20  1   
 30  17  35  1   
 31  17  36  1   
 32  18  20  1   
 33  19  21  1   
 34  19  37  1   
 35  19  38  1   
 36  20  39  1   
 37  20  40  1   
 38  21  22  1   
 39  21  23  1   
 40  21  41  1   
 41  22  24  1   
 42  22  42  1   
 43  22  43  1   
 44  23  25  1   
 45  23  44  1   
 46  23  45  1   
 47  24  26  1   
 48  24  46  1   
 49  24  47  1   
 50  25  26  1   
 51  25  48  1   
 52  25  49  1   
@<TRIPOS>SUBSTRUCTURE
  1 ****   3 GROUP 4 **** **** 0

# MOE 2024.06 (io_trps.svl 2023.06)
