@<TRIPOS>MOLECULE
NONAME
45 46 1 0 0 
SMALL
USER_CHARGES


@<TRIPOS>ATOM
  1 CL       0.0530    -0.0320     0.5770 Cl    1 <1>  -0.1770 
  2 C        1.5800     0.8020     0.4310 C.ar  1 <1>   0.1770 
  3 C        1.6510     1.9580    -0.3240 C.ar  1 <1>  -0.1500 
  4 C        2.6940     0.2930     1.0730 C.ar  1 <1>  -0.1500 
  5 C        2.8650     2.6150    -0.4370 C.ar  1 <1>  -0.1500 
  6 C        3.9070     0.9530     0.9590 C.ar  1 <1>  -0.1500 
  7 C        3.9950     2.1210     0.2000 C.ar  1 <1>   0.0830 
  8 O        5.1410     2.8280     0.0370 O.3   1 <1>  -0.3630 
  9 C        6.3410     2.4470     0.6790 C.3   1 <1>   0.1200 
 10 C        7.4360     3.4530     0.3010 C.3   1 <1>   0.2000 
 11 O        7.4720     3.5840    -1.0900 O.3   1 <1>  -0.6800 
 12 C        8.8320     3.0310     0.8170 C.3   1 <1>   0.3430 
 13 N        9.9160     3.5190    -0.0990 N.4   1 <1>  -0.9590 
 14 C       10.8330     2.3970    -0.4500 C.3   1 <1>   0.4230 
 15 C       10.6030     4.7880     0.2990 C.3   1 <1>   0.4230 
 16 C       12.3010     2.8380    -0.5220 C.3   1 <1>  -0.1600 
 17 C       10.3660     1.8110    -1.7770 C.3   1 <1>  -0.2400 
 18 C       11.6920     4.4840     1.3340 C.3   1 <1>  -0.1600 
 19 C        9.6260     5.8540     0.7910 C.3   1 <1>  -0.2400 
 20 C       12.7520     3.5100     0.7870 C.3   1 <1>  -0.1600 
 21 H        0.7700     2.3320    -0.8130 H     1 <1>   0.1500 
 22 H        2.6060    -0.6080     1.6520 H     1 <1>   0.1500 
 23 H        2.9370     3.5160    -1.0200 H     1 <1>   0.1500 
 24 H        4.7590     0.5410     1.4640 H     1 <1>   0.1500 
 25 H        6.6030     1.4570     0.3480 H     1 <1>   0.0800 
 26 H        6.1710     2.4490     1.7420 H     1 <1>   0.0800 
 27 H        7.1750     4.4140     0.7110 H     1 <1>   0.0800 
 28 H        6.5440     3.6410    -1.4200 H     1 <1>   0.4000 
 29 H        8.8570     1.9550     0.8530 H     1 <1>   0.0800 
 30 H        8.9860     3.3900     1.8210 H     1 <1>   0.0800 
 31 H        9.3860     3.7340    -0.9640 H     1 <1>   0.4500 
 32 H       10.7630     1.6350     0.3100 H     1 <1>   0.0800 
 33 H       11.0950     5.1850    -0.5750 H     1 <1>   0.0800 
 34 H       12.4370     3.5140    -1.3490 H     1 <1>   0.0800 
 35 H       12.9250     1.9810    -0.7100 H     1 <1>   0.0800 
 36 H       10.4290     2.5420    -2.5640 H     1 <1>   0.0800 
 37 H        9.3540     1.4550    -1.7020 H     1 <1>   0.0800 
 38 H       10.9900     0.9770    -2.0450 H     1 <1>   0.0800 
 39 H       11.2420     4.0770     2.2220 H     1 <1>   0.0800 
 40 H       12.1790     5.4020     1.6180 H     1 <1>   0.0800 
 41 H        9.1750     5.5860     1.7280 H     1 <1>   0.0800 
 42 H        8.8670     6.0370     0.0510 H     1 <1>   0.0800 
 43 H       10.1590     6.7760     0.9410 H     1 <1>   0.0800 
 44 H       13.6750     4.0360     0.6080 H     1 <1>   0.0800 
 45 H       12.9540     2.7570     1.5310 H     1 <1>   0.0800 
@<TRIPOS>BOND
  1   1   2  1   
  2   2   3  ar  
  3   2   4  ar  
  4   3   5  ar  
  5   3  21  1   
  6   4   6  ar  
  7   4  22  1   
  8   5   7  ar  
  9   5  23  1   
 10   6   7  ar  
 11   6  24  1   
 12   7   8  1   
 13   8   9  1   
 14   9  10  1   
 15   9  25  1   
 16   9  26  1   
 17  10  11  1   
 18  10  12  1   
 19  10  27  1   
 20  11  28  1   
 21  12  13  1   
 22  12  29  1   
 23  12  30  1   
 24  13  14  1   
 25  13  15  1   
 26  13  31  1   
 27  14  16  1   
 28  14  17  1   
 29  14  32  1   
 30  15  18  1   
 31  15  19  1   
 32  15  33  1   
 33  16  20  1   
 34  16  34  1   
 35  16  35  1   
 36  17  36  1   
 37  17  37  1   
 38  17  38  1   
 39  18  20  1   
 40  18  39  1   
 41  18  40  1   
 42  19  41  1   
 43  19  42  1   
 44  19  43  1   
 45  20  44  1   
 46  20  45  1   
@<TRIPOS>SUBSTRUCTURE
  1 ****   9 GROUP 4 **** **** 0

# MOE 2024.06 (io_trps.svl 2023.06)
