@<TRIPOS>MOLECULE
NONAME
40 41 1 0 0 
SMALL
USER_CHARGES


@<TRIPOS>ATOM
  1 O        0.5540     3.1940    -0.1380 O.2   1 <1>  -0.5700 
  2 C        0.1800     2.1500     0.3380 C.2   1 <1>   0.6300 
  3 N        1.0020     1.0980     0.6260 N.am  1 <1>  -0.5470 
  4 C       -1.2940     1.9680     0.6830 C.3   1 <1>  -0.1000 
  5 C        2.3750     0.8930     0.4600 C.ar  1 <1>   0.1170 
  6 C       -2.1030     0.7550     0.2650 C.3   1 <1>  -0.1900 
  7 C       -2.4090     2.0980    -0.3300 C.3   1 <1>  -0.1900 
  8 C        2.8890    -0.3800     0.6770 C.ar  1 <1>  -0.1500 
  9 C        3.2690     1.8930     0.0920 C.ar  1 <1>  -0.1500 
 10 C       -3.0340     0.1310     1.3180 C.3   1 <1>  -0.1450 
 11 C       -1.5190    -0.3520    -0.6320 C.3   1 <1>  -0.1450 
 12 C       -2.0660     2.4220    -1.7950 C.3   1 <1>  -0.1450 
 13 C       -3.6710     2.8700     0.0860 C.3   1 <1>  -0.1450 
 14 C        4.2370    -0.6460     0.5290 C.ar  1 <1>  -0.1500 
 15 C        4.6150     1.6250    -0.0560 C.ar  1 <1>  -0.1500 
 16 C        5.1470     0.3500     0.1550 C.ar  1 <1>   0.0860 
 17 C        6.5650     0.1110    -0.0120 C.2   1 <1>   0.4230 
 18 O        7.3460     0.9700    -0.3330 O.2   1 <1>  -0.5700 
 19 C        7.1460    -1.2710     0.2160 C.3   1 <1>  -0.1790 
 20 H        0.4850     0.3010     0.9900 H     1 <1>   0.3700 
 21 H       -1.4900     2.3920     1.6500 H     1 <1>   0.1000 
 22 H        2.2250    -1.1740     0.9640 H     1 <1>   0.1500 
 23 H        2.9200     2.8950    -0.0810 H     1 <1>   0.1500 
 24 H       -3.9020    -0.2840     0.8370 H     1 <1>   0.0800 
 25 H       -3.3590     0.8510     2.0450 H     1 <1>   0.0800 
 26 H       -2.5270    -0.6560     1.8460 H     1 <1>   0.0800 
 27 H       -1.0740    -1.1260    -0.0330 H     1 <1>   0.0800 
 28 H       -0.7660     0.0160    -1.3030 H     1 <1>   0.0800 
 29 H       -2.3060    -0.7900    -1.2200 H     1 <1>   0.0800 
 30 H       -1.1200     2.0150    -2.0970 H     1 <1>   0.0800 
 31 H       -2.0070     3.4880    -1.9300 H     1 <1>   0.0800 
 32 H       -2.8280     2.0350    -2.4460 H     1 <1>   0.0800 
 33 H       -3.8620     2.7980     1.1400 H     1 <1>   0.0800 
 34 H       -4.5250     2.4880    -0.4440 H     1 <1>   0.0800 
 35 H       -3.5590     3.9130    -0.1490 H     1 <1>   0.0800 
 36 H        4.5790    -1.6480     0.7080 H     1 <1>   0.1500 
 37 H        5.2790     2.4240    -0.3440 H     1 <1>   0.1500 
 38 H        6.7030    -1.9740    -0.4650 H     1 <1>   0.0800 
 39 H        6.9700    -1.5820     1.2290 H     1 <1>   0.0800 
 40 H        8.2070    -1.2540     0.0440 H     1 <1>   0.0800 
@<TRIPOS>BOND
  1   1   2  2   
  2   2   3  am  
  3   2   4  1   
  4   3   5  1   
  5   3  20  1   
  6   4   6  1   
  7   4   7  1   
  8   4  21  1   
  9   5   8  ar  
 10   5   9  ar  
 11   6   7  1   
 12   6  10  1   
 13   6  11  1   
 14   7  12  1   
 15   7  13  1   
 16   8  14  ar  
 17   8  22  1   
 18   9  15  ar  
 19   9  23  1   
 20  10  24  1   
 21  10  25  1   
 22  10  26  1   
 23  11  27  1   
 24  11  28  1   
 25  11  29  1   
 26  12  30  1   
 27  12  31  1   
 28  12  32  1   
 29  13  33  1   
 30  13  34  1   
 31  13  35  1   
 32  14  16  ar  
 33  14  36  1   
 34  15  16  ar  
 35  15  37  1   
 36  16  17  1   
 37  17  18  2   
 38  17  19  1   
 39  19  38  1   
 40  19  39  1   
 41  19  40  1   
@<TRIPOS>SUBSTRUCTURE
  1 ****   3 GROUP 4 **** **** 0

# MOE 2024.06 (io_trps.svl 2023.06)
