@<TRIPOS>MOLECULE
NONAME
53 55 1 0 0 
SMALL
USER_CHARGES


@<TRIPOS>ATOM
  1 S        1.2730     1.9410     1.6670 S.o2  1 <1>   1.3330 
  2 O        2.2410     1.0970     1.0150 O.2   1 <1>  -0.6500 
  3 O        1.6900     2.9990     2.5550 O.2   1 <1>  -0.6500 
  4 N        0.2850     2.6780     0.4550 N.am  1 <1>  -0.6930 
  5 C        0.0970     0.9300     2.5420 C.3   1 <1>  -0.1350 
  6 C       -0.4620     1.9040    -0.4240 C.ar  1 <1>   0.1990 
  7 C        0.7460     4.0140    -0.0400 C.3   1 <1>   0.2570 
  8 C       -1.8480     1.9920    -0.4040 C.ar  1 <1>  -0.1500 
  9 C        0.1430     1.0330    -1.3280 C.ar  1 <1>  -0.1500 
 10 C        1.9290     3.9640    -1.0230 C.2   1 <1>   0.5690 
 11 C       -2.5810     1.2080    -1.2690 C.ar  1 <1>   0.1900 
 12 C       -0.6100     0.2530    -2.1910 C.ar  1 <1>  -0.1500 
 13 O        1.6490     3.7170    -2.1760 O.2   1 <1>  -0.5700 
 14 N        3.2340     4.2190    -0.6550 N.am  1 <1>  -0.6600 
 15 F       -3.8840     1.2910    -1.2390 F     1 <1>  -0.1900 
 16 C       -1.9920     0.3360    -2.1650 C.ar  1 <1>  -0.1500 
 17 C        3.7060     4.6850     0.6810 C.3   1 <1>   0.1400 
 18 C        4.3450     4.0470    -1.6360 C.3   1 <1>   0.1400 
 19 C        4.7340     3.7020     1.2500 C.3   1 <1>  -0.1600 
 20 C        5.3620     3.0400    -1.0940 C.3   1 <1>  -0.1600 
 21 C        5.9050     3.4640     0.2820 C.3   1 <1>  -0.0800 
 22 C        6.8740     2.4170     0.8620 C.3   1 <1>  -0.0170 
 23 C        8.1120     2.2350    -0.0060 C.ar  1 <1>  -0.1430 
 24 C        8.2260     1.1400    -0.8490 C.ar  1 <1>  -0.1500 
 25 C        9.1400     3.1650     0.0410 C.ar  1 <1>  -0.1500 
 26 C        9.3520     0.9780    -1.6380 C.ar  1 <1>  -0.1500 
 27 C       10.2670     3.0040    -0.7470 C.ar  1 <1>  -0.1500 
 28 C       10.3730     1.9100    -1.5870 C.ar  1 <1>  -0.1500 
 29 H        0.5790     0.4350     3.3620 H     1 <1>   0.0800 
 30 H       -0.3140     0.1880     1.8860 H     1 <1>   0.0800 
 31 H       -0.7000     1.5360     2.9240 H     1 <1>   0.0800 
 32 H        0.9660     4.6530     0.7910 H     1 <1>   0.0800 
 33 H       -0.0730     4.4730    -0.5640 H     1 <1>   0.0800 
 34 H       -2.3420     2.6590     0.2760 H     1 <1>   0.1500 
 35 H        1.2180     0.9760    -1.3610 H     1 <1>   0.1500 
 36 H       -0.1190    -0.4100    -2.8820 H     1 <1>   0.1500 
 37 H       -2.6000    -0.2580    -2.8250 H     1 <1>   0.1500 
 38 H        2.8980     4.7950     1.3760 H     1 <1>   0.0800 
 39 H        4.1670     5.6510     0.5640 H     1 <1>   0.0800 
 40 H        4.8210     4.9980    -1.7990 H     1 <1>   0.0800 
 41 H        3.9730     3.6960    -2.5840 H     1 <1>   0.0800 
 42 H        4.2430     2.7690     1.4580 H     1 <1>   0.0800 
 43 H        5.1030     4.0880     2.1830 H     1 <1>   0.0800 
 44 H        6.1690     2.9580    -1.7990 H     1 <1>   0.0800 
 45 H        4.8860     2.0770    -1.0220 H     1 <1>   0.0800 
 46 H        6.4400     4.3910     0.1640 H     1 <1>   0.0800 
 47 H        6.3630     1.4750     0.9690 H     1 <1>   0.0800 
 48 H        7.1860     2.7230     1.8440 H     1 <1>   0.0800 
 49 H        7.4360     0.4110    -0.8960 H     1 <1>   0.1500 
 50 H        9.0650     4.0180     0.6920 H     1 <1>   0.1500 
 51 H        9.4320     0.1260    -2.2900 H     1 <1>   0.1500 
 52 H       11.0600     3.7300    -0.7050 H     1 <1>   0.1500 
 53 H       11.2490     1.7840    -2.2000 H     1 <1>   0.1500 
@<TRIPOS>BOND
  1   1   2  2   
  2   1   3  2   
  3   1   4  am  
  4   1   5  1   
  5   4   6  1   
  6   4   7  1   
  7   5  29  1   
  8   5  30  1   
  9   5  31  1   
 10   6   8  ar  
 11   6   9  ar  
 12   7  10  1   
 13   7  32  1   
 14   7  33  1   
 15   8  11  ar  
 16   8  34  1   
 17   9  12  ar  
 18   9  35  1   
 19  10  13  2   
 20  10  14  am  
 21  11  15  1   
 22  11  16  ar  
 23  12  16  ar  
 24  12  36  1   
 25  14  17  1   
 26  14  18  1   
 27  16  37  1   
 28  17  19  1   
 29  17  38  1   
 30  17  39  1   
 31  18  20  1   
 32  18  40  1   
 33  18  41  1   
 34  19  21  1   
 35  19  42  1   
 36  19  43  1   
 37  20  21  1   
 38  20  44  1   
 39  20  45  1   
 40  21  22  1   
 41  21  46  1   
 42  22  23  1   
 43  22  47  1   
 44  22  48  1   
 45  23  24  ar  
 46  23  25  ar  
 47  24  26  ar  
 48  24  49  1   
 49  25  27  ar  
 50  25  50  1   
 51  26  28  ar  
 52  26  51  1   
 53  27  28  ar  
 54  27  52  1   
 55  28  53  1   
@<TRIPOS>SUBSTRUCTURE
  1 ****  14 GROUP 4 **** **** 0

# MOE 2024.06 (io_trps.svl 2023.06)
