@<TRIPOS>MOLECULE
NONAME
23 23 1 0 0 
SMALL
USER_CHARGES


@<TRIPOS>ATOM
  1 BR      -0.0050    -0.3670    -2.3000 Br    1 <1>  -0.1110 
  2 C        0.9240    -1.5700    -1.1100 C.ar  1 <1>   0.1110 
  3 C        0.2180    -2.5400    -0.4110 C.ar  1 <1>   0.0820 
  4 C        2.2930    -1.4300    -0.9850 C.ar  1 <1>  -0.1500 
  5 O       -1.1180    -2.6800    -0.5370 O.3   1 <1>  -0.3630 
  6 C        0.9160    -3.3980     0.4230 C.ar  1 <1>  -0.1500 
  7 C        2.9870    -2.2890    -0.1430 C.ar  1 <1>  -0.1430 
  8 C       -1.9050    -1.8750     0.3080 C.3   1 <1>   0.1200 
  9 C        2.2910    -3.2690     0.5570 C.ar  1 <1>  -0.1500 
 10 C        4.4980    -2.1610     0.0120 C.3   1 <1>   0.1840 
 11 C       -3.3720    -2.1490    -0.0080 C.3   1 <1>  -0.2400 
 12 C        4.8590    -1.2960     1.1690 C.1   1 <1>   0.3570 
 13 N        5.1620    -0.6400     2.0480 N.1   1 <1>  -0.5570 
 14 H        2.7960    -0.6590    -1.5420 H     1 <1>   0.1500 
 15 H        0.3820    -4.1600     0.9610 H     1 <1>   0.1500 
 16 H       -1.6610    -0.8430     0.1260 H     1 <1>   0.0800 
 17 H       -1.6770    -2.1290     1.3290 H     1 <1>   0.0800 
 18 H        2.8130    -3.9420     1.2160 H     1 <1>   0.1500 
 19 H        4.9250    -1.7400    -0.8790 H     1 <1>   0.0800 
 20 H        4.9340    -3.1320     0.1590 H     1 <1>   0.0800 
 21 H       -3.5790    -1.9020    -1.0340 H     1 <1>   0.0800 
 22 H       -3.9990    -1.5480     0.6240 H     1 <1>   0.0800 
 23 H       -3.6010    -3.1860     0.1640 H     1 <1>   0.0800 
@<TRIPOS>BOND
  1   1   2  1   
  2   2   3  ar  
  3   2   4  ar  
  4   3   5  1   
  5   3   6  ar  
  6   4   7  ar  
  7   4  14  1   
  8   5   8  1   
  9   6   9  ar  
 10   6  15  1   
 11   7   9  ar  
 12   7  10  1   
 13   8  11  1   
 14   8  16  1   
 15   8  17  1   
 16   9  18  1   
 17  10  12  1   
 18  10  19  1   
 19  10  20  1   
 20  11  21  1   
 21  11  22  1   
 22  11  23  1   
 23  12  13  3   
@<TRIPOS>SUBSTRUCTURE
  1 ****   2 GROUP 4 **** **** 0

# MOE 2024.06 (io_trps.svl 2023.06)
