@<TRIPOS>MOLECULE
NONAME
38 41 1 0 0 
SMALL
USER_CHARGES


@<TRIPOS>ATOM
  1 O       -0.3680    -0.6840     1.3060 O.2   1 <1>  -0.5760 
  2 C       -0.3890    -1.6930     0.6360 C.2   1 <1>   0.9720 
  3 N       -1.6060    -2.2320     0.2050 N.pl3 1 <1>  -0.3700 
  4 C        0.7890    -2.3930     0.2440 C.2   1 <1>  -0.1340 
  5 N       -2.8970    -1.8020     0.4120 N.2   1 <1>  -0.2690 
  6 C       -1.6230    -3.3360    -0.5280 C.cat 1 <1>   1.0690 
  7 C        0.7130    -3.5040    -0.4970 C.2   1 <1>   0.1550 
  8 C        2.2210    -2.0330     0.5690 C.3   1 <1>  -0.0320 
  9 C       -3.6250    -2.6600    -0.2010 C.2   1 <1>   0.4780 
 10 N       -2.8710    -3.6300    -0.7980 N.pl3 1 <1>  -0.7050 
 11 N       -0.5080    -3.9950    -0.8970 N.pl3 1 <1>  -0.6940 
 12 C        2.0560    -4.1070    -0.8150 C.3   1 <1>  -0.0320 
 13 C        3.0430    -3.1470    -0.1160 C.3   1 <1>  -0.1690 
 14 C       -5.1430    -2.6680    -0.2980 C.3   1 <1>  -0.0030 
 15 C       -5.8130    -1.5000     0.4360 C.3   1 <1>  -0.0270 
 16 C       -7.3180    -1.6060     0.2750 C.ar  1 <1>  -0.1530 
 17 C       -8.0710    -2.3200     1.1940 C.ar  1 <1>  -0.1600 
 18 C       -7.9500    -0.9990    -0.8000 C.ar  1 <1>  -0.1600 
 19 C       -9.4410    -2.4320     1.0370 C.ar  1 <1>  -0.1600 
 20 C       -9.3210    -1.1100    -0.9560 C.ar  1 <1>  -0.1600 
 21 C      -10.0670    -1.8280    -0.0390 C.ar  1 <1>  -0.1600 
 22 H        2.3830    -2.0320     1.6350 H     1 <1>   0.0700 
 23 H        2.4730    -1.0650     0.1690 H     1 <1>   0.0700 
 24 H       -3.2290    -4.4140    -1.3390 H     1 <1>   0.4430 
 25 H       -0.5690    -4.8440    -1.4630 H     1 <1>   0.4430 
 26 H        2.2270    -4.1260    -1.8780 H     1 <1>   0.0700 
 27 H        2.1370    -5.1020    -0.4120 H     1 <1>   0.0700 
 28 H        3.6250    -3.6810     0.6170 H     1 <1>   0.0700 
 29 H        3.7200    -2.7190    -0.8360 H     1 <1>   0.0700 
 30 H       -5.5130    -3.5910     0.1120 H     1 <1>   0.0700 
 31 H       -5.4250    -2.6310    -1.3360 H     1 <1>   0.0700 
 32 H       -5.4730    -0.5610     0.0330 H     1 <1>   0.0700 
 33 H       -5.5610    -1.5210     1.4820 H     1 <1>   0.0700 
 34 H       -7.6000    -2.7930     2.0370 H     1 <1>   0.1400 
 35 H       -7.3840    -0.4350    -1.5200 H     1 <1>   0.1400 
 36 H      -10.0220    -2.9860     1.7530 H     1 <1>   0.1400 
 37 H       -9.8080    -0.6370    -1.7910 H     1 <1>   0.1400 
 38 H      -11.1320    -1.9140    -0.1610 H     1 <1>   0.1400 
@<TRIPOS>BOND
  1   1   2  2   
  2   2   3  1   
  3   2   4  1   
  4   3   5  1   
  5   3   6  ar  
  6   4   7  2   
  7   4   8  1   
  8   5   9  2   
  9   6  10  ar  
 10   6  11  ar  
 11   7  11  1   
 12   7  12  1   
 13   8  13  1   
 14   8  22  1   
 15   8  23  1   
 16   9  10  1   
 17   9  14  1   
 18  10  24  1   
 19  11  25  1   
 20  12  13  1   
 21  12  26  1   
 22  12  27  1   
 23  13  28  1   
 24  13  29  1   
 25  14  15  1   
 26  14  30  1   
 27  14  31  1   
 28  15  16  1   
 29  15  32  1   
 30  15  33  1   
 31  16  17  ar  
 32  16  18  ar  
 33  17  19  ar  
 34  17  34  1   
 35  18  20  ar  
 36  18  35  1   
 37  19  21  ar  
 38  19  36  1   
 39  20  21  ar  
 40  20  37  1   
 41  21  38  1   
@<TRIPOS>SUBSTRUCTURE
  1 ****   9 GROUP 4 **** **** 0

# MOE 2024.06 (io_trps.svl 2023.06)
