@<TRIPOS>MOLECULE
NONAME
42 44 1 0 0 
SMALL
USER_CHARGES


@<TRIPOS>ATOM
  1 O        0.8360    -4.6410     2.8100 O.2   1 <1>  -0.5700 
  2 C        1.0750    -4.3490     1.6630 C.2   1 <1>   0.5690 
  3 N        0.1020    -4.1650     0.7380 N.am  1 <1>  -0.7300 
  4 C        2.5310    -4.1700     1.2190 C.3   1 <1>   0.1710 
  5 C       -1.3540    -4.2760     0.9460 C.3   1 <1>   0.2200 
  6 N        2.6910    -3.3590    -0.0190 N.3   1 <1>  -0.9000 
  7 C       -1.9480    -5.3440     0.0030 C.3   1 <1>  -0.0800 
  8 C       -2.0360    -2.9170     0.6780 C.3   1 <1>  -0.0800 
  9 C        4.0820    -3.2340    -0.4080 C.3   1 <1>   0.2480 
 10 C       -3.4550    -5.4810     0.3090 C.3   1 <1>  -0.1600 
 11 C       -1.7820    -4.9250    -1.4760 C.3   1 <1>  -0.1600 
 12 C       -3.5420    -3.0570     0.9820 C.3   1 <1>  -0.1600 
 13 C       -1.8690    -2.5010    -0.8020 C.3   1 <1>  -0.1600 
 14 C        4.1300    -2.2220    -1.5280 C.2   1 <1>  -0.2880 
 15 C       -4.1670    -4.1340     0.0720 C.3   1 <1>  -0.0800 
 16 C       -2.4810    -3.5740    -1.7240 C.3   1 <1>  -0.0800 
 17 C        4.7920    -1.0610    -1.4970 C.2   1 <1>  -0.3000 
 18 C       -3.9800    -3.7180    -1.3990 C.3   1 <1>  -0.1600 
 19 H        0.4030    -3.9090    -0.2050 H     1 <1>   0.3700 
 20 H        2.9430    -5.1500     1.0580 H     1 <1>   0.0800 
 21 H        3.0690    -3.7080     2.0270 H     1 <1>   0.0800 
 22 H       -1.5350    -4.5660     1.9680 H     1 <1>   0.0800 
 23 H        2.3520    -2.4070     0.1730 H     1 <1>   0.3600 
 24 H       -1.4620    -6.2870     0.1810 H     1 <1>   0.0800 
 25 H       -1.6100    -2.1710     1.3260 H     1 <1>   0.0800 
 26 H        4.4590    -4.1850    -0.7470 H     1 <1>   0.0800 
 27 H        4.6770    -2.8930     0.4230 H     1 <1>   0.0800 
 28 H       -3.5920    -5.7910     1.3300 H     1 <1>   0.0800 
 29 H       -3.8880    -6.2380    -0.3220 H     1 <1>   0.0800 
 30 H       -2.2120    -5.6770    -2.1140 H     1 <1>   0.0800 
 31 H       -0.7390    -4.8510    -1.7290 H     1 <1>   0.0800 
 32 H       -4.0360    -2.1140     0.8240 H     1 <1>   0.0800 
 33 H       -3.6810    -3.3280     2.0150 H     1 <1>   0.0800 
 34 H       -2.3600    -1.5580    -0.9690 H     1 <1>   0.0800 
 35 H       -0.8280    -2.3650    -1.0370 H     1 <1>   0.0800 
 36 H        3.5560    -2.5420    -2.3810 H     1 <1>   0.1500 
 37 H       -5.2160    -4.2330     0.2920 H     1 <1>   0.0800 
 38 H       -2.3580    -3.2830    -2.7530 H     1 <1>   0.0800 
 39 H        4.8060    -0.3590    -2.3140 H     1 <1>   0.1500 
 40 H        5.3720    -0.7120    -0.6610 H     1 <1>   0.1500 
 41 H       -4.4830    -2.7840    -1.5800 H     1 <1>   0.0800 
 42 H       -4.4230    -4.4560    -2.0450 H     1 <1>   0.0800 
@<TRIPOS>BOND
  1   1   2  2   
  2   2   3  am  
  3   2   4  1   
  4   3   5  1   
  5   3  19  1   
  6   4   6  1   
  7   4  20  1   
  8   4  21  1   
  9   5   7  1   
 10   5   8  1   
 11   5  22  1   
 12   6   9  1   
 13   6  23  1   
 14   7  10  1   
 15   7  11  1   
 16   7  24  1   
 17   8  12  1   
 18   8  13  1   
 19   8  25  1   
 20   9  14  1   
 21   9  26  1   
 22   9  27  1   
 23  10  15  1   
 24  10  28  1   
 25  10  29  1   
 26  11  16  1   
 27  11  30  1   
 28  11  31  1   
 29  12  15  1   
 30  12  32  1   
 31  12  33  1   
 32  13  16  1   
 33  13  34  1   
 34  13  35  1   
 35  14  17  2   
 36  14  36  1   
 37  15  18  1   
 38  15  37  1   
 39  16  18  1   
 40  16  38  1   
 41  17  39  1   
 42  17  40  1   
 43  18  41  1   
 44  18  42  1   
@<TRIPOS>SUBSTRUCTURE
  1 ****   3 GROUP 4 **** **** 0

# MOE 2024.06 (io_trps.svl 2023.06)
