@<TRIPOS>MOLECULE
NONAME
41 42 1 0 0 
SMALL
USER_CHARGES


@<TRIPOS>ATOM
  1 S       -0.1360     0.8110    -0.9980 S.3   1 <1>  -0.4600 
  2 C       -1.6110     0.7120     0.0540 C.3   1 <1>   0.0700 
  3 C        0.6250     2.3610    -0.4550 C.3   1 <1>  -0.0100 
  4 C       -2.4640    -0.4680    -0.4160 C.3   1 <1>  -0.1600 
  5 C       -3.6580    -0.7140     0.5210 C.3   1 <1>   0.1140 
  6 N       -4.4320    -1.8730    -0.0200 N.am  1 <1>  -0.7300 
  7 C       -4.5760     0.5200     0.6820 C.2   1 <1>   0.9060 
  8 C       -4.5050    -3.1140     0.5250 C.2   1 <1>   0.7160 
  9 O       -5.6630     0.5260     0.0790 O.co2 1 <1>  -0.9000 
 10 O       -4.2230     1.4590     1.4070 O.co2 1 <1>  -0.9000 
 11 O       -3.5710    -3.5110     1.1980 O.2   1 <1>  -0.5700 
 12 C       -5.6790    -3.9330     0.3060 C.2   1 <1>  -0.0860 
 13 C       -6.9990    -3.4970     0.0260 C.2   1 <1>  -0.1810 
 14 C       -5.7940    -5.2950     0.3470 C.2   1 <1>  -0.0400 
 15 C       -7.7560    -4.6050    -0.0440 C.2   1 <1>  -0.0400 
 16 C       -7.5780    -2.0980    -0.1480 C.3   1 <1>   0.0210 
 17 O       -7.0290    -5.6820     0.1350 O.3   1 <1>  -0.2800 
 18 C       -4.7620    -6.3780     0.5900 C.3   1 <1>  -0.0600 
 19 C       -9.2470    -4.6720    -0.2770 C.3   1 <1>   0.0200 
 20 C       -9.0200    -2.1610    -0.6920 C.3   1 <1>  -0.1600 
 21 C       -9.8600    -3.2780    -0.0400 C.3   1 <1>  -0.1600 
 22 H       -2.1400     1.6450    -0.0420 H     1 <1>   0.0800 
 23 H       -1.2800     0.5810     1.0690 H     1 <1>   0.0800 
 24 H        1.5190     2.5090    -1.0340 H     1 <1>   0.0800 
 25 H        0.8530     2.2690     0.5920 H     1 <1>   0.0800 
 26 H       -0.0820     3.1540    -0.6270 H     1 <1>   0.0800 
 27 H       -1.8560    -1.3550    -0.4400 H     1 <1>   0.0800 
 28 H       -2.8260    -0.2620    -1.4070 H     1 <1>   0.0800 
 29 H       -3.2910    -0.9620     1.5010 H     1 <1>   0.0800 
 30 H       -5.2910    -1.5030    -0.4440 H     1 <1>   0.3700 
 31 H       -6.9870    -1.5260    -0.8400 H     1 <1>   0.0800 
 32 H       -7.5610    -1.5900     0.8010 H     1 <1>   0.0800 
 33 H       -3.7750    -5.9630     0.6750 H     1 <1>   0.0800 
 34 H       -4.7730    -7.0740    -0.2280 H     1 <1>   0.0800 
 35 H       -4.9980    -6.9010     1.4980 H     1 <1>   0.0800 
 36 H       -9.6880    -5.3850     0.3960 H     1 <1>   0.0800 
 37 H       -9.4240    -4.9940    -1.2870 H     1 <1>   0.0800 
 38 H       -8.9770    -2.3370    -1.7530 H     1 <1>   0.0800 
 39 H       -9.4920    -1.2070    -0.5380 H     1 <1>   0.0800 
 40 H       -9.9070    -3.0960     1.0200 H     1 <1>   0.0800 
 41 H      -10.8640    -3.2570    -0.4260 H     1 <1>   0.0800 
@<TRIPOS>BOND
  1   1   2  1   
  2   1   3  1   
  3   2   4  1   
  4   2  22  1   
  5   2  23  1   
  6   3  24  1   
  7   3  25  1   
  8   3  26  1   
  9   4   5  1   
 10   4  27  1   
 11   4  28  1   
 12   5   6  1   
 13   5   7  1   
 14   5  29  1   
 15   6   8  am  
 16   6  30  1   
 17   7   9  ar  
 18   7  10  ar  
 19   8  11  2   
 20   8  12  1   
 21  12  13  1   
 22  12  14  2   
 23  13  15  2   
 24  13  16  1   
 25  14  17  1   
 26  14  18  1   
 27  15  17  1   
 28  15  19  1   
 29  16  20  1   
 30  16  31  1   
 31  16  32  1   
 32  18  33  1   
 33  18  34  1   
 34  18  35  1   
 35  19  21  1   
 36  19  36  1   
 37  19  37  1   
 38  20  21  1   
 39  20  38  1   
 40  20  39  1   
 41  21  40  1   
 42  21  41  1   
@<TRIPOS>SUBSTRUCTURE
  1 ****   6 GROUP 4 **** **** 0

# MOE 2024.06 (io_trps.svl 2023.06)
