@<TRIPOS>MOLECULE
NONAME
44 45 1 0 0 
SMALL
USER_CHARGES


@<TRIPOS>ATOM
  1 O       -0.0060    -1.1880     0.0690 O.3   1 <1>  -0.3630 
  2 C       -1.3440    -1.3450    -0.1060 C.ar  1 <1>   0.0830 
  3 C        0.6120     0.0790     0.0230 C.3   1 <1>   0.0400 
  4 C       -1.8450    -2.6430    -0.1200 C.ar  1 <1>  -0.1440 
  5 C       -2.2150    -0.2710    -0.2700 C.ar  1 <1>  -0.1500 
  6 C       -3.2030    -2.8540    -0.2910 C.ar  1 <1>  -0.1500 
  7 C       -0.9060    -3.8310     0.0460 C.3   1 <1>  -0.0960 
  8 C       -3.5690    -0.4910    -0.4390 C.ar  1 <1>  -0.1500 
  9 C       -4.0720    -1.7830    -0.4430 C.ar  1 <1>  -0.1440 
 10 C       -5.5580    -2.0290    -0.6020 C.3   1 <1>   0.4860 
 11 N       -6.1060    -2.4350     0.7260 N.4   1 <1>  -0.9590 
 12 C       -7.4660    -3.0410     0.6810 C.3   1 <1>   0.4230 
 13 C       -6.0310    -1.3100     1.7110 C.3   1 <1>   0.2630 
 14 C       -7.4050    -4.4240     0.0190 C.3   1 <1>  -0.1600 
 15 C       -8.4940    -2.1350    -0.0180 C.3   1 <1>  -0.1600 
 16 C       -8.7900    -5.0870     0.0180 C.3   1 <1>  -0.1600 
 17 C       -9.8810    -2.7940    -0.0180 C.3   1 <1>  -0.1600 
 18 C       -9.8350    -4.1880    -0.6580 C.3   1 <1>  -0.1600 
 19 H        1.6690    -0.0610     0.1580 H     1 <1>   0.0800 
 20 H        0.2210     0.6880     0.8190 H     1 <1>   0.0800 
 21 H        0.4220     0.5260    -0.9360 H     1 <1>   0.0800 
 22 H       -1.8530     0.7400    -0.2700 H     1 <1>   0.1500 
 23 H       -3.5730    -3.8640    -0.3100 H     1 <1>   0.1500 
 24 H       -0.3950    -3.7620     0.9900 H     1 <1>   0.0800 
 25 H       -0.1710    -3.8240    -0.7390 H     1 <1>   0.0800 
 26 H       -1.4370    -4.7640     0.0090 H     1 <1>   0.0800 
 27 H       -4.2200     0.3580    -0.5680 H     1 <1>   0.1500 
 28 H       -5.7070    -2.8110    -1.3270 H     1 <1>   0.0800 
 29 H       -6.0480    -1.1370    -0.9540 H     1 <1>   0.0800 
 30 H       -5.4630    -3.1620     1.0660 H     1 <1>   0.4500 
 31 H       -7.8030    -3.1920     1.6950 H     1 <1>   0.0800 
 32 H       -6.6360    -0.4810     1.3830 H     1 <1>   0.0800 
 33 H       -5.0110    -0.9720     1.8150 H     1 <1>   0.0800 
 34 H       -6.3810    -1.6340     2.6770 H     1 <1>   0.0800 
 35 H       -6.7220    -5.0580     0.5550 H     1 <1>   0.0800 
 36 H       -7.0740    -4.3440    -1.0010 H     1 <1>   0.0800 
 37 H       -8.2120    -1.9590    -1.0410 H     1 <1>   0.0800 
 38 H       -8.5670    -1.1900     0.4890 H     1 <1>   0.0800 
 39 H       -9.0980    -5.2890     1.0310 H     1 <1>   0.0800 
 40 H       -8.7420    -6.0300    -0.5000 H     1 <1>   0.0800 
 41 H      -10.5770    -2.1750    -0.5610 H     1 <1>   0.0800 
 42 H      -10.2440    -2.8790     0.9930 H     1 <1>   0.0800 
 43 H      -10.8060    -4.6490    -0.5830 H     1 <1>   0.0800 
 44 H       -9.6040    -4.0950    -1.7060 H     1 <1>   0.0800 
@<TRIPOS>BOND
  1   1   2  1   
  2   1   3  1   
  3   2   4  ar  
  4   2   5  ar  
  5   3  19  1   
  6   3  20  1   
  7   3  21  1   
  8   4   6  ar  
  9   4   7  1   
 10   5   8  ar  
 11   5  22  1   
 12   6   9  ar  
 13   6  23  1   
 14   7  24  1   
 15   7  25  1   
 16   7  26  1   
 17   8   9  ar  
 18   8  27  1   
 19   9  10  1   
 20  10  11  1   
 21  10  28  1   
 22  10  29  1   
 23  11  12  1   
 24  11  13  1   
 25  11  30  1   
 26  12  14  1   
 27  12  15  1   
 28  12  31  1   
 29  13  32  1   
 30  13  33  1   
 31  13  34  1   
 32  14  16  1   
 33  14  35  1   
 34  14  36  1   
 35  15  17  1   
 36  15  37  1   
 37  15  38  1   
 38  16  18  1   
 39  16  39  1   
 40  16  40  1   
 41  17  18  1   
 42  17  41  1   
 43  17  42  1   
 44  18  43  1   
 45  18  44  1   
@<TRIPOS>SUBSTRUCTURE
  1 ****   9 GROUP 4 **** **** 0

# MOE 2024.06 (io_trps.svl 2023.06)
