@<TRIPOS>MOLECULE
NONAME
56 58 1 0 0 
SMALL
USER_CHARGES


@<TRIPOS>ATOM
  1 O        5.1600     3.2150     1.6680 O.3   1 <1>  -0.3630 
  2 C        4.1100     2.8740     0.8830 C.ar  1 <1>   0.0820 
  3 C        6.4460     3.0120     1.1230 C.3   1 <1>   0.0400 
  4 C        3.8350     1.5540     0.5100 C.ar  1 <1>   0.0820 
  5 C        3.2890     3.8980     0.4450 C.ar  1 <1>  -0.1500 
  6 O        4.5600     0.4900     0.9370 O.3   1 <1>  -0.3630 
  7 C        2.7750     1.2890    -0.3390 C.ar  1 <1>  -0.1500 
  8 C        2.2120     3.6270    -0.3940 C.ar  1 <1>   0.0820 
  9 C        4.5630     0.2390     2.3270 C.3   1 <1>   0.0400 
 10 C        1.9630     2.3170    -0.7950 C.ar  1 <1>  -0.1440 
 11 O        1.3660     4.5950    -0.8490 O.3   1 <1>  -0.3630 
 12 C        0.8110     2.0100    -1.7250 C.3   1 <1>   0.4860 
 13 C        1.6630     5.9640    -0.6470 C.3   1 <1>   0.0400 
 14 N       -0.4190     2.4090    -1.0250 N.4   1 <1>  -0.9060 
 15 C       -1.6670     2.3590    -1.8340 C.3   1 <1>   0.3430 
 16 C       -2.8850     2.6820    -0.9450 C.3   1 <1>   0.1430 
 17 C       -2.8340     1.7470     0.2850 C.ar  1 <1>  -0.1430 
 18 C       -4.2150     2.5020    -1.6910 C.3   1 <1>  -0.1600 
 19 C       -2.9280     4.1880    -0.6230 C.3   1 <1>  -0.1600 
 20 C       -2.7420     2.2060     1.5960 C.ar  1 <1>  -0.1500 
 21 C       -2.8490     0.3700     0.0770 C.ar  1 <1>  -0.1500 
 22 C       -5.2150     3.3870    -0.9430 C.3   1 <1>  -0.1600 
 23 C       -4.3910     4.5040    -0.2950 C.3   1 <1>  -0.1600 
 24 C       -2.6500     1.3210     2.6560 C.ar  1 <1>  -0.1500 
 25 C       -2.7580    -0.5160     1.1350 C.ar  1 <1>  -0.1500 
 26 C       -2.6540    -0.0410     2.4280 C.ar  1 <1>  -0.1500 
 27 H        6.5160     3.5390     0.1880 H     1 <1>   0.0800 
 28 H        6.6110     1.9600     0.9730 H     1 <1>   0.0800 
 29 H        7.1700     3.3990     1.8180 H     1 <1>   0.0800 
 30 H        3.5210     4.8920     0.7750 H     1 <1>   0.1500 
 31 H        2.6040     0.2660    -0.6280 H     1 <1>   0.1500 
 32 H        5.0500    -0.7040     2.4970 H     1 <1>   0.0800 
 33 H        3.5470     0.1960     2.6770 H     1 <1>   0.0800 
 34 H        5.0990     1.0200     2.8330 H     1 <1>   0.0800 
 35 H        0.7880     0.9590    -1.9650 H     1 <1>   0.0800 
 36 H        0.9260     2.5790    -2.6330 H     1 <1>   0.0800 
 37 H        2.6330     6.1800    -1.0620 H     1 <1>   0.0800 
 38 H        1.6440     6.1780     0.4080 H     1 <1>   0.0800 
 39 H        0.9160     6.5520    -1.1490 H     1 <1>   0.0800 
 40 H       -0.2400     3.3680    -0.6890 H     1 <1>   0.4500 
 41 H       -0.5410     1.8390    -0.1750 H     1 <1>   0.4500 
 42 H       -1.7910     1.3700    -2.2440 H     1 <1>   0.0800 
 43 H       -1.6150     3.0620    -2.6490 H     1 <1>   0.0800 
 44 H       -4.5540     1.4820    -1.7290 H     1 <1>   0.0800 
 45 H       -4.1250     2.8700    -2.6990 H     1 <1>   0.0800 
 46 H       -2.6690     4.7470    -1.5070 H     1 <1>   0.0800 
 47 H       -2.2550     4.4930     0.1580 H     1 <1>   0.0800 
 48 H       -2.7460     3.2520     1.8370 H     1 <1>   0.1500 
 49 H       -2.9400    -0.0410    -0.9130 H     1 <1>   0.1500 
 50 H       -5.7020     2.8110    -0.1720 H     1 <1>   0.0800 
 51 H       -5.9670     3.7790    -1.6070 H     1 <1>   0.0800 
 52 H       -4.6720     5.4700    -0.6800 H     1 <1>   0.0800 
 53 H       -4.5520     4.4990     0.7700 H     1 <1>   0.0800 
 54 H       -2.5800     1.6930     3.6640 H     1 <1>   0.1500 
 55 H       -2.7750    -1.5780     0.9570 H     1 <1>   0.1500 
 56 H       -2.5850    -0.7280     3.2540 H     1 <1>   0.1500 
@<TRIPOS>BOND
  1   1   2  1   
  2   1   3  1   
  3   2   4  ar  
  4   2   5  ar  
  5   3  27  1   
  6   3  28  1   
  7   3  29  1   
  8   4   6  1   
  9   4   7  ar  
 10   5   8  ar  
 11   5  30  1   
 12   6   9  1   
 13   7  10  ar  
 14   7  31  1   
 15   8  10  ar  
 16   8  11  1   
 17   9  32  1   
 18   9  33  1   
 19   9  34  1   
 20  10  12  1   
 21  11  13  1   
 22  12  14  1   
 23  12  35  1   
 24  12  36  1   
 25  13  37  1   
 26  13  38  1   
 27  13  39  1   
 28  14  15  1   
 29  14  40  1   
 30  14  41  1   
 31  15  16  1   
 32  15  42  1   
 33  15  43  1   
 34  16  17  1   
 35  16  18  1   
 36  16  19  1   
 37  17  20  ar  
 38  17  21  ar  
 39  18  22  1   
 40  18  44  1   
 41  18  45  1   
 42  19  23  1   
 43  19  46  1   
 44  19  47  1   
 45  20  24  ar  
 46  20  48  1   
 47  21  25  ar  
 48  21  49  1   
 49  22  23  1   
 50  22  50  1   
 51  22  51  1   
 52  23  52  1   
 53  23  53  1   
 54  24  26  ar  
 55  24  54  1   
 56  25  26  ar  
 57  25  55  1   
 58  26  56  1   
@<TRIPOS>SUBSTRUCTURE
  1 ****  14 GROUP 4 **** **** 0

# MOE 2024.06 (io_trps.svl 2023.06)
