@<TRIPOS>MOLECULE
NONAME
59 61 1 0 0 
SMALL
USER_CHARGES


@<TRIPOS>ATOM
  1 O       -3.3720     3.4190     1.4870 O.3   1 <1>  -0.6830 
  2 C       -4.3150     3.6350     0.4810 C.3   1 <1>   0.1940 
  3 C       -5.7530     3.6010     1.0900 C.3   1 <1>  -0.0070 
  4 C       -4.0120     2.7240    -0.7430 C.3   1 <1>   0.3490 
  5 C       -6.0990     2.2800     1.8040 C.3   1 <1>  -0.2460 
  6 C       -5.8920     4.7370     2.1240 C.3   1 <1>  -0.2460 
  7 C       -6.8070     3.8490    -0.0030 C.3   1 <1>  -0.2460 
  8 N       -4.1620     1.2410    -0.5580 N.pl3 1 <1>  -0.7670 
  9 C       -3.4960     0.4270     0.2590 C.cat 1 <1>   1.0690 
 10 C       -5.0330     0.4540    -1.3030 C.ar  1 <1>   0.3040 
 11 N       -2.5950     0.8250     1.1200 N.pl3 1 <1>  -0.8390 
 12 N       -3.8550    -0.8500     0.0830 N.pl3 1 <1>  -0.7670 
 13 C       -4.8520    -0.8550    -0.8890 C.ar  1 <1>   0.3040 
 14 C       -5.9600     0.7570    -2.2960 C.ar  1 <1>  -0.1150 
 15 C       -3.3780    -2.0670     0.7940 C.3   1 <1>   0.3490 
 16 C       -5.6070    -1.8870    -1.4390 C.ar  1 <1>  -0.1150 
 17 C       -6.7040    -0.2670    -2.8490 C.ar  1 <1>  -0.1560 
 18 C       -2.4630    -2.9250    -0.1170 C.3   1 <1>   0.3380 
 19 C       -6.5300    -1.5830    -2.4200 C.ar  1 <1>  -0.1560 
 20 N       -1.8850    -4.1550     0.5340 N.4   1 <1>  -0.9610 
 21 C       -0.8680    -4.7770    -0.3700 C.3   1 <1>   0.3380 
 22 C       -2.9180    -5.1700     0.9190 C.3   1 <1>   0.3380 
 23 C       -0.1480    -5.9070     0.3670 C.3   1 <1>  -0.1660 
 24 C       -2.2540    -6.3090     1.6920 C.3   1 <1>  -0.1660 
 25 C       -1.1320    -6.9650     0.8800 C.3   1 <1>  -0.1660 
 26 H       -3.5640     4.0410     2.2250 H     1 <1>   0.3950 
 27 H       -4.1470     4.6440     0.1410 H     1 <1>   0.0730 
 28 H       -3.0030     2.9250    -1.0610 H     1 <1>   0.0730 
 29 H       -4.6440     3.0410    -1.5510 H     1 <1>   0.0730 
 30 H       -5.3620     2.0370     2.5480 H     1 <1>   0.0730 
 31 H       -6.1780     1.4650     1.1110 H     1 <1>   0.0730 
 32 H       -7.0500     2.3660     2.3000 H     1 <1>   0.0730 
 33 H       -5.2480     4.5800     2.9710 H     1 <1>   0.0730 
 34 H       -6.9020     4.7900     2.4930 H     1 <1>   0.0730 
 35 H       -5.6540     5.6890     1.6830 H     1 <1>   0.0730 
 36 H       -6.8400     3.0400    -0.7070 H     1 <1>   0.0730 
 37 H       -6.6030     4.7640    -0.5320 H     1 <1>   0.0730 
 38 H       -7.7880     3.9330     0.4350 H     1 <1>   0.0730 
 39 H       -2.1260     0.2590     1.8130 H     1 <1>   0.4460 
 40 H       -2.5430     1.8400     1.2990 H     1 <1>   0.4460 
 41 H       -6.1030     1.7670    -2.6330 H     1 <1>   0.1440 
 42 H       -4.2350    -2.6430     1.0990 H     1 <1>   0.0730 
 43 H       -2.8340    -1.7810     1.6780 H     1 <1>   0.0730 
 44 H       -5.4860    -2.9020    -1.1120 H     1 <1>   0.1440 
 45 H       -7.4300    -0.0550    -3.6180 H     1 <1>   0.1440 
 46 H       -1.6500    -2.3020    -0.4510 H     1 <1>   0.0730 
 47 H       -3.0250    -3.2240    -0.9850 H     1 <1>   0.0730 
 48 H       -7.1300    -2.3620    -2.8650 H     1 <1>   0.1440 
 49 H       -1.3680    -3.9150     1.3920 H     1 <1>   0.4460 
 50 H       -0.1450    -4.0410    -0.6810 H     1 <1>   0.0730 
 51 H       -1.3510    -5.1740    -1.2490 H     1 <1>   0.0730 
 52 H       -3.3890    -5.5670     0.0340 H     1 <1>   0.0730 
 53 H       -3.6760    -4.7220     1.5390 H     1 <1>   0.0730 
 54 H        0.4160    -5.5000     1.1880 H     1 <1>   0.0730 
 55 H        0.5540    -6.3730    -0.3030 H     1 <1>   0.0730 
 56 H       -2.9950    -7.0520     1.9320 H     1 <1>   0.0730 
 57 H       -1.8630    -5.9350     2.6230 H     1 <1>   0.0730 
 58 H       -0.6110    -7.6860     1.4880 H     1 <1>   0.0730 
 59 H       -1.5580    -7.4930     0.0420 H     1 <1>   0.0730 
@<TRIPOS>BOND
  1   1   2  1   
  2   1  26  1   
  3   2   3  1   
  4   2   4  1   
  5   2  27  1   
  6   3   5  1   
  7   3   6  1   
  8   3   7  1   
  9   4   8  1   
 10   4  28  1   
 11   4  29  1   
 12   5  30  1   
 13   5  31  1   
 14   5  32  1   
 15   6  33  1   
 16   6  34  1   
 17   6  35  1   
 18   7  36  1   
 19   7  37  1   
 20   7  38  1   
 21   8   9  ar  
 22   8  10  1   
 23   9  11  ar  
 24   9  12  ar  
 25  10  13  ar  
 26  10  14  ar  
 27  11  39  1   
 28  11  40  1   
 29  12  13  1   
 30  12  15  1   
 31  13  16  ar  
 32  14  17  ar  
 33  14  41  1   
 34  15  18  1   
 35  15  42  1   
 36  15  43  1   
 37  16  19  ar  
 38  16  44  1   
 39  17  19  ar  
 40  17  45  1   
 41  18  20  1   
 42  18  46  1   
 43  18  47  1   
 44  19  48  1   
 45  20  21  1   
 46  20  22  1   
 47  20  49  1   
 48  21  23  1   
 49  21  50  1   
 50  21  51  1   
 51  22  24  1   
 52  22  52  1   
 53  22  53  1   
 54  23  25  1   
 55  23  54  1   
 56  23  55  1   
 57  24  25  1   
 58  24  56  1   
 59  24  57  1   
 60  25  58  1   
 61  25  59  1   
@<TRIPOS>SUBSTRUCTURE
  1 ****  12 GROUP 4 **** **** 0

# MOE 2024.06 (io_trps.svl 2023.06)
