@<TRIPOS>MOLECULE
NONAME
55 59 1 0 0 
SMALL
USER_CHARGES


@<TRIPOS>ATOM
  1 O        0.7190     0.2050    -0.1900 O.2   1 <1>  -0.5700 
  2 C        0.5990     1.2370     0.4430 C.2   1 <1>   0.6900 
  3 N        1.6720     1.7820     1.0940 N.am  1 <1>  -0.6600 
  4 N       -0.5990     1.8640     0.5420 N.am  1 <1>  -0.7300 
  5 C        1.8320     3.2510     1.3430 C.3   1 <1>   0.1400 
  6 C        2.9530     1.0180     1.2420 C.3   1 <1>   0.1400 
  7 C       -1.8930     1.4860    -0.0500 C.3   1 <1>   0.3000 
  8 C        2.9870     3.8410     0.5130 C.3   1 <1>   0.2090 
  9 C        4.0810     1.6440     0.4040 C.3   1 <1>   0.2090 
 10 C       -2.3700     0.1250     0.4920 C.3   1 <1>  -0.1600 
 11 C       -2.9150     2.5660     0.3530 C.3   1 <1>  -0.1600 
 12 C       -1.8060     1.4360    -1.5880 C.3   1 <1>  -0.1600 
 13 N        4.2540     3.0880     0.7450 N.pl3 1 <1>  -0.8380 
 14 C       -3.7510    -0.2230    -0.0970 C.3   1 <1>  -0.0800 
 15 C       -4.3030     2.2370    -0.2310 C.3   1 <1>  -0.0800 
 16 C       -3.1860     1.0930    -2.1830 C.3   1 <1>  -0.0800 
 17 C        5.4140     3.6900     0.2380 C.ar  1 <1>   0.1000 
 18 C       -4.7630     0.8670     0.3040 C.3   1 <1>  -0.1600 
 19 C       -3.6450    -0.2730    -1.6350 C.3   1 <1>  -0.1600 
 20 C       -4.2010     2.1730    -1.7670 C.3   1 <1>  -0.1600 
 21 C        5.6730     3.9020    -1.1280 C.ar  1 <1>   0.0820 
 22 C        6.3720     4.1030     1.1520 C.ar  1 <1>  -0.1500 
 23 O        4.7880     3.5250    -2.0810 O.3   1 <1>  -0.5330 
 24 C        6.8500     4.5040    -1.5400 C.ar  1 <1>  -0.1500 
 25 C        7.5480     4.7060     0.7420 C.ar  1 <1>  -0.1500 
 26 C        7.7890     4.9080    -0.6060 C.ar  1 <1>  -0.1500 
 27 H       -0.6730     2.5410     1.2900 H     1 <1>   0.3700 
 28 H        2.0400     3.4080     2.3860 H     1 <1>   0.0800 
 29 H        0.9310     3.7820     1.0970 H     1 <1>   0.0800 
 30 H        2.8200    -0.0070     0.9450 H     1 <1>   0.0800 
 31 H        3.2460     1.0240     2.2760 H     1 <1>   0.0800 
 32 H        3.1350     4.8730     0.7810 H     1 <1>   0.0800 
 33 H        2.7270     3.8000    -0.5310 H     1 <1>   0.0800 
 34 H        3.8430     1.5400    -0.6400 H     1 <1>   0.0800 
 35 H        5.0020     1.1210     0.5920 H     1 <1>   0.0800 
 36 H       -2.4290     0.1580     1.5650 H     1 <1>   0.0800 
 37 H       -1.6700    -0.6440     0.2190 H     1 <1>   0.0800 
 38 H       -2.5940     3.5240    -0.0150 H     1 <1>   0.0800 
 39 H       -2.9870     2.6190     1.4240 H     1 <1>   0.0800 
 40 H       -1.0990     0.6860    -1.8940 H     1 <1>   0.0800 
 41 H       -1.4710     2.3850    -1.9660 H     1 <1>   0.0800 
 42 H       -4.0760    -1.1790     0.2770 H     1 <1>   0.0800 
 43 H       -5.0110     2.9960     0.0560 H     1 <1>   0.0800 
 44 H       -3.1170     1.0490    -3.2570 H     1 <1>   0.0800 
 45 H       -4.8530     0.9040     1.3760 H     1 <1>   0.0800 
 46 H       -5.7320     0.6270    -0.0960 H     1 <1>   0.0800 
 47 H       -4.6000    -0.5320    -2.0570 H     1 <1>   0.0800 
 48 H       -2.9420    -1.0350    -1.9250 H     1 <1>   0.0800 
 49 H       -3.8940     3.1290    -2.1530 H     1 <1>   0.0800 
 50 H       -5.1660     1.9460    -2.1870 H     1 <1>   0.0800 
 51 H        6.1810     3.9450     2.1970 H     1 <1>   0.1500 
 52 H        5.1120     3.7080    -2.9790 H     1 <1>   0.4500 
 53 H        7.0450     4.6640    -2.5840 H     1 <1>   0.1500 
 54 H        8.2740     5.0180     1.4720 H     1 <1>   0.1500 
 55 H        8.7040     5.3760    -0.9250 H     1 <1>   0.1500 
@<TRIPOS>BOND
  1   1   2  2   
  2   2   3  am  
  3   2   4  am  
  4   3   5  1   
  5   3   6  1   
  6   4   7  1   
  7   4  27  1   
  8   5   8  1   
  9   5  28  1   
 10   5  29  1   
 11   6   9  1   
 12   6  30  1   
 13   6  31  1   
 14   7  10  1   
 15   7  11  1   
 16   7  12  1   
 17   8  13  1   
 18   8  32  1   
 19   8  33  1   
 20   9  13  1   
 21   9  34  1   
 22   9  35  1   
 23  10  14  1   
 24  10  36  1   
 25  10  37  1   
 26  11  15  1   
 27  11  38  1   
 28  11  39  1   
 29  12  16  1   
 30  12  40  1   
 31  12  41  1   
 32  13  17  1   
 33  14  18  1   
 34  14  19  1   
 35  14  42  1   
 36  15  18  1   
 37  15  20  1   
 38  15  43  1   
 39  16  19  1   
 40  16  20  1   
 41  16  44  1   
 42  17  21  ar  
 43  17  22  ar  
 44  18  45  1   
 45  18  46  1   
 46  19  47  1   
 47  19  48  1   
 48  20  49  1   
 49  20  50  1   
 50  21  23  1   
 51  21  24  ar  
 52  22  25  ar  
 53  22  51  1   
 54  23  52  1   
 55  24  26  ar  
 56  24  53  1   
 57  25  26  ar  
 58  25  54  1   
 59  26  55  1   
@<TRIPOS>SUBSTRUCTURE
  1 ****   2 GROUP 4 **** **** 0

# MOE 2024.06 (io_trps.svl 2023.06)
