@<TRIPOS>MOLECULE
NONAME
50 52 1 0 0 
SMALL
USER_CHARGES


@<TRIPOS>ATOM
  1 F       -1.3880    -1.2930     1.5040 F     1 <1>  -0.1900 
  2 C       -2.5120    -0.6880     1.2330 C.ar  1 <1>   0.1900 
  3 C       -3.3920    -1.2930     0.3570 C.ar  1 <1>  -0.1500 
  4 C       -2.7790     0.5270     1.8320 C.ar  1 <1>  -0.1500 
  5 C       -4.5950    -0.6600     0.0720 C.ar  1 <1>  -0.1440 
  6 C       -3.9750     1.1580     1.5380 C.ar  1 <1>  -0.1500 
  7 C       -4.8760     0.5680     0.6630 C.ar  1 <1>  -0.1500 
  8 C       -5.5980    -1.3030    -0.8680 C.3   1 <1>   0.4870 
  9 N       -6.2460    -2.4440    -0.1670 N.4   1 <1>  -0.9590 
 10 C       -7.1360    -3.2070    -1.1160 C.3   1 <1>   0.3430 
 11 C       -7.0070    -1.9630     1.0470 C.3   1 <1>   0.3430 
 12 C       -7.9450    -4.3160    -0.4080 C.3   1 <1>   0.1400 
 13 C       -7.7870    -3.0980     1.7410 C.3   1 <1>   0.1400 
 14 N       -8.6870    -3.7630     0.7610 N.am  1 <1>  -0.6600 
 15 C       -9.8530    -3.1090     0.4980 C.2   1 <1>   0.6900 
 16 O       -9.8650    -2.2770    -0.3900 O.2   1 <1>  -0.5700 
 17 N      -10.9280    -3.3670     1.2860 N.am  1 <1>  -0.5470 
 18 C      -12.1390    -2.6680     1.3650 C.ar  1 <1>   0.1170 
 19 C      -13.0520    -2.5830     0.3060 C.ar  1 <1>  -0.1430 
 20 C      -12.4340    -2.0450     2.5700 C.ar  1 <1>  -0.1500 
 21 C      -14.2210    -1.8400     0.4650 C.ar  1 <1>  -0.1430 
 22 C      -12.7750    -3.3000    -1.0160 C.3   1 <1>  -0.0970 
 23 C      -13.5990    -1.3250     2.7290 C.ar  1 <1>  -0.1500 
 24 C      -14.4870    -1.2200     1.6760 C.ar  1 <1>  -0.1500 
 25 C      -15.2370    -1.6740    -0.6580 C.3   1 <1>  -0.0970 
 26 H       -3.1180    -2.2350    -0.0840 H     1 <1>   0.1500 
 27 H       -2.0660     0.9650     2.5080 H     1 <1>   0.1500 
 28 H       -4.2010     2.1110     1.9890 H     1 <1>   0.1500 
 29 H       -5.7970     1.0860     0.4480 H     1 <1>   0.1500 
 30 H       -5.0860    -1.6490    -1.7510 H     1 <1>   0.0800 
 31 H       -6.3410    -0.5800    -1.1650 H     1 <1>   0.0800 
 32 H       -5.4990    -3.0650     0.1640 H     1 <1>   0.4500 
 33 H       -6.5460    -3.6480    -1.9030 H     1 <1>   0.0800 
 34 H       -7.8380    -2.5280    -1.5740 H     1 <1>   0.0800 
 35 H       -7.7150    -1.2060     0.7490 H     1 <1>   0.0800 
 36 H       -6.3260    -1.5180     1.7550 H     1 <1>   0.0800 
 37 H       -7.2910    -5.1060    -0.0820 H     1 <1>   0.0800 
 38 H       -8.6480    -4.7400    -1.1070 H     1 <1>   0.0800 
 39 H       -8.3710    -2.6850     2.5470 H     1 <1>   0.0800 
 40 H       -7.1070    -3.8190     2.1610 H     1 <1>   0.0800 
 41 H      -10.7780    -4.0850     1.9880 H     1 <1>   0.3700 
 42 H      -11.7450    -2.1170     3.3900 H     1 <1>   0.1500 
 43 H      -12.1380    -4.1520    -0.8730 H     1 <1>   0.0800 
 44 H      -12.2950    -2.6220    -1.6980 H     1 <1>   0.0800 
 45 H      -13.6820    -3.6610    -1.4630 H     1 <1>   0.0800 
 46 H      -13.8170    -0.8420     3.6660 H     1 <1>   0.1500 
 47 H      -15.3900    -0.6500     1.8090 H     1 <1>   0.1500 
 48 H      -14.7420    -1.3810    -1.5660 H     1 <1>   0.0800 
 49 H      -15.9600    -0.9170    -0.4160 H     1 <1>   0.0800 
 50 H      -15.7580    -2.6000    -0.8210 H     1 <1>   0.0800 
@<TRIPOS>BOND
  1   1   2  1   
  2   2   3  ar  
  3   2   4  ar  
  4   3   5  ar  
  5   3  26  1   
  6   4   6  ar  
  7   4  27  1   
  8   5   7  ar  
  9   5   8  1   
 10   6   7  ar  
 11   6  28  1   
 12   7  29  1   
 13   8   9  1   
 14   8  30  1   
 15   8  31  1   
 16   9  10  1   
 17   9  11  1   
 18   9  32  1   
 19  10  12  1   
 20  10  33  1   
 21  10  34  1   
 22  11  13  1   
 23  11  35  1   
 24  11  36  1   
 25  12  14  1   
 26  12  37  1   
 27  12  38  1   
 28  13  14  1   
 29  13  39  1   
 30  13  40  1   
 31  14  15  am  
 32  15  16  2   
 33  15  17  am  
 34  17  18  1   
 35  17  41  1   
 36  18  19  ar  
 37  18  20  ar  
 38  19  21  ar  
 39  19  22  1   
 40  20  23  ar  
 41  20  42  1   
 42  21  24  ar  
 43  21  25  1   
 44  22  43  1   
 45  22  44  1   
 46  22  45  1   
 47  23  24  ar  
 48  23  46  1   
 49  24  47  1   
 50  25  48  1   
 51  25  49  1   
 52  25  50  1   
@<TRIPOS>SUBSTRUCTURE
  1 ****  11 GROUP 4 **** **** 0

# MOE 2024.06 (io_trps.svl 2023.06)
