@<TRIPOS>MOLECULE
NONAME
46 48 1 0 0 
SMALL
USER_CHARGES


@<TRIPOS>ATOM
  1 O       -0.1450    -0.0840    -0.0700 O.2   1 <1>  -0.5700 
  2 C       -0.1490     1.1170     0.1110 C.2   1 <1>   0.5440 
  3 N        1.0250     1.7930    -0.0340 N.am  1 <1>  -0.7300 
  4 C       -1.3750     1.8060     0.4820 C.ar  1 <1>   0.0860 
  5 C        2.3080     1.1600    -0.3750 C.3   1 <1>   0.2840 
  6 C       -2.3910     1.1340     1.1600 C.ar  1 <1>  -0.1500 
  7 C       -1.5970     3.1510     0.1790 C.ar  1 <1>  -0.1500 
  8 C        3.3790     2.2340    -0.3380 C.ar  1 <1>  -0.1440 
  9 C       -3.5680     1.7640     1.5190 C.ar  1 <1>  -0.1500 
 10 C       -2.7710     3.7900     0.5340 C.ar  1 <1>  -0.1500 
 11 C        4.0390     2.5230     0.8470 C.ar  1 <1>  -0.1500 
 12 C        3.7020     2.9420    -1.4870 C.ar  1 <1>  -0.1500 
 13 C       -3.7700     3.0990     1.2030 C.ar  1 <1>  -0.1430 
 14 C        5.0130     3.5070     0.8830 C.ar  1 <1>  -0.1500 
 15 C        4.6750     3.9250    -1.4520 C.ar  1 <1>  -0.1500 
 16 C       -5.0720     3.7830     1.5790 C.3   1 <1>   0.4860 
 17 C        5.3310     4.2080    -0.2670 C.ar  1 <1>  -0.1500 
 18 N       -5.8970     3.9590     0.3540 N.4   1 <1>  -0.9590 
 19 C       -7.1570     4.7430     0.5850 C.3   1 <1>   0.3430 
 20 C       -6.1900     2.6760    -0.3720 C.3   1 <1>   0.3430 
 21 C       -8.0160     4.8310    -0.6980 C.3   1 <1>   0.1200 
 22 C       -6.9990     2.9380    -1.6640 C.3   1 <1>   0.1200 
 23 O       -7.3320     4.2950    -1.7980 O.3   1 <1>  -0.5600 
 24 H        1.1080     2.7770     0.2230 H     1 <1>   0.3700 
 25 H        2.2430     0.7190    -1.3550 H     1 <1>   0.0800 
 26 H        2.5280     0.3810     0.3360 H     1 <1>   0.0800 
 27 H       -2.2440     0.0950     1.4060 H     1 <1>   0.1500 
 28 H       -0.8390     3.7030    -0.3510 H     1 <1>   0.1500 
 29 H       -4.3170     1.1970     2.0480 H     1 <1>   0.1500 
 30 H       -2.8920     4.8310     0.2820 H     1 <1>   0.1500 
 31 H        3.7970     1.9830     1.7460 H     1 <1>   0.1500 
 32 H        3.1950     2.7290    -2.4130 H     1 <1>   0.1500 
 33 H        5.5220     3.7260     1.8050 H     1 <1>   0.1500 
 34 H        4.9220     4.4700    -2.3460 H     1 <1>   0.1500 
 35 H       -4.8560     4.7420     2.0220 H     1 <1>   0.0800 
 36 H       -5.6030     3.1860     2.3020 H     1 <1>   0.0800 
 37 H        6.0880     4.9730    -0.2390 H     1 <1>   0.1500 
 38 H       -5.3500     4.5090    -0.3240 H     1 <1>   0.4500 
 39 H       -6.9130     5.7420     0.9090 H     1 <1>   0.0800 
 40 H       -7.7440     4.2840     1.3640 H     1 <1>   0.0800 
 41 H       -6.7510     2.0110     0.2640 H     1 <1>   0.0800 
 42 H       -5.2710     2.1760    -0.6330 H     1 <1>   0.0800 
 43 H       -8.2470     5.8590    -0.9220 H     1 <1>   0.0800 
 44 H       -8.9430     4.2980    -0.5760 H     1 <1>   0.0800 
 45 H       -7.9060     2.3570    -1.6710 H     1 <1>   0.0800 
 46 H       -6.4180     2.6590    -2.5260 H     1 <1>   0.0800 
@<TRIPOS>BOND
  1   1   2  2   
  2   2   3  am  
  3   2   4  1   
  4   3   5  1   
  5   3  24  1   
  6   4   6  ar  
  7   4   7  ar  
  8   5   8  1   
  9   5  25  1   
 10   5  26  1   
 11   6   9  ar  
 12   6  27  1   
 13   7  10  ar  
 14   7  28  1   
 15   8  11  ar  
 16   8  12  ar  
 17   9  13  ar  
 18   9  29  1   
 19  10  13  ar  
 20  10  30  1   
 21  11  14  ar  
 22  11  31  1   
 23  12  15  ar  
 24  12  32  1   
 25  13  16  1   
 26  14  17  ar  
 27  14  33  1   
 28  15  17  ar  
 29  15  34  1   
 30  16  18  1   
 31  16  35  1   
 32  16  36  1   
 33  17  37  1   
 34  18  19  1   
 35  18  20  1   
 36  18  38  1   
 37  19  21  1   
 38  19  39  1   
 39  19  40  1   
 40  20  22  1   
 41  20  41  1   
 42  20  42  1   
 43  21  23  1   
 44  21  43  1   
 45  21  44  1   
 46  22  23  1   
 47  22  45  1   
 48  22  46  1   
@<TRIPOS>SUBSTRUCTURE
  1 ****   7 GROUP 4 **** **** 0

# MOE 2024.06 (io_trps.svl 2023.06)
