@<TRIPOS>MOLECULE
NONAME
53 54 1 0 0 
SMALL
USER_CHARGES


@<TRIPOS>ATOM
  1 CL       4.8700     0.7660    -4.7090 Cl    1 <1>  -0.1770 
  2 C        4.3150     1.1700    -3.1040 C.ar  1 <1>   0.1770 
  3 C        5.0200     0.7220    -2.0090 C.ar  1 <1>  -0.1500 
  4 C        3.1750     1.9350    -2.9600 C.ar  1 <1>  -0.1500 
  5 C        4.5830     1.0340    -0.7260 C.ar  1 <1>   0.1990 
  6 C        2.7370     2.2580    -1.6870 C.ar  1 <1>  -0.1500 
  7 N        5.2970     0.5790     0.3790 N.am  1 <1>  -0.6930 
  8 C        3.4330     1.8170    -0.5710 C.ar  1 <1>  -0.1440 
  9 S        5.3700    -1.1060     0.7690 S.o2  1 <1>   1.3330 
 10 C        6.4610     1.4130     0.8160 C.3   1 <1>   0.2570 
 11 C        2.9240     2.2050     0.8120 C.3   1 <1>  -0.0960 
 12 O        5.6510    -1.8350    -0.4410 O.2   1 <1>  -0.6500 
 13 O        6.2620    -1.2190     1.9000 O.2   1 <1>  -0.6500 
 14 C        3.7120    -1.4500     1.3140 C.3   1 <1>  -0.1350 
 15 C        7.7820     1.0730     0.1150 C.2   1 <1>   0.5690 
 16 O        8.2060     1.8310    -0.7240 O.2   1 <1>  -0.5700 
 17 N        8.4570    -0.0570     0.4610 N.am  1 <1>  -0.7300 
 18 C        9.6470    -0.5850    -0.2460 C.3   1 <1>   0.1400 
 19 C       10.8780     0.2550     0.0850 C.3   1 <1>   0.0700 
 20 S       12.3260    -0.5330    -0.6740 S.3   1 <1>  -0.4600 
 21 C       13.6550     0.6670    -0.3940 C.3   1 <1>   0.1500 
 22 C       13.5280     1.7840    -1.4380 C.3   1 <1>  -0.1600 
 23 C       14.9860    -0.0810    -0.5140 C.3   1 <1>  -0.1600 
 24 C       14.7160     2.7530    -1.3500 C.3   1 <1>  -0.1600 
 25 C       16.1710     0.8910    -0.4230 C.3   1 <1>  -0.1600 
 26 C       16.0530     2.0080    -1.4710 C.3   1 <1>  -0.1600 
 27 H        5.9080     0.1330    -2.1520 H     1 <1>   0.1500 
 28 H        2.6430     2.2720    -3.8320 H     1 <1>   0.1500 
 29 H        1.8500     2.8580    -1.5770 H     1 <1>   0.1500 
 30 H        6.5970     1.3070     1.8770 H     1 <1>   0.0800 
 31 H        6.2410     2.4470     0.6200 H     1 <1>   0.0800 
 32 H        2.5760     1.3340     1.3360 H     1 <1>   0.0800 
 33 H        2.1110     2.9060     0.7420 H     1 <1>   0.0800 
 34 H        3.7110     2.6630     1.3830 H     1 <1>   0.0800 
 35 H        3.0140    -1.2470     0.5260 H     1 <1>   0.0800 
 36 H        3.4670    -0.8420     2.1630 H     1 <1>   0.0800 
 37 H        3.6250    -2.4810     1.5930 H     1 <1>   0.0800 
 38 H        8.0150    -0.7060     1.1290 H     1 <1>   0.3700 
 39 H        9.4710    -0.5590    -1.3090 H     1 <1>   0.0800 
 40 H        9.8110    -1.6070     0.0500 H     1 <1>   0.0800 
 41 H       11.0550     0.2940     1.1450 H     1 <1>   0.0800 
 42 H       10.7900     1.2440    -0.3260 H     1 <1>   0.0800 
 43 H       13.5320     1.0570     0.6010 H     1 <1>   0.0800 
 44 H       12.6120     2.3260    -1.2870 H     1 <1>   0.0800 
 45 H       13.5000     1.3460    -2.4210 H     1 <1>   0.0800 
 46 H       15.0200    -0.5930    -1.4600 H     1 <1>   0.0800 
 47 H       15.0560    -0.8150     0.2680 H     1 <1>   0.0800 
 48 H       14.6830     3.2740    -0.4090 H     1 <1>   0.0800 
 49 H       14.6400     3.4860    -2.1350 H     1 <1>   0.0800 
 50 H       17.0910     0.3520    -0.5730 H     1 <1>   0.0800 
 51 H       16.2010     1.3270     0.5610 H     1 <1>   0.0800 
 52 H       16.8650     2.7030    -1.3490 H     1 <1>   0.0800 
 53 H       16.1320     1.5790    -2.4550 H     1 <1>   0.0800 
@<TRIPOS>BOND
  1   1   2  1   
  2   2   3  ar  
  3   2   4  ar  
  4   3   5  ar  
  5   3  27  1   
  6   4   6  ar  
  7   4  28  1   
  8   5   7  1   
  9   5   8  ar  
 10   6   8  ar  
 11   6  29  1   
 12   7   9  am  
 13   7  10  1   
 14   8  11  1   
 15   9  12  2   
 16   9  13  2   
 17   9  14  1   
 18  10  15  1   
 19  10  30  1   
 20  10  31  1   
 21  11  32  1   
 22  11  33  1   
 23  11  34  1   
 24  14  35  1   
 25  14  36  1   
 26  14  37  1   
 27  15  16  2   
 28  15  17  am  
 29  17  18  1   
 30  17  38  1   
 31  18  19  1   
 32  18  39  1   
 33  18  40  1   
 34  19  20  1   
 35  19  41  1   
 36  19  42  1   
 37  20  21  1   
 38  21  22  1   
 39  21  23  1   
 40  21  43  1   
 41  22  24  1   
 42  22  44  1   
 43  22  45  1   
 44  23  25  1   
 45  23  46  1   
 46  23  47  1   
 47  24  26  1   
 48  24  48  1   
 49  24  49  1   
 50  25  26  1   
 51  25  50  1   
 52  25  51  1   
 53  26  52  1   
 54  26  53  1   
@<TRIPOS>SUBSTRUCTURE
  1 ****  15 GROUP 4 **** **** 0

# MOE 2024.06 (io_trps.svl 2023.06)
