@<TRIPOS>MOLECULE
NONAME
44 47 1 0 0 
SMALL
USER_CHARGES


@<TRIPOS>ATOM
  1 O        0.2990     0.5260    -0.7020 O.2   1 <1>  -0.5700 
  2 C       -0.1320     1.6320    -0.4780 C.2   1 <1>   0.5690 
  3 N        0.6200     2.7370    -0.1790 N.am  1 <1>  -0.1840 
  4 C       -1.6140     1.9520    -0.5330 C.3   1 <1>  -0.0190 
  5 C        2.0210     2.7080     0.0160 C.2   1 <1>   0.2500 
  6 C       -0.1950     3.8380    -0.0860 C.2   1 <1>   0.5690 
  7 C       -1.6600     3.4590    -0.2120 C.3   1 <1>  -0.0190 
  8 C       -2.4520     1.0880     0.4310 C.3   1 <1>  -0.1600 
  9 N        2.7810     1.6490    -0.2820 N.pl3 1 <1>   0.0330 
 10 N        2.7520     3.6560     0.5100 N.2   1 <1>  -0.3380 
 11 O        0.1360     4.9890     0.0370 O.2   1 <1>  -0.5700 
 12 C       -2.4630     3.7870     1.0620 C.3   1 <1>  -0.1600 
 13 C       -3.8630     1.6720     0.5950 C.3   1 <1>  -0.1600 
 14 C        4.0150     2.0210     0.0600 C.2   1 <1>   0.0060 
 15 N        4.0160     3.2170     0.5340 N.2   1 <1>  -0.3380 
 16 C       -3.8620     3.1530     1.0240 C.3   1 <1>  -0.1600 
 17 C        5.2250     1.1130    -0.1050 C.3   1 <1>   0.0200 
 18 C        6.5320     1.7710     0.3550 C.3   1 <1>  -0.0170 
 19 C        7.7000     0.8180     0.1610 C.ar  1 <1>  -0.1440 
 20 C        8.4090     0.8150    -1.0310 C.ar  1 <1>  -0.1500 
 21 C        8.0640    -0.0590     1.1710 C.ar  1 <1>  -0.1500 
 22 C        9.4690    -0.0580    -1.2120 C.ar  1 <1>  -0.1500 
 23 C        9.1230    -0.9320     0.9910 C.ar  1 <1>  -0.1500 
 24 C        9.8260    -0.9320    -0.2010 C.ar  1 <1>  -0.1500 
 25 H       -1.9570     1.7930    -1.5400 H     1 <1>   0.0800 
 26 H       -2.0830     3.9930    -1.0450 H     1 <1>   0.0800 
 27 H       -1.9740     1.0410     1.3950 H     1 <1>   0.0800 
 28 H       -2.5150     0.0810     0.0530 H     1 <1>   0.0800 
 29 H        2.4370     0.7600    -0.6570 H     1 <1>   0.2700 
 30 H       -2.5480     4.8550     1.1710 H     1 <1>   0.0800 
 31 H       -1.9330     3.4210     1.9260 H     1 <1>   0.0800 
 32 H       -4.4070     1.0890     1.3190 H     1 <1>   0.0800 
 33 H       -4.3860     1.5810    -0.3420 H     1 <1>   0.0800 
 34 H       -4.4810     3.7110     0.3420 H     1 <1>   0.0800 
 35 H       -4.3090     3.2430     2.0000 H     1 <1>   0.0800 
 36 H        5.3200     0.8400    -1.1410 H     1 <1>   0.0800 
 37 H        5.0690     0.2140     0.4650 H     1 <1>   0.0800 
 38 H        6.4530     2.0460     1.3930 H     1 <1>   0.0800 
 39 H        6.7000     2.6740    -0.2060 H     1 <1>   0.0800 
 40 H        8.1410     1.4920    -1.8230 H     1 <1>   0.1500 
 41 H        7.5250    -0.0650     2.1020 H     1 <1>   0.1500 
 42 H       10.0150    -0.0550    -2.1390 H     1 <1>   0.1500 
 43 H        9.4010    -1.6100     1.7790 H     1 <1>   0.1500 
 44 H       10.6500    -1.6100    -0.3410 H     1 <1>   0.1500 
@<TRIPOS>BOND
  1   1   2  2   
  2   2   3  am  
  3   2   4  1   
  4   3   5  1   
  5   3   6  am  
  6   4   7  1   
  7   4   8  1   
  8   4  25  1   
  9   5   9  1   
 10   5  10  2   
 11   6   7  1   
 12   6  11  2   
 13   7  12  1   
 14   7  26  1   
 15   8  13  1   
 16   8  27  1   
 17   8  28  1   
 18   9  14  1   
 19   9  29  1   
 20  10  15  1   
 21  12  16  1   
 22  12  30  1   
 23  12  31  1   
 24  13  16  1   
 25  13  32  1   
 26  13  33  1   
 27  14  15  2   
 28  14  17  1   
 29  16  34  1   
 30  16  35  1   
 31  17  18  1   
 32  17  36  1   
 33  17  37  1   
 34  18  19  1   
 35  18  38  1   
 36  18  39  1   
 37  19  20  ar  
 38  19  21  ar  
 39  20  22  ar  
 40  20  40  1   
 41  21  23  ar  
 42  21  41  1   
 43  22  24  ar  
 44  22  42  1   
 45  23  24  ar  
 46  23  43  1   
 47  24  44  1   
@<TRIPOS>SUBSTRUCTURE
  1 ****   9 GROUP 4 **** **** 0

# MOE 2024.06 (io_trps.svl 2023.06)
