@<TRIPOS>MOLECULE
NONAME
50 51 1 0 0 
SMALL
USER_CHARGES


@<TRIPOS>ATOM
  1 BR      -0.3450     0.5230     0.7110 Br    1 <1>  -0.1110 
  2 C        1.4300     1.2480     0.4760 C.ar  1 <1>   0.1110 
  3 C        1.6080     2.3700    -0.3470 C.ar  1 <1>   0.0830 
  4 C        2.4680     0.6320     1.1300 C.ar  1 <1>  -0.1500 
  5 O        0.5030     2.8990    -0.9480 O.3   1 <1>  -0.3630 
  6 C        2.8860     2.8760    -0.5050 C.ar  1 <1>  -0.1500 
  7 C        3.7530     1.1570     0.9590 C.ar  1 <1>  -0.1520 
  8 C        0.6110     4.0130    -1.8060 C.3   1 <1>   0.0400 
  9 C        3.9690     2.2670     0.1480 C.ar  1 <1>   0.0000 
 10 N        4.9550     0.7530     1.4830 N.pl3 1 <1>   0.0480 
 11 C        5.3640     2.5450     0.1810 C.2   1 <1>  -0.0860 
 12 C        5.9220     1.5770     0.9870 C.2   1 <1>  -0.3320 
 13 C        5.0820    -0.3740     2.4350 C.3   1 <1>   0.0160 
 14 C        5.9790     3.6450    -0.5200 C.2   1 <1>   0.8060 
 15 C        7.3930     1.3710     1.2990 C.3   1 <1>   0.5230 
 16 O        5.4920     4.1970    -1.4840 O.2   1 <1>  -0.5700 
 17 O        7.1780     4.0570    -0.0840 O.3   1 <1>  -0.4300 
 18 N        8.1560     1.2370     0.0270 N.4   1 <1>  -0.9590 
 19 C        7.7630     5.2440    -0.5910 C.3   1 <1>   0.1200 
 20 C        7.5460     0.2530    -0.9140 C.3   1 <1>   0.3430 
 21 C        9.5870     0.9260     0.2820 C.3   1 <1>   0.3430 
 22 C        8.8040     5.7390     0.4080 C.3   1 <1>  -0.2400 
 23 C        7.9860     0.5810    -2.3360 C.3   1 <1>  -0.2400 
 24 C       10.3190     2.1940     0.6950 C.3   1 <1>  -0.2400 
 25 H        2.2860    -0.2260     1.7500 H     1 <1>   0.1500 
 26 H        3.0760     3.7320    -1.1220 H     1 <1>   0.1500 
 27 H       -0.3730     4.2500    -2.1690 H     1 <1>   0.0800 
 28 H        1.2530     3.7590    -2.6310 H     1 <1>   0.0800 
 29 H        1.0050     4.8460    -1.2520 H     1 <1>   0.0800 
 30 H        4.2610    -0.3430     3.1300 H     1 <1>   0.0800 
 31 H        5.9980    -0.3040     2.9890 H     1 <1>   0.0800 
 32 H        5.0500    -1.3020     1.8950 H     1 <1>   0.0800 
 33 H        7.5250     0.4830     1.8930 H     1 <1>   0.0800 
 34 H        7.7600     2.2150     1.8620 H     1 <1>   0.0800 
 35 H        8.1030     2.1630    -0.4190 H     1 <1>   0.4500 
 36 H        6.9940     5.9910    -0.7110 H     1 <1>   0.0800 
 37 H        8.2040     5.0310    -1.5510 H     1 <1>   0.0800 
 38 H        6.4690     0.3080    -0.8770 H     1 <1>   0.0800 
 39 H        7.8380    -0.7510    -0.6510 H     1 <1>   0.0800 
 40 H       10.0470     0.5420    -0.6140 H     1 <1>   0.0800 
 41 H        9.6760     0.1750     1.0510 H     1 <1>   0.0800 
 42 H        8.3450     5.9250     1.3630 H     1 <1>   0.0800 
 43 H        9.2270     6.6620     0.0540 H     1 <1>   0.0800 
 44 H        9.6010     5.0300     0.5210 H     1 <1>   0.0800 
 45 H        7.6850     1.5770    -2.6060 H     1 <1>   0.0800 
 46 H        7.5080    -0.1020    -3.0160 H     1 <1>   0.0800 
 47 H        9.0480     0.4760    -2.4600 H     1 <1>   0.0800 
 48 H       10.2980     2.9110    -0.1050 H     1 <1>   0.0800 
 49 H       11.3490     1.9570     0.8930 H     1 <1>   0.0800 
 50 H        9.9030     2.6260     1.5880 H     1 <1>   0.0800 
@<TRIPOS>BOND
  1   1   2  1   
  2   2   3  ar  
  3   2   4  ar  
  4   3   5  1   
  5   3   6  ar  
  6   4   7  ar  
  7   4  25  1   
  8   5   8  1   
  9   6   9  ar  
 10   6  26  1   
 11   7   9  ar  
 12   7  10  1   
 13   8  27  1   
 14   8  28  1   
 15   8  29  1   
 16   9  11  1   
 17  10  12  1   
 18  10  13  1   
 19  11  12  2   
 20  11  14  1   
 21  12  15  1   
 22  13  30  1   
 23  13  31  1   
 24  13  32  1   
 25  14  16  2   
 26  14  17  1   
 27  15  18  1   
 28  15  33  1   
 29  15  34  1   
 30  17  19  1   
 31  18  20  1   
 32  18  21  1   
 33  18  35  1   
 34  19  22  1   
 35  19  36  1   
 36  19  37  1   
 37  20  23  1   
 38  20  38  1   
 39  20  39  1   
 40  21  24  1   
 41  21  40  1   
 42  21  41  1   
 43  22  42  1   
 44  22  43  1   
 45  22  44  1   
 46  23  45  1   
 47  23  46  1   
 48  23  47  1   
 49  24  48  1   
 50  24  49  1   
 51  24  50  1   
@<TRIPOS>SUBSTRUCTURE
  1 ****  11 GROUP 4 **** **** 0

# MOE 2024.06 (io_trps.svl 2023.06)
