@<TRIPOS>MOLECULE
NONAME
38 38 1 0 0 
SMALL
USER_CHARGES


@<TRIPOS>ATOM
  1 S       -0.2970     1.8280    -0.8550 S.3   1 <1>  -0.4600 
  2 C       -1.1950     1.0510     0.5220 C.3   1 <1>   0.2140 
  3 C        0.9470     2.8650    -0.0050 C.3   1 <1>   0.1310 
  4 C       -2.0360    -0.0910    -0.0320 C.ar  1 <1>  -0.1440 
  5 C        1.9560     2.0100     0.7480 C.2   1 <1>   0.5690 
  6 C       -1.6680    -1.4290     0.1000 C.ar  1 <1>  -0.1440 
  7 C       -3.2160     0.2290    -0.6880 C.ar  1 <1>  -0.1500 
  8 O        2.3980     2.4170     1.7950 O.2   1 <1>  -0.5700 
  9 N        2.3190     0.8090     0.2290 N.am  1 <1>  -0.7300 
 10 C       -2.4930    -2.4170    -0.4180 C.ar  1 <1>  -0.1500 
 11 C       -0.3800    -1.8440     0.7950 C.3   1 <1>  -0.0970 
 12 C       -4.0320    -0.7620    -1.2020 C.ar  1 <1>  -0.1500 
 13 C        3.3240    -0.1110     0.8040 C.3   1 <1>   0.1400 
 14 C       -3.6700    -2.0890    -1.0650 C.ar  1 <1>  -0.1500 
 15 C        4.1380    -0.7890    -0.3100 C.3   1 <1>  -0.0800 
 16 C        5.1090    -1.8090     0.2980 C.3   1 <1>  -0.2400 
 17 C        4.9240     0.2300    -1.1500 C.3   1 <1>  -0.2400 
 18 H       -1.8160     1.8090     0.9650 H     1 <1>   0.0800 
 19 H       -0.4720     0.7190     1.2430 H     1 <1>   0.0800 
 20 H        0.4210     3.5130     0.6710 H     1 <1>   0.0800 
 21 H        1.4440     3.4470    -0.7580 H     1 <1>   0.0800 
 22 H       -3.5030     1.2590    -0.8050 H     1 <1>   0.1500 
 23 H        1.8560     0.4980    -0.6310 H     1 <1>   0.3700 
 24 H       -2.2230    -3.4540    -0.3220 H     1 <1>   0.1500 
 25 H       -0.4060    -1.5530     1.8300 H     1 <1>   0.0800 
 26 H        0.4610    -1.3770     0.3160 H     1 <1>   0.0800 
 27 H       -0.2420    -2.9090     0.7480 H     1 <1>   0.0800 
 28 H       -4.9440    -0.5010    -1.7090 H     1 <1>   0.1500 
 29 H        2.8150    -0.8570     1.3900 H     1 <1>   0.0800 
 30 H        3.9820     0.4370     1.4590 H     1 <1>   0.0800 
 31 H       -4.3010    -2.8630    -1.4630 H     1 <1>   0.1500 
 32 H        3.4580    -1.3220    -0.9530 H     1 <1>   0.0800 
 33 H        5.8120    -1.3220     0.9510 H     1 <1>   0.0800 
 34 H        5.6570    -2.3130    -0.4800 H     1 <1>   0.0800 
 35 H        4.5710    -2.5490     0.8630 H     1 <1>   0.0800 
 36 H        5.5930     0.7970    -0.5260 H     1 <1>   0.0800 
 37 H        4.2560     0.9140    -1.6420 H     1 <1>   0.0800 
 38 H        5.5020    -0.2730    -1.9050 H     1 <1>   0.0800 
@<TRIPOS>BOND
  1   1   2  1   
  2   1   3  1   
  3   2   4  1   
  4   2  18  1   
  5   2  19  1   
  6   3   5  1   
  7   3  20  1   
  8   3  21  1   
  9   4   6  ar  
 10   4   7  ar  
 11   5   8  2   
 12   5   9  am  
 13   6  10  ar  
 14   6  11  1   
 15   7  12  ar  
 16   7  22  1   
 17   9  13  1   
 18   9  23  1   
 19  10  14  ar  
 20  10  24  1   
 21  11  25  1   
 22  11  26  1   
 23  11  27  1   
 24  12  14  ar  
 25  12  28  1   
 26  13  15  1   
 27  13  29  1   
 28  13  30  1   
 29  14  31  1   
 30  15  16  1   
 31  15  17  1   
 32  15  32  1   
 33  16  33  1   
 34  16  34  1   
 35  16  35  1   
 36  17  36  1   
 37  17  37  1   
 38  17  38  1   
@<TRIPOS>SUBSTRUCTURE
  1 ****   2 GROUP 4 **** **** 0

# MOE 2024.06 (io_trps.svl 2023.06)
