@<TRIPOS>MOLECULE
NONAME
39 42 1 0 0 
SMALL
USER_CHARGES


@<TRIPOS>ATOM
  1 O       -0.0690     0.2120    -0.5280 O.2   1 <1>  -0.5700 
  2 C       -0.4410     1.3290    -0.2850 C.2   1 <1>   0.5690 
  3 N        0.2770     2.5140    -0.3740 N.am  1 <1>  -0.2370 
  4 C       -1.8200     1.6980     0.1590 C.3   1 <1>  -0.0190 
  5 C        1.6800     2.6290    -0.4480 C.ar  1 <1>   0.1170 
  6 C       -0.6320     3.5660    -0.3770 C.2   1 <1>   0.5690 
  7 C       -3.2600     1.1990     0.2140 C.3   1 <1>   0.4180 
  8 C       -1.9870     2.9820    -0.6450 C.3   1 <1>  -0.0190 
  9 C        2.5130     1.7340     0.2190 C.ar  1 <1>  -0.1500 
 10 C        2.2830     3.6400    -1.1920 C.ar  1 <1>  -0.1500 
 11 O       -0.4160     4.7410    -0.2350 O.2   1 <1>  -0.5700 
 12 O       -3.7860     2.4170     0.6580 O.3   1 <1>  -0.5600 
 13 C       -3.9800     1.1580    -1.1250 C.2   1 <1>  -0.2880 
 14 C       -3.5930     0.0800     1.2160 C.3   1 <1>   0.1200 
 15 C       -3.4850     3.2580    -0.4130 C.3   1 <1>   0.3380 
 16 C        3.8880     1.8560     0.1550 C.ar  1 <1>  -0.1500 
 17 C        3.6580     3.7580    -1.2550 C.ar  1 <1>  -0.1500 
 18 C       -4.1740     2.4270    -1.4790 C.2   1 <1>  -0.2880 
 19 O       -2.7370    -1.0110     1.0660 O.3   1 <1>  -0.6800 
 20 C        4.4980     2.8780    -0.5710 C.ar  1 <1>   0.0860 
 21 C        5.9410     2.9990    -0.6130 C.2   1 <1>   0.6340 
 22 O        6.6650     2.0510    -0.8150 O.2   1 <1>  -0.5700 
 23 O        6.5340     4.1770    -0.4000 O.3   1 <1>  -0.4300 
 24 C        5.9840     5.1820     0.4280 C.3   1 <1>   0.0400 
 25 H       -1.6350     1.9410     1.1960 H     1 <1>   0.0800 
 26 H       -1.9070     2.7760    -1.7010 H     1 <1>   0.0800 
 27 H        2.0850     0.9290     0.7920 H     1 <1>   0.1500 
 28 H        1.6720     4.3440    -1.7310 H     1 <1>   0.1500 
 29 H       -4.2440     0.2250    -1.5920 H     1 <1>   0.1500 
 30 H       -4.6040    -0.2600     1.0770 H     1 <1>   0.0800 
 31 H       -3.4740     0.4420     2.2220 H     1 <1>   0.0800 
 32 H       -3.8260     4.2670    -0.2540 H     1 <1>   0.0800 
 33 H        4.5110     1.1450     0.6730 H     1 <1>   0.1500 
 34 H        4.0940     4.5430    -1.8490 H     1 <1>   0.1500 
 35 H       -4.6530     2.8840    -2.3280 H     1 <1>   0.1500 
 36 H       -2.7550    -1.3670     0.1550 H     1 <1>   0.4000 
 37 H        6.7620     5.8880     0.6560 H     1 <1>   0.0800 
 38 H        5.6230     4.7330     1.3370 H     1 <1>   0.0800 
 39 H        5.1870     5.6800    -0.0940 H     1 <1>   0.0800 
@<TRIPOS>BOND
  1   1   2  2   
  2   2   3  am  
  3   2   4  1   
  4   3   5  1   
  5   3   6  am  
  6   4   7  1   
  7   4   8  1   
  8   4  25  1   
  9   5   9  ar  
 10   5  10  ar  
 11   6   8  1   
 12   6  11  2   
 13   7  12  1   
 14   7  13  1   
 15   7  14  1   
 16   8  15  1   
 17   8  26  1   
 18   9  16  ar  
 19   9  27  1   
 20  10  17  ar  
 21  10  28  1   
 22  12  15  1   
 23  13  18  2   
 24  13  29  1   
 25  14  19  1   
 26  14  30  1   
 27  14  31  1   
 28  15  18  1   
 29  15  32  1   
 30  16  20  ar  
 31  16  33  1   
 32  17  20  ar  
 33  17  34  1   
 34  18  35  1   
 35  19  36  1   
 36  20  21  1   
 37  21  22  2   
 38  21  23  1   
 39  23  24  1   
 40  24  37  1   
 41  24  38  1   
 42  24  39  1   
@<TRIPOS>SUBSTRUCTURE
  1 ****   3 GROUP 4 **** **** 0

# MOE 2024.06 (io_trps.svl 2023.06)
