@<TRIPOS>MOLECULE
NONAME
48 49 1 0 0 
SMALL
USER_CHARGES


@<TRIPOS>ATOM
  1 O        0.0170     0.3750    -2.6230 O.2   1 <1>  -0.5700 
  2 C       -0.0390     1.3110    -1.8650 C.2   1 <1>   0.5690 
  3 N        0.9640     1.6560    -1.0000 N.am  1 <1>  -0.5470 
  4 C       -1.3180     2.1590    -1.8370 C.3   1 <1>   0.1710 
  5 C        2.1760     1.0420    -0.6350 C.ar  1 <1>   0.1170 
  6 N       -2.3920     1.6340    -0.9400 N.3   1 <1>  -0.8100 
  7 C        2.8610     1.5680     0.4660 C.ar  1 <1>   0.0830 
  8 C        2.7170    -0.0470    -1.3050 C.ar  1 <1>  -0.1500 
  9 C       -1.9660     1.4390     0.4700 C.3   1 <1>   0.1100 
 10 C       -3.6450     2.4170    -1.0220 C.3   1 <1>   0.1100 
 11 O        2.2920     2.6430     1.1000 O.3   1 <1>  -0.3630 
 12 C        4.0630     1.0000     0.8750 C.ar  1 <1>  -0.1500 
 13 C        3.9120    -0.6150    -0.8990 C.ar  1 <1>   0.0830 
 14 C       -3.1040     0.8710     1.3540 C.3   1 <1>   0.3430 
 15 C       -4.7900     1.7600    -0.2090 C.3   1 <1>   0.3430 
 16 C        3.0050     3.3540     2.0910 C.3   1 <1>   0.0400 
 17 C        4.5880    -0.0870     0.1970 C.ar  1 <1>  -0.1500 
 18 O        4.3580    -1.6800    -1.6160 O.3   1 <1>  -0.3630 
 19 N       -4.3100     0.5390     0.5270 N.4   1 <1>  -0.9590 
 20 C        5.5570    -2.3410    -1.2780 C.3   1 <1>   0.0400 
 21 C       -5.3540    -0.1870     1.2880 C.3   1 <1>   0.3430 
 22 C       -6.3470    -0.8220     0.3220 C.3   1 <1>  -0.2400 
 23 H        0.8080     2.4950    -0.4410 H     1 <1>   0.3700 
 24 H       -1.6950     2.1920    -2.8450 H     1 <1>   0.0800 
 25 H       -1.0650     3.1640    -1.5510 H     1 <1>   0.0800 
 26 H        2.2200    -0.4720    -2.1560 H     1 <1>   0.1500 
 27 H       -1.6210     2.3700     0.8870 H     1 <1>   0.0800 
 28 H       -1.1430     0.7440     0.5020 H     1 <1>   0.0800 
 29 H       -3.9540     2.4930    -2.0510 H     1 <1>   0.0800 
 30 H       -3.4770     3.4170    -0.6580 H     1 <1>   0.0800 
 31 H        4.6070     1.3820     1.7170 H     1 <1>   0.1500 
 32 H       -3.3630     1.5960     2.1080 H     1 <1>   0.0800 
 33 H       -2.7440    -0.0120     1.8560 H     1 <1>   0.0800 
 34 H       -5.5800     1.4890    -0.8890 H     1 <1>   0.0800 
 35 H       -5.1890     2.4790     0.4870 H     1 <1>   0.0800 
 36 H        2.4110     4.1970     2.3930 H     1 <1>   0.0800 
 37 H        3.9370     3.6950     1.6740 H     1 <1>   0.0800 
 38 H        3.1740     2.7070     2.9340 H     1 <1>   0.0800 
 39 H        5.5160    -0.5060     0.5340 H     1 <1>   0.1500 
 40 H       -3.9300    -0.0670    -0.2200 H     1 <1>   0.4500 
 41 H        5.7000    -3.1460    -1.9750 H     1 <1>   0.0800 
 42 H        5.4700    -2.7330    -0.2800 H     1 <1>   0.0800 
 43 H        6.3730    -1.6440    -1.3520 H     1 <1>   0.0800 
 44 H       -5.8650     0.4860     1.9580 H     1 <1>   0.0800 
 45 H       -4.8950    -0.9660     1.8760 H     1 <1>   0.0800 
 46 H       -6.9060    -0.0770    -0.2150 H     1 <1>   0.0800 
 47 H       -7.0490    -1.4160     0.8800 H     1 <1>   0.0800 
 48 H       -5.8430    -1.4710    -0.3720 H     1 <1>   0.0800 
@<TRIPOS>BOND
  1   1   2  2   
  2   2   3  am  
  3   2   4  1   
  4   3   5  1   
  5   3  23  1   
  6   4   6  1   
  7   4  24  1   
  8   4  25  1   
  9   5   7  ar  
 10   5   8  ar  
 11   6   9  1   
 12   6  10  1   
 13   7  11  1   
 14   7  12  ar  
 15   8  13  ar  
 16   8  26  1   
 17   9  14  1   
 18   9  27  1   
 19   9  28  1   
 20  10  15  1   
 21  10  29  1   
 22  10  30  1   
 23  11  16  1   
 24  12  17  ar  
 25  12  31  1   
 26  13  17  ar  
 27  13  18  1   
 28  14  19  1   
 29  14  32  1   
 30  14  33  1   
 31  15  19  1   
 32  15  34  1   
 33  15  35  1   
 34  16  36  1   
 35  16  37  1   
 36  16  38  1   
 37  17  39  1   
 38  18  20  1   
 39  19  21  1   
 40  19  40  1   
 41  20  41  1   
 42  20  42  1   
 43  20  43  1   
 44  21  22  1   
 45  21  44  1   
 46  21  45  1   
 47  22  46  1   
 48  22  47  1   
 49  22  48  1   
@<TRIPOS>SUBSTRUCTURE
  1 ****   3 GROUP 4 **** **** 0

# MOE 2024.06 (io_trps.svl 2023.06)
