@<TRIPOS>MOLECULE
NONAME
45 46 1 0 0 
SMALL
USER_CHARGES


@<TRIPOS>ATOM
  1 O        0.4740     0.1110    -1.1140 O.2   1 <1>  -0.5700 
  2 C        1.6220     0.0990    -0.7210 C.2   1 <1>   0.7160 
  3 N        2.0960     1.2720    -0.2110 N.am  1 <1>  -0.5470 
  4 C        2.4300    -1.0950    -0.8200 C.2   1 <1>  -0.0860 
  5 C        3.2440     1.6060     0.5270 C.ar  1 <1>   0.1170 
  6 C        2.0810    -2.4030    -0.6630 C.2   1 <1>  -0.0400 
  7 C        3.8080    -1.1470    -1.1250 C.2   1 <1>  -0.1500 
  8 C        3.8000     2.8820     0.3860 C.ar  1 <1>   0.0830 
  9 C        3.8310     0.7100     1.4140 C.ar  1 <1>  -0.1500 
 10 O        3.1140    -3.1920    -0.8290 O.3   1 <1>  -0.2800 
 11 C        0.7470    -3.0410    -0.3360 C.3   1 <1>  -0.0600 
 12 C        4.1620    -2.4460    -1.1050 C.2   1 <1>  -0.0400 
 13 O        3.1740     3.7430    -0.4700 O.3   1 <1>  -0.3630 
 14 C        4.9400     3.2270     1.1060 C.ar  1 <1>  -0.1500 
 15 C        4.9640     1.0580     2.1260 C.ar  1 <1>  -0.1500 
 16 C        5.5070    -3.1040    -1.3550 C.3   1 <1>   0.0200 
 17 C        3.6710     5.0410    -0.7030 C.3   1 <1>   0.1200 
 18 C        5.5200     2.3140     1.9710 C.ar  1 <1>  -0.1500 
 19 C        6.2680    -3.4290    -0.0540 C.3   1 <1>  -0.0800 
 20 C        2.7530     5.7210    -1.7140 C.3   1 <1>  -0.2400 
 21 C        7.6860    -3.9190    -0.3780 C.3   1 <1>  -0.2400 
 22 C        5.5470    -4.4840     0.7980 C.3   1 <1>  -0.2400 
 23 H        1.5250     2.0730    -0.4830 H     1 <1>   0.3700 
 24 H        4.4250    -0.2900    -1.3270 H     1 <1>   0.1500 
 25 H        3.4030    -0.2660     1.5550 H     1 <1>   0.1500 
 26 H       -0.0130    -2.2940    -0.1980 H     1 <1>   0.0800 
 27 H        0.8340    -3.6200     0.5650 H     1 <1>   0.0800 
 28 H        0.4530    -3.6890    -1.1410 H     1 <1>   0.0800 
 29 H        5.3920     4.1950     1.0130 H     1 <1>   0.1500 
 30 H        5.4110     0.3500     2.8040 H     1 <1>   0.1500 
 31 H        6.1000    -2.4260    -1.9420 H     1 <1>   0.0800 
 32 H        5.3600    -3.9970    -1.9350 H     1 <1>   0.0800 
 33 H        4.6710     4.9590    -1.0930 H     1 <1>   0.0800 
 34 H        3.6740     5.5780     0.2300 H     1 <1>   0.0800 
 35 H        6.4030     2.5830     2.5260 H     1 <1>   0.1500 
 36 H        6.3480    -2.5230     0.5240 H     1 <1>   0.0800 
 37 H        2.7420     5.1660    -2.6350 H     1 <1>   0.0800 
 38 H        3.1070     6.7150    -1.9160 H     1 <1>   0.0800 
 39 H        1.7540     5.7850    -1.3210 H     1 <1>   0.0800 
 40 H        7.6510    -4.8260    -0.9560 H     1 <1>   0.0800 
 41 H        8.2300    -4.1120     0.5300 H     1 <1>   0.0800 
 42 H        8.2220    -3.1730    -0.9380 H     1 <1>   0.0800 
 43 H        5.3930    -5.3870     0.2340 H     1 <1>   0.0800 
 44 H        4.5890    -4.1160     1.1220 H     1 <1>   0.0800 
 45 H        6.1240    -4.7180     1.6740 H     1 <1>   0.0800 
@<TRIPOS>BOND
  1   1   2  2   
  2   2   3  am  
  3   2   4  1   
  4   3   5  1   
  5   3  23  1   
  6   4   6  2   
  7   4   7  1   
  8   5   8  ar  
  9   5   9  ar  
 10   6  10  1   
 11   6  11  1   
 12   7  12  2   
 13   7  24  1   
 14   8  13  1   
 15   8  14  ar  
 16   9  15  ar  
 17   9  25  1   
 18  10  12  1   
 19  11  26  1   
 20  11  27  1   
 21  11  28  1   
 22  12  16  1   
 23  13  17  1   
 24  14  18  ar  
 25  14  29  1   
 26  15  18  ar  
 27  15  30  1   
 28  16  19  1   
 29  16  31  1   
 30  16  32  1   
 31  17  20  1   
 32  17  33  1   
 33  17  34  1   
 34  18  35  1   
 35  19  21  1   
 36  19  22  1   
 37  19  36  1   
 38  20  37  1   
 39  20  38  1   
 40  20  39  1   
 41  21  40  1   
 42  21  41  1   
 43  21  42  1   
 44  22  43  1   
 45  22  44  1   
 46  22  45  1   
@<TRIPOS>SUBSTRUCTURE
  1 ****   7 GROUP 4 **** **** 0

# MOE 2024.06 (io_trps.svl 2023.06)
