@<TRIPOS>MOLECULE
NONAME
29 29 1 0 0 
SMALL
USER_CHARGES


@<TRIPOS>ATOM
  1 CL       0.3720     0.0450     1.5350 Cl    1 <1>  -0.1770 
  2 C        1.6600     0.9120     0.7330 C.ar  1 <1>   0.1770 
  3 C        1.4050     2.1330     0.1260 C.ar  1 <1>  -0.1440 
  4 C        2.9200     0.3490     0.7240 C.ar  1 <1>  -0.1500 
  5 C        2.4580     2.7860    -0.4950 C.ar  1 <1>  -0.1500 
  6 C        0.0130     2.7470     0.1390 C.3   1 <1>  -0.0960 
  7 C        3.9860     0.9900     0.0970 C.ar  1 <1>   0.0860 
  8 C        3.7230     2.2240    -0.5050 C.ar  1 <1>  -0.1500 
  9 C        5.3080     0.3880     0.0800 C.2   1 <1>   0.5440 
 10 O        5.6570    -0.3650     0.9670 O.2   1 <1>  -0.5700 
 11 N        6.1850     0.6480    -0.9370 N.am  1 <1>  -0.7300 
 12 C        7.5300     0.0300    -1.0780 C.3   1 <1>   0.1400 
 13 C        8.5070     0.6210    -0.0630 C.3   1 <1>   0.1200 
 14 O        9.7940     0.1940    -0.3870 O.3   1 <1>  -0.5600 
 15 C       10.7630     0.5960     0.5250 C.3   1 <1>   0.0400 
 16 H        3.0790    -0.5980     1.2090 H     1 <1>   0.1500 
 17 H        2.2960     3.7390    -0.9710 H     1 <1>   0.1500 
 18 H       -0.3060     2.9100     1.1540 H     1 <1>   0.0800 
 19 H       -0.6850     2.0850    -0.3400 H     1 <1>   0.0800 
 20 H        0.0000     3.6900    -0.3780 H     1 <1>   0.0800 
 21 H        4.5230     2.7610    -0.9830 H     1 <1>   0.1500 
 22 H        5.8640     1.1840    -1.7440 H     1 <1>   0.3700 
 23 H        7.8970     0.2070    -2.0740 H     1 <1>   0.0800 
 24 H        7.4520    -1.0320    -0.9170 H     1 <1>   0.0800 
 25 H        8.2620     0.2770     0.9280 H     1 <1>   0.0800 
 26 H        8.4870     1.6960    -0.1030 H     1 <1>   0.0800 
 27 H       11.7150     0.2260     0.1870 H     1 <1>   0.0800 
 28 H       10.5350     0.1810     1.4910 H     1 <1>   0.0800 
 29 H       10.7860     1.6720     0.5690 H     1 <1>   0.0800 
@<TRIPOS>BOND
  1   1   2  1   
  2   2   3  ar  
  3   2   4  ar  
  4   3   5  ar  
  5   3   6  1   
  6   4   7  ar  
  7   4  16  1   
  8   5   8  ar  
  9   5  17  1   
 10   6  18  1   
 11   6  19  1   
 12   6  20  1   
 13   7   8  ar  
 14   7   9  1   
 15   8  21  1   
 16   9  10  2   
 17   9  11  am  
 18  11  12  1   
 19  11  22  1   
 20  12  13  1   
 21  12  23  1   
 22  12  24  1   
 23  13  14  1   
 24  13  25  1   
 25  13  26  1   
 26  14  15  1   
 27  15  27  1   
 28  15  28  1   
 29  15  29  1   
@<TRIPOS>SUBSTRUCTURE
  1 ****   7 GROUP 4 **** **** 0

# MOE 2024.06 (io_trps.svl 2023.06)
