@<TRIPOS>MOLECULE
NONAME
47 49 1 0 0 
SMALL
USER_CHARGES


@<TRIPOS>ATOM
  1 O        0.4410    -0.5030     1.9700 O.2   1 <1>  -0.5700 
  2 C        1.2260    -1.0320     1.2030 C.2   1 <1>   0.5440 
  3 N        2.1620    -0.2550     0.5580 N.am  1 <1>  -0.6600 
  4 C        1.1810    -2.4590     0.9910 C.ar  1 <1>   0.0860 
  5 C        2.7730    -0.6320    -0.7360 C.3   1 <1>   0.1400 
  6 C        2.3830     1.1770     0.8510 C.3   1 <1>   0.1400 
  7 C        0.0410    -3.0960     0.4760 C.ar  1 <1>   0.1170 
  8 C        2.3020    -3.2320     1.3010 C.ar  1 <1>  -0.1500 
  9 C        3.5210     0.6140    -1.1980 C.3   1 <1>  -0.1600 
 10 C        2.8390     1.7720    -0.4750 C.3   1 <1>  -0.1600 
 11 N       -1.1150    -2.3600     0.1660 N.am  1 <1>  -0.5470 
 12 C        0.0710    -4.4780     0.2940 C.ar  1 <1>  -0.1500 
 13 C        2.3150    -4.5980     1.1090 C.ar  1 <1>  -0.1500 
 14 C       -2.1050    -2.6140    -0.7570 C.2   1 <1>   0.5440 
 15 C        1.1910    -5.2240     0.6020 C.ar  1 <1>  -0.1500 
 16 O       -1.8820    -3.4070    -1.6530 O.2   1 <1>  -0.5700 
 17 C       -3.4120    -1.9890    -0.6630 C.ar  1 <1>   0.0860 
 18 C       -3.6190    -0.6700    -0.2300 C.ar  1 <1>   0.0820 
 19 C       -4.5390    -2.7320    -1.0240 C.ar  1 <1>  -0.1500 
 20 O       -2.5380     0.0820     0.0890 O.3   1 <1>  -0.3620 
 21 C       -4.9120    -0.1520    -0.1490 C.ar  1 <1>  -0.1500 
 22 C       -5.8160    -2.2130    -0.9500 C.ar  1 <1>  -0.1500 
 23 C       -2.6140     1.4850     0.2130 C.3   1 <1>   0.1200 
 24 C       -6.0040    -0.9180    -0.5070 C.ar  1 <1>  -0.1500 
 25 C       -1.2040     2.0260     0.4080 C.3   1 <1>  -0.2400 
 26 H        1.9930    -0.8850    -1.4350 H     1 <1>   0.0800 
 27 H        3.4410    -1.4690    -0.6200 H     1 <1>   0.0800 
 28 H        3.1600     1.2640     1.5900 H     1 <1>   0.0800 
 29 H        1.4900     1.6520     1.2160 H     1 <1>   0.0800 
 30 H        3.1730    -2.7430     1.7020 H     1 <1>   0.1500 
 31 H        3.4910     0.7230    -2.2680 H     1 <1>   0.0800 
 32 H        4.5480     0.5420    -0.8830 H     1 <1>   0.0800 
 33 H        3.4940     2.6130    -0.3320 H     1 <1>   0.0800 
 34 H        1.9730     2.0900    -1.0300 H     1 <1>   0.0800 
 35 H       -1.2240    -1.4670     0.6680 H     1 <1>   0.3700 
 36 H       -0.7960    -4.9800    -0.0930 H     1 <1>   0.1500 
 37 H        3.1900    -5.1760     1.3540 H     1 <1>   0.1500 
 38 H        1.1880    -6.2890     0.4480 H     1 <1>   0.1500 
 39 H       -4.4030    -3.7420    -1.3730 H     1 <1>   0.1500 
 40 H       -5.0930     0.8490     0.1930 H     1 <1>   0.1500 
 41 H       -6.6630    -2.8140    -1.2350 H     1 <1>   0.1500 
 42 H       -3.2270     1.7220     1.0660 H     1 <1>   0.0800 
 43 H       -3.0500     1.8820    -0.6870 H     1 <1>   0.0800 
 44 H       -6.9990    -0.5100    -0.4430 H     1 <1>   0.1500 
 45 H       -0.8160     1.6870     1.3510 H     1 <1>   0.0800 
 46 H       -1.2210     3.1000     0.4130 H     1 <1>   0.0800 
 47 H       -0.5640     1.6900    -0.3880 H     1 <1>   0.0800 
@<TRIPOS>BOND
  1   1   2  2   
  2   2   3  am  
  3   2   4  1   
  4   3   5  1   
  5   3   6  1   
  6   4   7  ar  
  7   4   8  ar  
  8   5   9  1   
  9   5  26  1   
 10   5  27  1   
 11   6  10  1   
 12   6  28  1   
 13   6  29  1   
 14   7  11  1   
 15   7  12  ar  
 16   8  13  ar  
 17   8  30  1   
 18   9  10  1   
 19   9  31  1   
 20   9  32  1   
 21  10  33  1   
 22  10  34  1   
 23  11  14  am  
 24  11  35  1   
 25  12  15  ar  
 26  12  36  1   
 27  13  15  ar  
 28  13  37  1   
 29  14  16  2   
 30  14  17  1   
 31  15  38  1   
 32  17  18  ar  
 33  17  19  ar  
 34  18  20  1   
 35  18  21  ar  
 36  19  22  ar  
 37  19  39  1   
 38  20  23  1   
 39  21  24  ar  
 40  21  40  1   
 41  22  24  ar  
 42  22  41  1   
 43  23  25  1   
 44  23  42  1   
 45  23  43  1   
 46  24  44  1   
 47  25  45  1   
 48  25  46  1   
 49  25  47  1   
@<TRIPOS>SUBSTRUCTURE
  1 ****  11 GROUP 4 **** **** 0

# MOE 2024.06 (io_trps.svl 2023.06)
