@<TRIPOS>MOLECULE
NONAME
41 43 1 0 0 
SMALL
USER_CHARGES


@<TRIPOS>ATOM
  1 BR      -3.0030    -4.4910     2.4960 Br    1 <1>  -0.1110 
  2 C       -1.8090    -4.3370     0.9880 C.ar  1 <1>   0.1110 
  3 C       -2.0730    -3.3960    -0.0030 C.ar  1 <1>   0.0820 
  4 C       -0.7220    -5.1870     0.9340 C.ar  1 <1>  -0.1500 
  5 O       -3.1660    -2.6030     0.1310 O.3   1 <1>  -0.3630 
  6 C       -1.2010    -3.3100    -1.0870 C.ar  1 <1>  -0.1500 
  7 C        0.1230    -5.0820    -0.1540 C.ar  1 <1>   0.1770 
  8 C       -3.8070    -2.0600    -1.0140 C.3   1 <1>   0.1810 
  9 C       -0.1040    -4.1570    -1.1600 C.ar  1 <1>  -0.1500 
 10 CL       1.5080    -6.1390    -0.2630 Cl    1 <1>  -0.1770 
 11 C       -5.1470    -1.4180    -0.6610 C.2   1 <1>   0.5690 
 12 O       -5.3050    -0.2690    -1.0060 O.2   1 <1>  -0.5700 
 13 N       -6.1430    -2.1130    -0.0140 N.am  1 <1>  -0.6600 
 14 C       -6.0580    -3.5420     0.4370 C.3   1 <1>   0.1400 
 15 C       -7.4360    -1.4570     0.3620 C.3   1 <1>   0.1400 
 16 C       -7.2870    -4.3540    -0.0070 C.3   1 <1>   0.2090 
 17 C       -8.6470    -2.2850    -0.1000 C.3   1 <1>   0.2090 
 18 N       -8.5630    -3.6890     0.3960 N.pl3 1 <1>  -0.8380 
 19 C       -9.7240    -4.4320     0.3190 C.ar  1 <1>   0.4100 
 20 N       -9.8170    -5.3180    -0.6660 N.ar  1 <1>  -0.6200 
 21 C      -10.7350    -4.2170     1.2520 C.ar  1 <1>  -0.1500 
 22 C      -10.9470    -6.0020    -0.7200 C.ar  1 <1>   0.1600 
 23 C      -11.9050    -4.9360     1.1840 C.ar  1 <1>  -0.1500 
 24 C      -12.0050    -5.8560     0.1600 C.ar  1 <1>  -0.1500 
 25 H       -0.5380    -5.9070     1.7100 H     1 <1>   0.1500 
 26 H       -1.3550    -2.5910    -1.8700 H     1 <1>   0.1500 
 27 H       -3.9660    -2.8480    -1.7260 H     1 <1>   0.0800 
 28 H       -3.1620    -1.3120    -1.4360 H     1 <1>   0.0800 
 29 H        0.5780    -4.1010    -1.9900 H     1 <1>   0.1500 
 30 H       -5.9960    -3.5650     1.5110 H     1 <1>   0.0800 
 31 H       -5.1810    -4.0210     0.0470 H     1 <1>   0.0800 
 32 H       -7.5020    -0.4730    -0.0690 H     1 <1>   0.0800 
 33 H       -7.4740    -1.3490     1.4320 H     1 <1>   0.0800 
 34 H       -7.2460    -5.3360     0.4330 H     1 <1>   0.0800 
 35 H       -7.2710    -4.4710    -1.0770 H     1 <1>   0.0800 
 36 H       -8.6840    -2.2910    -1.1760 H     1 <1>   0.0800 
 37 H       -9.5510    -1.8260     0.2610 H     1 <1>   0.0800 
 38 H      -10.5770    -3.4880     2.0220 H     1 <1>   0.1500 
 39 H      -11.0360    -6.7230    -1.5140 H     1 <1>   0.1500 
 40 H      -12.7020    -4.7910     1.8920 H     1 <1>   0.1500 
 41 H      -12.8910    -6.4530     0.0460 H     1 <1>   0.1500 
@<TRIPOS>BOND
  1   1   2  1   
  2   2   3  ar  
  3   2   4  ar  
  4   3   5  1   
  5   3   6  ar  
  6   4   7  ar  
  7   4  25  1   
  8   5   8  1   
  9   6   9  ar  
 10   6  26  1   
 11   7   9  ar  
 12   7  10  1   
 13   8  11  1   
 14   8  27  1   
 15   8  28  1   
 16   9  29  1   
 17  11  12  2   
 18  11  13  am  
 19  13  14  1   
 20  13  15  1   
 21  14  16  1   
 22  14  30  1   
 23  14  31  1   
 24  15  17  1   
 25  15  32  1   
 26  15  33  1   
 27  16  18  1   
 28  16  34  1   
 29  16  35  1   
 30  17  18  1   
 31  17  36  1   
 32  17  37  1   
 33  18  19  1   
 34  19  20  ar  
 35  19  21  ar  
 36  20  22  ar  
 37  21  23  ar  
 38  21  38  1   
 39  22  24  ar  
 40  22  39  1   
 41  23  24  ar  
 42  23  40  1   
 43  24  41  1   
@<TRIPOS>SUBSTRUCTURE
  1 ****  14 GROUP 4 **** **** 0

# MOE 2024.06 (io_trps.svl 2023.06)
