@<TRIPOS>MOLECULE
NONAME
38 39 1 0 0 
SMALL
USER_CHARGES


@<TRIPOS>ATOM
  1 CL       0.6470     0.0690     1.6180 Cl    1 <1>  -0.1770 
  2 C        1.9330    -0.8990     0.9630 C.ar  1 <1>   0.7970 
  3 N        1.6130    -2.1150     0.6450 N.ar  1 <1>  -0.6200 
  4 N        3.0840    -0.3070     0.8600 N.ar  1 <1>  -0.6200 
  5 C        2.6190    -2.8010     0.1560 C.ar  1 <1>   0.7200 
  6 C        3.9970    -1.0910     0.3620 C.ar  1 <1>   0.7200 
  7 N        3.8290    -2.3290    -0.0080 N.ar  1 <1>  -0.6200 
  8 N        2.3810    -4.1090    -0.2090 N.pl3 1 <1>  -0.8380 
  9 N        5.2090    -0.5050     0.2410 N.pl3 1 <1>  -0.8690 
 10 C        3.3850    -4.9500    -0.9240 C.3   1 <1>   0.2090 
 11 C        1.1290    -4.8430     0.1370 C.3   1 <1>   0.2090 
 12 C        6.5210    -1.0530    -0.0980 C.3   1 <1>   0.3690 
 13 C        3.7580    -6.1490    -0.0470 C.3   1 <1>  -0.1600 
 14 C        1.4740    -6.0480     1.0190 C.3   1 <1>  -0.1600 
 15 C        6.8930    -2.1730     0.8730 C.3   1 <1>  -0.2400 
 16 C        6.5240    -1.5330    -1.5490 C.3   1 <1>  -0.2400 
 17 C        7.5090     0.1000     0.0560 C.3   1 <1>  -0.2400 
 18 C        2.5190    -6.9610     0.3600 C.3   1 <1>  -0.1600 
 19 H        5.2300     0.4520     0.5820 H     1 <1>   0.4000 
 20 H        4.2730    -4.3940    -1.1690 H     1 <1>   0.0800 
 21 H        2.9540    -5.2950    -1.8470 H     1 <1>   0.0800 
 22 H        0.6590    -5.1780    -0.7720 H     1 <1>   0.0800 
 23 H        0.4270    -4.2160     0.6580 H     1 <1>   0.0800 
 24 H        4.2610    -5.7850     0.8320 H     1 <1>   0.0800 
 25 H        4.4450    -6.7790    -0.5820 H     1 <1>   0.0800 
 26 H        0.5790    -6.6090     1.2190 H     1 <1>   0.0800 
 27 H        1.8510    -5.6850     1.9590 H     1 <1>   0.0800 
 28 H        6.2450    -3.0210     0.7460 H     1 <1>   0.0800 
 29 H        6.8210    -1.8280     1.8880 H     1 <1>   0.0800 
 30 H        7.9000    -2.5000     0.6920 H     1 <1>   0.0800 
 31 H        6.2080    -0.7430    -2.2040 H     1 <1>   0.0800 
 32 H        5.8660    -2.3730    -1.6740 H     1 <1>   0.0800 
 33 H        7.5130    -1.8420    -1.8340 H     1 <1>   0.0800 
 34 H        7.2540     0.9070    -0.6070 H     1 <1>   0.0800 
 35 H        8.5030    -0.2300    -0.1850 H     1 <1>   0.0800 
 36 H        7.5130     0.4610     1.0690 H     1 <1>   0.0800 
 37 H        2.8030    -7.7420     1.0420 H     1 <1>   0.0800 
 38 H        2.0910    -7.4200    -0.5150 H     1 <1>   0.0800 
@<TRIPOS>BOND
  1   1   2  1   
  2   2   3  ar  
  3   2   4  ar  
  4   3   5  ar  
  5   4   6  ar  
  6   5   7  ar  
  7   5   8  1   
  8   6   7  ar  
  9   6   9  1   
 10   8  10  1   
 11   8  11  1   
 12   9  12  1   
 13   9  19  1   
 14  10  13  1   
 15  10  20  1   
 16  10  21  1   
 17  11  14  1   
 18  11  22  1   
 19  11  23  1   
 20  12  15  1   
 21  12  16  1   
 22  12  17  1   
 23  13  18  1   
 24  13  24  1   
 25  13  25  1   
 26  14  18  1   
 27  14  26  1   
 28  14  27  1   
 29  15  28  1   
 30  15  29  1   
 31  15  30  1   
 32  16  31  1   
 33  16  32  1   
 34  16  33  1   
 35  17  34  1   
 36  17  35  1   
 37  17  36  1   
 38  18  37  1   
 39  18  38  1   
@<TRIPOS>SUBSTRUCTURE
  1 ****   7 GROUP 4 **** **** 0

# MOE 2024.06 (io_trps.svl 2023.06)
