@<TRIPOS>MOLECULE
NONAME
48 52 1 0 0 
SMALL
USER_CHARGES


@<TRIPOS>ATOM
  1 O       -0.5320    -1.7750     3.1580 O.2   1 <1>  -0.5700 
  2 C       -0.5920    -2.1000     2.0050 C.2   1 <1>   0.6590 
  3 O       -1.7080    -2.3890     1.3680 O.3   1 <1>  -0.4300 
  4 C        0.5840    -2.2260     1.0710 C.3   1 <1>  -0.0190 
  5 C       -1.4640    -2.6910     0.0160 C.3   1 <1>   0.2000 
  6 C        1.0510    -3.7060     1.0160 C.3   1 <1>  -0.0190 
  7 C       -0.1070    -2.0340    -0.2880 C.3   1 <1>  -0.0800 
  8 C       -1.1430    -4.1950    -0.1160 C.3   1 <1>  -0.1600 
  9 C        2.5640    -3.9250     1.0320 C.2   1 <1>   0.5690 
 10 C        0.3920    -4.2110    -0.2900 C.3   1 <1>  -0.0800 
 11 C        0.5750    -3.0230    -1.2190 C.3   1 <1>  -0.1600 
 12 O        2.9620    -4.9780     1.4640 O.2   1 <1>  -0.5700 
 13 N        3.4030    -2.9570     0.5460 N.am  1 <1>  -0.5470 
 14 C        4.8060    -2.9140     0.4770 C.ar  1 <1>   0.1170 
 15 C        5.6260    -3.6110     1.3600 C.ar  1 <1>  -0.1500 
 16 C        5.4030    -2.1250    -0.5000 C.ar  1 <1>  -0.1500 
 17 C        7.0040    -3.5300     1.2650 C.ar  1 <1>  -0.1500 
 18 C        6.7800    -2.0400    -0.6010 C.ar  1 <1>  -0.1500 
 19 C        7.5860    -2.7470     0.2760 C.ar  1 <1>   0.0820 
 20 O        8.9340    -2.6320     0.1490 O.3   1 <1>  -0.1650 
 21 C        9.7650    -3.6950     0.2980 C.ar  1 <1>   0.0820 
 22 C       11.0220    -3.4690     0.8340 C.ar  1 <1>  -0.1500 
 23 C        9.4020    -4.9820    -0.0840 C.ar  1 <1>  -0.1500 
 24 C       11.9080    -4.5190     1.0010 C.ar  1 <1>  -0.1500 
 25 C       10.2900    -6.0300     0.0860 C.ar  1 <1>  -0.1500 
 26 C       11.5450    -5.8050     0.6310 C.ar  1 <1>  -0.1440 
 27 C       12.5170    -6.9570     0.8130 C.3   1 <1>  -0.0970 
 28 H        1.3470    -1.5040     1.2970 H     1 <1>   0.0800 
 29 H       -2.2840    -2.3610    -0.6000 H     1 <1>   0.0800 
 30 H        0.6550    -4.2560     1.8540 H     1 <1>   0.0800 
 31 H       -0.1810    -1.0170    -0.6360 H     1 <1>   0.0800 
 32 H       -1.6110    -4.5880    -1.0020 H     1 <1>   0.0800 
 33 H       -1.4740    -4.7660     0.7350 H     1 <1>   0.0800 
 34 H        0.7850    -5.1480    -0.6520 H     1 <1>   0.0800 
 35 H        1.6040    -2.7840    -1.4190 H     1 <1>   0.0800 
 36 H        0.0460    -3.1420    -2.1510 H     1 <1>   0.0800 
 37 H        2.9410    -2.1600     0.1170 H     1 <1>   0.3700 
 38 H        5.1910    -4.2200     2.1320 H     1 <1>   0.1500 
 39 H        4.7920    -1.5750    -1.1910 H     1 <1>   0.1500 
 40 H        7.6240    -4.0690     1.9590 H     1 <1>   0.1500 
 41 H        7.2380    -1.4290    -1.3590 H     1 <1>   0.1500 
 42 H       11.3020    -2.4710     1.1190 H     1 <1>   0.1500 
 43 H        8.4350    -5.1670    -0.5170 H     1 <1>   0.1500 
 44 H       12.8810    -4.3310     1.4190 H     1 <1>   0.1500 
 45 H       10.0000    -7.0230    -0.2110 H     1 <1>   0.1500 
 46 H       13.1660    -6.7720     1.6500 H     1 <1>   0.0800 
 47 H       13.1160    -7.0700    -0.0720 H     1 <1>   0.0800 
 48 H       11.9840    -7.8730     0.9930 H     1 <1>   0.0800 
@<TRIPOS>BOND
  1   1   2  2   
  2   2   3  1   
  3   2   4  1   
  4   3   5  1   
  5   4   6  1   
  6   4   7  1   
  7   4  28  1   
  8   5   7  1   
  9   5   8  1   
 10   5  29  1   
 11   6   9  1   
 12   6  10  1   
 13   6  30  1   
 14   7  11  1   
 15   7  31  1   
 16   8  10  1   
 17   8  32  1   
 18   8  33  1   
 19   9  12  2   
 20   9  13  am  
 21  10  11  1   
 22  10  34  1   
 23  11  35  1   
 24  11  36  1   
 25  13  14  1   
 26  13  37  1   
 27  14  15  ar  
 28  14  16  ar  
 29  15  17  ar  
 30  15  38  1   
 31  16  18  ar  
 32  16  39  1   
 33  17  19  ar  
 34  17  40  1   
 35  18  19  ar  
 36  18  41  1   
 37  19  20  1   
 38  20  21  1   
 39  21  22  ar  
 40  21  23  ar  
 41  22  24  ar  
 42  22  42  1   
 43  23  25  ar  
 44  23  43  1   
 45  24  26  ar  
 46  24  44  1   
 47  25  26  ar  
 48  25  45  1   
 49  26  27  1   
 50  27  46  1   
 51  27  47  1   
 52  27  48  1   
@<TRIPOS>SUBSTRUCTURE
  1 ****  14 GROUP 4 **** **** 0

# MOE 2024.06 (io_trps.svl 2023.06)
