@<TRIPOS>MOLECULE
NONAME
33 33 1 0 0 
SMALL
USER_CHARGES


@<TRIPOS>ATOM
  1 P        0.1020     0.2940     0.2760 P.3   1 <1>   0.9000 
  2 O       -1.3080     0.1080    -0.1860 O.co2 1 <1>  -0.9500 
  3 O        0.3600     0.5200     1.7350 O.co2 1 <1>  -0.9500 
  4 C        1.0410    -1.1750    -0.2560 C.3   1 <1>   0.1400 
  5 C        0.8750     1.6040    -0.7010 C.3   1 <1>  -0.1600 
  6 N        2.5610    -1.2560    -0.1180 N.am  1 <1>  -0.6600 
  7 C        0.4360     3.0540    -0.3980 C.3   1 <1>  -0.2660 
  8 C        3.2730    -1.9680    -1.0540 C.2   1 <1>   0.5690 
  9 C        3.0750    -0.5890     1.1310 C.3   1 <1>   0.1400 
 10 C        1.1950     4.0890    -1.2040 C.2   1 <1>   0.9060 
 11 O        2.7560    -2.4300    -2.0450 O.2   1 <1>  -0.5700 
 12 C        4.7470    -2.2850    -0.8790 C.3   1 <1>  -0.0990 
 13 C        4.5930    -0.3940     1.2690 C.3   1 <1>  -0.1600 
 14 O        0.5700     4.8360    -1.9650 O.co2 1 <1>  -0.9000 
 15 O        2.4230     4.1730    -1.0750 O.co2 1 <1>  -0.9000 
 16 C        5.6740    -1.0590    -0.9490 C.3   1 <1>  -0.1600 
 17 C        5.2560     0.0930    -0.0270 C.3   1 <1>  -0.1600 
 18 H        0.7990    -1.3470    -1.2870 H     1 <1>   0.0800 
 19 H        0.6500    -2.0240     0.2700 H     1 <1>   0.0800 
 20 H        0.7000     1.4310    -1.7450 H     1 <1>   0.0800 
 21 H        1.9390     1.5790    -0.5720 H     1 <1>   0.0800 
 22 H        0.5990     3.2610     0.6410 H     1 <1>   0.0800 
 23 H       -0.6130     3.1570    -0.6000 H     1 <1>   0.0800 
 24 H        2.6910    -1.1110     1.9900 H     1 <1>   0.0800 
 25 H        2.6680     0.4040     1.1700 H     1 <1>   0.0800 
 26 H        5.0390    -2.9710    -1.6530 H     1 <1>   0.0800 
 27 H        4.8700    -2.8080     0.0500 H     1 <1>   0.0800 
 28 H        5.0610    -1.2820     1.6500 H     1 <1>   0.0800 
 29 H        4.7330     0.3630     2.0210 H     1 <1>   0.0800 
 30 H        5.7020    -0.6940    -1.9620 H     1 <1>   0.0800 
 31 H        6.6690    -1.3750    -0.6890 H     1 <1>   0.0800 
 32 H        6.1280     0.6770     0.2120 H     1 <1>   0.0800 
 33 H        4.5730     0.7470    -0.5460 H     1 <1>   0.0800 
@<TRIPOS>BOND
  1   1   2  ar  
  2   1   3  ar  
  3   1   4  1   
  4   1   5  1   
  5   4   6  1   
  6   4  18  1   
  7   4  19  1   
  8   5   7  1   
  9   5  20  1   
 10   5  21  1   
 11   6   8  am  
 12   6   9  1   
 13   7  10  1   
 14   7  22  1   
 15   7  23  1   
 16   8  11  2   
 17   8  12  1   
 18   9  13  1   
 19   9  24  1   
 20   9  25  1   
 21  10  14  ar  
 22  10  15  ar  
 23  12  16  1   
 24  12  26  1   
 25  12  27  1   
 26  13  17  1   
 27  13  28  1   
 28  13  29  1   
 29  16  17  1   
 30  16  30  1   
 31  16  31  1   
 32  17  32  1   
 33  17  33  1   
@<TRIPOS>SUBSTRUCTURE
  1 ****   6 GROUP 4 **** **** 0

# MOE 2024.06 (io_trps.svl 2023.06)
