@<TRIPOS>MOLECULE
NONAME
46 48 1 0 0 
SMALL
USER_CHARGES


@<TRIPOS>ATOM
  1 O        0.2970     0.6850     1.9130 O.2   1 <1>  -0.5700 
  2 C       -0.3100     1.3950     1.1320 C.2   1 <1>   0.5440 
  3 N       -1.5860     1.0630     0.7620 N.am  1 <1>  -0.5470 
  4 C        0.3040     2.6030     0.6090 C.ar  1 <1>   0.0860 
  5 C       -2.4950     0.0360     1.0610 C.ar  1 <1>   0.1170 
  6 C       -0.0200     3.1720    -0.6370 C.ar  1 <1>   0.0830 
  7 C        1.2620     3.2680     1.3770 C.ar  1 <1>  -0.1500 
  8 C       -3.7070     0.0540     0.3530 C.ar  1 <1>   0.1000 
  9 C       -2.2580    -0.9650     1.9920 C.ar  1 <1>  -0.1500 
 10 O       -0.9010     2.5750    -1.4700 O.3   1 <1>  -0.3630 
 11 C        0.5480     4.3730    -1.0560 C.ar  1 <1>  -0.1440 
 12 C        1.8460     4.4470     0.9570 C.ar  1 <1>  -0.1500 
 13 N       -3.9530     1.0760    -0.5840 N.pl3 1 <1>  -0.8380 
 14 C       -4.6490    -0.9360     0.6040 C.ar  1 <1>  -0.1500 
 15 C       -3.2060    -1.9470     2.2270 C.ar  1 <1>  -0.1500 
 16 C       -0.4280     1.4720    -2.2160 C.3   1 <1>   0.0400 
 17 C        1.4840     5.0030    -0.2560 C.ar  1 <1>  -0.1500 
 18 C        0.1580     5.0020    -2.3880 C.3   1 <1>  -0.0970 
 19 C       -4.4890     0.7140    -1.9280 C.3   1 <1>   0.2090 
 20 C       -4.5880     2.3170    -0.0520 C.3   1 <1>   0.2090 
 21 C       -4.4020    -1.9320     1.5320 C.ar  1 <1>  -0.1500 
 22 C       -4.4110     1.9250    -2.8760 C.3   1 <1>   0.1200 
 23 C       -4.5060     3.4480    -1.0940 C.3   1 <1>   0.1200 
 24 O       -5.0530     3.0410    -2.3200 O.3   1 <1>  -0.5600 
 25 H       -1.9680     1.6430     0.0030 H     1 <1>   0.3700 
 26 H        1.5480     2.8500     2.3270 H     1 <1>   0.1500 
 27 H       -1.3340    -0.9840     2.5380 H     1 <1>   0.1500 
 28 H        2.5800     4.9360     1.5750 H     1 <1>   0.1500 
 29 H       -5.5830    -0.9250     0.0760 H     1 <1>   0.1500 
 30 H       -3.0080    -2.7180     2.9510 H     1 <1>   0.1500 
 31 H       -0.0780     0.7080    -1.5450 H     1 <1>   0.0800 
 32 H        0.3730     1.8030    -2.8540 H     1 <1>   0.0800 
 33 H       -1.2400     1.0920    -2.8080 H     1 <1>   0.0800 
 34 H        1.9390     5.9270    -0.5690 H     1 <1>   0.1500 
 35 H       -0.9130     5.0750    -2.4600 H     1 <1>   0.0800 
 36 H        0.5180     4.3950    -3.1980 H     1 <1>   0.0800 
 37 H        0.5710     5.9890    -2.4870 H     1 <1>   0.0800 
 38 H       -5.5140     0.4020    -1.8420 H     1 <1>   0.0800 
 39 H       -3.9160    -0.1020    -2.3320 H     1 <1>   0.0800 
 40 H       -4.0870     2.6200     0.8510 H     1 <1>   0.0800 
 41 H       -5.6190     2.1220     0.1850 H     1 <1>   0.0800 
 42 H       -5.1400    -2.6940     1.7160 H     1 <1>   0.1500 
 43 H       -4.8950     1.6990    -3.8090 H     1 <1>   0.0800 
 44 H       -3.3850     2.1840    -3.0700 H     1 <1>   0.0800 
 45 H       -3.4810     3.7360    -1.2520 H     1 <1>   0.0800 
 46 H       -5.0590     4.3050    -0.7550 H     1 <1>   0.0800 
@<TRIPOS>BOND
  1   1   2  2   
  2   2   3  am  
  3   2   4  1   
  4   3   5  1   
  5   3  25  1   
  6   4   6  ar  
  7   4   7  ar  
  8   5   8  ar  
  9   5   9  ar  
 10   6  10  1   
 11   6  11  ar  
 12   7  12  ar  
 13   7  26  1   
 14   8  13  1   
 15   8  14  ar  
 16   9  15  ar  
 17   9  27  1   
 18  10  16  1   
 19  11  17  ar  
 20  11  18  1   
 21  12  17  ar  
 22  12  28  1   
 23  13  19  1   
 24  13  20  1   
 25  14  21  ar  
 26  14  29  1   
 27  15  21  ar  
 28  15  30  1   
 29  16  31  1   
 30  16  32  1   
 31  16  33  1   
 32  17  34  1   
 33  18  35  1   
 34  18  36  1   
 35  18  37  1   
 36  19  22  1   
 37  19  38  1   
 38  19  39  1   
 39  20  23  1   
 40  20  40  1   
 41  20  41  1   
 42  21  42  1   
 43  22  24  1   
 44  22  43  1   
 45  22  44  1   
 46  23  24  1   
 47  23  45  1   
 48  23  46  1   
@<TRIPOS>SUBSTRUCTURE
  1 ****   3 GROUP 4 **** **** 0

# MOE 2024.06 (io_trps.svl 2023.06)
