@<TRIPOS>MOLECULE
NONAME
47 49 1 0 0 
SMALL
USER_CHARGES


@<TRIPOS>ATOM
  1 S        0.9840     0.9220    -1.0460 S.o2  1 <1>   1.2040 
  2 O        1.5210     2.0740    -1.7360 O.2   1 <1>  -0.6500 
  3 O        0.3400    -0.1240    -1.8100 O.2   1 <1>  -0.6500 
  4 C        2.2620     0.2010     0.0110 C.ar  1 <1>  -0.0090 
  5 C       -0.1880     1.4960     0.1610 C.3   1 <1>  -0.0550 
  6 C        2.1610    -1.1090     0.4640 C.ar  1 <1>  -0.1500 
  7 C        3.3590     0.9470     0.4230 C.ar  1 <1>  -0.1500 
  8 C       -1.4550     2.0060    -0.5250 C.3   1 <1>   0.3340 
  9 C        3.1180    -1.6540     1.3020 C.ar  1 <1>  -0.1500 
 10 C        4.3200     0.4070     1.2610 C.ar  1 <1>  -0.1500 
 11 N       -1.6290     3.4680    -0.3300 N.3   1 <1>  -0.8100 
 12 C       -2.6340     1.2170     0.0480 C.ar  1 <1>  -0.1430 
 13 C        4.2030    -0.8970     1.7080 C.ar  1 <1>  -0.1430 
 14 C       -2.9290     3.9300    -0.8820 C.3   1 <1>   0.1100 
 15 C       -0.5530     4.2520    -0.9870 C.3   1 <1>   0.1100 
 16 C       -3.2150     0.2060    -0.7030 C.ar  1 <1>  -0.1500 
 17 C       -3.1250     1.4800     1.3200 C.ar  1 <1>  -0.1500 
 18 C        5.2570    -1.4930     2.6240 C.3   1 <1>  -0.0970 
 19 C       -3.0960     5.4530    -0.7470 C.3   1 <1>   0.1200 
 20 C       -0.7880     5.7680    -0.8580 C.3   1 <1>   0.1200 
 21 C       -4.2740    -0.5260    -0.1940 C.ar  1 <1>  -0.1500 
 22 C       -4.1830     0.7480     1.8310 C.ar  1 <1>  -0.1500 
 23 O       -2.0390     6.1180    -1.3730 O.3   1 <1>  -0.5600 
 24 C       -4.7590    -0.2550     1.0730 C.ar  1 <1>  -0.1500 
 25 H        0.2360     2.2590     0.7820 H     1 <1>   0.0800 
 26 H       -0.4430     0.6700     0.7970 H     1 <1>   0.0800 
 27 H        1.3250    -1.7150     0.1560 H     1 <1>   0.1500 
 28 H        3.4700     1.9630     0.0820 H     1 <1>   0.1500 
 29 H       -1.4050     1.8110    -1.5850 H     1 <1>   0.0800 
 30 H        3.0150    -2.6730     1.6350 H     1 <1>   0.1500 
 31 H        5.1620     1.0070     1.5610 H     1 <1>   0.1500 
 32 H       -3.7450     3.4620    -0.3590 H     1 <1>   0.0800 
 33 H       -3.0060     3.6620    -1.9220 H     1 <1>   0.0800 
 34 H       -0.4910     3.9990    -2.0330 H     1 <1>   0.0800 
 35 H        0.3970     4.0300    -0.5360 H     1 <1>   0.0800 
 36 H       -2.8430    -0.0210    -1.6890 H     1 <1>   0.1500 
 37 H       -2.6830     2.2640     1.9120 H     1 <1>   0.1500 
 38 H        4.8210    -2.2370     3.2670 H     1 <1>   0.0800 
 39 H        5.6970    -0.7300     3.2390 H     1 <1>   0.0800 
 40 H        6.0310    -1.9540     2.0360 H     1 <1>   0.0800 
 41 H       -3.1200     5.7390     0.2900 H     1 <1>   0.0800 
 42 H       -4.0080     5.7710    -1.2180 H     1 <1>   0.0800 
 43 H       -0.0420     6.3080    -1.4120 H     1 <1>   0.0800 
 44 H       -0.7430     6.0690     0.1740 H     1 <1>   0.0800 
 45 H       -4.7190    -1.3090    -0.7850 H     1 <1>   0.1500 
 46 H       -4.5580     0.9610     2.8170 H     1 <1>   0.1500 
 47 H       -5.5820    -0.8250     1.4680 H     1 <1>   0.1500 
@<TRIPOS>BOND
  1   1   2  2   
  2   1   3  2   
  3   1   4  1   
  4   1   5  1   
  5   4   6  ar  
  6   4   7  ar  
  7   5   8  1   
  8   5  25  1   
  9   5  26  1   
 10   6   9  ar  
 11   6  27  1   
 12   7  10  ar  
 13   7  28  1   
 14   8  11  1   
 15   8  12  1   
 16   8  29  1   
 17   9  13  ar  
 18   9  30  1   
 19  10  13  ar  
 20  10  31  1   
 21  11  14  1   
 22  11  15  1   
 23  12  16  ar  
 24  12  17  ar  
 25  13  18  1   
 26  14  19  1   
 27  14  32  1   
 28  14  33  1   
 29  15  20  1   
 30  15  34  1   
 31  15  35  1   
 32  16  21  ar  
 33  16  36  1   
 34  17  22  ar  
 35  17  37  1   
 36  18  38  1   
 37  18  39  1   
 38  18  40  1   
 39  19  23  1   
 40  19  41  1   
 41  19  42  1   
 42  20  23  1   
 43  20  43  1   
 44  20  44  1   
 45  21  24  ar  
 46  21  45  1   
 47  22  24  ar  
 48  22  46  1   
 49  24  47  1   
@<TRIPOS>SUBSTRUCTURE
  1 ****   5 GROUP 4 **** **** 0

# MOE 2024.06 (io_trps.svl 2023.06)
