@<TRIPOS>MOLECULE
NONAME
47 50 1 0 0 
SMALL
USER_CHARGES


@<TRIPOS>ATOM
  1 O       -0.2910     0.8490    -1.8080 O.2   1 <1>  -0.5700 
  2 C       -0.4880     1.6970    -0.9620 C.2   1 <1>   0.6900 
  3 N        0.5690     2.3480    -0.3750 N.am  1 <1>  -0.6600 
  4 N       -1.7950     1.9710    -0.7180 N.am  1 <1>  -0.4900 
  5 C        1.9400     1.7730    -0.4280 C.3   1 <1>   0.1400 
  6 C        0.5090     3.7360     0.1600 C.3   1 <1>   0.1400 
  7 C       -2.4770     2.2960     0.4190 C.2   1 <1>   0.5690 
  8 C        2.5710     1.8050     0.9690 C.3   1 <1>  -0.1600 
  9 C        1.1290     3.7830     1.5610 C.3   1 <1>  -0.1600 
 10 O       -1.9310     2.4750     1.4790 O.2   1 <1>  -0.5700 
 11 C       -4.0140     2.4100     0.3110 C.3   1 <1>   0.0610 
 12 C        2.5560     3.2190     1.5670 C.3   1 <1>  -0.1600 
 13 C       -4.6290     1.0460    -0.1010 C.3   1 <1>  -0.1600 
 14 C       -4.4080     3.4690    -0.7530 C.3   1 <1>  -0.1600 
 15 C       -4.6550     2.8320     1.6610 C.3   1 <1>  -0.1600 
 16 C       -6.1610     1.1480    -0.2300 C.3   1 <1>  -0.0800 
 17 C       -5.9390     3.5760    -0.8840 C.3   1 <1>  -0.0800 
 18 C       -6.1860     2.9410     1.5430 C.3   1 <1>  -0.0800 
 19 C       -6.5100     2.2060    -1.2930 C.3   1 <1>  -0.1600 
 20 C       -6.7560     1.5740     1.1240 C.3   1 <1>  -0.1600 
 21 C       -6.5360     3.9900     0.4730 C.3   1 <1>  -0.1600 
 22 H       -2.3650     1.6290    -1.4800 H     1 <1>   0.3700 
 23 H        2.5350     2.3490    -1.1150 H     1 <1>   0.0800 
 24 H        1.9090     0.7560    -0.7800 H     1 <1>   0.0800 
 25 H       -0.5030     4.0950     0.1940 H     1 <1>   0.0800 
 26 H        1.0640     4.3820    -0.4980 H     1 <1>   0.0800 
 27 H        3.5830     1.4460     0.9110 H     1 <1>   0.0800 
 28 H        2.0210     1.1360     1.6090 H     1 <1>   0.0800 
 29 H        0.5100     3.2120     2.2320 H     1 <1>   0.0800 
 30 H        1.1380     4.7990     1.9120 H     1 <1>   0.0800 
 31 H        3.1980     3.8600     0.9880 H     1 <1>   0.0800 
 32 H        2.9320     3.1910     2.5760 H     1 <1>   0.0800 
 33 H       -4.3800     0.3030     0.6380 H     1 <1>   0.0800 
 34 H       -4.2230     0.7160    -1.0400 H     1 <1>   0.0800 
 35 H       -3.9960     3.2120    -1.7120 H     1 <1>   0.0800 
 36 H       -4.0040     4.4260    -0.4730 H     1 <1>   0.0800 
 37 H       -4.4050     2.1120     2.4210 H     1 <1>   0.0800 
 38 H       -4.2510     3.7800     1.9730 H     1 <1>   0.0800 
 39 H       -6.5660     0.1930    -0.5190 H     1 <1>   0.0800 
 40 H       -6.1910     4.3120    -1.6290 H     1 <1>   0.0800 
 41 H       -6.6030     3.2340     2.4920 H     1 <1>   0.0800 
 42 H       -7.5790     2.2750    -1.3980 H     1 <1>   0.0800 
 43 H       -6.1100     1.9120    -2.2480 H     1 <1>   0.0800 
 44 H       -6.5260     0.8370     1.8730 H     1 <1>   0.0800 
 45 H       -7.8280     1.6360     1.0470 H     1 <1>   0.0800 
 46 H       -7.6050     4.0790     0.3890 H     1 <1>   0.0800 
 47 H       -6.1510     4.9510     0.7650 H     1 <1>   0.0800 
@<TRIPOS>BOND
  1   1   2  2   
  2   2   3  am  
  3   2   4  am  
  4   3   5  1   
  5   3   6  1   
  6   4   7  am  
  7   4  22  1   
  8   5   8  1   
  9   5  23  1   
 10   5  24  1   
 11   6   9  1   
 12   6  25  1   
 13   6  26  1   
 14   7  10  2   
 15   7  11  1   
 16   8  12  1   
 17   8  27  1   
 18   8  28  1   
 19   9  12  1   
 20   9  29  1   
 21   9  30  1   
 22  11  13  1   
 23  11  14  1   
 24  11  15  1   
 25  12  31  1   
 26  12  32  1   
 27  13  16  1   
 28  13  33  1   
 29  13  34  1   
 30  14  17  1   
 31  14  35  1   
 32  14  36  1   
 33  15  18  1   
 34  15  37  1   
 35  15  38  1   
 36  16  19  1   
 37  16  20  1   
 38  16  39  1   
 39  17  19  1   
 40  17  21  1   
 41  17  40  1   
 42  18  20  1   
 43  18  21  1   
 44  18  41  1   
 45  19  42  1   
 46  19  43  1   
 47  20  44  1   
 48  20  45  1   
 49  21  46  1   
 50  21  47  1   
@<TRIPOS>SUBSTRUCTURE
  1 ****   7 GROUP 4 **** **** 0

# MOE 2024.06 (io_trps.svl 2023.06)
