@<TRIPOS>MOLECULE
NONAME
43 43 1 0 0 
SMALL
USER_CHARGES


@<TRIPOS>ATOM
  1 O       -1.5930     0.4750    -0.1150 O.3   1 <1>  -0.3630 
  2 C       -0.7340     1.5290    -0.2290 C.ar  1 <1>   0.0830 
  3 C       -1.1640    -0.8050     0.3160 C.3   1 <1>   0.1200 
  4 C       -1.2030     2.6740    -0.8690 C.ar  1 <1>  -0.1440 
  5 C        0.5680     1.5120     0.2680 C.ar  1 <1>  -0.1500 
  6 C       -1.2770    -0.8850     1.8390 C.3   1 <1>  -0.2400 
  7 C       -0.3760     3.7780    -1.0140 C.ar  1 <1>  -0.1500 
  8 C       -2.6170     2.7190    -1.4090 C.3   1 <1>   0.4860 
  9 C        1.3840     2.6180     0.1220 C.ar  1 <1>  -0.1500 
 10 C        0.9150     3.7500    -0.5180 C.ar  1 <1>  -0.1500 
 11 N       -3.5500     2.4900    -0.2650 N.4   1 <1>  -0.9590 
 12 C       -4.9160     2.0800    -0.7390 C.3   1 <1>   0.3430 
 13 C       -3.5200     3.6660     0.6690 C.3   1 <1>   0.2630 
 14 C       -5.8290     1.5150     0.3880 C.3   1 <1>   0.3430 
 15 N       -7.1980     1.0680    -0.0720 N.4   1 <1>  -0.9590 
 16 C       -8.0540     0.7190     1.1120 C.3   1 <1>   0.2630 
 17 C       -7.1600    -0.1110    -1.0040 C.3   1 <1>   0.2630 
 18 H       -0.1620    -0.9900    -0.0320 H     1 <1>   0.0800 
 19 H       -1.8130    -1.5340    -0.1370 H     1 <1>   0.0800 
 20 H        0.9710     0.6550     0.7740 H     1 <1>   0.1500 
 21 H       -0.6560    -0.1450     2.3120 H     1 <1>   0.0800 
 22 H       -0.9500    -1.8550     2.1700 H     1 <1>   0.0800 
 23 H       -2.2960    -0.7510     2.1500 H     1 <1>   0.0800 
 24 H       -0.7160     4.6700    -1.5140 H     1 <1>   0.1500 
 25 H       -2.7260     1.9370    -2.1440 H     1 <1>   0.0800 
 26 H       -2.8120     3.6690    -1.8790 H     1 <1>   0.0800 
 27 H        2.3910     2.6000     0.5070 H     1 <1>   0.1500 
 28 H        1.5590     4.6060    -0.6320 H     1 <1>   0.1500 
 29 H       -3.0720     1.6950     0.2100 H     1 <1>   0.4500 
 30 H       -4.8020     1.3190    -1.4930 H     1 <1>   0.0800 
 31 H       -5.3990     2.9310    -1.1900 H     1 <1>   0.0800 
 32 H       -3.9190     4.5440     0.1870 H     1 <1>   0.0800 
 33 H       -2.5040     3.8770     0.9680 H     1 <1>   0.0800 
 34 H       -4.0930     3.4640     1.5590 H     1 <1>   0.0800 
 35 H       -5.9520     2.2810     1.1360 H     1 <1>   0.0800 
 36 H       -5.3280     0.6800     0.8500 H     1 <1>   0.0800 
 37 H       -7.6810     1.8440    -0.5580 H     1 <1>   0.4500 
 38 H       -7.6240    -0.1040     1.6620 H     1 <1>   0.0800 
 39 H       -9.0430     0.4320     0.7890 H     1 <1>   0.0800 
 40 H       -8.1480     1.5640     1.7750 H     1 <1>   0.0800 
 41 H       -6.6880    -0.9560    -0.5270 H     1 <1>   0.0800 
 42 H       -6.6160     0.1270    -1.9040 H     1 <1>   0.0800 
 43 H       -8.1620    -0.3980    -1.2830 H     1 <1>   0.0800 
@<TRIPOS>BOND
  1   1   2  1   
  2   1   3  1   
  3   2   4  ar  
  4   2   5  ar  
  5   3   6  1   
  6   3  18  1   
  7   3  19  1   
  8   4   7  ar  
  9   4   8  1   
 10   5   9  ar  
 11   5  20  1   
 12   6  21  1   
 13   6  22  1   
 14   6  23  1   
 15   7  10  ar  
 16   7  24  1   
 17   8  11  1   
 18   8  25  1   
 19   8  26  1   
 20   9  10  ar  
 21   9  27  1   
 22  10  28  1   
 23  11  12  1   
 24  11  13  1   
 25  11  29  1   
 26  12  14  1   
 27  12  30  1   
 28  12  31  1   
 29  13  32  1   
 30  13  33  1   
 31  13  34  1   
 32  14  15  1   
 33  14  35  1   
 34  14  36  1   
 35  15  16  1   
 36  15  17  1   
 37  15  37  1   
 38  16  38  1   
 39  16  39  1   
 40  16  40  1   
 41  17  41  1   
 42  17  42  1   
 43  17  43  1   
@<TRIPOS>SUBSTRUCTURE
  1 ****  11 GROUP 4 **** **** 0

# MOE 2024.06 (io_trps.svl 2023.06)
