@<TRIPOS>MOLECULE
NONAME
32 33 1 0 0 
SMALL
USER_CHARGES


@<TRIPOS>ATOM
  1 CL      -1.8510     1.2930     2.5130 Cl    1 <1>  -0.1770 
  2 C       -0.8580     2.1410     1.3540 C.ar  1 <1>   0.1770 
  3 C        0.2730     1.5250     0.8550 C.ar  1 <1>  -0.1500 
  4 C       -1.2240     3.4100     0.9500 C.ar  1 <1>  -0.1500 
  5 C        1.0710     2.1940    -0.0590 C.ar  1 <1>  -0.1440 
  6 C       -0.4400     4.0940     0.0360 C.ar  1 <1>  -0.1440 
  7 C        0.7280     3.4920    -0.4420 C.ar  1 <1>   0.0830 
  8 C        2.2940     1.4790    -0.6200 C.3   1 <1>  -0.0960 
  9 C       -0.9100     5.4680    -0.4260 C.3   1 <1>  -0.0960 
 10 O        1.5430     4.1530    -1.3010 O.3   1 <1>  -0.3630 
 11 C        2.3290     5.2110    -0.7850 C.3   1 <1>   0.1200 
 12 C        3.4740     4.6480     0.0560 C.3   1 <1>   0.0960 
 13 N        4.2800     5.7550     0.5950 N.pl3 1 <1>   0.0480 
 14 C        4.1530     6.3610     1.7970 C.2   1 <1>   0.0360 
 15 C        5.2890     6.4070    -0.0110 C.2   1 <1>  -0.3020 
 16 N        4.9900     7.3270     1.9900 N.2   1 <1>  -0.5650 
 17 C        5.7080     7.3580     0.8520 C.2   1 <1>   0.0770 
 18 H        0.5150     0.5300     1.1820 H     1 <1>   0.1500 
 19 H       -2.1220     3.8460     1.3490 H     1 <1>   0.1500 
 20 H        2.1250     0.4180    -0.6520 H     1 <1>   0.0800 
 21 H        3.1510     1.6700    -0.0020 H     1 <1>   0.0800 
 22 H        2.5020     1.8090    -1.6220 H     1 <1>   0.0800 
 23 H       -1.9840     5.5100    -0.4400 H     1 <1>   0.0800 
 24 H       -0.5610     5.6760    -1.4220 H     1 <1>   0.0800 
 25 H       -0.5470     6.2280     0.2420 H     1 <1>   0.0800 
 26 H        1.7080     5.8560    -0.1940 H     1 <1>   0.0800 
 27 H        2.7180     5.7590    -1.6250 H     1 <1>   0.0800 
 28 H        4.1050     4.0230    -0.5490 H     1 <1>   0.0800 
 29 H        3.0840     4.0770     0.8790 H     1 <1>   0.0800 
 30 H        3.4140     6.0530     2.5170 H     1 <1>   0.1500 
 31 H        5.6480     6.1690    -0.9950 H     1 <1>   0.1500 
 32 H        6.5010     8.0740     0.7130 H     1 <1>   0.1500 
@<TRIPOS>BOND
  1   1   2  1   
  2   2   3  ar  
  3   2   4  ar  
  4   3   5  ar  
  5   3  18  1   
  6   4   6  ar  
  7   4  19  1   
  8   5   7  ar  
  9   5   8  1   
 10   6   7  ar  
 11   6   9  1   
 12   7  10  1   
 13   8  20  1   
 14   8  21  1   
 15   8  22  1   
 16   9  23  1   
 17   9  24  1   
 18   9  25  1   
 19  10  11  1   
 20  11  12  1   
 21  11  26  1   
 22  11  27  1   
 23  12  13  1   
 24  12  28  1   
 25  12  29  1   
 26  13  14  1   
 27  13  15  1   
 28  14  16  2   
 29  14  30  1   
 30  15  17  2   
 31  15  31  1   
 32  16  17  1   
 33  17  32  1   
@<TRIPOS>SUBSTRUCTURE
  1 ****   7 GROUP 4 **** **** 0

# MOE 2024.06 (io_trps.svl 2023.06)
