@<TRIPOS>MOLECULE
NONAME
38 39 1 0 0 
SMALL
USER_CHARGES


@<TRIPOS>ATOM
  1 F        0.8110    -1.9170     1.2440 F     1 <1>  -0.3400 
  2 C        1.7410    -1.0770     0.8130 C.3   1 <1>   0.8800 
  3 F        1.0910    -0.1130     0.1720 F     1 <1>  -0.3400 
  4 O        2.5490    -1.7640    -0.1120 O.3   1 <1>  -0.3630 
  5 C        3.8400    -1.3730    -0.2380 C.ar  1 <1>   0.0830 
  6 C        4.7850    -2.3580    -0.4730 C.ar  1 <1>  -0.1500 
  7 C        4.2430    -0.0450    -0.1370 C.ar  1 <1>  -0.1500 
  8 C        6.1240    -2.0280    -0.5790 C.ar  1 <1>  -0.1500 
  9 C        5.5830     0.2760    -0.2430 C.ar  1 <1>  -0.1500 
 10 C        6.5430    -0.7080    -0.4550 C.ar  1 <1>   0.1170 
 11 N        7.9100    -0.4140    -0.5670 N.am  1 <1>  -0.5470 
 12 C        8.6390     0.5880    -0.0010 C.2   1 <1>   0.6900 
 13 O        8.1590     1.3550     0.8090 O.2   1 <1>  -0.5700 
 14 N        9.9390     0.6950    -0.3680 N.am  1 <1>  -0.7300 
 15 C       10.8790     1.7010     0.1520 C.3   1 <1>   0.2200 
 16 C       11.1810     2.7160    -0.9550 C.3   1 <1>  -0.1600 
 17 C       12.1540     0.9910     0.6190 C.3   1 <1>  -0.1600 
 18 C       12.2430     3.7300    -0.5040 C.3   1 <1>  -0.1600 
 19 C       13.2170     2.0020     1.0730 C.3   1 <1>  -0.1600 
 20 C       13.5210     3.0230    -0.0320 C.3   1 <1>  -0.1600 
 21 H        2.2910    -0.6750     1.6450 H     1 <1>   0.0800 
 22 H        4.4660    -3.3810    -0.5660 H     1 <1>   0.1500 
 23 H        3.5330     0.7490     0.0100 H     1 <1>   0.1500 
 24 H        6.8460    -2.8040    -0.7530 H     1 <1>   0.1500 
 25 H        5.8870     1.3050    -0.1640 H     1 <1>   0.1500 
 26 H        8.4690    -1.1140    -1.0400 H     1 <1>   0.3700 
 27 H       10.2860     0.1540    -1.1530 H     1 <1>   0.3700 
 28 H       10.4390     2.2160     0.9910 H     1 <1>   0.0800 
 29 H       10.2760     3.2400    -1.2100 H     1 <1>   0.0800 
 30 H       11.5380     2.2020    -1.8310 H     1 <1>   0.0800 
 31 H       12.5560     0.4010    -0.1860 H     1 <1>   0.0800 
 32 H       11.9150     0.3360     1.4390 H     1 <1>   0.0800 
 33 H       11.8460     4.3240     0.3020 H     1 <1>   0.0800 
 34 H       12.4770     4.3950    -1.3180 H     1 <1>   0.0800 
 35 H       14.1200     1.4820     1.3420 H     1 <1>   0.0800 
 36 H       12.8630     2.5210     1.9490 H     1 <1>   0.0800 
 37 H       14.2210     3.7540     0.3350 H     1 <1>   0.0800 
 38 H       13.9790     2.5200    -0.8660 H     1 <1>   0.0800 
@<TRIPOS>BOND
  1   1   2  1   
  2   2   3  1   
  3   2   4  1   
  4   2  21  1   
  5   4   5  1   
  6   5   6  ar  
  7   5   7  ar  
  8   6   8  ar  
  9   6  22  1   
 10   7   9  ar  
 11   7  23  1   
 12   8  10  ar  
 13   8  24  1   
 14   9  10  ar  
 15   9  25  1   
 16  10  11  1   
 17  11  12  am  
 18  11  26  1   
 19  12  13  2   
 20  12  14  am  
 21  14  15  1   
 22  14  27  1   
 23  15  16  1   
 24  15  17  1   
 25  15  28  1   
 26  16  18  1   
 27  16  29  1   
 28  16  30  1   
 29  17  19  1   
 30  17  31  1   
 31  17  32  1   
 32  18  20  1   
 33  18  33  1   
 34  18  34  1   
 35  19  20  1   
 36  19  35  1   
 37  19  36  1   
 38  20  37  1   
 39  20  38  1   
@<TRIPOS>SUBSTRUCTURE
  1 ****  11 GROUP 4 **** **** 0

# MOE 2024.06 (io_trps.svl 2023.06)
