@<TRIPOS>MOLECULE
NONAME
50 52 1 0 0 
SMALL
USER_CHARGES


@<TRIPOS>ATOM
  1 O       -1.2960     2.3900     1.4720 O.2   1 <1>  -0.5700 
  2 C       -0.8640     2.0760     0.3920 C.2   1 <1>   0.5690 
  3 N       -1.5790     1.3790    -0.5380 N.am  1 <1>  -0.5470 
  4 C        0.5420     2.4830     0.0290 C.3   1 <1>  -0.1790 
  5 C       -2.8780     0.8570    -0.4530 C.ar  1 <1>   0.1170 
  6 C       -3.6550     0.7670    -1.6010 C.ar  1 <1>  -0.1500 
  7 C       -3.4190     0.4090     0.7460 C.ar  1 <1>  -0.1500 
  8 C       -4.9420     0.2640    -1.5510 C.ar  1 <1>  -0.1500 
  9 C       -4.7040    -0.0980     0.8030 C.ar  1 <1>  -0.1500 
 10 C       -5.4800    -0.1640    -0.3460 C.ar  1 <1>  -0.1430 
 11 C       -6.9020    -0.6880    -0.2800 C.3   1 <1>   0.4860 
 12 N       -7.7450     0.3130     0.4280 N.4   1 <1>  -0.9590 
 13 C       -9.1410    -0.1990     0.6770 C.3   1 <1>   0.3430 
 14 C       -7.7730     1.6400    -0.2960 C.3   1 <1>   0.3430 
 15 C      -10.0220     0.8180     1.4330 C.3   1 <1>   0.2090 
 16 C       -8.6370     2.6980     0.4240 C.3   1 <1>   0.2090 
 17 N       -9.9810     2.1620     0.7910 N.pl3 1 <1>  -0.8380 
 18 C      -11.0750     2.5380     0.0120 C.ar  1 <1>   0.1000 
 19 C      -12.0620     3.3800     0.5260 C.ar  1 <1>  -0.1430 
 20 C      -11.1990     2.0720    -1.2930 C.ar  1 <1>  -0.1500 
 21 C      -13.1440     3.7350    -0.2630 C.ar  1 <1>  -0.1500 
 22 C      -11.9650     3.9180     1.9470 C.3   1 <1>  -0.0970 
 23 C      -12.2810     2.4300    -2.0760 C.ar  1 <1>  -0.1500 
 24 C      -13.2560     3.2640    -1.5600 C.ar  1 <1>  -0.1500 
 25 H       -1.1160     1.2550    -1.4360 H     1 <1>   0.3700 
 26 H        0.5220     3.1600    -0.8040 H     1 <1>   0.0800 
 27 H        1.1210     1.6140    -0.2230 H     1 <1>   0.0800 
 28 H        1.0030     2.9760     0.8650 H     1 <1>   0.0800 
 29 H       -3.2480     1.0990    -2.5400 H     1 <1>   0.1500 
 30 H       -2.8270     0.4540     1.6430 H     1 <1>   0.1500 
 31 H       -5.5140     0.2120    -2.4630 H     1 <1>   0.1500 
 32 H       -5.0790    -0.4380     1.7530 H     1 <1>   0.1500 
 33 H       -6.9100    -1.6250     0.2530 H     1 <1>   0.0800 
 34 H       -7.2790    -0.8560    -1.2750 H     1 <1>   0.0800 
 35 H       -7.2990     0.4930     1.3360 H     1 <1>   0.4500 
 36 H       -9.1030    -1.1140     1.2450 H     1 <1>   0.0800 
 37 H       -9.6180    -0.4140    -0.2640 H     1 <1>   0.0800 
 38 H       -8.1720     1.5020    -1.2860 H     1 <1>   0.0800 
 39 H       -6.7710     2.0250    -0.3980 H     1 <1>   0.0800 
 40 H       -9.6880     0.9060     2.4520 H     1 <1>   0.0800 
 41 H      -11.0390     0.4630     1.4530 H     1 <1>   0.0800 
 42 H       -8.7570     3.5560    -0.2160 H     1 <1>   0.0800 
 43 H       -8.1360     3.0290     1.3160 H     1 <1>   0.0800 
 44 H      -10.4510     1.4250    -1.7030 H     1 <1>   0.1500 
 45 H      -13.9100     4.3830     0.1250 H     1 <1>   0.1500 
 46 H      -11.9860     3.1030     2.6470 H     1 <1>   0.0800 
 47 H      -12.7810     4.5820     2.1680 H     1 <1>   0.0800 
 48 H      -11.0430     4.4560     2.0690 H     1 <1>   0.0800 
 49 H      -12.3700     2.0660    -3.0840 H     1 <1>   0.1500 
 50 H      -14.1010     3.5470    -2.1640 H     1 <1>   0.1500 
@<TRIPOS>BOND
  1   1   2  2   
  2   2   3  am  
  3   2   4  1   
  4   3   5  1   
  5   3  25  1   
  6   4  26  1   
  7   4  27  1   
  8   4  28  1   
  9   5   6  ar  
 10   5   7  ar  
 11   6   8  ar  
 12   6  29  1   
 13   7   9  ar  
 14   7  30  1   
 15   8  10  ar  
 16   8  31  1   
 17   9  10  ar  
 18   9  32  1   
 19  10  11  1   
 20  11  12  1   
 21  11  33  1   
 22  11  34  1   
 23  12  13  1   
 24  12  14  1   
 25  12  35  1   
 26  13  15  1   
 27  13  36  1   
 28  13  37  1   
 29  14  16  1   
 30  14  38  1   
 31  14  39  1   
 32  15  17  1   
 33  15  40  1   
 34  15  41  1   
 35  16  17  1   
 36  16  42  1   
 37  16  43  1   
 38  17  18  1   
 39  18  19  ar  
 40  18  20  ar  
 41  19  21  ar  
 42  19  22  1   
 43  20  23  ar  
 44  20  44  1   
 45  21  24  ar  
 46  21  45  1   
 47  22  46  1   
 48  22  47  1   
 49  22  48  1   
 50  23  24  ar  
 51  23  49  1   
 52  24  50  1   
@<TRIPOS>SUBSTRUCTURE
  1 ****  14 GROUP 4 **** **** 0

# MOE 2024.06 (io_trps.svl 2023.06)
