@<TRIPOS>MOLECULE
NONAME
54 54 1 0 0 
SMALL
USER_CHARGES


@<TRIPOS>ATOM
  1 O       -8.4010     2.4300     1.3240 O.2   1 <1>  -0.5700 
  2 C       -9.2940     3.2360     1.1690 C.2   1 <1>   0.5690 
  3 N      -10.4180     2.9680     0.4510 N.am  1 <1>  -0.7300 
  4 C       -9.1010     4.6270     1.7590 C.3   1 <1>   0.1810 
  5 C      -10.8140     1.7210    -0.2120 C.3   1 <1>   0.3000 
  6 O       -7.8390     5.1440     1.3550 O.3   1 <1>  -0.3620 
  7 C      -10.9510     0.6070     0.8250 C.3   1 <1>  -0.2400 
  8 C       -9.7920     1.3600    -1.2900 C.3   1 <1>  -0.2400 
  9 C      -12.1700     1.9890    -0.8610 C.3   1 <1>  -0.2400 
 10 C       -7.7710     5.7140     0.1240 C.ar  1 <1>   0.0830 
 11 C       -8.3150     6.9890    -0.0630 C.ar  1 <1>   0.0830 
 12 C       -7.1330     5.0480    -0.9260 C.ar  1 <1>  -0.1430 
 13 O       -8.9180     7.5930     1.0000 O.3   1 <1>  -0.3630 
 14 C       -8.2210     7.5930    -1.3110 C.ar  1 <1>  -0.1500 
 15 C       -7.0520     5.6790    -2.1600 C.ar  1 <1>  -0.1500 
 16 C       -6.5260     3.6520    -0.8340 C.3   1 <1>   0.4860 
 17 C       -9.2900     8.9540     0.9610 C.3   1 <1>   0.0400 
 18 C       -7.5910     6.9380    -2.3520 C.ar  1 <1>  -0.1500 
 19 N       -5.9270     3.4020     0.4890 N.4   1 <1>  -0.9060 
 20 C       -4.9160     2.3670     0.6220 C.3   1 <1>   0.5030 
 21 C       -5.4490     1.0420     0.0780 C.3   1 <1>  -0.2400 
 22 C       -3.6530     2.8000    -0.1180 C.3   1 <1>  -0.2400 
 23 C       -4.6330     2.2410     2.1150 C.3   1 <1>  -0.2400 
 24 H      -11.1260     3.6960     0.3530 H     1 <1>   0.3700 
 25 H       -9.1000     4.5650     2.8310 H     1 <1>   0.0800 
 26 H       -9.8800     5.2960     1.4440 H     1 <1>   0.0800 
 27 H      -10.0010     0.3820     1.2760 H     1 <1>   0.0800 
 28 H      -11.3130    -0.2910     0.3570 H     1 <1>   0.0800 
 29 H      -11.6450     0.8900     1.5950 H     1 <1>   0.0800 
 30 H       -9.6650     2.1760    -1.9780 H     1 <1>   0.0800 
 31 H      -10.1320     0.5020    -1.8420 H     1 <1>   0.0800 
 32 H       -8.8450     1.1090    -0.8490 H     1 <1>   0.0800 
 33 H      -12.0970     2.7790    -1.5870 H     1 <1>   0.0800 
 34 H      -12.9020     2.2540    -0.1190 H     1 <1>   0.0800 
 35 H      -12.5170     1.1050    -1.3660 H     1 <1>   0.0800 
 36 H       -8.6310     8.5690    -1.4950 H     1 <1>   0.1500 
 37 H       -6.5710     5.1990    -2.9960 H     1 <1>   0.1500 
 38 H       -5.7710     3.5570    -1.5960 H     1 <1>   0.0800 
 39 H       -7.2910     2.9160    -1.0260 H     1 <1>   0.0800 
 40 H       -9.6570     9.2280     1.9340 H     1 <1>   0.0800 
 41 H      -10.0670     9.0860     0.2290 H     1 <1>   0.0800 
 42 H       -8.4260     9.5470     0.7180 H     1 <1>   0.0800 
 43 H       -7.5210     7.4130    -3.3170 H     1 <1>   0.1500 
 44 H       -6.7270     3.1330     1.0900 H     1 <1>   0.4500 
 45 H       -5.6020     4.2930     0.8720 H     1 <1>   0.4500 
 46 H       -6.3670     0.7670     0.5690 H     1 <1>   0.0800 
 47 H       -4.7330     0.2600     0.2630 H     1 <1>   0.0800 
 48 H       -5.6120     1.0830    -0.9830 H     1 <1>   0.0800 
 49 H       -3.8160     2.8590    -1.1790 H     1 <1>   0.0800 
 50 H       -2.8720     2.0790     0.0480 H     1 <1>   0.0800 
 51 H       -3.3030     3.7520     0.2410 H     1 <1>   0.0800 
 52 H       -5.5200     1.9480     2.6500 H     1 <1>   0.0800 
 53 H       -4.2660     3.1670     2.5200 H     1 <1>   0.0800 
 54 H       -3.8840     1.4870     2.2850 H     1 <1>   0.0800 
@<TRIPOS>BOND
  1   1   2  2   
  2   2   3  am  
  3   2   4  1   
  4   3   5  1   
  5   3  24  1   
  6   4   6  1   
  7   4  25  1   
  8   4  26  1   
  9   5   7  1   
 10   5   8  1   
 11   5   9  1   
 12   6  10  1   
 13   7  27  1   
 14   7  28  1   
 15   7  29  1   
 16   8  30  1   
 17   8  31  1   
 18   8  32  1   
 19   9  33  1   
 20   9  34  1   
 21   9  35  1   
 22  10  11  ar  
 23  10  12  ar  
 24  11  13  1   
 25  11  14  ar  
 26  12  15  ar  
 27  12  16  1   
 28  13  17  1   
 29  14  18  ar  
 30  14  36  1   
 31  15  18  ar  
 32  15  37  1   
 33  16  19  1   
 34  16  38  1   
 35  16  39  1   
 36  17  40  1   
 37  17  41  1   
 38  17  42  1   
 39  18  43  1   
 40  19  20  1   
 41  19  44  1   
 42  19  45  1   
 43  20  21  1   
 44  20  22  1   
 45  20  23  1   
 46  21  46  1   
 47  21  47  1   
 48  21  48  1   
 49  22  49  1   
 50  22  50  1   
 51  22  51  1   
 52  23  52  1   
 53  23  53  1   
 54  23  54  1   
@<TRIPOS>SUBSTRUCTURE
  1 ****  10 GROUP 4 **** **** 0

# MOE 2024.06 (io_trps.svl 2023.06)
