@<TRIPOS>MOLECULE
NONAME
46 48 1 0 0 
SMALL
USER_CHARGES


@<TRIPOS>ATOM
  1 O       -0.3570     0.6490    -1.2530 O.2   1 <1>  -0.5700 
  2 C       -0.6620     1.5480    -0.4860 C.2   1 <1>   0.5440 
  3 N       -1.5980     1.3100     0.5070 N.am  1 <1>  -0.6600 
  4 C        0.0000     2.8330    -0.6120 C.ar  1 <1>   0.0860 
  5 C       -2.5760     0.1810     0.4910 C.3   1 <1>   0.2200 
  6 C       -1.6040     2.0900     1.7790 C.3   1 <1>   0.0600 
  7 C        1.3980     2.9210    -0.7120 C.ar  1 <1>   0.1170 
  8 C       -0.7430     4.0160    -0.6250 C.ar  1 <1>  -0.1500 
  9 C       -1.8880    -1.1590     0.7880 C.3   1 <1>  -0.1600 
 10 C       -3.3840     0.1320    -0.8140 C.3   1 <1>  -0.1600 
 11 N        2.1530     1.7410    -0.7510 N.am  1 <1>  -0.5470 
 12 C        2.0010     4.1730    -0.7910 C.ar  1 <1>  -0.1500 
 13 C       -0.1320     5.2510    -0.7080 C.ar  1 <1>  -0.1500 
 14 C       -2.9110    -2.3050     0.8170 C.3   1 <1>  -0.1600 
 15 C       -4.4070    -1.0140    -0.7790 C.3   1 <1>  -0.1600 
 16 C        3.4370     1.4490    -0.3990 C.2   1 <1>   0.6300 
 17 C        1.2470     5.3300    -0.7860 C.ar  1 <1>  -0.1500 
 18 C       -3.7220    -2.3570    -0.4860 C.3   1 <1>  -0.1600 
 19 O        4.2220     2.2610     0.0210 O.2   1 <1>  -0.5700 
 20 C        3.8790     0.0000    -0.5440 C.3   1 <1>  -0.1000 
 21 C        2.9330    -1.1550    -0.3520 C.3   1 <1>  -0.2000 
 22 C        3.9950    -0.8810     0.6660 C.3   1 <1>  -0.2000 
 23 H       -3.2870     0.3520     1.2810 H     1 <1>   0.0800 
 24 H       -0.7160     2.6910     1.8700 H     1 <1>   0.0800 
 25 H       -1.6380     1.4180     2.6180 H     1 <1>   0.0800 
 26 H       -2.4680     2.7320     1.8060 H     1 <1>   0.0800 
 27 H       -1.8160     3.9570    -0.5690 H     1 <1>   0.1500 
 28 H       -1.3840    -1.1040     1.7360 H     1 <1>   0.0800 
 29 H       -1.1580    -1.3700     0.0280 H     1 <1>   0.0800 
 30 H       -2.7280    -0.0280    -1.6510 H     1 <1>   0.0800 
 31 H       -3.8950     1.0660    -0.9560 H     1 <1>   0.0800 
 32 H        1.5970     0.9220    -1.0320 H     1 <1>   0.3700 
 33 H        3.0720     4.2460    -0.8630 H     1 <1>   0.1500 
 34 H       -0.7220     6.1520    -0.7130 H     1 <1>   0.1500 
 35 H       -3.5810    -2.1680     1.6490 H     1 <1>   0.0800 
 36 H       -2.3980    -3.2410     0.9580 H     1 <1>   0.0800 
 37 H       -4.9170    -1.0690    -1.7250 H     1 <1>   0.0800 
 38 H       -5.1430    -0.8150    -0.0180 H     1 <1>   0.0800 
 39 H        1.7320     6.2890    -0.8480 H     1 <1>   0.1500 
 40 H       -4.4640    -3.1330    -0.4180 H     1 <1>   0.0800 
 41 H       -3.0640    -2.6020    -1.3020 H     1 <1>   0.0800 
 42 H        4.6440    -0.0990    -1.2930 H     1 <1>   0.1000 
 43 H        3.0370    -2.0160    -0.9900 H     1 <1>   0.1000 
 44 H        1.9090    -0.9790    -0.0700 H     1 <1>   0.1000 
 45 H        3.7110    -0.4730     1.6210 H     1 <1>   0.1000 
 46 H        4.8390    -1.5450     0.7360 H     1 <1>   0.1000 
@<TRIPOS>BOND
  1   1   2  2   
  2   2   3  am  
  3   2   4  1   
  4   3   5  1   
  5   3   6  1   
  6   4   7  ar  
  7   4   8  ar  
  8   5   9  1   
  9   5  10  1   
 10   5  23  1   
 11   6  24  1   
 12   6  25  1   
 13   6  26  1   
 14   7  11  1   
 15   7  12  ar  
 16   8  13  ar  
 17   8  27  1   
 18   9  14  1   
 19   9  28  1   
 20   9  29  1   
 21  10  15  1   
 22  10  30  1   
 23  10  31  1   
 24  11  16  am  
 25  11  32  1   
 26  12  17  ar  
 27  12  33  1   
 28  13  17  ar  
 29  13  34  1   
 30  14  18  1   
 31  14  35  1   
 32  14  36  1   
 33  15  18  1   
 34  15  37  1   
 35  15  38  1   
 36  16  19  2   
 37  16  20  1   
 38  17  39  1   
 39  18  40  1   
 40  18  41  1   
 41  20  21  1   
 42  20  22  1   
 43  20  42  1   
 44  21  22  1   
 45  21  43  1   
 46  21  44  1   
 47  22  45  1   
 48  22  46  1   
@<TRIPOS>SUBSTRUCTURE
  1 ****   2 GROUP 4 **** **** 0

# MOE 2024.06 (io_trps.svl 2023.06)
