@<TRIPOS>MOLECULE
NONAME
28 28 1 0 0 
SMALL
USER_CHARGES


@<TRIPOS>ATOM
  1 O        0.0160     0.2030    -0.7900 O.2   1 <1>  -0.5700 
  2 C       -0.1800     1.3090    -0.3360 C.2   1 <1>   0.7800 
  3 O        0.8100     2.0600     0.1410 O.3   1 <1>  -0.4300 
  4 N       -1.4070     1.8920    -0.2640 N.am  1 <1>  -0.5470 
  5 C        2.1810     1.7260     0.2000 C.3   1 <1>   0.2800 
  6 C       -2.6870     1.4530    -0.6480 C.ar  1 <1>   0.1170 
  7 C        2.8620     2.9410     0.8320 C.3   1 <1>  -0.2400 
  8 C        2.3920     0.5040     1.1010 C.3   1 <1>  -0.2400 
  9 C        2.7380     1.5150    -1.2130 C.3   1 <1>  -0.2400 
 10 C       -2.9640     0.2110    -1.2310 C.ar  1 <1>   0.1600 
 11 C       -3.7580     2.3060    -0.4350 C.ar  1 <1>  -0.1500 
 12 N       -4.1640    -0.2170    -1.5980 N.ar  1 <1>  -0.6200 
 13 C       -5.0120     1.8770    -0.8100 C.ar  1 <1>  -0.1500 
 14 C       -5.1600     0.6240    -1.3790 C.ar  1 <1>   0.1600 
 15 H       -1.3560     2.8190     0.1480 H     1 <1>   0.3700 
 16 H        2.4670     3.1210     1.8160 H     1 <1>   0.0800 
 17 H        2.7050     3.8150     0.2260 H     1 <1>   0.0800 
 18 H        3.9200     2.7740     0.9180 H     1 <1>   0.0800 
 19 H        1.9290     0.6590     2.0590 H     1 <1>   0.0800 
 20 H        3.4420     0.3380     1.2530 H     1 <1>   0.0800 
 21 H        1.9860    -0.3850     0.6530 H     1 <1>   0.0800 
 22 H        2.5120     2.3610    -1.8360 H     1 <1>   0.0800 
 23 H        2.3330     0.6260    -1.6620 H     1 <1>   0.0800 
 24 H        3.8050     1.3970    -1.1720 H     1 <1>   0.0800 
 25 H       -2.1520    -0.4700    -1.4080 H     1 <1>   0.1500 
 26 H       -3.6190     3.2750     0.0090 H     1 <1>   0.1500 
 27 H       -5.8730     2.5050    -0.6650 H     1 <1>   0.1500 
 28 H       -6.1440     0.2980    -1.6690 H     1 <1>   0.1500 
@<TRIPOS>BOND
  1   1   2  2   
  2   2   3  1   
  3   2   4  am  
  4   3   5  1   
  5   4   6  1   
  6   4  15  1   
  7   5   7  1   
  8   5   8  1   
  9   5   9  1   
 10   6  10  ar  
 11   6  11  ar  
 12   7  16  1   
 13   7  17  1   
 14   7  18  1   
 15   8  19  1   
 16   8  20  1   
 17   8  21  1   
 18   9  22  1   
 19   9  23  1   
 20   9  24  1   
 21  10  12  ar  
 22  10  25  1   
 23  11  13  ar  
 24  11  26  1   
 25  12  14  ar  
 26  13  14  ar  
 27  13  27  1   
 28  14  28  1   
@<TRIPOS>SUBSTRUCTURE
  1 ****   4 GROUP 4 **** **** 0

# MOE 2024.06 (io_trps.svl 2023.06)
