@<TRIPOS>MOLECULE
NONAME
45 46 1 0 0 
SMALL
USER_CHARGES


@<TRIPOS>ATOM
  1 S        0.2670    -0.8300    -1.4280 S.o2  1 <1>   1.4470 
  2 O        0.8450    -1.4680    -2.5930 O.2   1 <1>  -0.6500 
  3 O       -0.3400     0.4740    -1.5970 O.2   1 <1>  -0.6500 
  4 N        1.5420    -0.6560    -0.3240 N.am  1 <1>  -0.8490 
  5 C       -0.8990    -1.9690    -0.6380 C.ar  1 <1>  -0.0090 
  6 C        2.4390     0.4440    -0.7130 C.3   1 <1>   0.1960 
  7 C        2.3020    -1.9050    -0.1420 C.3   1 <1>   0.1960 
  8 C       -1.4620    -1.6900     0.6030 C.ar  1 <1>   0.0830 
  9 C       -1.2640    -3.1570    -1.2620 C.ar  1 <1>  -0.1500 
 10 C        3.5530     0.6690     0.3240 C.3   1 <1>   0.1400 
 11 C        3.4010    -1.7490     0.9230 C.3   1 <1>   0.1400 
 12 O       -1.1390    -0.5600     1.2610 O.3   1 <1>  -0.3630 
 13 C       -2.3470    -2.5730     1.2020 C.ar  1 <1>  -0.1500 
 14 C       -2.1500    -4.0470    -0.6750 C.ar  1 <1>  -0.1430 
 15 N        4.2920    -0.5990     0.5900 N.am  1 <1>  -0.6600 
 16 C       -2.0790     0.4900     1.2100 C.3   1 <1>   0.0400 
 17 C       -2.6920    -3.7480     0.5640 C.ar  1 <1>  -0.1500 
 18 C       -2.5300    -5.3350    -1.3830 C.3   1 <1>  -0.0970 
 19 C        5.6420    -0.7090     0.4010 C.2   1 <1>   0.7800 
 20 O        6.3340     0.2320     0.0630 O.2   1 <1>  -0.5700 
 21 O        6.1990    -1.9060     0.5900 O.3   1 <1>  -0.4300 
 22 C        7.5820    -2.0970     0.4030 C.3   1 <1>   0.1200 
 23 C        7.8960    -3.5650     0.6710 C.3   1 <1>  -0.2400 
 24 H        1.8720     1.3560    -0.8040 H     1 <1>   0.0800 
 25 H        2.8830     0.2340    -1.6730 H     1 <1>   0.0800 
 26 H        2.7580    -2.2010    -1.0730 H     1 <1>   0.0800 
 27 H        1.6360    -2.6910     0.1680 H     1 <1>   0.0800 
 28 H       -0.8470    -3.3890    -2.2280 H     1 <1>   0.1500 
 29 H        3.1140     1.0200     1.2410 H     1 <1>   0.0800 
 30 H        4.2230     1.4300    -0.0350 H     1 <1>   0.0800 
 31 H        3.9620    -2.6640     0.9900 H     1 <1>   0.0800 
 32 H        2.9410    -1.5710     1.8800 H     1 <1>   0.0800 
 33 H       -2.7590    -2.3390     2.1670 H     1 <1>   0.1500 
 34 H       -1.6650     1.3350     1.7300 H     1 <1>   0.0800 
 35 H       -2.9900     0.1720     1.6850 H     1 <1>   0.0800 
 36 H       -2.2610     0.7470     0.1810 H     1 <1>   0.0800 
 37 H       -3.3810    -4.4290     1.0330 H     1 <1>   0.1500 
 38 H       -1.7560    -5.6360    -2.0650 H     1 <1>   0.0800 
 39 H       -3.4410    -5.1910    -1.9360 H     1 <1>   0.0800 
 40 H       -2.6790    -6.1250    -0.6690 H     1 <1>   0.0800 
 41 H        8.1110    -1.4550     1.0880 H     1 <1>   0.0800 
 42 H        7.8290    -1.8270    -0.6100 H     1 <1>   0.0800 
 43 H        7.6380    -3.8210     1.6820 H     1 <1>   0.0800 
 44 H        8.9470    -3.7410     0.5310 H     1 <1>   0.0800 
 45 H        7.3500    -4.1910    -0.0120 H     1 <1>   0.0800 
@<TRIPOS>BOND
  1   1   2  2   
  2   1   3  2   
  3   1   4  am  
  4   1   5  1   
  5   4   6  1   
  6   4   7  1   
  7   5   8  ar  
  8   5   9  ar  
  9   6  10  1   
 10   6  24  1   
 11   6  25  1   
 12   7  11  1   
 13   7  26  1   
 14   7  27  1   
 15   8  12  1   
 16   8  13  ar  
 17   9  14  ar  
 18   9  28  1   
 19  10  15  1   
 20  10  29  1   
 21  10  30  1   
 22  11  15  1   
 23  11  31  1   
 24  11  32  1   
 25  12  16  1   
 26  13  17  ar  
 27  13  33  1   
 28  14  17  ar  
 29  14  18  1   
 30  15  19  am  
 31  16  34  1   
 32  16  35  1   
 33  16  36  1   
 34  17  37  1   
 35  18  38  1   
 36  18  39  1   
 37  18  40  1   
 38  19  20  2   
 39  19  21  1   
 40  21  22  1   
 41  22  23  1   
 42  22  41  1   
 43  22  42  1   
 44  23  43  1   
 45  23  44  1   
 46  23  45  1   
@<TRIPOS>SUBSTRUCTURE
  1 ****   7 GROUP 4 **** **** 0

# MOE 2024.06 (io_trps.svl 2023.06)
