@<TRIPOS>MOLECULE
NONAME
45 48 1 0 0 
SMALL
USER_CHARGES


@<TRIPOS>ATOM
  1 O       -3.4000    -4.8020     0.7150 O.2   1 <1>  -0.5700 
  2 C       -3.1710    -4.1600    -0.2750 C.2   1 <1>   0.6590 
  3 O       -3.9670    -3.2160    -0.7590 O.3   1 <1>  -0.4300 
  4 C       -1.8790    -4.3790    -1.0400 C.3   1 <1>   0.3890 
  5 C       -5.2100    -2.7920    -0.2280 C.3   1 <1>   0.2800 
  6 N       -0.7430    -3.6720    -0.3770 N.ar  1 <1>  -0.2100 
  7 C       -5.7210    -1.6810    -1.1650 C.3   1 <1>  -0.1600 
  8 C       -6.2340    -3.9470    -0.2180 C.3   1 <1>  -0.1600 
  9 C       -5.0380    -2.2080     1.1900 C.3   1 <1>  -0.1600 
 10 C       -0.1530    -2.6110    -0.9750 C.ar  1 <1>   0.2110 
 11 C       -0.3130    -4.0890     0.8370 C.ar  1 <1>   0.2110 
 12 C       -7.0790    -1.1490    -0.6690 C.3   1 <1>  -0.0800 
 13 C       -7.5910    -3.4260     0.2950 C.3   1 <1>  -0.0800 
 14 C       -6.3970    -1.6910     1.7010 C.3   1 <1>  -0.0800 
 15 C        0.8970    -1.9410    -0.3700 C.ar  1 <1>  -0.1430 
 16 C        0.7310    -3.4490     1.4740 C.ar  1 <1>  -0.1500 
 17 C       -8.0930    -2.3090    -0.6390 C.3   1 <1>  -0.1600 
 18 C       -6.9100    -0.5880     0.7550 C.3   1 <1>  -0.1600 
 19 C       -7.4100    -2.8540     1.7150 C.3   1 <1>  -0.1600 
 20 C        1.3470    -2.3660     0.8710 C.ar  1 <1>  -0.1500 
 21 C        1.5670    -0.7480    -1.0350 C.3   1 <1>  -0.0970 
 22 H       -2.0030    -4.0310    -2.0480 H     1 <1>   0.0800 
 23 H       -1.6720    -5.4340    -1.0700 H     1 <1>   0.0800 
 24 H       -5.0140    -0.8720    -1.1940 H     1 <1>   0.0800 
 25 H       -5.8360    -2.0680    -2.1620 H     1 <1>   0.0800 
 26 H       -5.9090    -4.7390     0.4310 H     1 <1>   0.0800 
 27 H       -6.3540    -4.3430    -1.2100 H     1 <1>   0.0800 
 28 H       -4.3300    -1.4000     1.1750 H     1 <1>   0.0800 
 29 H       -4.6860    -2.9610     1.8720 H     1 <1>   0.0800 
 30 H       -0.5100    -2.2820    -1.9380 H     1 <1>   0.1500 
 31 H       -0.7950    -4.9300     1.3140 H     1 <1>   0.1500 
 32 H       -7.4330    -0.3730    -1.3270 H     1 <1>   0.0800 
 33 H       -8.3060    -4.2310     0.3160 H     1 <1>   0.0800 
 34 H       -6.2860    -1.2930     2.6960 H     1 <1>   0.0800 
 35 H        1.0670    -3.7880     2.4410 H     1 <1>   0.1500 
 36 H       -8.2350    -2.6980    -1.6320 H     1 <1>   0.0800 
 37 H       -9.0470    -1.9480    -0.2930 H     1 <1>   0.0800 
 38 H       -7.8540    -0.2140     1.1120 H     1 <1>   0.0800 
 39 H       -6.2180     0.2360     0.7450 H     1 <1>   0.0800 
 40 H       -7.0670    -3.6280     2.3800 H     1 <1>   0.0800 
 41 H       -8.3570    -2.5040     2.0880 H     1 <1>   0.0800 
 42 H        2.1640    -1.8610     1.3640 H     1 <1>   0.1500 
 43 H        1.1260    -0.5280    -1.9910 H     1 <1>   0.0800 
 44 H        2.6150    -0.9480    -1.1820 H     1 <1>   0.0800 
 45 H        1.4730     0.1230    -0.4100 H     1 <1>   0.0800 
@<TRIPOS>BOND
  1   1   2  2   
  2   2   3  1   
  3   2   4  1   
  4   3   5  1   
  5   4   6  1   
  6   4  22  1   
  7   4  23  1   
  8   5   7  1   
  9   5   8  1   
 10   5   9  1   
 11   6  10  ar  
 12   6  11  ar  
 13   7  12  1   
 14   7  24  1   
 15   7  25  1   
 16   8  13  1   
 17   8  26  1   
 18   8  27  1   
 19   9  14  1   
 20   9  28  1   
 21   9  29  1   
 22  10  15  ar  
 23  10  30  1   
 24  11  16  ar  
 25  11  31  1   
 26  12  17  1   
 27  12  18  1   
 28  12  32  1   
 29  13  17  1   
 30  13  19  1   
 31  13  33  1   
 32  14  18  1   
 33  14  19  1   
 34  14  34  1   
 35  15  20  ar  
 36  15  21  1   
 37  16  20  ar  
 38  16  35  1   
 39  17  36  1   
 40  17  37  1   
 41  18  38  1   
 42  18  39  1   
 43  19  40  1   
 44  19  41  1   
 45  20  42  1   
 46  21  43  1   
 47  21  44  1   
 48  21  45  1   
@<TRIPOS>SUBSTRUCTURE
  1 ****   3 GROUP 4 **** **** 0

# MOE 2024.06 (io_trps.svl 2023.06)
