@<TRIPOS>MOLECULE
NONAME
29 29 1 0 0 
SMALL
USER_CHARGES


@<TRIPOS>ATOM
  1 BR      -0.6270    -0.3050    -0.3380 Br    1 <1>  -0.1110 
  2 C       -0.4590     1.6160    -0.3250 C.ar  1 <1>   0.1110 
  3 C       -1.4970     2.3890    -0.8160 C.ar  1 <1>  -0.1440 
  4 C        0.7000     2.1590     0.1910 C.ar  1 <1>  -0.1500 
  5 C       -1.3410     3.7650    -0.7870 C.ar  1 <1>  -0.1500 
  6 C       -2.7640     1.7650    -1.3620 C.3   1 <1>   0.4870 
  7 C        0.8460     3.5440     0.2300 C.ar  1 <1>   0.0830 
  8 C       -0.1920     4.3520    -0.2750 C.ar  1 <1>   0.0830 
  9 N       -3.6050     1.3020    -0.2260 N.4   1 <1>  -0.9060 
 10 O        1.9630     4.1160     0.7630 O.3   1 <1>  -0.3620 
 11 O       -0.2100     5.7140    -0.3170 O.3   1 <1>  -0.3620 
 12 C       -4.0490     2.4120     0.6730 C.3   1 <1>   0.2630 
 13 C        3.0410     3.3580     1.2700 C.3   1 <1>   0.0400 
 14 C        0.9700     6.4880    -0.3080 C.3   1 <1>   0.0400 
 15 H        1.4590     1.4930     0.5540 H     1 <1>   0.1500 
 16 H       -2.1070     4.4200    -1.1660 H     1 <1>   0.1500 
 17 H       -2.5080     0.9320    -1.9980 H     1 <1>   0.0800 
 18 H       -3.3020     2.4890    -1.9530 H     1 <1>   0.0800 
 19 H       -3.0410     0.6320     0.3160 H     1 <1>   0.4500 
 20 H       -4.4180     0.7870    -0.5870 H     1 <1>   0.4500 
 21 H       -3.1950     2.9210     1.0920 H     1 <1>   0.0800 
 22 H       -4.6450     2.0230     1.4830 H     1 <1>   0.0800 
 23 H       -4.6400     3.1280     0.1240 H     1 <1>   0.0800 
 24 H        3.7940     4.0420     1.6190 H     1 <1>   0.0800 
 25 H        3.4430     2.7470     0.4820 H     1 <1>   0.0800 
 26 H        2.6910     2.7550     2.0900 H     1 <1>   0.0800 
 27 H        0.7200     7.4860    -0.6190 H     1 <1>   0.0800 
 28 H        1.6810     6.0570    -0.9910 H     1 <1>   0.0800 
 29 H        1.3650     6.5100     0.6920 H     1 <1>   0.0800 
@<TRIPOS>BOND
  1   1   2  1   
  2   2   3  ar  
  3   2   4  ar  
  4   3   5  ar  
  5   3   6  1   
  6   4   7  ar  
  7   4  15  1   
  8   5   8  ar  
  9   5  16  1   
 10   6   9  1   
 11   6  17  1   
 12   6  18  1   
 13   7   8  ar  
 14   7  10  1   
 15   8  11  1   
 16   9  12  1   
 17   9  19  1   
 18   9  20  1   
 19  10  13  1   
 20  11  14  1   
 21  12  21  1   
 22  12  22  1   
 23  12  23  1   
 24  13  24  1   
 25  13  25  1   
 26  13  26  1   
 27  14  27  1   
 28  14  28  1   
 29  14  29  1   
@<TRIPOS>SUBSTRUCTURE
  1 ****   5 GROUP 4 **** **** 0

# MOE 2024.06 (io_trps.svl 2023.06)
