@<TRIPOS>MOLECULE
NONAME
46 48 1 0 0 
SMALL
USER_CHARGES


@<TRIPOS>ATOM
  1 CL      -1.5570     1.3440    -1.3690 Cl    1 <1>  -0.1770 
  2 C       -2.9020     0.3280    -0.9090 C.ar  1 <1>   0.1770 
  3 C       -4.1900     0.6620    -1.2890 C.ar  1 <1>   0.1600 
  4 C       -2.6760    -0.8090    -0.1650 C.ar  1 <1>  -0.1500 
  5 N       -5.2680    -0.0480    -0.9840 N.ar  1 <1>  -0.6200 
  6 C       -3.7890    -1.5540     0.1560 C.ar  1 <1>  -0.1500 
  7 C       -5.0570    -1.1440    -0.2650 C.ar  1 <1>   0.4270 
  8 N       -6.2130    -1.8360     0.0170 N.am  1 <1>  -0.5470 
  9 C       -6.5160    -2.8700     0.8490 C.2   1 <1>   0.5690 
 10 O       -5.7090    -3.4360     1.5440 O.2   1 <1>  -0.5700 
 11 C       -7.9790    -3.3180     0.8850 C.3   1 <1>   0.1710 
 12 N       -8.9400    -2.2750     0.4240 N.3   1 <1>  -0.8100 
 13 C      -10.2630    -2.8710     0.1190 C.3   1 <1>   0.1100 
 14 C       -9.1060    -1.2050     1.4440 C.3   1 <1>   0.1100 
 15 C      -11.2900    -1.8160    -0.3360 C.3   1 <1>   0.2090 
 16 C      -10.1180    -0.1300     1.0060 C.3   1 <1>   0.2090 
 17 N      -11.4390    -0.7470     0.6930 N.pl3 1 <1>  -0.8380 
 18 C      -12.4920     0.1540     0.4800 C.ar  1 <1>   0.1000 
 19 C      -12.5620     1.0600    -0.5950 C.ar  1 <1>   0.0830 
 20 C      -13.5260     0.1370     1.4040 C.ar  1 <1>  -0.1500 
 21 O      -11.5390     1.0750    -1.5060 O.3   1 <1>  -0.3620 
 22 C      -13.6590     1.9110    -0.7060 C.ar  1 <1>  -0.1500 
 23 C      -14.6120     0.9850     1.2870 C.ar  1 <1>  -0.1500 
 24 C      -11.5220     1.9810    -2.5850 C.3   1 <1>   0.0400 
 25 C      -14.6780     1.8740     0.2310 C.ar  1 <1>  -0.1500 
 26 H       -4.3340     1.5560    -1.8700 H     1 <1>   0.1500 
 27 H       -1.6840    -1.0900     0.1400 H     1 <1>   0.1500 
 28 H       -3.6760    -2.4540     0.7310 H     1 <1>   0.1500 
 29 H       -7.0410    -1.4350    -0.4320 H     1 <1>   0.3700 
 30 H       -8.2250    -3.6280     1.8860 H     1 <1>   0.0800 
 31 H       -8.0580    -4.1790     0.2460 H     1 <1>   0.0800 
 32 H      -10.6510    -3.3690     0.9920 H     1 <1>   0.0800 
 33 H      -10.1530    -3.6010    -0.6640 H     1 <1>   0.0800 
 34 H       -8.1610    -0.7270     1.6300 H     1 <1>   0.0800 
 35 H       -9.4500    -1.6340     2.3700 H     1 <1>   0.0800 
 36 H      -12.2440    -2.2850    -0.4980 H     1 <1>   0.0800 
 37 H      -10.9640    -1.3850    -1.2670 H     1 <1>   0.0800 
 38 H       -9.7380     0.3810     0.1390 H     1 <1>   0.0800 
 39 H      -10.2440     0.5920     1.7930 H     1 <1>   0.0800 
 40 H      -13.4670    -0.5560     2.2230 H     1 <1>   0.1500 
 41 H      -13.7440     2.6120    -1.5120 H     1 <1>   0.1500 
 42 H      -15.4010     0.9520     2.0180 H     1 <1>   0.1500 
 43 H      -10.6200     1.8140    -3.1450 H     1 <1>   0.0800 
 44 H      -11.5320     2.9840    -2.1990 H     1 <1>   0.0800 
 45 H      -12.3780     1.7970    -3.2100 H     1 <1>   0.0800 
 46 H      -15.5220     2.5350     0.1370 H     1 <1>   0.1500 
@<TRIPOS>BOND
  1   1   2  1   
  2   2   3  ar  
  3   2   4  ar  
  4   3   5  ar  
  5   3  26  1   
  6   4   6  ar  
  7   4  27  1   
  8   5   7  ar  
  9   6   7  ar  
 10   6  28  1   
 11   7   8  1   
 12   8   9  am  
 13   8  29  1   
 14   9  10  2   
 15   9  11  1   
 16  11  12  1   
 17  11  30  1   
 18  11  31  1   
 19  12  13  1   
 20  12  14  1   
 21  13  15  1   
 22  13  32  1   
 23  13  33  1   
 24  14  16  1   
 25  14  34  1   
 26  14  35  1   
 27  15  17  1   
 28  15  36  1   
 29  15  37  1   
 30  16  17  1   
 31  16  38  1   
 32  16  39  1   
 33  17  18  1   
 34  18  19  ar  
 35  18  20  ar  
 36  19  21  1   
 37  19  22  ar  
 38  20  23  ar  
 39  20  40  1   
 40  21  24  1   
 41  22  25  ar  
 42  22  41  1   
 43  23  25  ar  
 44  23  42  1   
 45  24  43  1   
 46  24  44  1   
 47  24  45  1   
 48  25  46  1   
@<TRIPOS>SUBSTRUCTURE
  1 ****  14 GROUP 4 **** **** 0

# MOE 2024.06 (io_trps.svl 2023.06)
