@<TRIPOS>MOLECULE
NONAME
31 33 1 0 0 
SMALL
USER_CHARGES


@<TRIPOS>ATOM
  1 O       -0.5160     0.0570    -0.1440 O.3   1 <1>  -0.5680 
  2 C       -1.2270     1.2540    -0.1460 C.3   1 <1>   0.1080 
  3 C       -1.1970    -1.0120    -0.7230 C.3   1 <1>   0.1080 
  4 C       -2.5050     1.1000     0.6930 C.3   1 <1>   0.1560 
  5 C       -2.4940    -1.3100     0.0490 C.3   1 <1>   0.1560 
  6 N       -3.3240    -0.0740     0.2390 N.pl3 1 <1>  -0.5990 
  7 C       -4.6740    -0.0350     0.0830 C.cat 1 <1>   1.0680 
  8 N       -5.3500     1.1170     0.0050 N.pl3 1 <1>  -0.7060 
  9 N       -5.5450    -1.0760    -0.0070 N.pl3 1 <1>  -0.5190 
 10 C       -6.6890     0.8420    -0.1520 C.ar  1 <1>   0.2990 
 11 N       -5.3330    -2.5310     0.1580 N.pl3 1 <1>  -0.4680 
 12 C       -6.8200    -0.5350    -0.1600 C.ar  1 <1>   0.2990 
 13 C       -7.7960     1.6710    -0.2860 C.ar  1 <1>  -0.1210 
 14 C       -8.0750    -1.1220    -0.3030 C.ar  1 <1>  -0.1210 
 15 C       -9.0400     1.0880    -0.4270 C.ar  1 <1>  -0.1620 
 16 C       -9.1790    -0.3020    -0.4360 C.ar  1 <1>  -0.1620 
 17 H       -1.4540     1.5230    -1.1630 H     1 <1>   0.0670 
 18 H       -0.5910     2.0110     0.2790 H     1 <1>   0.0670 
 19 H       -0.5450    -1.8680    -0.6970 H     1 <1>   0.0670 
 20 H       -1.4060    -0.7720    -1.7520 H     1 <1>   0.0670 
 21 H       -3.0650     2.0150     0.6420 H     1 <1>   0.0670 
 22 H       -2.2200     0.9480     1.7200 H     1 <1>   0.0670 
 23 H       -2.2450    -1.7230     1.0110 H     1 <1>   0.0670 
 24 H       -3.0320    -2.0520    -0.5080 H     1 <1>   0.0670 
 25 H       -4.9280     2.0400     0.0220 H     1 <1>   0.4410 
 26 H       -5.7120    -3.0270    -0.6650 H     1 <1>   0.3500 
 27 H       -5.8670    -2.8630     0.9780 H     1 <1>   0.3500 
 28 H       -7.6830     2.7410    -0.2780 H     1 <1>   0.1380 
 29 H       -8.1810    -2.1910    -0.3100 H     1 <1>   0.1380 
 30 H       -9.9190     1.7050    -0.5330 H     1 <1>   0.1380 
 31 H      -10.1620    -0.7300    -0.5480 H     1 <1>   0.1380 
@<TRIPOS>BOND
  1   1   2  1   
  2   1   3  1   
  3   2   4  1   
  4   2  17  1   
  5   2  18  1   
  6   3   5  1   
  7   3  19  1   
  8   3  20  1   
  9   4   6  1   
 10   4  21  1   
 11   4  22  1   
 12   5   6  1   
 13   5  23  1   
 14   5  24  1   
 15   6   7  ar  
 16   7   8  ar  
 17   7   9  ar  
 18   8  10  1   
 19   8  25  1   
 20   9  11  1   
 21   9  12  1   
 22  10  12  ar  
 23  10  13  ar  
 24  11  26  1   
 25  11  27  1   
 26  12  14  ar  
 27  13  15  ar  
 28  13  28  1   
 29  14  16  ar  
 30  14  29  1   
 31  15  16  ar  
 32  15  30  1   
 33  16  31  1   
@<TRIPOS>SUBSTRUCTURE
  1 ****   7 GROUP 4 **** **** 0

# MOE 2024.06 (io_trps.svl 2023.06)
