@<TRIPOS>MOLECULE
NONAME
42 44 1 0 0 
SMALL
USER_CHARGES


@<TRIPOS>ATOM
  1 O       -1.2850     0.5400    -0.3210 O.3   1 <1>  -0.3630 
  2 C       -0.8930     1.8300    -0.1300 C.ar  1 <1>   0.0830 
  3 C       -0.7200    -0.2630    -1.3330 C.3   1 <1>   0.0400 
  4 C       -1.6110     2.6010     0.7810 C.ar  1 <1>  -0.1440 
  5 C        0.1890     2.3920    -0.8050 C.ar  1 <1>  -0.1500 
  6 C       -1.2350     3.9170     1.0040 C.ar  1 <1>  -0.1500 
  7 C       -2.8010     2.0330     1.5430 C.3   1 <1>   0.3530 
  8 C        0.5540     3.7070    -0.5760 C.ar  1 <1>  -0.1500 
  9 C       -0.1600     4.4780     0.3350 C.ar  1 <1>   0.0830 
 10 N       -4.0030     2.8230     1.2000 N.pl3 1 <1>  -0.8690 
 11 O        0.1300     5.7740     0.6210 O.3   1 <1>  -0.3630 
 12 C       -5.1960     2.1320     1.0440 C.ar  1 <1>   0.1000 
 13 C        1.2140     6.4320     0.0050 C.3   1 <1>   0.0400 
 14 C       -5.8840     2.1980    -0.1630 C.ar  1 <1>  -0.1500 
 15 C       -5.7250     1.3690     2.0830 C.ar  1 <1>  -0.1500 
 16 C       -7.0650     1.4990    -0.3160 C.ar  1 <1>  -0.1430 
 17 C       -6.9100     0.6700     1.9240 C.ar  1 <1>  -0.1500 
 18 C       -7.5720     0.7430     0.7130 C.ar  1 <1>  -0.1430 
 19 C       -7.9530     1.4320    -1.5330 C.3   1 <1>  -0.0170 
 20 C       -8.8640     0.0740     0.3170 C.3   1 <1>  -0.0170 
 21 C       -9.2380     0.7720    -1.0020 C.3   1 <1>  -0.1600 
 22 H       -1.2330    -1.2080    -1.3330 H     1 <1>   0.0800 
 23 H        0.3230    -0.4140    -1.1190 H     1 <1>   0.0800 
 24 H       -0.8550     0.2250    -2.2820 H     1 <1>   0.0800 
 25 H        0.7610     1.8220    -1.5100 H     1 <1>   0.1500 
 26 H       -1.7810     4.5240     1.7050 H     1 <1>   0.1500 
 27 H       -2.6200     2.1100     2.6010 H     1 <1>   0.0800 
 28 H       -2.9670     0.9960     1.3050 H     1 <1>   0.0800 
 29 H        1.3910     4.1100    -1.1110 H     1 <1>   0.1500 
 30 H       -3.7720     3.4110     0.3930 H     1 <1>   0.4000 
 31 H        1.2540     7.4370     0.3850 H     1 <1>   0.0800 
 32 H        1.0520     6.4510    -1.0590 H     1 <1>   0.0800 
 33 H        2.1230     5.9120     0.2490 H     1 <1>   0.0800 
 34 H       -5.4920     2.7860    -0.9700 H     1 <1>   0.1500 
 35 H       -5.2020     1.3330     3.0200 H     1 <1>   0.1500 
 36 H       -7.3100     0.0820     2.7300 H     1 <1>   0.1500 
 37 H       -7.4880     0.8130    -2.2800 H     1 <1>   0.0800 
 38 H       -8.1470     2.4110    -1.9340 H     1 <1>   0.0800 
 39 H       -9.6240     0.2080     1.0660 H     1 <1>   0.0800 
 40 H       -8.6870    -0.9750     0.1560 H     1 <1>   0.0800 
 41 H       -9.6580     0.0840    -1.7140 H     1 <1>   0.0800 
 42 H       -9.9590     1.5430    -0.7910 H     1 <1>   0.0800 
@<TRIPOS>BOND
  1   1   2  1   
  2   1   3  1   
  3   2   4  ar  
  4   2   5  ar  
  5   3  22  1   
  6   3  23  1   
  7   3  24  1   
  8   4   6  ar  
  9   4   7  1   
 10   5   8  ar  
 11   5  25  1   
 12   6   9  ar  
 13   6  26  1   
 14   7  10  1   
 15   7  27  1   
 16   7  28  1   
 17   8   9  ar  
 18   8  29  1   
 19   9  11  1   
 20  10  12  1   
 21  10  30  1   
 22  11  13  1   
 23  12  14  ar  
 24  12  15  ar  
 25  13  31  1   
 26  13  32  1   
 27  13  33  1   
 28  14  16  ar  
 29  14  34  1   
 30  15  17  ar  
 31  15  35  1   
 32  16  18  ar  
 33  16  19  1   
 34  17  18  ar  
 35  17  36  1   
 36  18  20  1   
 37  19  21  1   
 38  19  37  1   
 39  19  38  1   
 40  20  21  1   
 41  20  39  1   
 42  20  40  1   
 43  21  41  1   
 44  21  42  1   
@<TRIPOS>SUBSTRUCTURE
  1 ****  10 GROUP 4 **** **** 0

# MOE 2024.06 (io_trps.svl 2023.06)
