@<TRIPOS>MOLECULE
NONAME
44 45 1 0 0 
SMALL
USER_CHARGES


@<TRIPOS>ATOM
  1 O       -0.4480     0.3530     0.1350 O.3   1 <1>  -0.3630 
  2 C       -1.5760    -0.2710    -0.3010 C.ar  1 <1>   0.0830 
  3 C        0.7310     0.0590    -0.5800 C.3   1 <1>   0.0400 
  4 C       -2.5210     0.4050    -1.0850 C.ar  1 <1>   0.0830 
  5 C       -1.7890    -1.6090     0.0420 C.ar  1 <1>   0.0830 
  6 O       -2.4650     1.7100    -1.4710 O.3   1 <1>  -0.3630 
  7 C       -3.6390    -0.2760    -1.5350 C.ar  1 <1>  -0.1500 
  8 O       -0.8570    -2.2310     0.8220 O.3   1 <1>  -0.3630 
  9 C       -2.9310    -2.2650    -0.4100 C.ar  1 <1>  -0.1500 
 10 C       -1.7760     2.6800    -0.7090 C.3   1 <1>   0.0400 
 11 C       -3.8600    -1.6000    -1.1950 C.ar  1 <1>  -0.1430 
 12 C       -0.8950    -3.6120     1.1020 C.3   1 <1>   0.0400 
 13 C       -5.1190    -2.2990    -1.6700 C.3   1 <1>   0.4860 
 14 N       -6.1010    -2.3140    -0.5520 N.4   1 <1>  -0.9590 
 15 C       -7.2670    -3.2050    -0.8760 C.3   1 <1>   0.3430 
 16 C       -6.5400    -0.9320    -0.1840 C.3   1 <1>   0.3430 
 17 C       -8.2950    -3.2650     0.2700 C.3   1 <1>   0.2000 
 18 C       -7.4990    -0.9870     1.0080 C.3   1 <1>  -0.1600 
 19 O       -9.4090    -3.9260    -0.2000 O.3   1 <1>  -0.6800 
 20 C       -8.7270    -1.8680     0.7230 C.3   1 <1>  -0.1600 
 21 H        0.5810     0.3070    -1.6160 H     1 <1>   0.0800 
 22 H        1.5290     0.6500    -0.1690 H     1 <1>   0.0800 
 23 H        0.9580    -0.9870    -0.4730 H     1 <1>   0.0800 
 24 H       -4.3340     0.2640    -2.1550 H     1 <1>   0.1500 
 25 H       -3.0990    -3.2940    -0.1520 H     1 <1>   0.1500 
 26 H       -2.1270     3.6520    -1.0050 H     1 <1>   0.0800 
 27 H       -0.7240     2.5990    -0.9110 H     1 <1>   0.0800 
 28 H       -1.9770     2.5180     0.3350 H     1 <1>   0.0800 
 29 H       -0.0170    -3.8590     1.6720 H     1 <1>   0.0800 
 30 H       -1.7740    -3.8290     1.6820 H     1 <1>   0.0800 
 31 H       -0.8920    -4.1590     0.1760 H     1 <1>   0.0800 
 32 H       -4.8750    -3.3060    -1.9660 H     1 <1>   0.0800 
 33 H       -5.5290    -1.7820    -2.5230 H     1 <1>   0.0800 
 34 H       -5.6070    -2.6940     0.2650 H     1 <1>   0.4500 
 35 H       -6.9220    -4.2050    -1.0830 H     1 <1>   0.0800 
 36 H       -7.7680    -2.8290    -1.7530 H     1 <1>   0.0800 
 37 H       -7.0360    -0.4700    -1.0230 H     1 <1>   0.0800 
 38 H       -5.6840    -0.3270     0.0760 H     1 <1>   0.0800 
 39 H       -7.8960    -3.8320     1.0940 H     1 <1>   0.0800 
 40 H       -7.8280     0.0130     1.2340 H     1 <1>   0.0800 
 41 H       -6.9730    -1.3510     1.8740 H     1 <1>   0.0800 
 42 H      -10.0990    -4.0000     0.4930 H     1 <1>   0.4000 
 43 H       -9.3300    -1.9400     1.6120 H     1 <1>   0.0800 
 44 H       -9.3160    -1.4040    -0.0510 H     1 <1>   0.0800 
@<TRIPOS>BOND
  1   1   2  1   
  2   1   3  1   
  3   2   4  ar  
  4   2   5  ar  
  5   3  21  1   
  6   3  22  1   
  7   3  23  1   
  8   4   6  1   
  9   4   7  ar  
 10   5   8  1   
 11   5   9  ar  
 12   6  10  1   
 13   7  11  ar  
 14   7  24  1   
 15   8  12  1   
 16   9  11  ar  
 17   9  25  1   
 18  10  26  1   
 19  10  27  1   
 20  10  28  1   
 21  11  13  1   
 22  12  29  1   
 23  12  30  1   
 24  12  31  1   
 25  13  14  1   
 26  13  32  1   
 27  13  33  1   
 28  14  15  1   
 29  14  16  1   
 30  14  34  1   
 31  15  17  1   
 32  15  35  1   
 33  15  36  1   
 34  16  18  1   
 35  16  37  1   
 36  16  38  1   
 37  17  19  1   
 38  17  20  1   
 39  17  39  1   
 40  18  20  1   
 41  18  40  1   
 42  18  41  1   
 43  19  42  1   
 44  20  43  1   
 45  20  44  1   
@<TRIPOS>SUBSTRUCTURE
  1 ****  11 GROUP 4 **** **** 0

# MOE 2024.06 (io_trps.svl 2023.06)
