@<TRIPOS>MOLECULE
NONAME
34 34 1 0 0 
SMALL
USER_CHARGES


@<TRIPOS>ATOM
  1 CL      -2.3210     1.3340     2.1150 Cl    1 <1>  -0.1770 
  2 C       -1.2030     2.2780     1.1570 C.ar  1 <1>   0.1770 
  3 C       -1.5160     2.5830    -0.1600 C.ar  1 <1>  -0.1440 
  4 C       -0.0280     2.7100     1.7410 C.ar  1 <1>  -0.1500 
  5 C       -0.6170     3.3380    -0.9000 C.ar  1 <1>  -0.1500 
  6 C       -2.8130     2.0960    -0.7720 C.3   1 <1>   0.4870 
  7 C        0.8590     3.4660     0.9950 C.ar  1 <1>  -0.1500 
  8 C        0.5630     3.7770    -0.3220 C.ar  1 <1>  -0.1500 
  9 N       -3.9570     2.8050    -0.1270 N.4   1 <1>  -0.9590 
 10 C       -5.2690     2.1560    -0.4550 C.3   1 <1>   0.3430 
 11 C       -3.9470     4.2570    -0.4660 C.3   1 <1>   0.3430 
 12 C       -5.4520     0.8030     0.2500 C.3   1 <1>   0.1200 
 13 C       -4.7730     5.0430     0.5530 C.3   1 <1>  -0.1600 
 14 O       -6.6580     0.2740    -0.1700 O.3   1 <1>  -0.6800 
 15 C       -4.6810     6.5490     0.2830 C.3   1 <1>  -0.2400 
 16 H        0.1920     2.4600     2.7640 H     1 <1>   0.1500 
 17 H       -0.8150     3.5910    -1.9290 H     1 <1>   0.1500 
 18 H       -2.8930     1.0330    -0.6090 H     1 <1>   0.0800 
 19 H       -2.8140     2.2760    -1.8350 H     1 <1>   0.0800 
 20 H        1.7800     3.8100     1.4370 H     1 <1>   0.1500 
 21 H        1.2620     4.3630    -0.8980 H     1 <1>   0.1500 
 22 H       -3.7990     2.7330     0.8890 H     1 <1>   0.4500 
 23 H       -5.3480     2.0110    -1.5190 H     1 <1>   0.0800 
 24 H       -6.0780     2.7960    -0.1440 H     1 <1>   0.0800 
 25 H       -4.3380     4.4130    -1.4600 H     1 <1>   0.0800 
 26 H       -2.9360     4.6310    -0.4400 H     1 <1>   0.0800 
 27 H       -5.4950     0.9270     1.3190 H     1 <1>   0.0800 
 28 H       -4.6780     0.1050    -0.0150 H     1 <1>   0.0800 
 29 H       -4.4040     4.8530     1.5460 H     1 <1>   0.0800 
 30 H       -5.8090     4.7550     0.5060 H     1 <1>   0.0800 
 31 H       -6.8560    -0.5780     0.2750 H     1 <1>   0.4000 
 32 H       -3.6620     6.8890     0.3500 H     1 <1>   0.0800 
 33 H       -5.2630     7.0900     1.0100 H     1 <1>   0.0800 
 34 H       -5.0620     6.7890    -0.6950 H     1 <1>   0.0800 
@<TRIPOS>BOND
  1   1   2  1   
  2   2   3  ar  
  3   2   4  ar  
  4   3   5  ar  
  5   3   6  1   
  6   4   7  ar  
  7   4  16  1   
  8   5   8  ar  
  9   5  17  1   
 10   6   9  1   
 11   6  18  1   
 12   6  19  1   
 13   7   8  ar  
 14   7  20  1   
 15   8  21  1   
 16   9  10  1   
 17   9  11  1   
 18   9  22  1   
 19  10  12  1   
 20  10  23  1   
 21  10  24  1   
 22  11  13  1   
 23  11  25  1   
 24  11  26  1   
 25  12  14  1   
 26  12  27  1   
 27  12  28  1   
 28  13  15  1   
 29  13  29  1   
 30  13  30  1   
 31  14  31  1   
 32  15  32  1   
 33  15  33  1   
 34  15  34  1   
@<TRIPOS>SUBSTRUCTURE
  1 ****   9 GROUP 4 **** **** 0

# MOE 2024.06 (io_trps.svl 2023.06)
