@<TRIPOS>MOLECULE
NONAME
39 40 1 0 0 
SMALL
USER_CHARGES


@<TRIPOS>ATOM
  1 O       -0.1370     0.6350     1.4250 O.2   1 <1>  -0.5700 
  2 C       -0.7050     1.6680     1.1370 C.2   1 <1>   0.7060 
  3 O       -2.0280     1.6430     0.9720 O.3   1 <1>  -0.2320 
  4 C       -0.0310     2.9110     0.9590 C.2   1 <1>  -0.1360 
  5 C       -2.7470     2.7480     0.6650 C.ar  1 <1>   0.0830 
  6 C       -0.6860     4.0510     0.6330 C.2   1 <1>  -0.1670 
  7 C       -2.1170     3.9910     0.4910 C.ar  1 <1>   0.0280 
  8 C       -4.1200     2.6120     0.5350 C.ar  1 <1>  -0.1500 
  9 C        0.0310     5.3870     0.4340 C.3   1 <1>   0.2480 
 10 C       -2.9360     5.0850     0.1960 C.ar  1 <1>  -0.1500 
 11 C       -4.9030     3.7080     0.2350 C.ar  1 <1>  -0.1500 
 12 N        1.4800     5.2120     0.2110 N.3   1 <1>  -0.8100 
 13 C       -4.3050     4.9550     0.0660 C.ar  1 <1>   0.0830 
 14 C        2.2230     6.4460     0.5210 C.3   1 <1>   0.1100 
 15 C        1.7370     4.7460    -1.1650 C.3   1 <1>   0.0300 
 16 O       -4.9960     6.0870    -0.2260 O.3   1 <1>  -0.3630 
 17 C        3.6960     6.1380     0.8000 C.3   1 <1>   0.0400 
 18 C       -6.3960     6.0710    -0.3780 C.3   1 <1>   0.1200 
 19 C        4.3980     7.3710     1.2380 C.1   1 <1>   0.3570 
 20 C       -6.8520     7.4910    -0.6970 C.3   1 <1>  -0.2400 
 21 N        4.9190     8.3260     1.5680 N.1   1 <1>  -0.5570 
 22 H        1.0320     2.8710     1.1030 H     1 <1>   0.1500 
 23 H       -4.5680     1.6430     0.6720 H     1 <1>   0.1500 
 24 H       -0.1370     5.9800     1.3170 H     1 <1>   0.0800 
 25 H       -0.3870     5.9150    -0.4070 H     1 <1>   0.0800 
 26 H       -2.5210     6.0650     0.0640 H     1 <1>   0.1500 
 27 H       -5.9650     3.5760     0.1380 H     1 <1>   0.1500 
 28 H        1.8090     6.8990     1.4070 H     1 <1>   0.0800 
 29 H        2.1300     7.1530    -0.2880 H     1 <1>   0.0800 
 30 H        1.1630     3.8600    -1.3730 H     1 <1>   0.0800 
 31 H        2.7760     4.4990    -1.2920 H     1 <1>   0.0800 
 32 H        1.4670     5.5060    -1.8790 H     1 <1>   0.0800 
 33 H        4.1820     5.7680    -0.0810 H     1 <1>   0.0800 
 34 H        3.7700     5.4040     1.5810 H     1 <1>   0.0800 
 35 H       -6.8360     5.7290     0.5430 H     1 <1>   0.0800 
 36 H       -6.6440     5.4020    -1.1840 H     1 <1>   0.0800 
 37 H       -6.5850     8.1540     0.1060 H     1 <1>   0.0800 
 38 H       -7.9190     7.5130    -0.8200 H     1 <1>   0.0800 
 39 H       -6.3950     7.8300    -1.6100 H     1 <1>   0.0800 
@<TRIPOS>BOND
  1   1   2  2   
  2   2   3  1   
  3   2   4  1   
  4   3   5  1   
  5   4   6  2   
  6   4  22  1   
  7   5   7  ar  
  8   5   8  ar  
  9   6   7  1   
 10   6   9  1   
 11   7  10  ar  
 12   8  11  ar  
 13   8  23  1   
 14   9  12  1   
 15   9  24  1   
 16   9  25  1   
 17  10  13  ar  
 18  10  26  1   
 19  11  13  ar  
 20  11  27  1   
 21  12  14  1   
 22  12  15  1   
 23  13  16  1   
 24  14  17  1   
 25  14  28  1   
 26  14  29  1   
 27  15  30  1   
 28  15  31  1   
 29  15  32  1   
 30  16  18  1   
 31  17  19  1   
 32  17  33  1   
 33  17  34  1   
 34  18  20  1   
 35  18  35  1   
 36  18  36  1   
 37  19  21  3   
 38  20  37  1   
 39  20  38  1   
 40  20  39  1   
@<TRIPOS>SUBSTRUCTURE
  1 ****   6 GROUP 4 **** **** 0

# MOE 2024.06 (io_trps.svl 2023.06)
