@<TRIPOS>MOLECULE
NONAME
45 47 1 0 0 
SMALL
USER_CHARGES


@<TRIPOS>ATOM
  1 O       -0.3510    -0.0060    -0.3430 O.2   1 <1>  -0.5700 
  2 C       -0.8770     0.9840     0.1300 C.2   1 <1>   0.6900 
  3 N       -2.1950     0.9480     0.5050 N.am  1 <1>  -0.6600 
  4 N       -0.1850     2.1540     0.2690 N.am  1 <1>  -0.5470 
  5 C       -3.0870    -0.1840     0.0980 C.3   1 <1>   0.1400 
  6 C       -2.8620     1.9120     1.4360 C.3   1 <1>   0.1400 
  7 C        1.1740     2.4580     0.1070 C.ar  1 <1>   0.1170 
  8 C       -4.4220     0.3320    -0.4690 C.3   1 <1>   0.2090 
  9 C       -4.1920     2.4210     0.8550 C.3   1 <1>   0.2090 
 10 C        1.5380     3.7700    -0.1700 C.ar  1 <1>  -0.1500 
 11 C        2.1790     1.5050     0.2350 C.ar  1 <1>  -0.1500 
 12 N       -5.0850     1.2850     0.4710 N.pl3 1 <1>  -0.8380 
 13 C        2.8660     4.1290    -0.3200 C.ar  1 <1>  -0.1440 
 14 C        3.5120     1.8480     0.0850 C.ar  1 <1>  -0.1440 
 15 C       -6.4120     1.5720     0.2160 C.ar  1 <1>   0.4100 
 16 C        3.8500     3.1630    -0.1910 C.ar  1 <1>  -0.1500 
 17 C        3.2590     5.5630    -0.6250 C.3   1 <1>  -0.0970 
 18 C        4.5970     0.7960     0.2230 C.3   1 <1>  -0.0970 
 19 N       -6.6910     2.7620    -0.3040 N.ar  1 <1>  -0.6200 
 20 C       -7.3860     0.6170     0.5000 C.ar  1 <1>  -0.1500 
 21 C       -7.9690     3.0000    -0.5490 C.ar  1 <1>   0.1600 
 22 C       -8.7100     0.8770     0.2400 C.ar  1 <1>  -0.1500 
 23 C       -9.0010     2.1120    -0.3030 C.ar  1 <1>  -0.1500 
 24 H       -0.7940     2.9520     0.3900 H     1 <1>   0.3700 
 25 H       -3.2820    -0.8020     0.9550 H     1 <1>   0.0800 
 26 H       -2.6060    -0.7930    -0.6470 H     1 <1>   0.0800 
 27 H       -2.2240     2.7490     1.6530 H     1 <1>   0.0800 
 28 H       -3.0650     1.4100     2.3660 H     1 <1>   0.0800 
 29 H       -5.0730    -0.5030    -0.6590 H     1 <1>   0.0800 
 30 H       -4.2400     0.8300    -1.4060 H     1 <1>   0.0800 
 31 H       -3.9970     3.0290    -0.0110 H     1 <1>   0.0800 
 32 H       -4.6930     3.0330     1.5850 H     1 <1>   0.0800 
 33 H        0.7720     4.5150    -0.2740 H     1 <1>   0.1500 
 34 H        1.9150     0.4880     0.4560 H     1 <1>   0.1500 
 35 H        4.8840     3.4340    -0.3070 H     1 <1>   0.1500 
 36 H        2.4000     6.2090    -0.6200 H     1 <1>   0.0800 
 37 H        3.7220     5.6150    -1.5940 H     1 <1>   0.0800 
 38 H        3.9570     5.9160     0.1130 H     1 <1>   0.0800 
 39 H        4.1870    -0.1900     0.0990 H     1 <1>   0.0800 
 40 H        5.0480     0.8650     1.1960 H     1 <1>   0.0800 
 41 H        5.3550     0.9450    -0.5250 H     1 <1>   0.0800 
 42 H       -7.0810    -0.3180     0.9290 H     1 <1>   0.1500 
 43 H       -8.2070     3.9610    -0.9720 H     1 <1>   0.1500 
 44 H       -9.4830     0.1580     0.4500 H     1 <1>   0.1500 
 45 H      -10.0150     2.3840    -0.5320 H     1 <1>   0.1500 
@<TRIPOS>BOND
  1   1   2  2   
  2   2   3  am  
  3   2   4  am  
  4   3   5  1   
  5   3   6  1   
  6   4   7  1   
  7   4  24  1   
  8   5   8  1   
  9   5  25  1   
 10   5  26  1   
 11   6   9  1   
 12   6  27  1   
 13   6  28  1   
 14   7  10  ar  
 15   7  11  ar  
 16   8  12  1   
 17   8  29  1   
 18   8  30  1   
 19   9  12  1   
 20   9  31  1   
 21   9  32  1   
 22  10  13  ar  
 23  10  33  1   
 24  11  14  ar  
 25  11  34  1   
 26  12  15  1   
 27  13  16  ar  
 28  13  17  1   
 29  14  16  ar  
 30  14  18  1   
 31  15  19  ar  
 32  15  20  ar  
 33  16  35  1   
 34  17  36  1   
 35  17  37  1   
 36  17  38  1   
 37  18  39  1   
 38  18  40  1   
 39  18  41  1   
 40  19  21  ar  
 41  20  22  ar  
 42  20  42  1   
 43  21  23  ar  
 44  21  43  1   
 45  22  23  ar  
 46  22  44  1   
 47  23  45  1   
@<TRIPOS>SUBSTRUCTURE
  1 ****   3 GROUP 4 **** **** 0

# MOE 2024.06 (io_trps.svl 2023.06)
