@<TRIPOS>MOLECULE
NONAME
34 35 1 0 0 
SMALL
USER_CHARGES


@<TRIPOS>ATOM
  1 BR      -4.1100    -3.5650    -2.8260 Br    1 <1>  -0.1110 
  2 C       -2.5200    -3.3060    -1.7630 C.ar  1 <1>   0.1110 
  3 C       -2.6170    -2.6810    -0.5240 C.ar  1 <1>   0.0830 
  4 C       -1.3200    -3.7580    -2.2770 C.ar  1 <1>  -0.1500 
  5 O       -3.8450    -2.2720    -0.1090 O.3   1 <1>  -0.3630 
  6 C       -1.4530    -2.5070     0.2240 C.ar  1 <1>  -0.1500 
  7 C       -0.1830    -3.5720    -1.5140 C.ar  1 <1>   0.1770 
  8 C       -4.0380    -1.6430     1.1520 C.3   1 <1>   0.1810 
  9 C       -0.2380    -2.9540    -0.2750 C.ar  1 <1>  -0.1500 
 10 CL       1.3550    -4.1280    -2.1230 Cl    1 <1>  -0.1770 
 11 C       -5.5040    -1.2990     1.3860 C.2   1 <1>   0.5690 
 12 O       -5.8350    -0.9080     2.4800 O.2   1 <1>  -0.5700 
 13 N       -6.3990    -1.4360     0.3750 N.am  1 <1>  -0.7300 
 14 C       -7.8610    -1.2130     0.4480 C.3   1 <1>   0.1400 
 15 C       -8.6060    -2.3740    -0.2260 C.3   1 <1>   0.2000 
 16 O       -8.1090    -2.5870    -1.5100 O.3   1 <1>  -0.5600 
 17 C      -10.0930    -2.1320    -0.4370 C.3   1 <1>  -0.1600 
 18 C       -9.0460    -3.2640    -2.2840 C.3   1 <1>   0.1200 
 19 C      -10.4080    -3.0050    -1.6410 C.3   1 <1>  -0.1600 
 20 H       -1.2700    -4.2380    -3.2370 H     1 <1>   0.1500 
 21 H       -1.4690    -2.0310     1.1870 H     1 <1>   0.1500 
 22 H       -3.4570    -0.7400     1.1740 H     1 <1>   0.0800 
 23 H       -3.7080    -2.3160     1.9220 H     1 <1>   0.0800 
 24 H        0.6680    -2.8270     0.2910 H     1 <1>   0.1500 
 25 H       -6.0880    -1.8340    -0.5210 H     1 <1>   0.3700 
 26 H       -8.1000    -0.2920    -0.0530 H     1 <1>   0.0800 
 27 H       -8.1700    -1.1290     1.4760 H     1 <1>   0.0800 
 28 H       -8.4550    -3.2820     0.3340 H     1 <1>   0.0800 
 29 H      -10.2650    -1.0970    -0.6780 H     1 <1>   0.0800 
 30 H      -10.6700    -2.3970     0.4310 H     1 <1>   0.0800 
 31 H       -8.7980    -4.3120    -2.2730 H     1 <1>   0.0800 
 32 H       -8.9930    -2.8840    -3.2890 H     1 <1>   0.0800 
 33 H      -11.0760    -2.5150    -2.3260 H     1 <1>   0.0800 
 34 H      -10.8440    -3.9410    -1.3360 H     1 <1>   0.0800 
@<TRIPOS>BOND
  1   1   2  1   
  2   2   3  ar  
  3   2   4  ar  
  4   3   5  1   
  5   3   6  ar  
  6   4   7  ar  
  7   4  20  1   
  8   5   8  1   
  9   6   9  ar  
 10   6  21  1   
 11   7   9  ar  
 12   7  10  1   
 13   8  11  1   
 14   8  22  1   
 15   8  23  1   
 16   9  24  1   
 17  11  12  2   
 18  11  13  am  
 19  13  14  1   
 20  13  25  1   
 21  14  15  1   
 22  14  26  1   
 23  14  27  1   
 24  15  16  1   
 25  15  17  1   
 26  15  28  1   
 27  16  18  1   
 28  17  19  1   
 29  17  29  1   
 30  17  30  1   
 31  18  19  1   
 32  18  31  1   
 33  18  32  1   
 34  19  33  1   
 35  19  34  1   
@<TRIPOS>SUBSTRUCTURE
  1 ****   5 GROUP 4 **** **** 0

# MOE 2024.06 (io_trps.svl 2023.06)
