@<TRIPOS>MOLECULE
NONAME
36 37 1 0 0 
SMALL
USER_CHARGES


@<TRIPOS>ATOM
  1 O        0.7810     0.1740     0.3620 O.2   1 <1>  -0.5700 
  2 C        1.7190     0.8290    -0.0440 C.2   1 <1>   0.6900 
  3 N        1.6830     2.2070     0.0170 N.am  1 <1>  -0.4200 
  4 N        2.8070     0.2050    -0.6180 N.am  1 <1>  -0.4200 
  5 C        2.7220     2.9800    -0.4420 C.2   1 <1>   0.5690 
  6 C        0.4400     2.8630     0.5220 C.3   1 <1>   0.0600 
  7 C        3.8810     0.9150    -1.0960 C.2   1 <1>   0.5690 
  8 C        2.7650    -1.2780    -0.7910 C.3   1 <1>   0.0600 
  9 O        2.5900     4.1580    -0.6650 O.2   1 <1>  -0.5700 
 10 C        4.0830     2.3600    -0.6860 C.3   1 <1>   0.0420 
 11 O        4.6860     0.4250    -1.8490 O.2   1 <1>  -0.5700 
 12 C        5.0550     2.5210     0.5270 C.3   1 <1>   0.2000 
 13 C        4.4680     1.8150     1.7130 C.1   1 <1>   0.3570 
 14 C        5.2790     4.0070     0.9150 C.3   1 <1>  -0.1600 
 15 C        6.4560     1.9120     0.2500 C.3   1 <1>  -0.1600 
 16 N        3.9870     1.2680     2.5850 N.1   1 <1>  -0.5570 
 17 C        6.0360     4.8060    -0.1600 C.3   1 <1>  -0.1600 
 18 C        7.2380     2.6650    -0.8390 C.3   1 <1>  -0.1600 
 19 C        7.3840     4.1510    -0.4880 C.3   1 <1>  -0.1600 
 20 H        0.1180     2.3830     1.4310 H     1 <1>   0.0800 
 21 H       -0.3380     2.7740    -0.2150 H     1 <1>   0.0800 
 22 H        0.6100     3.9050     0.7310 H     1 <1>   0.0800 
 23 H        2.0770    -1.5280    -1.5790 H     1 <1>   0.0800 
 24 H        2.4340    -1.7420     0.1230 H     1 <1>   0.0800 
 25 H        3.7380    -1.6660    -1.0360 H     1 <1>   0.0800 
 26 H        4.4970     2.8630    -1.5380 H     1 <1>   0.0800 
 27 H        5.8590     4.0460     1.8230 H     1 <1>   0.0800 
 28 H        4.3460     4.4970     1.1340 H     1 <1>   0.0800 
 29 H        6.3820     0.8720    -0.0160 H     1 <1>   0.0800 
 30 H        7.0360     1.9500     1.1570 H     1 <1>   0.0800 
 31 H        6.2070     5.8070     0.1970 H     1 <1>   0.0800 
 32 H        5.4410     4.8870    -1.0540 H     1 <1>   0.0800 
 33 H        6.7480     2.5610    -1.7920 H     1 <1>   0.0800 
 34 H        8.2170     2.2280    -0.9390 H     1 <1>   0.0800 
 35 H        8.0350     4.2460     0.3650 H     1 <1>   0.0800 
 36 H        7.8480     4.6720    -1.3080 H     1 <1>   0.0800 
@<TRIPOS>BOND
  1   1   2  2   
  2   2   3  am  
  3   2   4  am  
  4   3   5  am  
  5   3   6  1   
  6   4   7  am  
  7   4   8  1   
  8   5   9  2   
  9   5  10  1   
 10   6  20  1   
 11   6  21  1   
 12   6  22  1   
 13   7  10  1   
 14   7  11  2   
 15   8  23  1   
 16   8  24  1   
 17   8  25  1   
 18  10  12  1   
 19  10  26  1   
 20  12  13  1   
 21  12  14  1   
 22  12  15  1   
 23  13  16  3   
 24  14  17  1   
 25  14  27  1   
 26  14  28  1   
 27  15  18  1   
 28  15  29  1   
 29  15  30  1   
 30  17  19  1   
 31  17  31  1   
 32  17  32  1   
 33  18  19  1   
 34  18  33  1   
 35  18  34  1   
 36  19  35  1   
 37  19  36  1   
@<TRIPOS>SUBSTRUCTURE
  1 ****  10 GROUP 4 **** **** 0

# MOE 2024.06 (io_trps.svl 2023.06)
