@<TRIPOS>MOLECULE
NONAME
33 34 1 0 0 
SMALL
USER_CHARGES


@<TRIPOS>ATOM
  1 O       -0.6370    -0.0530     0.9980 O.2   1 <1>  -0.5700 
  2 C       -1.5640     0.6830     0.7060 C.2   1 <1>   0.6160 
  3 N       -2.7720     0.1020     0.5120 N.am  1 <1>  -0.5470 
  4 C       -1.4580     2.1080     0.5500 C.2   1 <1>  -0.1240 
  5 C       -3.9230     0.8000     0.1830 C.ar  1 <1>   0.1170 
  6 C       -2.5550     2.8450     0.1980 C.2   1 <1>  -0.1670 
  7 C       -0.0670     2.7020     0.7990 C.3   1 <1>  -0.0220 
  8 C       -3.8390     2.1980     0.0250 C.ar  1 <1>   0.0280 
  9 C       -5.1390     0.1260     0.0170 C.ar  1 <1>  -0.1440 
 10 C       -2.5030     4.3560    -0.0450 C.3   1 <1>  -0.1020 
 11 C        0.7530     2.7300    -0.4980 C.3   1 <1>  -0.1600 
 12 C       -5.0240     2.8780    -0.2870 C.ar  1 <1>  -0.1500 
 13 C       -6.2780     0.8380    -0.2980 C.ar  1 <1>  -0.1500 
 14 C       -5.2270    -1.3860     0.1800 C.3   1 <1>  -0.0970 
 15 C        2.1370     3.3480    -0.2750 C.3   1 <1>  -0.2400 
 16 C       -6.2200     2.2140    -0.4470 C.ar  1 <1>  -0.1500 
 17 H       -2.7910    -0.9070     0.6320 H     1 <1>   0.3700 
 18 H        0.4550     2.1160     1.5360 H     1 <1>   0.0800 
 19 H       -0.1430     3.6900     1.2120 H     1 <1>   0.0800 
 20 H       -3.0720     4.8680     0.7110 H     1 <1>   0.0800 
 21 H       -2.9180     4.5840    -1.0100 H     1 <1>   0.0800 
 22 H       -1.5080     4.7540    -0.0400 H     1 <1>   0.0800 
 23 H        0.2250     3.2950    -1.2460 H     1 <1>   0.0800 
 24 H        0.8680     1.7230    -0.8630 H     1 <1>   0.0800 
 25 H       -5.0240     3.9450    -0.4060 H     1 <1>   0.1500 
 26 H       -7.2210     0.3380    -0.4290 H     1 <1>   0.1500 
 27 H       -4.9340    -1.6660     1.1760 H     1 <1>   0.0800 
 28 H       -4.5790    -1.8710    -0.5290 H     1 <1>   0.0800 
 29 H       -6.2300    -1.7350     0.0130 H     1 <1>   0.0800 
 30 H        2.0470     4.3620     0.0720 H     1 <1>   0.0800 
 31 H        2.6910     3.3490    -1.1970 H     1 <1>   0.0800 
 32 H        2.6880     2.7790     0.4530 H     1 <1>   0.0800 
 33 H       -7.1150     2.7600    -0.6890 H     1 <1>   0.1500 
@<TRIPOS>BOND
  1   1   2  2   
  2   2   3  am  
  3   2   4  1   
  4   3   5  1   
  5   3  17  1   
  6   4   6  2   
  7   4   7  1   
  8   5   8  ar  
  9   5   9  ar  
 10   6   8  1   
 11   6  10  1   
 12   7  11  1   
 13   7  18  1   
 14   7  19  1   
 15   8  12  ar  
 16   9  13  ar  
 17   9  14  1   
 18  10  20  1   
 19  10  21  1   
 20  10  22  1   
 21  11  15  1   
 22  11  23  1   
 23  11  24  1   
 24  12  16  ar  
 25  12  25  1   
 26  13  16  ar  
 27  13  26  1   
 28  14  27  1   
 29  14  28  1   
 30  14  29  1   
 31  15  30  1   
 32  15  31  1   
 33  15  32  1   
 34  16  33  1   
@<TRIPOS>SUBSTRUCTURE
  1 ****   8 GROUP 4 **** **** 0

# MOE 2024.06 (io_trps.svl 2023.06)
