@<TRIPOS>MOLECULE
NONAME
42 44 1 0 0 
SMALL
USER_CHARGES


@<TRIPOS>ATOM
  1 S        0.4050     0.4720     0.4190 S.3   1 <1>  -0.0800 
  2 C       -0.8140    -0.5700    -0.3000 C.2   1 <1>   0.1040 
  3 C        1.7170    -0.4920    -0.2360 C.2   1 <1>  -0.1400 
  4 N       -2.1760    -0.2920    -0.1160 N.am  1 <1>  -0.4940 
  5 C       -0.2090    -1.5780    -0.9850 C.2   1 <1>   0.0190 
  6 C        1.2350    -1.5320    -0.9430 C.2   1 <1>  -0.1810 
  7 C        3.1170    -0.0210     0.1140 C.3   1 <1>   0.0200 
  8 C       -2.8350     0.7140     0.5480 C.2   1 <1>   0.5690 
  9 C       -0.9480    -2.5870    -1.6790 C.1   1 <1>   0.5380 
 10 C        2.1060    -2.5790    -1.6430 C.3   1 <1>   0.0210 
 11 C        3.7080    -0.9160     1.2150 C.3   1 <1>  -0.1600 
 12 O       -2.2830     1.6120     1.1310 O.2   1 <1>  -0.5700 
 13 C       -4.3560     0.7120     0.5570 C.3   1 <1>   0.1310 
 14 N       -1.5450    -3.3870    -2.2300 N.1   1 <1>  -0.5570 
 15 C        3.0690    -3.3170    -0.6930 C.3   1 <1>  -0.1600 
 16 C        4.7570    -1.9340     0.7330 C.3   1 <1>  -0.1600 
 17 S       -5.0580    -0.7250    -0.3950 S.3   1 <1>  -0.3310 
 18 C        4.4640    -2.6710    -0.5870 C.3   1 <1>  -0.1600 
 19 C       -6.8230    -0.5210    -0.2450 C.ar  1 <1>   0.7220 
 20 N       -7.2240     0.5280     0.4570 N.ar  1 <1>  -0.6200 
 21 N       -7.5400    -1.4470    -0.8560 N.ar  1 <1>  -0.6200 
 22 C       -8.5300     0.6500     0.5490 C.ar  1 <1>   0.1600 
 23 C       -8.8400    -1.2920    -0.7420 C.ar  1 <1>   0.1600 
 24 C       -9.3920    -0.2460    -0.0400 C.ar  1 <1>  -0.1500 
 25 H       -2.8210    -0.9560    -0.5560 H     1 <1>   0.3700 
 26 H        3.0610     0.9910     0.4730 H     1 <1>   0.0800 
 27 H        3.7390    -0.0090    -0.7620 H     1 <1>   0.0800 
 28 H        2.6490    -2.1080    -2.4430 H     1 <1>   0.0800 
 29 H        1.4870    -3.3250    -2.1060 H     1 <1>   0.0800 
 30 H        2.9090    -1.4370     1.7140 H     1 <1>   0.0800 
 31 H        4.1710    -0.2880     1.9550 H     1 <1>   0.0800 
 32 H       -4.7290     1.6110     0.1030 H     1 <1>   0.0800 
 33 H       -4.7190     0.6370     1.5650 H     1 <1>   0.0800 
 34 H        3.2080    -4.3070    -1.0920 H     1 <1>   0.0800 
 35 H        2.6200    -3.4390     0.2780 H     1 <1>   0.0800 
 36 H        4.8930    -2.6640     1.5130 H     1 <1>   0.0800 
 37 H        5.6980    -1.4230     0.6190 H     1 <1>   0.0800 
 38 H        4.6370    -2.0090    -1.4170 H     1 <1>   0.0800 
 39 H        5.1990    -3.4530    -0.6780 H     1 <1>   0.0800 
 40 H       -8.9220     1.4840     1.1080 H     1 <1>   0.1500 
 41 H       -9.4780    -2.0180    -1.2200 H     1 <1>   0.1500 
 42 H      -10.4570    -0.1320     0.0440 H     1 <1>   0.1500 
@<TRIPOS>BOND
  1   1   2  1   
  2   1   3  1   
  3   2   4  1   
  4   2   5  2   
  5   3   6  2   
  6   3   7  1   
  7   4   8  am  
  8   4  25  1   
  9   5   6  1   
 10   5   9  1   
 11   6  10  1   
 12   7  11  1   
 13   7  26  1   
 14   7  27  1   
 15   8  12  2   
 16   8  13  1   
 17   9  14  3   
 18  10  15  1   
 19  10  28  1   
 20  10  29  1   
 21  11  16  1   
 22  11  30  1   
 23  11  31  1   
 24  13  17  1   
 25  13  32  1   
 26  13  33  1   
 27  15  18  1   
 28  15  34  1   
 29  15  35  1   
 30  16  18  1   
 31  16  36  1   
 32  16  37  1   
 33  17  19  1   
 34  18  38  1   
 35  18  39  1   
 36  19  20  ar  
 37  19  21  ar  
 38  20  22  ar  
 39  21  23  ar  
 40  22  24  ar  
 41  22  40  1   
 42  23  24  ar  
 43  23  41  1   
 44  24  42  1   
@<TRIPOS>SUBSTRUCTURE
  1 ****   4 GROUP 4 **** **** 0

# MOE 2024.06 (io_trps.svl 2023.06)
