@<TRIPOS>MOLECULE
NONAME
38 39 1 0 0 
SMALL
USER_CHARGES


@<TRIPOS>ATOM
  1 S       -0.3710     0.1540     0.2840 S.o2  1 <1>   1.4970 
  2 O       -0.7450     0.5620     1.6240 O.2   1 <1>  -0.6500 
  3 O       -1.0090    -1.0370    -0.2450 O.2   1 <1>  -0.6500 
  4 N       -0.8340     1.3820    -0.7550 N.2   1 <1>  -0.6380 
  5 C        1.4710     0.0960     0.1610 C.ar  1 <1>  -0.0090 
  6 C       -2.0840     1.6190    -0.8020 C.2   1 <1>   0.4860 
  7 C        2.2340     1.2790     0.2080 C.ar  1 <1>  -0.1440 
  8 C        2.1620    -1.1240     0.0250 C.ar  1 <1>  -0.1440 
  9 N       -2.5870     2.5990    -1.5980 N.pl3 1 <1>  -0.4710 
 10 C       -3.2300     1.0980    -0.1390 C.2   1 <1>  -0.1360 
 11 C        3.6090     1.2490    -0.0050 C.ar  1 <1>  -0.1430 
 12 C        1.5900     2.6400     0.5020 C.3   1 <1>  -0.0970 
 13 C        3.5390    -1.1440    -0.1860 C.ar  1 <1>  -0.1430 
 14 C        1.4220    -2.4630     0.1200 C.3   1 <1>  -0.0970 
 15 O       -3.9450     2.7370    -1.4120 O.3   1 <1>  -0.0560 
 16 C       -4.2990     1.8110    -0.5370 C.2   1 <1>  -0.0620 
 17 C        4.2420     0.0410    -0.2070 C.ar  1 <1>  -0.1500 
 18 C        4.4790     2.5030    -0.0350 C.3   1 <1>  -0.0970 
 19 C        4.3380    -2.4250    -0.4070 C.3   1 <1>  -0.0970 
 20 C       -5.7590     1.7040    -0.1510 C.3   1 <1>  -0.1020 
 21 H       -2.0470     3.4110    -1.8970 H     1 <1>   0.4000 
 22 H       -3.2070     0.2810     0.5570 H     1 <1>   0.1500 
 23 H        0.7360     2.5540     1.1440 H     1 <1>   0.0800 
 24 H        1.2940     3.1120    -0.4170 H     1 <1>   0.0800 
 25 H        2.2660     3.2950     1.0180 H     1 <1>   0.0800 
 26 H        0.7030    -2.4420     0.9180 H     1 <1>   0.0800 
 27 H        2.0710    -3.2870     0.3410 H     1 <1>   0.0800 
 28 H        0.9190    -2.6730    -0.8070 H     1 <1>   0.0800 
 29 H        5.3040     0.0240    -0.3740 H     1 <1>   0.1500 
 30 H        4.0340     3.2530    -0.6630 H     1 <1>   0.0800 
 31 H        5.4570     2.2880    -0.4260 H     1 <1>   0.0800 
 32 H        4.5940     2.8940     0.9600 H     1 <1>   0.0800 
 33 H        3.8740    -3.0270    -1.1680 H     1 <1>   0.0800 
 34 H        4.3930    -2.9870     0.5080 H     1 <1>   0.0800 
 35 H        5.3410    -2.2100    -0.7280 H     1 <1>   0.0800 
 36 H       -6.0910     2.6290     0.2860 H     1 <1>   0.0800 
 37 H       -5.8990     0.9120     0.5610 H     1 <1>   0.0800 
 38 H       -6.3520     1.4970    -1.0240 H     1 <1>   0.0800 
@<TRIPOS>BOND
  1   1   2  2   
  2   1   3  2   
  3   1   4  1   
  4   1   5  1   
  5   4   6  2   
  6   5   7  ar  
  7   5   8  ar  
  8   6   9  1   
  9   6  10  1   
 10   7  11  ar  
 11   7  12  1   
 12   8  13  ar  
 13   8  14  1   
 14   9  15  1   
 15   9  21  1   
 16  10  16  2   
 17  10  22  1   
 18  11  17  ar  
 19  11  18  1   
 20  12  23  1   
 21  12  24  1   
 22  12  25  1   
 23  13  17  ar  
 24  13  19  1   
 25  14  26  1   
 26  14  27  1   
 27  14  28  1   
 28  15  16  1   
 29  16  20  1   
 30  17  29  1   
 31  18  30  1   
 32  18  31  1   
 33  18  32  1   
 34  19  33  1   
 35  19  34  1   
 36  19  35  1   
 37  20  36  1   
 38  20  37  1   
 39  20  38  1   
@<TRIPOS>SUBSTRUCTURE
  1 ****   1 GROUP 4 **** **** 0

# MOE 2024.06 (io_trps.svl 2023.06)
