@<TRIPOS>MOLECULE
NONAME
37 38 1 0 0 
SMALL
USER_CHARGES


@<TRIPOS>ATOM
  1 O       -0.6200    -0.7180     0.6110 O.2   1 <1>  -0.5700 
  2 C       -1.6640    -0.2390     0.2210 C.2   1 <1>   0.5690 
  3 N       -2.0260     1.0800     0.2110 N.am  1 <1>  -0.1110 
  4 C       -2.7810    -1.1040    -0.3520 C.3   1 <1>   0.2510 
  5 N       -1.1420     2.1660     0.7110 N.3   1 <1>  -0.5490 
  6 C       -3.2830     1.2260    -0.3220 C.2   1 <1>   0.5690 
  7 N       -2.3470    -1.8730    -1.5570 N.3   1 <1>  -0.6190 
  8 C       -3.8740    -0.1000    -0.7300 C.3   1 <1>  -0.0990 
  9 C       -1.8310     2.8800     1.8190 C.3   1 <1>   0.0300 
 10 C       -0.8510     3.1010    -0.4070 C.3   1 <1>   0.0300 
 11 O       -3.9050     2.2540    -0.4650 O.2   1 <1>  -0.5700 
 12 N       -3.0910    -3.1470    -1.6730 N.pl3 1 <1>  -0.5110 
 13 C       -2.8760    -4.2590    -0.8670 C.ar  1 <1>   0.1000 
 14 C       -3.6910    -5.3770    -1.0160 C.ar  1 <1>  -0.1500 
 15 C       -1.8680    -4.3080     0.0950 C.ar  1 <1>  -0.1500 
 16 C       -3.5130    -6.5010    -0.2310 C.ar  1 <1>  -0.1500 
 17 C       -1.6890    -5.4300     0.8820 C.ar  1 <1>  -0.1500 
 18 C       -2.5100    -6.5360     0.7240 C.ar  1 <1>  -0.1440 
 19 C       -2.3140    -7.7680     1.5890 C.3   1 <1>  -0.0970 
 20 H       -3.1330    -1.7740     0.4140 H     1 <1>   0.0800 
 21 H       -1.3320    -2.0700    -1.4940 H     1 <1>   0.3600 
 22 H       -4.7740    -0.2820    -0.1740 H     1 <1>   0.0800 
 23 H       -4.0800    -0.1020    -1.7850 H     1 <1>   0.0800 
 24 H       -2.1630     2.1720     2.5580 H     1 <1>   0.0800 
 25 H       -2.6790     3.4330     1.4510 H     1 <1>   0.0800 
 26 H       -1.1430     3.5640     2.2850 H     1 <1>   0.0800 
 27 H       -0.4690     2.5530    -1.2500 H     1 <1>   0.0800 
 28 H       -0.1050     3.8110    -0.0950 H     1 <1>   0.0800 
 29 H       -1.7390     3.6330    -0.7040 H     1 <1>   0.0800 
 30 H       -3.6900    -3.2500    -2.5060 H     1 <1>   0.4000 
 31 H       -4.4740    -5.3650    -1.7520 H     1 <1>   0.1500 
 32 H       -1.2130    -3.4670     0.2320 H     1 <1>   0.1500 
 33 H       -4.1580    -7.3520    -0.3640 H     1 <1>   0.1500 
 34 H       -0.9050    -5.4400     1.6190 H     1 <1>   0.1500 
 35 H       -2.9160    -7.6890     2.4760 H     1 <1>   0.0800 
 36 H       -1.2820    -7.8650     1.8760 H     1 <1>   0.0800 
 37 H       -2.6000    -8.6540     1.0510 H     1 <1>   0.0800 
@<TRIPOS>BOND
  1   1   2  2   
  2   2   3  am  
  3   2   4  1   
  4   3   5  1   
  5   3   6  am  
  6   4   7  1   
  7   4   8  1   
  8   4  20  1   
  9   5   9  1   
 10   5  10  1   
 11   6   8  1   
 12   6  11  2   
 13   7  12  1   
 14   7  21  1   
 15   8  22  1   
 16   8  23  1   
 17   9  24  1   
 18   9  25  1   
 19   9  26  1   
 20  10  27  1   
 21  10  28  1   
 22  10  29  1   
 23  12  13  1   
 24  12  30  1   
 25  13  14  ar  
 26  13  15  ar  
 27  14  16  ar  
 28  14  31  1   
 29  15  17  ar  
 30  15  32  1   
 31  16  18  ar  
 32  16  33  1   
 33  17  18  ar  
 34  17  34  1   
 35  18  19  1   
 36  19  35  1   
 37  19  36  1   
 38  19  37  1   
@<TRIPOS>SUBSTRUCTURE
  1 ****   4 GROUP 4 **** **** 0

# MOE 2024.06 (io_trps.svl 2023.06)
