@<TRIPOS>MOLECULE
NONAME
41 42 1 0 0 
SMALL
USER_CHARGES


@<TRIPOS>ATOM
  1 O       -0.1380     1.1170     1.5250 O.2   1 <1>  -0.5700 
  2 C        0.1080     1.5920     0.4410 C.2   1 <1>   0.5690 
  3 N        1.3680     1.6120    -0.0630 N.am  1 <1>  -0.7300 
  4 C       -1.0700     2.1660    -0.3680 C.3   1 <1>   0.4040 
  5 C        2.5650     1.2130     0.6870 C.3   1 <1>   0.3640 
  6 N       -2.4080     1.5990     0.0470 N.4   1 <1>  -0.9590 
  7 C        3.6800     2.1740     0.2950 C.ar  1 <1>  -0.1440 
  8 C        2.8950    -0.2420     0.3630 C.3   1 <1>  -0.2400 
  9 C       -2.5240     0.1520    -0.3030 C.3   1 <1>   0.3430 
 10 C       -3.5560     2.4100    -0.4480 C.3   1 <1>   0.3430 
 11 C        4.1460     3.0910     1.2270 C.ar  1 <1>  -0.1500 
 12 C        4.2330     2.1720    -0.9800 C.ar  1 <1>  -0.1500 
 13 C       -3.8130    -0.4170     0.2910 C.3   1 <1>  -0.1600 
 14 C       -4.8590     1.8710     0.1450 C.3   1 <1>  -0.1600 
 15 C        5.1450     3.9890     0.8930 C.ar  1 <1>  -0.1500 
 16 C        5.2320     3.0690    -1.3150 C.ar  1 <1>  -0.1500 
 17 C       -5.0480     0.3780    -0.1530 C.3   1 <1>  -0.1600 
 18 C        5.6890     3.9790    -0.3780 C.ar  1 <1>  -0.1500 
 19 H        1.6140     2.0900    -0.9320 H     1 <1>   0.3700 
 20 H       -0.9010     1.9740    -1.4130 H     1 <1>   0.0800 
 21 H       -1.0730     3.2310    -0.2180 H     1 <1>   0.0800 
 22 H        2.3740     1.2960     1.7450 H     1 <1>   0.0800 
 23 H       -2.4050     1.6280     1.0810 H     1 <1>   0.4500 
 24 H        3.0080    -0.3950    -0.6940 H     1 <1>   0.0800 
 25 H        2.1170    -0.8830     0.7340 H     1 <1>   0.0800 
 26 H        3.8150    -0.5150     0.8480 H     1 <1>   0.0800 
 27 H       -1.6810    -0.3930     0.0930 H     1 <1>   0.0800 
 28 H       -2.5380     0.0330    -1.3740 H     1 <1>   0.0800 
 29 H       -3.6030     2.3570    -1.5240 H     1 <1>   0.0800 
 30 H       -3.4330     3.4420    -0.1610 H     1 <1>   0.0800 
 31 H        3.7340     3.1160     2.2210 H     1 <1>   0.1500 
 32 H        3.8980     1.4720    -1.7250 H     1 <1>   0.1500 
 33 H       -3.7410    -0.4140     1.3650 H     1 <1>   0.0800 
 34 H       -3.9190    -1.4430    -0.0180 H     1 <1>   0.0800 
 35 H       -5.6870     2.4230    -0.2660 H     1 <1>   0.0800 
 36 H       -4.8620     2.0350     1.2090 H     1 <1>   0.0800 
 37 H        5.4990     4.6960     1.6230 H     1 <1>   0.1500 
 38 H        5.6580     3.0590    -2.3030 H     1 <1>   0.1500 
 39 H       -5.9230     0.0110     0.3590 H     1 <1>   0.0800 
 40 H       -5.2050     0.2380    -1.2100 H     1 <1>   0.0800 
 41 H        6.4660     4.6760    -0.6380 H     1 <1>   0.1500 
@<TRIPOS>BOND
  1   1   2  2   
  2   2   3  am  
  3   2   4  1   
  4   3   5  1   
  5   3  19  1   
  6   4   6  1   
  7   4  20  1   
  8   4  21  1   
  9   5   7  1   
 10   5   8  1   
 11   5  22  1   
 12   6   9  1   
 13   6  10  1   
 14   6  23  1   
 15   7  11  ar  
 16   7  12  ar  
 17   8  24  1   
 18   8  25  1   
 19   8  26  1   
 20   9  13  1   
 21   9  27  1   
 22   9  28  1   
 23  10  14  1   
 24  10  29  1   
 25  10  30  1   
 26  11  15  ar  
 27  11  31  1   
 28  12  16  ar  
 29  12  32  1   
 30  13  17  1   
 31  13  33  1   
 32  13  34  1   
 33  14  17  1   
 34  14  35  1   
 35  14  36  1   
 36  15  18  ar  
 37  15  37  1   
 38  16  18  ar  
 39  16  38  1   
 40  17  39  1   
 41  17  40  1   
 42  18  41  1   
@<TRIPOS>SUBSTRUCTURE
  1 ****   2 GROUP 4 **** **** 0

# MOE 2024.06 (io_trps.svl 2023.06)
