@<TRIPOS>MOLECULE
NONAME
49 50 1 0 0 
SMALL
USER_CHARGES


@<TRIPOS>ATOM
  1 O       -1.4110    -0.1050     0.7640 O.3   1 <1>  -0.3630 
  2 C       -2.2730     0.6180    -0.0060 C.ar  1 <1>   0.0820 
  3 C       -0.4450    -0.8800     0.0820 C.3   1 <1>   0.0400 
  4 C       -3.6500     0.3310    -0.0280 C.ar  1 <1>   0.0820 
  5 C       -1.7830     1.6750    -0.7820 C.ar  1 <1>   0.0820 
  6 O       -4.2870    -0.6340     0.7110 O.3   1 <1>  -0.3630 
  7 C       -4.4870     1.0780    -0.8570 C.ar  1 <1>  -0.1430 
  8 O       -0.4820     2.0550    -0.7730 O.3   1 <1>  -0.3630 
  9 C       -2.6290     2.3900    -1.6090 C.ar  1 <1>  -0.1500 
 10 C       -3.6130    -1.6060     1.4860 C.3   1 <1>   0.0400 
 11 C       -3.9770     2.0940    -1.6500 C.ar  1 <1>  -0.1500 
 12 C       -5.9760     0.7890    -0.9020 C.3   1 <1>   0.4860 
 13 C       -0.0130     2.6750     0.4050 C.3   1 <1>   0.0400 
 14 N       -6.5490     1.0230     0.4480 N.4   1 <1>  -0.9590 
 15 C       -7.9110     0.4240     0.5750 C.3   1 <1>   0.4860 
 16 C       -6.4680     2.4590     0.8220 C.3   1 <1>   0.3430 
 17 C       -8.8580     1.0060    -0.4640 C.ar  1 <1>  -0.1430 
 18 C       -6.6600     2.6120     2.3260 C.3   1 <1>  -0.2400 
 19 C       -9.5600     2.1750    -0.2030 C.ar  1 <1>  -0.1500 
 20 C       -9.0360     0.3660    -1.6830 C.ar  1 <1>  -0.1500 
 21 C      -10.4080     2.7090    -1.1570 C.ar  1 <1>  -0.1500 
 22 C       -9.8840     0.9000    -2.6360 C.ar  1 <1>  -0.1500 
 23 C      -10.5680     2.0740    -2.3750 C.ar  1 <1>  -0.1500 
 24 H        0.0240    -1.5350     0.7940 H     1 <1>   0.0800 
 25 H        0.2940    -0.2340    -0.3540 H     1 <1>   0.0800 
 26 H       -0.9340    -1.4570    -0.6830 H     1 <1>   0.0800 
 27 H       -2.2220     3.1810    -2.2160 H     1 <1>   0.1500 
 28 H       -3.0780    -1.1150     2.2810 H     1 <1>   0.0800 
 29 H       -2.9390    -2.1540     0.8530 H     1 <1>   0.0800 
 30 H       -4.3430    -2.2770     1.9020 H     1 <1>   0.0800 
 31 H       -4.6140     2.6660    -2.3040 H     1 <1>   0.1500 
 32 H       -6.1190    -0.2400    -1.1900 H     1 <1>   0.0800 
 33 H       -6.4630     1.4200    -1.6290 H     1 <1>   0.0800 
 34 H        1.0060     2.9770     0.2420 H     1 <1>   0.0800 
 35 H       -0.0610     1.9760     1.2200 H     1 <1>   0.0800 
 36 H       -0.6240     3.5360     0.6120 H     1 <1>   0.0800 
 37 H       -5.9010     0.5060     1.0660 H     1 <1>   0.4500 
 38 H       -8.3050     0.6040     1.5610 H     1 <1>   0.0800 
 39 H       -7.8510    -0.6430     0.4360 H     1 <1>   0.0800 
 40 H       -7.2100     3.0290     0.2860 H     1 <1>   0.0800 
 41 H       -5.4960     2.8480     0.5600 H     1 <1>   0.0800 
 42 H       -7.6490     2.3260     2.6320 H     1 <1>   0.0800 
 43 H       -6.5220     3.6450     2.5920 H     1 <1>   0.0800 
 44 H       -5.9290     2.0330     2.8620 H     1 <1>   0.0800 
 45 H       -9.4640     2.6820     0.7420 H     1 <1>   0.1500 
 46 H       -8.5260    -0.5560    -1.9080 H     1 <1>   0.1500 
 47 H      -10.9510     3.6170    -0.9540 H     1 <1>   0.1500 
 48 H      -10.0210     0.4040    -3.5830 H     1 <1>   0.1500 
 49 H      -11.2290     2.4900    -3.1170 H     1 <1>   0.1500 
@<TRIPOS>BOND
  1   1   2  1   
  2   1   3  1   
  3   2   4  ar  
  4   2   5  ar  
  5   3  24  1   
  6   3  25  1   
  7   3  26  1   
  8   4   6  1   
  9   4   7  ar  
 10   5   8  1   
 11   5   9  ar  
 12   6  10  1   
 13   7  11  ar  
 14   7  12  1   
 15   8  13  1   
 16   9  11  ar  
 17   9  27  1   
 18  10  28  1   
 19  10  29  1   
 20  10  30  1   
 21  11  31  1   
 22  12  14  1   
 23  12  32  1   
 24  12  33  1   
 25  13  34  1   
 26  13  35  1   
 27  13  36  1   
 28  14  15  1   
 29  14  16  1   
 30  14  37  1   
 31  15  17  1   
 32  15  38  1   
 33  15  39  1   
 34  16  18  1   
 35  16  40  1   
 36  16  41  1   
 37  17  19  ar  
 38  17  20  ar  
 39  18  42  1   
 40  18  43  1   
 41  18  44  1   
 42  19  21  ar  
 43  19  45  1   
 44  20  22  ar  
 45  20  46  1   
 46  21  23  ar  
 47  21  47  1   
 48  22  23  ar  
 49  22  48  1   
 50  23  49  1   
@<TRIPOS>SUBSTRUCTURE
  1 ****   7 GROUP 4 **** **** 0

# MOE 2024.06 (io_trps.svl 2023.06)
