@<TRIPOS>MOLECULE
NONAME
48 49 1 0 0 
SMALL
USER_CHARGES


@<TRIPOS>ATOM
  1 BR      -0.9140    -1.0280    -4.5000 Br    1 <1>  -0.1110 
  2 C       -0.7580    -2.0430    -2.8710 C.ar  1 <1>   0.1110 
  3 C       -1.7390    -2.9660    -2.5680 C.ar  1 <1>  -0.1500 
  4 C        0.3270    -1.8210    -2.0480 C.ar  1 <1>  -0.1500 
  5 C       -1.6360    -3.6990    -1.3960 C.ar  1 <1>  -0.1440 
  6 C        0.4290    -2.5500    -0.8760 C.ar  1 <1>  -0.1500 
  7 C       -0.5500    -3.4890    -0.5430 C.ar  1 <1>   0.0830 
  8 C       -2.7200    -4.7180    -1.0680 C.3   1 <1>   0.2540 
  9 O       -0.4990    -4.2180     0.6050 O.3   1 <1>  -0.3630 
 10 N       -3.9420    -4.0380    -0.5910 N.3   1 <1>  -0.8100 
 11 C        0.6710    -4.2630     1.3940 C.3   1 <1>   0.0400 
 12 C       -5.0530    -4.9960    -0.3990 C.3   1 <1>   0.1100 
 13 C       -3.6820    -3.2900     0.6690 C.3   1 <1>   0.1100 
 14 C       -6.3560    -4.2870     0.0510 C.3   1 <1>   0.3430 
 15 C       -4.9650    -2.6680     1.2700 C.3   1 <1>   0.3430 
 16 N       -6.1170    -2.8280     0.3250 N.4   1 <1>  -0.9590 
 17 C       -7.3260    -2.0600     0.7550 C.3   1 <1>   0.3430 
 18 C       -8.3790    -1.9510    -0.3540 C.3   1 <1>   0.1200 
 19 O       -9.4510    -1.2360     0.1620 O.3   1 <1>  -0.5600 
 20 C      -10.5020    -1.0450    -0.7380 C.3   1 <1>   0.1200 
 21 C      -11.6440    -0.3370    -0.0110 C.3   1 <1>   0.1200 
 22 O      -12.6850    -0.1210    -0.9020 O.3   1 <1>  -0.6800 
 23 H       -2.5680    -3.1060    -3.2390 H     1 <1>   0.1500 
 24 H        1.0720    -1.0940    -2.3190 H     1 <1>   0.1500 
 25 H        1.2720    -2.3700    -0.2370 H     1 <1>   0.1500 
 26 H       -2.3750    -5.4230    -0.3320 H     1 <1>   0.0800 
 27 H       -2.9470    -5.2700    -1.9640 H     1 <1>   0.0800 
 28 H        0.5170    -4.9800     2.1810 H     1 <1>   0.0800 
 29 H        0.8470    -3.2910     1.8180 H     1 <1>   0.0800 
 30 H        1.4970    -4.5710     0.7780 H     1 <1>   0.0800 
 31 H       -4.7770    -5.7310     0.3390 H     1 <1>   0.0800 
 32 H       -5.2430    -5.5180    -1.3210 H     1 <1>   0.0800 
 33 H       -2.9840    -2.4940     0.4730 H     1 <1>   0.0800 
 34 H       -3.2260    -3.9390     1.3990 H     1 <1>   0.0800 
 35 H       -6.7370    -4.7730     0.9340 H     1 <1>   0.0800 
 36 H       -7.0930    -4.3970    -0.7270 H     1 <1>   0.0800 
 37 H       -4.7860    -1.6250     1.4690 H     1 <1>   0.0800 
 38 H       -5.1880    -3.1500     2.2080 H     1 <1>   0.0800 
 39 H       -5.7400    -2.4610    -0.5640 H     1 <1>   0.4500 
 40 H       -7.0340    -1.0620     1.0350 H     1 <1>   0.0800 
 41 H       -7.7710    -2.5370     1.6130 H     1 <1>   0.0800 
 42 H       -8.7340    -2.9230    -0.6490 H     1 <1>   0.0800 
 43 H       -7.9860    -1.4150    -1.2010 H     1 <1>   0.0800 
 44 H      -10.8380    -2.0040    -1.0930 H     1 <1>   0.0800 
 45 H      -10.1470    -0.4420    -1.5570 H     1 <1>   0.0800 
 46 H      -11.3290     0.6140     0.3820 H     1 <1>   0.0800 
 47 H      -12.0190    -0.9570     0.7850 H     1 <1>   0.0800 
 48 H      -12.4890     0.6280    -1.5000 H     1 <1>   0.4000 
@<TRIPOS>BOND
  1   1   2  1   
  2   2   3  ar  
  3   2   4  ar  
  4   3   5  ar  
  5   3  23  1   
  6   4   6  ar  
  7   4  24  1   
  8   5   7  ar  
  9   5   8  1   
 10   6   7  ar  
 11   6  25  1   
 12   7   9  1   
 13   8  10  1   
 14   8  26  1   
 15   8  27  1   
 16   9  11  1   
 17  10  12  1   
 18  10  13  1   
 19  11  28  1   
 20  11  29  1   
 21  11  30  1   
 22  12  14  1   
 23  12  31  1   
 24  12  32  1   
 25  13  15  1   
 26  13  33  1   
 27  13  34  1   
 28  14  16  1   
 29  14  35  1   
 30  14  36  1   
 31  15  16  1   
 32  15  37  1   
 33  15  38  1   
 34  16  17  1   
 35  16  39  1   
 36  17  18  1   
 37  17  40  1   
 38  17  41  1   
 39  18  19  1   
 40  18  42  1   
 41  18  43  1   
 42  19  20  1   
 43  20  21  1   
 44  20  44  1   
 45  20  45  1   
 46  21  22  1   
 47  21  46  1   
 48  21  47  1   
 49  22  48  1   
@<TRIPOS>SUBSTRUCTURE
  1 ****  10 GROUP 4 **** **** 0

# MOE 2024.06 (io_trps.svl 2023.06)
