@<TRIPOS>MOLECULE
NONAME
33 34 1 0 0 
SMALL
USER_CHARGES


@<TRIPOS>ATOM
  1 O       -0.6100    -0.0410     0.9390 O.2   1 <1>  -0.5700 
  2 C       -1.5540     0.6940     0.7180 C.2   1 <1>   0.7060 
  3 O       -2.7560     0.1260     0.6420 O.3   1 <1>  -0.2330 
  4 C       -1.4470     2.1200     0.5330 C.2   1 <1>  -0.1240 
  5 C       -3.8850     0.8240     0.4140 C.ar  1 <1>   0.0820 
  6 C       -2.5570     2.8660     0.2720 C.2   1 <1>  -0.1670 
  7 C       -0.0340     2.7030     0.6480 C.3   1 <1>  -0.0220 
  8 C       -3.8420     2.2120     0.2270 C.ar  1 <1>   0.0280 
  9 C       -5.0800     0.1300     0.3770 C.ar  1 <1>  -0.1500 
 10 C       -2.5270     4.3730     0.0070 C.3   1 <1>  -0.1020 
 11 C        0.6680     2.7060    -0.7130 C.3   1 <1>  -0.2400 
 12 C       -5.0660     2.8630     0.0130 C.ar  1 <1>  -0.1500 
 13 C       -6.2630     0.8030     0.1570 C.ar  1 <1>   0.0820 
 14 C       -6.2770     2.1860    -0.0270 C.ar  1 <1>  -0.1440 
 15 O       -7.3950     0.0880     0.1280 O.3   1 <1>  -0.5320 
 16 C       -7.6160     2.8970    -0.2640 C.3   1 <1>  -0.0170 
 17 C       -7.5470     4.4170    -0.4550 C.3   1 <1>  -0.2400 
 18 H        0.5500     2.1250     1.3440 H     1 <1>   0.0800 
 19 H       -0.0600     3.7000     1.0480 H     1 <1>   0.0800 
 20 H       -5.0880    -0.9350     0.5200 H     1 <1>   0.1500 
 21 H       -3.0320     4.8950     0.8010 H     1 <1>   0.0800 
 22 H       -3.0230     4.5890    -0.9230 H     1 <1>   0.0800 
 23 H       -1.5350     4.7700    -0.0760 H     1 <1>   0.0800 
 24 H        0.7550     1.7000    -1.0850 H     1 <1>   0.0800 
 25 H        1.6550     3.1220    -0.6190 H     1 <1>   0.0800 
 26 H        0.1110     3.2900    -1.4230 H     1 <1>   0.0800 
 27 H       -5.0570     3.9250    -0.1210 H     1 <1>   0.1500 
 28 H       -8.1880     0.6280    -0.0300 H     1 <1>   0.4500 
 29 H       -8.2600     2.6980     0.5760 H     1 <1>   0.0800 
 30 H       -8.0750     2.4730    -1.1410 H     1 <1>   0.0800 
 31 H       -7.1320     4.8880     0.4180 H     1 <1>   0.0800 
 32 H       -8.5360     4.8100    -0.6130 H     1 <1>   0.0800 
 33 H       -6.9460     4.6620    -1.3130 H     1 <1>   0.0800 
@<TRIPOS>BOND
  1   1   2  2   
  2   2   3  1   
  3   2   4  1   
  4   3   5  1   
  5   4   6  2   
  6   4   7  1   
  7   5   8  ar  
  8   5   9  ar  
  9   6   8  1   
 10   6  10  1   
 11   7  11  1   
 12   7  18  1   
 13   7  19  1   
 14   8  12  ar  
 15   9  13  ar  
 16   9  20  1   
 17  10  21  1   
 18  10  22  1   
 19  10  23  1   
 20  11  24  1   
 21  11  25  1   
 22  11  26  1   
 23  12  14  ar  
 24  12  27  1   
 25  13  14  ar  
 26  13  15  1   
 27  14  16  1   
 28  15  28  1   
 29  16  17  1   
 30  16  29  1   
 31  16  30  1   
 32  17  31  1   
 33  17  32  1   
 34  17  33  1   
@<TRIPOS>SUBSTRUCTURE
  1 ****   8 GROUP 4 **** **** 0

# MOE 2024.06 (io_trps.svl 2023.06)
