@<TRIPOS>MOLECULE
NONAME
35 36 1 0 0 
SMALL
USER_CHARGES


@<TRIPOS>ATOM
  1 S       -0.2190     2.4370    -0.8600 S.3   1 <1>  -0.3610 
  2 C        0.8230     1.1000    -0.3690 C.cat 1 <1>   0.8400 
  3 C       -1.4570     2.7910     0.4860 C.3   1 <1>   0.2110 
  4 N        0.4140     0.2920     0.5800 N.pl3 1 <1>  -0.7940 
  5 N        1.9720     0.9660    -0.9940 N.pl3 1 <1>  -0.7940 
  6 C       -2.5370     1.7280     0.5350 C.2   1 <1>   0.5690 
  7 C       -2.2190     4.0680     0.1220 C.3   1 <1>  -0.0990 
  8 C        1.0910    -0.8730     1.2070 C.3   1 <1>   0.2490 
  9 C        2.5560     1.7940    -2.0910 C.3   1 <1>   0.2490 
 10 O       -2.2960     0.6060     0.9110 O.2   1 <1>  -0.5700 
 11 N       -3.7450     2.2270     0.1340 N.am  1 <1>  -0.2370 
 12 C       -3.6230     3.5680    -0.1250 C.2   1 <1>   0.5690 
 13 C       -4.9380     1.4760     0.0330 C.ar  1 <1>   0.1170 
 14 O       -4.4940     4.3100    -0.4910 O.2   1 <1>  -0.5700 
 15 C       -4.9520     0.2480    -0.6210 C.ar  1 <1>  -0.1500 
 16 C       -6.1240     1.9440     0.5900 C.ar  1 <1>  -0.1500 
 17 C       -6.1160    -0.4950    -0.7110 C.ar  1 <1>  -0.1500 
 18 C       -7.2890     1.2040     0.5010 C.ar  1 <1>  -0.1500 
 19 C       -7.2860    -0.0170    -0.1490 C.ar  1 <1>  -0.1500 
 20 H       -0.9300     2.8780     1.4200 H     1 <1>   0.0800 
 21 H       -0.5650     0.3750     0.9020 H     1 <1>   0.4500 
 22 H        2.5710     0.1860    -0.7280 H     1 <1>   0.4500 
 23 H       -1.8360     4.5500    -0.7590 H     1 <1>   0.0800 
 24 H       -2.2310     4.7620     0.9430 H     1 <1>   0.0800 
 25 H        2.1170    -0.9470     0.8920 H     1 <1>   0.0800 
 26 H        0.5760    -1.7810     0.9390 H     1 <1>   0.0800 
 27 H        1.0690    -0.7710     2.2800 H     1 <1>   0.0800 
 28 H        3.5110     2.1850    -1.7830 H     1 <1>   0.0800 
 29 H        2.7000     1.1850    -2.9680 H     1 <1>   0.0800 
 30 H        1.9230     2.6220    -2.3570 H     1 <1>   0.0800 
 31 H       -4.0510    -0.1370    -1.0630 H     1 <1>   0.1500 
 32 H       -6.1430     2.8950     1.0920 H     1 <1>   0.1500 
 33 H       -6.1130    -1.4440    -1.2190 H     1 <1>   0.1500 
 34 H       -8.2000     1.5790     0.9360 H     1 <1>   0.1500 
 35 H       -8.1930    -0.5940    -0.2180 H     1 <1>   0.1500 
@<TRIPOS>BOND
  1   1   2  1   
  2   1   3  1   
  3   2   4  ar  
  4   2   5  ar  
  5   3   6  1   
  6   3   7  1   
  7   3  20  1   
  8   4   8  1   
  9   4  21  1   
 10   5   9  1   
 11   5  22  1   
 12   6  10  2   
 13   6  11  am  
 14   7  12  1   
 15   7  23  1   
 16   7  24  1   
 17   8  25  1   
 18   8  26  1   
 19   8  27  1   
 20   9  28  1   
 21   9  29  1   
 22   9  30  1   
 23  11  12  am  
 24  11  13  1   
 25  12  14  2   
 26  13  15  ar  
 27  13  16  ar  
 28  15  17  ar  
 29  15  31  1   
 30  16  18  ar  
 31  16  32  1   
 32  17  19  ar  
 33  17  33  1   
 34  18  19  ar  
 35  18  34  1   
 36  19  35  1   
@<TRIPOS>SUBSTRUCTURE
  1 ****   6 GROUP 4 **** **** 0

# MOE 2024.06 (io_trps.svl 2023.06)
