@<TRIPOS>MOLECULE
NONAME
41 42 1 0 0 
SMALL
USER_CHARGES


@<TRIPOS>ATOM
  1 O        1.7620    -6.8400     0.5230 O.3   1 <1>  -0.2800 
  2 C        1.9210    -5.5300     0.4330 C.2   1 <1>  -0.0400 
  3 C        2.9490    -7.3990     0.3990 C.2   1 <1>  -0.0100 
  4 C        3.2280    -5.2310     0.2420 C.2   1 <1>  -0.1500 
  5 C        0.6750    -4.6660     0.5460 C.3   1 <1>   0.6030 
  6 C        3.9000    -6.4590     0.2210 C.2   1 <1>  -0.1500 
  7 N       -0.3380    -5.3060    -0.3170 N.4   1 <1>  -0.9060 
  8 C        0.9380    -3.2040     0.1410 C.3   1 <1>  -0.0220 
  9 C       -1.7270    -5.1530     0.1890 C.3   1 <1>   0.3430 
 10 C       -0.3200    -2.3400     0.1190 C.2   1 <1>  -0.2760 
 11 C       -2.7240    -5.8260    -0.7500 C.3   1 <1>  -0.0170 
 12 C       -0.9120    -1.9060     1.2360 C.2   1 <1>  -0.3000 
 13 C       -0.8360    -1.9770    -1.2670 C.3   1 <1>  -0.1020 
 14 C       -4.1200    -5.5970    -0.2080 C.ar  1 <1>  -0.1430 
 15 C       -4.7090    -6.5320     0.6300 C.ar  1 <1>  -0.1500 
 16 C       -4.8150    -4.4420    -0.5360 C.ar  1 <1>  -0.1500 
 17 C       -5.9770    -6.3110     1.1390 C.ar  1 <1>  -0.1500 
 18 C       -6.0830    -4.2220    -0.0270 C.ar  1 <1>  -0.1500 
 19 C       -6.6640    -5.1560     0.8120 C.ar  1 <1>  -0.1500 
 20 H        3.0340    -8.4730     0.4500 H     1 <1>   0.1500 
 21 H        3.7130    -4.2760     0.1270 H     1 <1>   0.1500 
 22 H        0.3380    -4.6940     1.5700 H     1 <1>   0.0800 
 23 H        4.9610    -6.5930     0.0900 H     1 <1>   0.1500 
 24 H       -0.0640    -6.2990    -0.3400 H     1 <1>   0.4500 
 25 H       -0.2340    -4.9340    -1.2640 H     1 <1>   0.4500 
 26 H        1.4380    -3.1650    -0.8110 H     1 <1>   0.0800 
 27 H        1.6170    -2.7850     0.8630 H     1 <1>   0.0800 
 28 H       -1.9820    -4.1080     0.2700 H     1 <1>   0.0800 
 29 H       -1.8150    -5.5920     1.1700 H     1 <1>   0.0800 
 30 H       -2.5290    -6.8830    -0.8100 H     1 <1>   0.0800 
 31 H       -2.6550    -5.4050    -1.7380 H     1 <1>   0.0800 
 32 H       -1.7920    -1.2820     1.2490 H     1 <1>   0.1500 
 33 H       -0.5740    -2.1150     2.2370 H     1 <1>   0.1500 
 34 H       -1.7170    -1.3620    -1.1930 H     1 <1>   0.0800 
 35 H       -0.0900    -1.4160    -1.8040 H     1 <1>   0.0800 
 36 H       -1.0860    -2.8530    -1.8360 H     1 <1>   0.0800 
 37 H       -4.1950    -7.4400     0.8940 H     1 <1>   0.1500 
 38 H       -4.3840    -3.7040    -1.1900 H     1 <1>   0.1500 
 39 H       -6.4330    -7.0390     1.7880 H     1 <1>   0.1500 
 40 H       -6.6210    -3.3260    -0.2830 H     1 <1>   0.1500 
 41 H       -7.6510    -4.9850     1.2080 H     1 <1>   0.1500 
@<TRIPOS>BOND
  1   1   2  1   
  2   1   3  1   
  3   2   4  2   
  4   2   5  1   
  5   3   6  2   
  6   3  20  1   
  7   4   6  1   
  8   4  21  1   
  9   5   7  1   
 10   5   8  1   
 11   5  22  1   
 12   6  23  1   
 13   7   9  1   
 14   7  24  1   
 15   7  25  1   
 16   8  10  1   
 17   8  26  1   
 18   8  27  1   
 19   9  11  1   
 20   9  28  1   
 21   9  29  1   
 22  10  12  2   
 23  10  13  1   
 24  11  14  1   
 25  11  30  1   
 26  11  31  1   
 27  12  32  1   
 28  12  33  1   
 29  13  34  1   
 30  13  35  1   
 31  13  36  1   
 32  14  15  ar  
 33  14  16  ar  
 34  15  17  ar  
 35  15  37  1   
 36  16  18  ar  
 37  16  38  1   
 38  17  19  ar  
 39  17  39  1   
 40  18  19  ar  
 41  18  40  1   
 42  19  41  1   
@<TRIPOS>SUBSTRUCTURE
  1 ****   9 GROUP 4 **** **** 0

# MOE 2024.06 (io_trps.svl 2023.06)
