@<TRIPOS>MOLECULE
NONAME
35 36 1 0 0 
SMALL
USER_CHARGES


@<TRIPOS>ATOM
  1 F        0.6570     2.2310    -2.9350 F     1 <1>  -0.1900 
  2 C        0.1760     2.6940    -1.8140 C.ar  1 <1>   0.1900 
  3 C       -1.1180     3.1710    -1.7930 C.ar  1 <1>  -0.1500 
  4 C        0.9830     2.6870    -0.6930 C.ar  1 <1>  -0.1500 
  5 C       -1.6580     3.6600    -0.6040 C.ar  1 <1>   0.0860 
  6 C        0.4650     3.1830     0.4900 C.ar  1 <1>  -0.1500 
  7 C       -3.0250     4.1480    -0.5560 C.2   1 <1>   0.5440 
  8 C       -0.8340     3.6640     0.5270 C.ar  1 <1>  -0.1500 
  9 O       -3.4700     4.8040    -1.4780 O.2   1 <1>  -0.5700 
 10 N       -3.8800     3.8660     0.4910 N.am  1 <1>  -0.6600 
 11 C       -5.0700     4.7370     0.7230 C.3   1 <1>   0.1400 
 12 C       -3.8150     2.5960     1.2590 C.3   1 <1>   0.1400 
 13 C       -6.1800     4.4460    -0.3040 C.3   1 <1>   0.3430 
 14 C       -5.1210     1.7990     1.1350 C.3   1 <1>  -0.1600 
 15 N       -6.8050     3.0770    -0.1880 N.4   1 <1>  -0.9590 
 16 C       -5.8170     1.9540    -0.2230 C.3   1 <1>   0.3430 
 17 C       -7.8010     2.9050    -1.2880 C.3   1 <1>   0.2630 
 18 H       -1.7040     3.1660    -2.6940 H     1 <1>   0.1500 
 19 H        1.9870     2.3070    -0.7510 H     1 <1>   0.1500 
 20 H        1.0760     3.1990     1.3780 H     1 <1>   0.1500 
 21 H       -1.2190     4.0590     1.4520 H     1 <1>   0.1500 
 22 H       -4.7640     5.7640     0.6080 H     1 <1>   0.0800 
 23 H       -5.4370     4.6180     1.7270 H     1 <1>   0.0800 
 24 H       -3.6060     2.8090     2.2940 H     1 <1>   0.0800 
 25 H       -3.0080     1.9900     0.8810 H     1 <1>   0.0800 
 26 H       -5.7610     4.5690    -1.2900 H     1 <1>   0.0800 
 27 H       -6.9480     5.1930    -0.1890 H     1 <1>   0.0800 
 28 H       -5.7900     2.0550     1.9360 H     1 <1>   0.0800 
 29 H       -4.8700     0.7610     1.2680 H     1 <1>   0.0800 
 30 H       -7.3010     3.0250     0.7110 H     1 <1>   0.4500 
 31 H       -6.3390     1.0350    -0.4390 H     1 <1>   0.0800 
 32 H       -5.0880     2.1160    -1.0020 H     1 <1>   0.0800 
 33 H       -7.3100     2.9530    -2.2470 H     1 <1>   0.0800 
 34 H       -8.5470     3.6820    -1.2450 H     1 <1>   0.0800 
 35 H       -8.2960     1.9510    -1.2010 H     1 <1>   0.0800 
@<TRIPOS>BOND
  1   1   2  1   
  2   2   3  ar  
  3   2   4  ar  
  4   3   5  ar  
  5   3  18  1   
  6   4   6  ar  
  7   4  19  1   
  8   5   7  1   
  9   5   8  ar  
 10   6   8  ar  
 11   6  20  1   
 12   7   9  2   
 13   7  10  am  
 14   8  21  1   
 15  10  11  1   
 16  10  12  1   
 17  11  13  1   
 18  11  22  1   
 19  11  23  1   
 20  12  14  1   
 21  12  24  1   
 22  12  25  1   
 23  13  15  1   
 24  13  26  1   
 25  13  27  1   
 26  14  16  1   
 27  14  28  1   
 28  14  29  1   
 29  15  16  1   
 30  15  17  1   
 31  15  30  1   
 32  16  31  1   
 33  16  32  1   
 34  17  33  1   
 35  17  34  1   
 36  17  35  1   
@<TRIPOS>SUBSTRUCTURE
  1 ****   7 GROUP 4 **** **** 0

# MOE 2024.06 (io_trps.svl 2023.06)
