@<TRIPOS>MOLECULE
NONAME
51 52 1 0 0 
SMALL
USER_CHARGES


@<TRIPOS>ATOM
  1 O        0.6430    -2.1970    -0.5040 O.3   1 <1>  -0.3630 
  2 C       -0.7080    -2.1370    -0.3680 C.ar  1 <1>   0.0830 
  3 C        1.3590    -1.2000    -1.2040 C.3   1 <1>   0.1200 
  4 C       -1.3250    -3.1180     0.4030 C.ar  1 <1>  -0.1440 
  5 C       -1.4820    -1.1420    -0.9620 C.ar  1 <1>  -0.1500 
  6 C        2.8520    -1.5190    -1.1000 C.3   1 <1>   0.2000 
  7 C       -2.7000    -3.0870     0.5760 C.ar  1 <1>  -0.1500 
  8 C       -0.5170    -4.2280     1.0580 C.3   1 <1>  -0.0960 
  9 C       -2.8520    -1.1240    -0.7800 C.ar  1 <1>  -0.1500 
 10 O        3.0700    -2.7520    -1.6980 O.3   1 <1>  -0.6800 
 11 C        3.3040    -1.5150     0.3860 C.3   1 <1>   0.3430 
 12 C       -3.4680    -2.0940    -0.0080 C.ar  1 <1>  -0.1440 
 13 N        4.6600    -2.1230     0.7230 N.4   1 <1>  -0.9590 
 14 C       -4.9730    -2.0760     0.1910 C.3   1 <1>  -0.0970 
 15 C        5.7140    -1.7300    -0.2650 C.3   1 <1>   0.4230 
 16 C        4.6730    -3.5970     1.0750 C.3   1 <1>   0.4230 
 17 C        6.9970    -2.5360    -0.0330 C.3   1 <1>  -0.1600 
 18 C        6.0040    -0.2360    -0.1190 C.3   1 <1>  -0.2400 
 19 C        5.3330    -4.4620    -0.0070 C.3   1 <1>  -0.1600 
 20 C        3.3040    -4.1530     1.4710 C.3   1 <1>  -0.2400 
 21 C        6.7830    -4.0360    -0.2810 C.3   1 <1>  -0.1600 
 22 H        1.1400    -0.2460    -0.7580 H     1 <1>   0.0800 
 23 H        1.0410    -1.2020    -2.2340 H     1 <1>   0.0800 
 24 H       -1.0480    -0.3730    -1.5710 H     1 <1>   0.1500 
 25 H        3.4110    -0.7880    -1.6550 H     1 <1>   0.0800 
 26 H       -3.1830    -3.8420     1.1700 H     1 <1>   0.1500 
 27 H        0.1580    -3.8080     1.7810 H     1 <1>   0.0800 
 28 H        0.0480    -4.7580     0.3130 H     1 <1>   0.0800 
 29 H       -1.1590    -4.9300     1.5580 H     1 <1>   0.0800 
 30 H       -3.4400    -0.3510    -1.2430 H     1 <1>   0.1500 
 31 H        2.2590    -3.3010    -1.6080 H     1 <1>   0.4000 
 32 H        2.5330    -1.9850     0.9710 H     1 <1>   0.0800 
 33 H        3.3120    -0.4840     0.6990 H     1 <1>   0.0800 
 34 H        4.9490    -1.6710     1.5950 H     1 <1>   0.4500 
 35 H       -5.4430    -2.7110    -0.5380 H     1 <1>   0.0800 
 36 H       -5.3580    -1.0780     0.0830 H     1 <1>   0.0800 
 37 H       -5.2240    -2.4310     1.1740 H     1 <1>   0.0800 
 38 H        5.3670    -1.9380    -1.2660 H     1 <1>   0.0800 
 39 H        5.3010    -3.7010     1.9450 H     1 <1>   0.0800 
 40 H        7.3440    -2.3760     0.9740 H     1 <1>   0.0800 
 41 H        7.7710    -2.1870    -0.6950 H     1 <1>   0.0800 
 42 H        6.3460    -0.0040     0.8740 H     1 <1>   0.0800 
 43 H        5.1440     0.3620    -0.3520 H     1 <1>   0.0800 
 44 H        6.7810     0.0450    -0.8090 H     1 <1>   0.0800 
 45 H        4.7620    -4.4130    -0.9150 H     1 <1>   0.0800 
 46 H        5.3310    -5.4930     0.3030 H     1 <1>   0.0800 
 47 H        2.6310    -4.1690     0.6330 H     1 <1>   0.0800 
 48 H        2.8790    -3.5890     2.2810 H     1 <1>   0.0800 
 49 H        3.4180    -5.1670     1.8110 H     1 <1>   0.0800 
 50 H        7.4570    -4.5940     0.3480 H     1 <1>   0.0800 
 51 H        7.0240    -4.2770    -1.3030 H     1 <1>   0.0800 
@<TRIPOS>BOND
  1   1   2  1   
  2   1   3  1   
  3   2   4  ar  
  4   2   5  ar  
  5   3   6  1   
  6   3  22  1   
  7   3  23  1   
  8   4   7  ar  
  9   4   8  1   
 10   5   9  ar  
 11   5  24  1   
 12   6  10  1   
 13   6  11  1   
 14   6  25  1   
 15   7  12  ar  
 16   7  26  1   
 17   8  27  1   
 18   8  28  1   
 19   8  29  1   
 20   9  12  ar  
 21   9  30  1   
 22  10  31  1   
 23  11  13  1   
 24  11  32  1   
 25  11  33  1   
 26  12  14  1   
 27  13  15  1   
 28  13  16  1   
 29  13  34  1   
 30  14  35  1   
 31  14  36  1   
 32  14  37  1   
 33  15  17  1   
 34  15  18  1   
 35  15  38  1   
 36  16  19  1   
 37  16  20  1   
 38  16  39  1   
 39  17  21  1   
 40  17  40  1   
 41  17  41  1   
 42  18  42  1   
 43  18  43  1   
 44  18  44  1   
 45  19  21  1   
 46  19  45  1   
 47  19  46  1   
 48  20  47  1   
 49  20  48  1   
 50  20  49  1   
 51  21  50  1   
 52  21  51  1   
@<TRIPOS>SUBSTRUCTURE
  1 ****   1 GROUP 4 **** **** 0

# MOE 2024.06 (io_trps.svl 2023.06)
