@<TRIPOS>MOLECULE
NONAME
56 58 1 0 0 
SMALL
USER_CHARGES


@<TRIPOS>ATOM
  1 O       -0.6590    -0.4280    -0.9300 O.3   1 <1>  -0.3630 
  2 C       -1.7810    -0.9460    -0.3760 C.ar  1 <1>   0.0820 
  3 C        0.5490    -1.0920    -0.6270 C.3   1 <1>   0.0400 
  4 C       -2.0480    -0.8840     0.9960 C.ar  1 <1>   0.0820 
  5 C       -2.6810    -1.5620    -1.2270 C.ar  1 <1>  -0.1500 
  6 O       -1.2460    -0.2570     1.8940 O.3   1 <1>  -0.3630 
  7 C       -3.1870    -1.4890     1.4970 C.ar  1 <1>  -0.1500 
  8 C       -3.8360    -2.1520    -0.7220 C.ar  1 <1>   0.0820 
  9 C       -0.9720     1.1130     1.6800 C.3   1 <1>   0.0400 
 10 C       -4.0820    -2.1220     0.6480 C.ar  1 <1>  -0.1440 
 11 O       -4.7610    -2.7660    -1.5130 O.3   1 <1>  -0.3630 
 12 C       -5.3270    -2.7740     1.2170 C.3   1 <1>   0.4860 
 13 C       -4.4910    -3.0120    -2.8800 C.3   1 <1>   0.0400 
 14 N       -6.5130    -2.1020     0.6380 N.4   1 <1>  -0.9590 
 15 C       -6.6060    -0.6510     1.0380 C.3   1 <1>   0.3430 
 16 C       -7.7950    -2.8380     0.9180 C.3   1 <1>   0.3430 
 17 C       -7.8290     0.0510     0.4160 C.3   1 <1>   0.2090 
 18 C       -9.0180    -2.1400     0.2910 C.3   1 <1>   0.2090 
 19 N       -9.0850    -0.7060     0.7020 N.pl3 1 <1>  -0.8380 
 20 C      -10.2620    -0.0470     0.3180 C.ar  1 <1>   0.1000 
 21 C      -10.6140     0.2220    -1.0180 C.ar  1 <1>   0.0820 
 22 C      -11.1200     0.3600     1.3300 C.ar  1 <1>  -0.1500 
 23 O       -9.7590    -0.1830    -2.0110 O.3   1 <1>  -0.3630 
 24 C      -11.8080     0.8830    -1.2940 C.ar  1 <1>  -0.1500 
 25 C      -12.3040     1.0160     1.0470 C.ar  1 <1>  -0.1500 
 26 C      -10.0450     0.0740    -3.3700 C.3   1 <1>   0.0400 
 27 C      -12.6470     1.2780    -0.2660 C.ar  1 <1>  -0.1500 
 28 H        1.3450    -0.6000    -1.1550 H     1 <1>   0.0800 
 29 H        0.4730    -2.1160    -0.9470 H     1 <1>   0.0800 
 30 H        0.7270    -1.0450     0.4320 H     1 <1>   0.0800 
 31 H       -2.4480    -1.5660    -2.2740 H     1 <1>   0.1500 
 32 H       -3.3530    -1.4500     2.5600 H     1 <1>   0.1500 
 33 H       -0.5460     1.5150     2.5810 H     1 <1>   0.0800 
 34 H       -1.8900     1.6230     1.4470 H     1 <1>   0.0800 
 35 H       -0.2710     1.2170     0.8730 H     1 <1>   0.0800 
 36 H       -5.3360    -2.6930     2.2910 H     1 <1>   0.0800 
 37 H       -5.3270    -3.8180     0.9470 H     1 <1>   0.0800 
 38 H       -4.3970    -2.0730    -3.3970 H     1 <1>   0.0800 
 39 H       -5.3100    -3.5740    -3.2930 H     1 <1>   0.0800 
 40 H       -3.5830    -3.5850    -2.9620 H     1 <1>   0.0800 
 41 H       -6.3420    -2.1220    -0.3820 H     1 <1>   0.4500 
 42 H       -5.7130    -0.1290     0.7360 H     1 <1>   0.0800 
 43 H       -6.6870    -0.5760     2.1100 H     1 <1>   0.0800 
 44 H       -7.9530    -2.8950     1.9820 H     1 <1>   0.0800 
 45 H       -7.7320    -3.8430     0.5350 H     1 <1>   0.0800 
 46 H       -7.6880     0.1430    -0.6460 H     1 <1>   0.0800 
 47 H       -7.9170     1.0440     0.8230 H     1 <1>   0.0800 
 48 H       -9.9180    -2.6390     0.6100 H     1 <1>   0.0800 
 49 H       -8.9640    -2.2140    -0.7810 H     1 <1>   0.0800 
 50 H      -10.8530     0.1560     2.3500 H     1 <1>   0.1500 
 51 H      -12.1110     1.1050    -2.2980 H     1 <1>   0.1500 
 52 H      -12.9550     1.3230     1.8470 H     1 <1>   0.1500 
 53 H       -9.2400    -0.3210    -3.9630 H     1 <1>   0.0800 
 54 H      -10.1190     1.1370    -3.5170 H     1 <1>   0.0800 
 55 H      -10.9660    -0.4170    -3.6330 H     1 <1>   0.0800 
 56 H      -13.5680     1.7890    -0.4880 H     1 <1>   0.1500 
@<TRIPOS>BOND
  1   1   2  1   
  2   1   3  1   
  3   2   4  ar  
  4   2   5  ar  
  5   3  28  1   
  6   3  29  1   
  7   3  30  1   
  8   4   6  1   
  9   4   7  ar  
 10   5   8  ar  
 11   5  31  1   
 12   6   9  1   
 13   7  10  ar  
 14   7  32  1   
 15   8  10  ar  
 16   8  11  1   
 17   9  33  1   
 18   9  34  1   
 19   9  35  1   
 20  10  12  1   
 21  11  13  1   
 22  12  14  1   
 23  12  36  1   
 24  12  37  1   
 25  13  38  1   
 26  13  39  1   
 27  13  40  1   
 28  14  15  1   
 29  14  16  1   
 30  14  41  1   
 31  15  17  1   
 32  15  42  1   
 33  15  43  1   
 34  16  18  1   
 35  16  44  1   
 36  16  45  1   
 37  17  19  1   
 38  17  46  1   
 39  17  47  1   
 40  18  19  1   
 41  18  48  1   
 42  18  49  1   
 43  19  20  1   
 44  20  21  ar  
 45  20  22  ar  
 46  21  23  1   
 47  21  24  ar  
 48  22  25  ar  
 49  22  50  1   
 50  23  26  1   
 51  24  27  ar  
 52  24  51  1   
 53  25  27  ar  
 54  25  52  1   
 55  26  53  1   
 56  26  54  1   
 57  26  55  1   
 58  27  56  1   
@<TRIPOS>SUBSTRUCTURE
  1 ****  15 GROUP 4 **** **** 0

# MOE 2024.06 (io_trps.svl 2023.06)
