@<TRIPOS>MOLECULE
NONAME
59 61 1 0 0 
SMALL
USER_CHARGES


@<TRIPOS>ATOM
  1 O       -2.6380    -3.3570    -0.4270 O.3   1 <1>  -0.3630 
  2 C       -3.9800    -3.4570    -0.2500 C.ar  1 <1>   0.0830 
  3 C       -1.9570    -2.1410    -0.2080 C.3   1 <1>   0.1200 
  4 C       -4.7860    -2.4180     0.2020 C.ar  1 <1>  -0.1500 
  5 C       -4.5570    -4.6780    -0.5450 C.ar  1 <1>  -0.1500 
  6 C       -0.4710    -2.3600    -0.5180 C.3   1 <1>   0.2000 
  7 C       -6.1540    -2.5940     0.3570 C.ar  1 <1>  -0.1440 
  8 C       -5.9180    -4.8580    -0.3930 C.ar  1 <1>  -0.1500 
  9 O       -0.0200    -3.4780     0.1850 O.3   1 <1>  -0.6800 
 10 C        0.4050    -1.1450    -0.1410 C.3   1 <1>   0.3430 
 11 C       -6.7350    -3.8280     0.0570 C.ar  1 <1>  -0.1440 
 12 C       -6.9730    -1.4100     0.8560 C.3   1 <1>  -0.0970 
 13 N        1.8230    -1.5670     0.0790 N.4   1 <1>  -0.9590 
 14 C       -8.2400    -4.0980     0.2030 C.3   1 <1>   0.0630 
 15 C        2.5830    -0.6420     0.9930 C.3   1 <1>   0.3430 
 16 C        2.5710    -1.8190    -1.2060 C.3   1 <1>   0.3430 
 17 C       -8.5030    -5.2040     1.2310 C.3   1 <1>  -0.2400 
 18 C       -8.8670    -4.4550    -1.1490 C.3   1 <1>  -0.2400 
 19 C        4.0350    -1.1070     1.2300 C.3   1 <1>   0.2090 
 20 C        4.0210    -2.2840    -0.9620 C.3   1 <1>   0.2090 
 21 N        4.7500    -1.3440    -0.0590 N.pl3 1 <1>  -0.8380 
 22 C        6.0890    -1.6330     0.0890 C.ar  1 <1>   0.4100 
 23 N        6.3770    -2.7730     0.7010 N.ar  1 <1>  -0.6200 
 24 C        7.0480    -0.7490    -0.3930 C.ar  1 <1>  -0.1500 
 25 C        7.6670    -3.0380     0.8370 C.ar  1 <1>   0.1600 
 26 C        8.3840    -1.0380    -0.2450 C.ar  1 <1>  -0.1500 
 27 C        8.6930    -2.2230     0.3920 C.ar  1 <1>  -0.1500 
 28 H       -2.0950    -1.8550     0.8210 H     1 <1>   0.0800 
 29 H       -2.3790    -1.3940    -0.8590 H     1 <1>   0.0800 
 30 H       -4.3640    -1.4630     0.4390 H     1 <1>   0.1500 
 31 H       -3.9420    -5.4860    -0.8950 H     1 <1>   0.1500 
 32 H       -0.3640    -2.5700    -1.5690 H     1 <1>   0.0800 
 33 H       -6.3390    -5.8180    -0.6300 H     1 <1>   0.1500 
 34 H       -0.7220    -4.1720     0.1420 H     1 <1>   0.4000 
 35 H        0.0160    -0.7290     0.7740 H     1 <1>   0.0800 
 36 H        0.3440    -0.3860    -0.9020 H     1 <1>   0.0800 
 37 H       -6.3530    -0.5500     1.0330 H     1 <1>   0.0800 
 38 H       -7.4610    -1.6640     1.7800 H     1 <1>   0.0800 
 39 H       -7.7150    -1.1420     0.1260 H     1 <1>   0.0800 
 40 H        1.7310    -2.4920     0.5440 H     1 <1>   0.4500 
 41 H       -8.7450    -3.2190     0.5570 H     1 <1>   0.0800 
 42 H        2.0810    -0.5720     1.9440 H     1 <1>   0.0800 
 43 H        2.6170     0.3440     0.5610 H     1 <1>   0.0800 
 44 H        2.6040    -0.9140    -1.7880 H     1 <1>   0.0800 
 45 H        2.0590    -2.5700    -1.7840 H     1 <1>   0.0800 
 46 H       -8.0950    -6.1430     0.9030 H     1 <1>   0.0800 
 47 H       -9.5600    -5.3250     1.3860 H     1 <1>   0.0800 
 48 H       -8.0470    -4.9430     2.1700 H     1 <1>   0.0800 
 49 H       -8.4670    -5.3770    -1.5310 H     1 <1>   0.0800 
 50 H       -8.6640    -3.6740    -1.8610 H     1 <1>   0.0800 
 51 H       -9.9330    -4.5590    -1.0500 H     1 <1>   0.0800 
 52 H        4.0350    -2.0120     1.8140 H     1 <1>   0.0800 
 53 H        4.5630    -0.3560     1.7930 H     1 <1>   0.0800 
 54 H        4.5410    -2.3420    -1.9030 H     1 <1>   0.0800 
 55 H        4.0170    -3.2700    -0.5300 H     1 <1>   0.0800 
 56 H        6.7280     0.1530    -0.8780 H     1 <1>   0.1500 
 57 H        7.9230    -3.9600     1.3320 H     1 <1>   0.1500 
 58 H        9.1520    -0.3760    -0.6070 H     1 <1>   0.1500 
 59 H        9.7180    -2.5110     0.5410 H     1 <1>   0.1500 
@<TRIPOS>BOND
  1   1   2  1   
  2   1   3  1   
  3   2   4  ar  
  4   2   5  ar  
  5   3   6  1   
  6   3  28  1   
  7   3  29  1   
  8   4   7  ar  
  9   4  30  1   
 10   5   8  ar  
 11   5  31  1   
 12   6   9  1   
 13   6  10  1   
 14   6  32  1   
 15   7  11  ar  
 16   7  12  1   
 17   8  11  ar  
 18   8  33  1   
 19   9  34  1   
 20  10  13  1   
 21  10  35  1   
 22  10  36  1   
 23  11  14  1   
 24  12  37  1   
 25  12  38  1   
 26  12  39  1   
 27  13  15  1   
 28  13  16  1   
 29  13  40  1   
 30  14  17  1   
 31  14  18  1   
 32  14  41  1   
 33  15  19  1   
 34  15  42  1   
 35  15  43  1   
 36  16  20  1   
 37  16  44  1   
 38  16  45  1   
 39  17  46  1   
 40  17  47  1   
 41  17  48  1   
 42  18  49  1   
 43  18  50  1   
 44  18  51  1   
 45  19  21  1   
 46  19  52  1   
 47  19  53  1   
 48  20  21  1   
 49  20  54  1   
 50  20  55  1   
 51  21  22  1   
 52  22  23  ar  
 53  22  24  ar  
 54  23  25  ar  
 55  24  26  ar  
 56  24  56  1   
 57  25  27  ar  
 58  25  57  1   
 59  26  27  ar  
 60  26  58  1   
 61  27  59  1   
@<TRIPOS>SUBSTRUCTURE
  1 ****   6 GROUP 4 **** **** 0

# MOE 2024.06 (io_trps.svl 2023.06)
