@<TRIPOS>MOLECULE
NONAME
42 43 1 0 0 
SMALL
USER_CHARGES


@<TRIPOS>ATOM
  1 O        0.4140     0.8480     1.4710 O.2   1 <1>  -0.5700 
  2 C        0.3360     1.9230     0.9230 C.2   1 <1>   0.4950 
  3 C        1.4280     2.5320     0.2240 C.2   1 <1>   0.0290 
  4 C       -1.0150     2.6090     1.0390 C.3   1 <1>  -0.0990 
  5 C        1.2270     3.8330    -0.3520 C.2   1 <1>   0.4950 
  6 C        2.6260     1.8520     0.1280 C.2   1 <1>  -0.0500 
  7 C       -1.3010     3.5750    -0.1170 C.3   1 <1>   0.0000 
  8 O        2.0760     4.4650    -0.9440 O.2   1 <1>  -0.5700 
  9 C       -0.1140     4.5400    -0.2360 C.3   1 <1>  -0.0990 
 10 N        3.7460     2.2850    -0.4970 N.pl3 1 <1>  -0.8690 
 11 C       -2.5820     4.3690     0.1810 C.3   1 <1>  -0.2400 
 12 C       -1.5060     2.8010    -1.4330 C.3   1 <1>  -0.2400 
 13 C        5.0320     1.5590    -0.5990 C.3   1 <1>   0.2090 
 14 C        6.1090     2.3170     0.1730 C.3   1 <1>  -0.0170 
 15 C        7.4390     1.5860     0.0780 C.ar  1 <1>  -0.1430 
 16 C        7.7590     0.6010     1.0020 C.ar  1 <1>  -0.1500 
 17 C        8.3370     1.8930    -0.9340 C.ar  1 <1>  -0.1500 
 18 C        8.9650    -0.0720     0.9140 C.ar  1 <1>  -0.1500 
 19 C        9.5450     1.2230    -1.0260 C.ar  1 <1>  -0.1500 
 20 C        9.8530     0.2400    -0.0990 C.ar  1 <1>   0.0820 
 21 O       11.0190    -0.4190    -0.1750 O.3   1 <1>  -0.5330 
 22 H       -1.7840     1.8560     1.0810 H     1 <1>   0.0800 
 23 H       -1.0330     3.1360     1.9760 H     1 <1>   0.0800 
 24 H        2.6950     0.8780     0.5910 H     1 <1>   0.1500 
 25 H       -0.0700     5.1810     0.6260 H     1 <1>   0.0800 
 26 H       -0.2490     5.1710    -1.0980 H     1 <1>   0.0800 
 27 H        3.7230     3.2150    -0.9570 H     1 <1>   0.4000 
 28 H       -3.4240     3.7060     0.2810 H     1 <1>   0.0800 
 29 H       -2.7930     5.0610    -0.6160 H     1 <1>   0.0800 
 30 H       -2.4860     4.9280     1.0950 H     1 <1>   0.0800 
 31 H       -0.6410     2.2210    -1.7000 H     1 <1>   0.0800 
 32 H       -1.7100     3.4820    -2.2410 H     1 <1>   0.0800 
 33 H       -2.3420     2.1280    -1.3480 H     1 <1>   0.0800 
 34 H        4.9230     0.5680    -0.1910 H     1 <1>   0.0800 
 35 H        5.3120     1.4710    -1.6340 H     1 <1>   0.0800 
 36 H        6.2100     3.3090    -0.2310 H     1 <1>   0.0800 
 37 H        5.8150     2.4020     1.2030 H     1 <1>   0.0800 
 38 H        7.0720     0.3540     1.7920 H     1 <1>   0.1500 
 39 H        8.0990     2.6560    -1.6550 H     1 <1>   0.1500 
 40 H        9.2210    -0.8360     1.6250 H     1 <1>   0.1500 
 41 H       10.2330     1.4670    -1.8130 H     1 <1>   0.1500 
 42 H       11.5760    -0.1240    -0.9150 H     1 <1>   0.4500 
@<TRIPOS>BOND
  1   1   2  2   
  2   2   3  1   
  3   2   4  1   
  4   3   5  1   
  5   3   6  2   
  6   4   7  1   
  7   4  22  1   
  8   4  23  1   
  9   5   8  2   
 10   5   9  1   
 11   6  10  1   
 12   6  24  1   
 13   7   9  1   
 14   7  11  1   
 15   7  12  1   
 16   9  25  1   
 17   9  26  1   
 18  10  13  1   
 19  10  27  1   
 20  11  28  1   
 21  11  29  1   
 22  11  30  1   
 23  12  31  1   
 24  12  32  1   
 25  12  33  1   
 26  13  14  1   
 27  13  34  1   
 28  13  35  1   
 29  14  15  1   
 30  14  36  1   
 31  14  37  1   
 32  15  16  ar  
 33  15  17  ar  
 34  16  18  ar  
 35  16  38  1   
 36  17  19  ar  
 37  17  39  1   
 38  18  20  ar  
 39  18  40  1   
 40  19  20  ar  
 41  19  41  1   
 42  20  21  1   
 43  21  42  1   
@<TRIPOS>SUBSTRUCTURE
  1 ****  10 GROUP 4 **** **** 0

# MOE 2024.06 (io_trps.svl 2023.06)
