@<TRIPOS>MOLECULE
NONAME
39 40 1 0 0 
SMALL
USER_CHARGES


@<TRIPOS>ATOM
  1 S        1.1490    -0.3470    -0.7250 S.3   1 <1>  -0.3320 
  2 C        0.5820    -1.9520    -0.1060 C.ar  1 <1>   0.1020 
  3 C       -0.2960     0.5170    -1.4890 C.3   1 <1>  -0.0100 
  4 C        1.4270    -2.7420     0.6900 C.ar  1 <1>   0.0860 
  5 C       -0.7020    -2.3710    -0.4310 C.ar  1 <1>  -0.1500 
  6 C        2.7900    -2.3990     1.0640 C.2   1 <1>   0.5440 
  7 C        0.9030    -3.9530     1.1520 C.ar  1 <1>  -0.1500 
  8 C       -1.1810    -3.5790     0.0390 C.ar  1 <1>  -0.1500 
  9 O        3.2060    -2.6820     2.1720 O.2   1 <1>  -0.5700 
 10 N        3.6450    -1.8040     0.1830 N.am  1 <1>  -0.7300 
 11 C       -0.3760    -4.3700     0.8350 C.ar  1 <1>  -0.1500 
 12 C        5.0240    -1.3740     0.4640 C.3   1 <1>   0.2200 
 13 C        5.0310     0.1590     0.5400 C.3   1 <1>  -0.1600 
 14 C        5.9240    -1.9700    -0.6250 C.3   1 <1>  -0.1600 
 15 C        6.3330     0.7120     1.1400 C.3   1 <1>  -0.1600 
 16 C        7.4020    -1.5520    -0.5510 C.3   1 <1>  -0.1600 
 17 C        7.4650     0.9470     0.1280 C.3   1 <1>  -0.1600 
 18 C        7.6230    -0.0970    -0.9890 C.3   1 <1>  -0.1600 
 19 H        0.0260     1.5060    -1.7630 H     1 <1>   0.0800 
 20 H       -1.0820     0.5640    -0.7560 H     1 <1>   0.0800 
 21 H       -0.5970    -0.0380    -2.3590 H     1 <1>   0.0800 
 22 H       -1.3460    -1.7770    -1.0480 H     1 <1>   0.1500 
 23 H        1.5200    -4.5780     1.7750 H     1 <1>   0.1500 
 24 H       -2.1770    -3.9030    -0.2120 H     1 <1>   0.1500 
 25 H        3.2390    -1.4030    -0.6640 H     1 <1>   0.3700 
 26 H       -0.7440    -5.3100     1.2090 H     1 <1>   0.1500 
 27 H        5.3290    -1.7700     1.4190 H     1 <1>   0.0800 
 28 H        4.2270     0.4520     1.1940 H     1 <1>   0.0800 
 29 H        4.8440     0.5920    -0.4270 H     1 <1>   0.0800 
 30 H        5.5330    -1.7130    -1.5930 H     1 <1>   0.0800 
 31 H        5.8770    -3.0410    -0.5300 H     1 <1>   0.0800 
 32 H        6.6760     0.0470     1.9140 H     1 <1>   0.0800 
 33 H        6.1190     1.6530     1.6170 H     1 <1>   0.0800 
 34 H        7.9510    -2.1870    -1.2250 H     1 <1>   0.0800 
 35 H        7.7980    -1.7190     0.4370 H     1 <1>   0.0800 
 36 H        8.3890     1.0060     0.6770 H     1 <1>   0.0800 
 37 H        7.3170     1.9060    -0.3380 H     1 <1>   0.0800 
 38 H        6.9510     0.1390    -1.7960 H     1 <1>   0.0800 
 39 H        8.6200    -0.0050    -1.3840 H     1 <1>   0.0800 
@<TRIPOS>BOND
  1   1   2  1   
  2   1   3  1   
  3   2   4  ar  
  4   2   5  ar  
  5   3  19  1   
  6   3  20  1   
  7   3  21  1   
  8   4   6  1   
  9   4   7  ar  
 10   5   8  ar  
 11   5  22  1   
 12   6   9  2   
 13   6  10  am  
 14   7  11  ar  
 15   7  23  1   
 16   8  11  ar  
 17   8  24  1   
 18  10  12  1   
 19  10  25  1   
 20  11  26  1   
 21  12  13  1   
 22  12  14  1   
 23  12  27  1   
 24  13  15  1   
 25  13  28  1   
 26  13  29  1   
 27  14  16  1   
 28  14  30  1   
 29  14  31  1   
 30  15  17  1   
 31  15  32  1   
 32  15  33  1   
 33  16  18  1   
 34  16  34  1   
 35  16  35  1   
 36  17  18  1   
 37  17  36  1   
 38  17  37  1   
 39  18  38  1   
 40  18  39  1   
@<TRIPOS>SUBSTRUCTURE
  1 ****  10 GROUP 4 **** **** 0

# MOE 2024.06 (io_trps.svl 2023.06)
