@<TRIPOS>MOLECULE
NONAME
39 40 1 0 0 
SMALL
USER_CHARGES


@<TRIPOS>ATOM
  1 O       -0.0780     2.2280     2.6370 O.2   1 <1>  -0.5700 
  2 C       -0.0250     3.0450     1.7440 C.2   1 <1>   0.5440 
  3 N        0.8760     4.0490     1.9060 N.am  1 <1>  -0.7300 
  4 C       -0.8470     2.9120     0.5530 C.ar  1 <1>   0.0860 
  5 C        1.6350     4.7460     0.8180 C.3   1 <1>   0.2010 
  6 C       -1.0880     1.6590    -0.0100 C.ar  1 <1>  -0.1500 
  7 C       -1.4210     4.0190    -0.0730 C.ar  1 <1>  -0.1500 
  8 C        3.1570     4.6530     0.9810 C.2   1 <1>   0.5690 
  9 C       -1.8480     1.5170    -1.1570 C.ar  1 <1>  -0.1500 
 10 C       -2.1820     3.8850    -1.2200 C.ar  1 <1>  -0.1500 
 11 O        3.7340     5.6780     1.2630 O.2   1 <1>  -0.5700 
 12 N        3.8310     3.4640     0.8180 N.am  1 <1>  -0.6600 
 13 C       -2.3940     2.6320    -1.7660 C.ar  1 <1>  -0.1500 
 14 C        3.1940     2.1530     0.5050 C.3   1 <1>   0.1400 
 15 C        5.3080     3.3850     1.0010 C.3   1 <1>   0.1400 
 16 C        3.8270     1.5540    -0.7540 C.3   1 <1>  -0.1600 
 17 C        5.9570     2.7970    -0.2560 C.3   1 <1>  -0.1600 
 18 C        5.3520     1.4320    -0.6180 C.3   1 <1>  -0.0800 
 19 C        5.9700     0.8940    -1.9140 C.3   1 <1>  -0.2400 
 20 H        1.3520     4.0470     2.8120 H     1 <1>   0.3700 
 21 H        1.3610     5.7860     0.8220 H     1 <1>   0.0800 
 22 H        1.3710     4.3410    -0.1420 H     1 <1>   0.0800 
 23 H       -0.6720     0.7870     0.4660 H     1 <1>   0.1500 
 24 H       -1.2720     4.9970     0.3510 H     1 <1>   0.1500 
 25 H       -2.0180     0.5390    -1.5740 H     1 <1>   0.1500 
 26 H       -2.6130     4.7540    -1.6880 H     1 <1>   0.1500 
 27 H       -2.9860     2.5240    -2.6590 H     1 <1>   0.1500 
 28 H        2.1380     2.2550     0.3460 H     1 <1>   0.0800 
 29 H        3.3380     1.4870     1.3400 H     1 <1>   0.0800 
 30 H        5.5220     2.7600     1.8510 H     1 <1>   0.0800 
 31 H        5.7230     4.3600     1.1940 H     1 <1>   0.0800 
 32 H        3.5810     2.1780    -1.5950 H     1 <1>   0.0800 
 33 H        3.4010     0.5820    -0.9310 H     1 <1>   0.0800 
 34 H        7.0140     2.6930    -0.0870 H     1 <1>   0.0800 
 35 H        5.8210     3.4900    -1.0680 H     1 <1>   0.0800 
 36 H        5.5710     0.7380     0.1770 H     1 <1>   0.0800 
 37 H        5.7740     1.5620    -2.7340 H     1 <1>   0.0800 
 38 H        5.5580    -0.0710    -2.1510 H     1 <1>   0.0800 
 39 H        7.0350     0.7890    -1.8040 H     1 <1>   0.0800 
@<TRIPOS>BOND
  1   1   2  2   
  2   2   3  am  
  3   2   4  1   
  4   3   5  1   
  5   3  20  1   
  6   4   6  ar  
  7   4   7  ar  
  8   5   8  1   
  9   5  21  1   
 10   5  22  1   
 11   6   9  ar  
 12   6  23  1   
 13   7  10  ar  
 14   7  24  1   
 15   8  11  2   
 16   8  12  am  
 17   9  13  ar  
 18   9  25  1   
 19  10  13  ar  
 20  10  26  1   
 21  12  14  1   
 22  12  15  1   
 23  13  27  1   
 24  14  16  1   
 25  14  28  1   
 26  14  29  1   
 27  15  17  1   
 28  15  30  1   
 29  15  31  1   
 30  16  18  1   
 31  16  32  1   
 32  16  33  1   
 33  17  18  1   
 34  17  34  1   
 35  17  35  1   
 36  18  19  1   
 37  18  36  1   
 38  19  37  1   
 39  19  38  1   
 40  19  39  1   
@<TRIPOS>SUBSTRUCTURE
  1 ****  14 GROUP 4 **** **** 0

# MOE 2024.06 (io_trps.svl 2023.06)
