@<TRIPOS>MOLECULE
NONAME
55 57 1 0 0 
SMALL
USER_CHARGES


@<TRIPOS>ATOM
  1 O       -0.3480     1.7930     0.6540 O.2   1 <1>  -0.5700 
  2 C        0.8050     1.7110     1.0280 C.2   1 <1>   0.6900 
  3 N        1.6990     0.8590     0.4600 N.am  1 <1>  -0.5470 
  4 N        1.2290     2.5230     2.0290 N.am  1 <1>  -0.7300 
  5 C        1.5610     0.0030    -0.6450 C.ar  1 <1>   0.1170 
  6 C        0.3430     3.2670     2.9780 C.3   1 <1>   0.1400 
  7 C        2.2480    -1.2180    -0.6810 C.ar  1 <1>  -0.1430 
  8 C        0.7700     0.3680    -1.7290 C.ar  1 <1>  -0.1500 
  9 C       -0.1560     4.6100     2.3990 C.3   1 <1>   0.3430 
 10 C        2.1450    -2.0350    -1.8060 C.ar  1 <1>  -0.1440 
 11 C        3.1030    -1.6400     0.5170 C.3   1 <1>  -0.0970 
 12 C        0.6590    -0.4490    -2.8330 C.ar  1 <1>  -0.1500 
 13 N       -0.9560     4.4090     1.1570 N.4   1 <1>  -0.9590 
 14 C        1.3470    -1.6450    -2.8710 C.ar  1 <1>  -0.1500 
 15 C        2.8820    -3.3630    -1.9280 C.3   1 <1>  -0.0970 
 16 C       -0.8740     5.5590     0.1900 C.3   1 <1>   0.3430 
 17 C       -2.3850     4.0100     1.4240 C.3   1 <1>   0.3430 
 18 C       -1.6440     5.2880    -1.1220 C.3   1 <1>   0.2090 
 19 C       -3.1470     3.6850     0.1230 C.3   1 <1>   0.2090 
 20 N       -3.0330     4.8060    -0.8580 N.pl3 1 <1>  -0.8380 
 21 C       -4.1320     5.6460    -1.0320 C.ar  1 <1>   0.1000 
 22 C       -5.2950     5.1390    -1.6000 C.ar  1 <1>  -0.1500 
 23 C       -4.1140     6.9830    -0.6450 C.ar  1 <1>  -0.1500 
 24 C       -6.4100     5.9370    -1.7730 C.ar  1 <1>  -0.1500 
 25 C       -5.2270     7.7860    -0.8180 C.ar  1 <1>  -0.1500 
 26 C       -6.3780     7.2640    -1.3810 C.ar  1 <1>  -0.1500 
 27 H        2.5560     0.7130     0.9810 H     1 <1>   0.3700 
 28 H        2.2070     2.4420     2.3160 H     1 <1>   0.3700 
 29 H        0.8920     3.4600     3.8840 H     1 <1>   0.0800 
 30 H       -0.5000     2.6490     3.2370 H     1 <1>   0.0800 
 31 H        0.2380     1.3000    -1.7190 H     1 <1>   0.1500 
 32 H        0.7050     5.2200     2.1810 H     1 <1>   0.0800 
 33 H       -0.7490     5.1270     3.1360 H     1 <1>   0.0800 
 34 H        4.0590    -1.1510     0.4730 H     1 <1>   0.0800 
 35 H        3.2650    -2.7000     0.5430 H     1 <1>   0.0800 
 36 H        2.6160    -1.3850     1.4410 H     1 <1>   0.0800 
 37 H        0.0410    -0.1570    -3.6650 H     1 <1>   0.1500 
 38 H       -0.5500     3.5700     0.6900 H     1 <1>   0.4500 
 39 H        1.2540    -2.2710    -3.7410 H     1 <1>   0.1500 
 40 H        2.4690    -4.0780    -1.2390 H     1 <1>   0.0800 
 41 H        3.9280    -3.2290    -1.7170 H     1 <1>   0.0800 
 42 H        2.7950    -3.7650    -2.9210 H     1 <1>   0.0800 
 43 H        0.1560     5.7620    -0.0480 H     1 <1>   0.0800 
 44 H       -1.2900     6.4400     0.6480 H     1 <1>   0.0800 
 45 H       -2.9010     4.8090     1.9280 H     1 <1>   0.0800 
 46 H       -2.4070     3.1390     2.0580 H     1 <1>   0.0800 
 47 H       -1.1220     4.5430    -1.6960 H     1 <1>   0.0800 
 48 H       -1.6780     6.1860    -1.7160 H     1 <1>   0.0800 
 49 H       -4.1840     3.5080     0.3550 H     1 <1>   0.0800 
 50 H       -2.7500     2.7850    -0.3150 H     1 <1>   0.0800 
 51 H       -5.3170     4.1120    -1.9140 H     1 <1>   0.1500 
 52 H       -3.2330     7.4040    -0.2040 H     1 <1>   0.1500 
 53 H       -7.3020     5.5280    -2.2150 H     1 <1>   0.1500 
 54 H       -5.2020     8.8190    -0.5160 H     1 <1>   0.1500 
 55 H       -7.2450     7.8870    -1.5160 H     1 <1>   0.1500 
@<TRIPOS>BOND
  1   1   2  2   
  2   2   3  am  
  3   2   4  am  
  4   3   5  1   
  5   3  27  1   
  6   4   6  1   
  7   4  28  1   
  8   5   7  ar  
  9   5   8  ar  
 10   6   9  1   
 11   6  29  1   
 12   6  30  1   
 13   7  10  ar  
 14   7  11  1   
 15   8  12  ar  
 16   8  31  1   
 17   9  13  1   
 18   9  32  1   
 19   9  33  1   
 20  10  14  ar  
 21  10  15  1   
 22  11  34  1   
 23  11  35  1   
 24  11  36  1   
 25  12  14  ar  
 26  12  37  1   
 27  13  16  1   
 28  13  17  1   
 29  13  38  1   
 30  14  39  1   
 31  15  40  1   
 32  15  41  1   
 33  15  42  1   
 34  16  18  1   
 35  16  43  1   
 36  16  44  1   
 37  17  19  1   
 38  17  45  1   
 39  17  46  1   
 40  18  20  1   
 41  18  47  1   
 42  18  48  1   
 43  19  20  1   
 44  19  49  1   
 45  19  50  1   
 46  20  21  1   
 47  21  22  ar  
 48  21  23  ar  
 49  22  24  ar  
 50  22  51  1   
 51  23  25  ar  
 52  23  52  1   
 53  24  26  ar  
 54  24  53  1   
 55  25  26  ar  
 56  25  54  1   
 57  26  55  1   
@<TRIPOS>SUBSTRUCTURE
  1 ****   1 GROUP 4 **** **** 0

# MOE 2024.06 (io_trps.svl 2023.06)
