@<TRIPOS>MOLECULE
NONAME
54 56 1 0 0 
SMALL
USER_CHARGES


@<TRIPOS>ATOM
  1 O       -0.2910     0.4600     0.4270 O.2   1 <1>  -0.5700 
  2 C       -0.3120     1.4860    -0.2130 C.2   1 <1>   0.5690 
  3 N       -1.4930     2.0890    -0.5610 N.am  1 <1>  -0.6600 
  4 C        1.0150     2.1020    -0.6320 C.3   1 <1>  -0.0990 
  5 C       -1.6300     3.3850    -1.3050 C.3   1 <1>   0.1400 
  6 C       -2.8160     1.4940    -0.1790 C.3   1 <1>   0.1400 
  7 C        2.2460     1.2430    -0.2740 C.3   1 <1>  -0.0990 
  8 C       -2.5280     4.3810    -0.5500 C.3   1 <1>   0.2090 
  9 C       -3.6960     2.5080     0.5720 C.3   1 <1>   0.2090 
 10 C        3.5680     1.8670    -0.6930 C.2   1 <1>   0.5690 
 11 N       -3.8490     3.7710    -0.2070 N.pl3 1 <1>  -0.8380 
 12 O        3.5780     2.8730    -1.3560 O.2   1 <1>  -0.5700 
 13 N        4.7350     1.2960    -0.3260 N.am  1 <1>  -0.7300 
 14 C       -4.8690     4.6170     0.1850 C.ar  1 <1>   0.4100 
 15 C        4.9560     0.0410     0.4130 C.3   1 <1>   0.2840 
 16 N       -4.5290     5.7230     0.8380 N.ar  1 <1>  -0.6200 
 17 C       -6.1880     4.2780    -0.1060 C.ar  1 <1>  -0.1500 
 18 C        6.3360    -0.4850     0.0640 C.ar  1 <1>  -0.1440 
 19 C       -5.5300     6.5030     1.2110 C.ar  1 <1>   0.1600 
 20 C       -7.2190     5.0980     0.2880 C.ar  1 <1>  -0.1500 
 21 C        7.3560    -0.4620     1.0020 C.ar  1 <1>  -0.1500 
 22 C        6.5900    -0.9940    -1.2010 C.ar  1 <1>  -0.1500 
 23 C       -6.8670     6.2460     0.9690 C.ar  1 <1>  -0.1500 
 24 C        8.6180    -0.9430     0.6910 C.ar  1 <1>   0.0820 
 25 C        7.8480    -1.4760    -1.5220 C.ar  1 <1>  -0.1500 
 26 O        9.5520    -0.8830     1.6730 O.3   1 <1>  -0.3620 
 27 C        8.8620    -1.4540    -0.5810 C.ar  1 <1>  -0.1500 
 28 C       10.8670    -1.3450     1.4630 C.3   1 <1>   0.0400 
 29 H        1.1100     3.0600    -0.1540 H     1 <1>   0.0800 
 30 H        0.9990     2.2520    -1.6960 H     1 <1>   0.0800 
 31 H       -2.0700     3.1900    -2.2670 H     1 <1>   0.0800 
 32 H       -0.6730     3.8450    -1.4690 H     1 <1>   0.0800 
 33 H       -2.6770     0.6270     0.4420 H     1 <1>   0.0800 
 34 H       -3.3280     1.1800    -1.0710 H     1 <1>   0.0800 
 35 H        2.1550     0.2860    -0.7540 H     1 <1>   0.0800 
 36 H        2.2650     1.0870     0.7890 H     1 <1>   0.0800 
 37 H       -2.6870     5.2540    -1.1590 H     1 <1>   0.0800 
 38 H       -2.0350     4.6940     0.3550 H     1 <1>   0.0800 
 39 H       -3.2470     2.7310     1.5250 H     1 <1>   0.0800 
 40 H       -4.6630     2.0730     0.7540 H     1 <1>   0.0800 
 41 H        5.5910     1.7560    -0.6440 H     1 <1>   0.3700 
 42 H        4.2110    -0.6880     0.1440 H     1 <1>   0.0800 
 43 H        4.8860     0.2320     1.4700 H     1 <1>   0.0800 
 44 H       -6.3790     3.3710    -0.6460 H     1 <1>   0.1500 
 45 H       -5.2670     7.4020     1.7420 H     1 <1>   0.1500 
 46 H       -8.2460     4.8600     0.0750 H     1 <1>   0.1500 
 47 H        7.1890    -0.0690     1.9880 H     1 <1>   0.1500 
 48 H        5.8090    -1.0130    -1.9420 H     1 <1>   0.1500 
 49 H       -7.6210     6.9330     1.3070 H     1 <1>   0.1500 
 50 H        8.0360    -1.8690    -2.5060 H     1 <1>   0.1500 
 51 H        9.8270    -1.8340    -0.8540 H     1 <1>   0.1500 
 52 H       11.4220    -1.1960     2.3710 H     1 <1>   0.0800 
 53 H       11.3130    -0.7780     0.6650 H     1 <1>   0.0800 
 54 H       10.8350    -2.3920     1.2220 H     1 <1>   0.0800 
@<TRIPOS>BOND
  1   1   2  2   
  2   2   3  am  
  3   2   4  1   
  4   3   5  1   
  5   3   6  1   
  6   4   7  1   
  7   4  29  1   
  8   4  30  1   
  9   5   8  1   
 10   5  31  1   
 11   5  32  1   
 12   6   9  1   
 13   6  33  1   
 14   6  34  1   
 15   7  10  1   
 16   7  35  1   
 17   7  36  1   
 18   8  11  1   
 19   8  37  1   
 20   8  38  1   
 21   9  11  1   
 22   9  39  1   
 23   9  40  1   
 24  10  12  2   
 25  10  13  am  
 26  11  14  1   
 27  13  15  1   
 28  13  41  1   
 29  14  16  ar  
 30  14  17  ar  
 31  15  18  1   
 32  15  42  1   
 33  15  43  1   
 34  16  19  ar  
 35  17  20  ar  
 36  17  44  1   
 37  18  21  ar  
 38  18  22  ar  
 39  19  23  ar  
 40  19  45  1   
 41  20  23  ar  
 42  20  46  1   
 43  21  24  ar  
 44  21  47  1   
 45  22  25  ar  
 46  22  48  1   
 47  23  49  1   
 48  24  26  1   
 49  24  27  ar  
 50  25  27  ar  
 51  25  50  1   
 52  26  28  1   
 53  27  51  1   
 54  28  52  1   
 55  28  53  1   
 56  28  54  1   
@<TRIPOS>SUBSTRUCTURE
  1 ****   4 GROUP 4 **** **** 0

# MOE 2024.06 (io_trps.svl 2023.06)
