@<TRIPOS>MOLECULE
NONAME
36 36 1 0 0 
SMALL
USER_CHARGES


@<TRIPOS>ATOM
  1 O       -3.0820     1.3080     2.2730 O.co2 1 <1>  -0.9000 
  2 C       -3.5660     1.3050     1.1430 C.2   1 <1>   0.9060 
  3 O       -4.4290     2.1140     0.7840 O.co2 1 <1>  -0.9000 
  4 C       -3.0910     0.2620     0.1590 C.3   1 <1>  -0.2660 
  5 C       -3.9380     0.1640    -1.1310 C.3   1 <1>  -0.0990 
  6 C       -5.3290    -0.4240    -0.9410 C.2   1 <1>   0.5690 
  7 O       -5.5940    -1.4330    -1.5540 O.2   1 <1>  -0.5700 
  8 N       -6.2220     0.2200    -0.1300 N.am  1 <1>  -0.5470 
  9 C       -7.5750    -0.0680     0.1310 C.ar  1 <1>   0.1170 
 10 C       -8.5790     0.9180     0.2380 C.ar  1 <1>  -0.1430 
 11 C       -7.9140    -1.4080     0.3080 C.ar  1 <1>  -0.1500 
 12 C       -9.8780     0.4820     0.5110 C.ar  1 <1>  -0.1500 
 13 C       -8.3000     2.4460     0.0920 C.3   1 <1>   0.1430 
 14 C       -9.2060    -1.8070     0.5700 C.ar  1 <1>  -0.1500 
 15 C      -10.1940    -0.8540     0.6710 C.ar  1 <1>  -0.1500 
 16 C       -9.5830     3.2860    -0.0890 C.3   1 <1>  -0.2400 
 17 C       -7.4200     2.7800    -1.1300 C.3   1 <1>  -0.2400 
 18 C       -7.6280     2.9450     1.3780 C.3   1 <1>  -0.2400 
 19 H       -3.0820    -0.6860     0.6630 H     1 <1>   0.0800 
 20 H       -2.0810     0.5150    -0.0950 H     1 <1>   0.0800 
 21 H       -3.4110    -0.4530    -1.8360 H     1 <1>   0.0800 
 22 H       -4.0380     1.1390    -1.5730 H     1 <1>   0.0800 
 23 H       -5.8340     1.0840     0.3020 H     1 <1>   0.3700 
 24 H       -7.1450    -2.1550     0.2400 H     1 <1>   0.1500 
 25 H      -10.6950     1.1670     0.6140 H     1 <1>   0.1500 
 26 H       -9.4350    -2.8500     0.6950 H     1 <1>   0.1500 
 27 H      -11.2070    -1.1480     0.8780 H     1 <1>   0.1500 
 28 H      -10.1400     2.9360    -0.9400 H     1 <1>   0.0800 
 29 H       -9.3410     4.3220    -0.2480 H     1 <1>   0.0800 
 30 H      -10.2030     3.2430     0.7870 H     1 <1>   0.0800 
 31 H       -7.7490     2.2180    -1.9860 H     1 <1>   0.0800 
 32 H       -6.3860     2.5620    -0.9470 H     1 <1>   0.0800 
 33 H       -7.4630     3.8260    -1.3690 H     1 <1>   0.0800 
 34 H       -8.2920     2.8350     2.2160 H     1 <1>   0.0800 
 35 H       -7.3450     3.9780     1.2890 H     1 <1>   0.0800 
 36 H       -6.7440     2.3770     1.5930 H     1 <1>   0.0800 
@<TRIPOS>BOND
  1   1   2  ar  
  2   2   3  ar  
  3   2   4  1   
  4   4   5  1   
  5   4  19  1   
  6   4  20  1   
  7   5   6  1   
  8   5  21  1   
  9   5  22  1   
 10   6   7  2   
 11   6   8  am  
 12   8   9  1   
 13   8  23  1   
 14   9  10  ar  
 15   9  11  ar  
 16  10  12  ar  
 17  10  13  1   
 18  11  14  ar  
 19  11  24  1   
 20  12  15  ar  
 21  12  25  1   
 22  13  16  1   
 23  13  17  1   
 24  13  18  1   
 25  14  15  ar  
 26  14  26  1   
 27  15  27  1   
 28  16  28  1   
 29  16  29  1   
 30  16  30  1   
 31  17  31  1   
 32  17  32  1   
 33  17  33  1   
 34  18  34  1   
 35  18  35  1   
 36  18  36  1   
@<TRIPOS>SUBSTRUCTURE
  1 ****   8 GROUP 4 **** **** 0

# MOE 2024.06 (io_trps.svl 2023.06)
