@<TRIPOS>MOLECULE
NONAME
34 34 1 0 0 
SMALL
USER_CHARGES


@<TRIPOS>ATOM
  1 BR       0.2970     0.0660    -0.6090 Br    1 <1>  -0.1110 
  2 C       -1.3940     0.7600    -0.0110 C.ar  1 <1>   0.1110 
  3 C       -1.7780     2.0180    -0.4270 C.ar  1 <1>  -0.1500 
  4 C       -2.1770    -0.0210     0.8160 C.ar  1 <1>  -0.1500 
  5 C       -3.0030     2.5170     0.0050 C.ar  1 <1>   0.0830 
  6 C       -3.3930     0.4800     1.2460 C.ar  1 <1>  -0.1500 
  7 O       -3.4730     3.7390    -0.3620 O.3   1 <1>  -0.3630 
  8 C       -3.8080     1.7450     0.8450 C.ar  1 <1>  -0.1440 
  9 C       -2.6570     4.6610    -1.0540 C.3   1 <1>   0.1200 
 10 C       -5.1350     2.2910     1.3290 C.3   1 <1>   0.4870 
 11 C       -3.4530     5.9490    -1.2370 C.3   1 <1>  -0.2400 
 12 N       -5.9670     2.5430     0.1380 N.4   1 <1>  -0.9060 
 13 C       -7.2450     3.2230     0.4250 C.3   1 <1>   0.3430 
 14 C       -7.9580     3.5060    -0.8960 C.3   1 <1>  -0.1600 
 15 C       -9.2910     4.2230    -0.6590 C.3   1 <1>  -0.2400 
 16 H       -1.1190     2.5690    -1.0720 H     1 <1>   0.1500 
 17 H       -1.8360    -0.9980     1.1150 H     1 <1>   0.1500 
 18 H       -4.0020    -0.1280     1.8960 H     1 <1>   0.1500 
 19 H       -2.3920     4.2410    -2.0100 H     1 <1>   0.0800 
 20 H       -1.7700     4.8420    -0.4700 H     1 <1>   0.0800 
 21 H       -4.9650     3.2100     1.8660 H     1 <1>   0.0800 
 22 H       -5.6160     1.5840     1.9850 H     1 <1>   0.0800 
 23 H       -4.3370     5.7670    -1.8220 H     1 <1>   0.0800 
 24 H       -2.8500     6.6730    -1.7550 H     1 <1>   0.0800 
 25 H       -3.7250     6.3600    -0.2810 H     1 <1>   0.0800 
 26 H       -6.1090     1.6620    -0.3680 H     1 <1>   0.4500 
 27 H       -5.3750     3.1320    -0.4710 H     1 <1>   0.4500 
 28 H       -7.0620     4.1530     0.9400 H     1 <1>   0.0800 
 29 H       -7.8680     2.6010     1.0480 H     1 <1>   0.0800 
 30 H       -8.1520     2.5820    -1.4130 H     1 <1>   0.0800 
 31 H       -7.3390     4.1290    -1.5200 H     1 <1>   0.0800 
 32 H       -9.9510     3.6210    -0.0580 H     1 <1>   0.0800 
 33 H       -9.7780     4.4140    -1.6010 H     1 <1>   0.0800 
 34 H       -9.1380     5.1680    -0.1650 H     1 <1>   0.0800 
@<TRIPOS>BOND
  1   1   2  1   
  2   2   3  ar  
  3   2   4  ar  
  4   3   5  ar  
  5   3  16  1   
  6   4   6  ar  
  7   4  17  1   
  8   5   7  1   
  9   5   8  ar  
 10   6   8  ar  
 11   6  18  1   
 12   7   9  1   
 13   8  10  1   
 14   9  11  1   
 15   9  19  1   
 16   9  20  1   
 17  10  12  1   
 18  10  21  1   
 19  10  22  1   
 20  11  23  1   
 21  11  24  1   
 22  11  25  1   
 23  12  13  1   
 24  12  26  1   
 25  12  27  1   
 26  13  14  1   
 27  13  28  1   
 28  13  29  1   
 29  14  15  1   
 30  14  30  1   
 31  14  31  1   
 32  15  32  1   
 33  15  33  1   
 34  15  34  1   
@<TRIPOS>SUBSTRUCTURE
  1 ****   5 GROUP 4 **** **** 0

# MOE 2024.06 (io_trps.svl 2023.06)
