@<TRIPOS>MOLECULE
NONAME
47 49 1 0 0 
SMALL
USER_CHARGES


@<TRIPOS>ATOM
  1 O        0.4700    -1.2300    -1.9660 O.2   1 <1>  -0.5700 
  2 C        0.2600    -2.1790    -1.2490 C.2   1 <1>   0.4950 
  3 C        1.2500    -2.7180    -0.3950 C.2   1 <1>  -0.1360 
  4 C       -1.1070    -2.8340    -1.2850 C.3   1 <1>  -0.0990 
  5 C        1.0870    -3.7920     0.4210 C.2   1 <1>  -0.0380 
  6 C       -1.4120    -3.5480     0.0440 C.3   1 <1>   0.0640 
  7 N        2.0540    -4.3370     1.2260 N.pl3 1 <1>  -0.8690 
  8 C       -0.2680    -4.4880     0.4730 C.3   1 <1>  -0.0220 
  9 C       -2.7440    -4.2910    -0.0150 C.ar  1 <1>  -0.1430 
 10 C        3.4290    -3.8170     1.4210 C.3   1 <1>   0.2090 
 11 C       -2.9550    -5.3250    -0.9170 C.ar  1 <1>  -0.1500 
 12 C       -3.7710    -3.9350     0.8490 C.ar  1 <1>  -0.1500 
 13 C        4.3140    -4.2320     0.2290 C.3   1 <1>   0.3430 
 14 C       -4.1680    -5.9910    -0.9540 C.ar  1 <1>  -0.1500 
 15 C       -4.9840    -4.6000     0.8130 C.ar  1 <1>  -0.1500 
 16 N        5.6780    -3.5980     0.2340 N.4   1 <1>  -0.9590 
 17 C       -5.1840    -5.6290    -0.0890 C.ar  1 <1>  -0.1500 
 18 C        5.6200    -2.1110    -0.0170 C.3   1 <1>   0.3430 
 19 C        6.5590    -4.2510    -0.7990 C.3   1 <1>   0.3430 
 20 C        7.0290    -1.5020    -0.1560 C.3   1 <1>   0.1200 
 21 C        7.9280    -3.5520    -0.9010 C.3   1 <1>   0.1200 
 22 O        7.7560    -2.1850    -1.1350 O.3   1 <1>  -0.5600 
 23 H        2.1820    -2.1960    -0.4440 H     1 <1>   0.1500 
 24 H       -1.1240    -3.5290    -2.1020 H     1 <1>   0.0800 
 25 H       -1.8550    -2.0840    -1.4680 H     1 <1>   0.0800 
 26 H       -1.4840    -2.7830     0.7990 H     1 <1>   0.0800 
 27 H        1.7940    -5.1180     1.8510 H     1 <1>   0.4000 
 28 H       -0.4690    -4.8240     1.4750 H     1 <1>   0.0800 
 29 H       -0.2360    -5.3530    -0.1650 H     1 <1>   0.0800 
 30 H        3.8290    -4.2170     2.3360 H     1 <1>   0.0800 
 31 H        3.3790    -2.7460     1.5040 H     1 <1>   0.0800 
 32 H       -2.1800    -5.6240    -1.5990 H     1 <1>   0.1500 
 33 H       -3.6360    -3.1370     1.5580 H     1 <1>   0.1500 
 34 H        3.8020    -3.9660    -0.6820 H     1 <1>   0.0800 
 35 H        4.4150    -5.3040     0.2490 H     1 <1>   0.0800 
 36 H       -4.3220    -6.7910    -1.6570 H     1 <1>   0.1500 
 37 H       -5.7730    -4.3150     1.4870 H     1 <1>   0.1500 
 38 H        6.1220    -3.7500     1.1500 H     1 <1>   0.4500 
 39 H       -6.1270    -6.1460    -0.1180 H     1 <1>   0.1500 
 40 H        5.1010    -1.6160     0.7880 H     1 <1>   0.0800 
 41 H        5.0780    -1.9160    -0.9280 H     1 <1>   0.0800 
 42 H        6.0850    -4.2040    -1.7660 H     1 <1>   0.0800 
 43 H        6.7090    -5.2900    -0.5550 H     1 <1>   0.0800 
 44 H        7.5690    -1.5470     0.7730 H     1 <1>   0.0800 
 45 H        6.9590    -0.4720    -0.4620 H     1 <1>   0.0800 
 46 H        8.4900    -3.9550    -1.7260 H     1 <1>   0.0800 
 47 H        8.5040    -3.6820    -0.0010 H     1 <1>   0.0800 
@<TRIPOS>BOND
  1   1   2  2   
  2   2   3  1   
  3   2   4  1   
  4   3   5  2   
  5   3  23  1   
  6   4   6  1   
  7   4  24  1   
  8   4  25  1   
  9   5   7  1   
 10   5   8  1   
 11   6   8  1   
 12   6   9  1   
 13   6  26  1   
 14   7  10  1   
 15   7  27  1   
 16   8  28  1   
 17   8  29  1   
 18   9  11  ar  
 19   9  12  ar  
 20  10  13  1   
 21  10  30  1   
 22  10  31  1   
 23  11  14  ar  
 24  11  32  1   
 25  12  15  ar  
 26  12  33  1   
 27  13  16  1   
 28  13  34  1   
 29  13  35  1   
 30  14  17  ar  
 31  14  36  1   
 32  15  17  ar  
 33  15  37  1   
 34  16  18  1   
 35  16  19  1   
 36  16  38  1   
 37  17  39  1   
 38  18  20  1   
 39  18  40  1   
 40  18  41  1   
 41  19  21  1   
 42  19  42  1   
 43  19  43  1   
 44  20  22  1   
 45  20  44  1   
 46  20  45  1   
 47  21  22  1   
 48  21  46  1   
 49  21  47  1   
@<TRIPOS>SUBSTRUCTURE
  1 ****   5 GROUP 4 **** **** 0

# MOE 2024.06 (io_trps.svl 2023.06)
