@<TRIPOS>MOLECULE
NONAME
52 54 1 0 0 
SMALL
USER_CHARGES


@<TRIPOS>ATOM
  1 S        0.3710    -0.6000     1.1140 S.o2  1 <1>   1.4470 
  2 O        0.9500    -0.9810     2.3850 O.2   1 <1>  -0.6500 
  3 O       -0.4010     0.6200     1.0240 O.2   1 <1>  -0.6500 
  4 N        1.6630    -0.4410     0.0280 N.am  1 <1>  -0.8490 
  5 C       -0.5830    -1.9760     0.4150 C.ar  1 <1>  -0.0090 
  6 C        2.3750     0.8360     0.2360 C.3   1 <1>   0.1960 
  7 C        2.6060    -1.5740     0.1160 C.3   1 <1>   0.1960 
  8 C       -0.8000    -3.1450     1.1350 C.ar  1 <1>  -0.1500 
  9 C       -1.1110    -1.8970    -0.8680 C.ar  1 <1>  -0.1500 
 10 C        3.5330     1.0280    -0.7600 C.3   1 <1>   0.1400 
 11 C        3.7500    -1.4450    -0.9020 C.3   1 <1>   0.1400 
 12 C       -1.5150    -4.1990     0.5930 C.ar  1 <1>  -0.1500 
 13 C       -1.8280    -2.9470    -1.4160 C.ar  1 <1>  -0.1500 
 14 N        4.4510    -0.1430    -0.7290 N.am  1 <1>  -0.6600 
 15 C       -2.0340    -4.1050    -0.6870 C.ar  1 <1>  -0.1430 
 16 C        5.7990     0.0040    -0.9120 C.2   1 <1>   0.6900 
 17 C       -2.8190    -5.2580    -1.2860 C.3   1 <1>  -0.0960 
 18 O        6.2240     1.0140    -1.4450 O.2   1 <1>  -0.5700 
 19 N        6.6660    -0.9640    -0.4780 N.am  1 <1>  -0.6600 
 20 C        7.9710    -1.1430    -1.1790 C.3   1 <1>   0.1400 
 21 C        6.5610    -1.4260     0.9420 C.3   1 <1>   0.1400 
 22 C        8.1850    -2.5970    -1.6330 C.3   1 <1>  -0.1600 
 23 C        7.7110    -2.3320     1.4180 C.3   1 <1>  -0.1600 
 24 C        7.4800    -3.6840    -0.8010 C.3   1 <1>  -0.1600 
 25 C        7.8320    -3.6870     0.6940 C.3   1 <1>  -0.1600 
 26 H        2.7640     0.8780     1.2390 H     1 <1>   0.0800 
 27 H        1.6870     1.6560     0.1150 H     1 <1>   0.0800 
 28 H        2.0820    -2.4950    -0.0730 H     1 <1>   0.0800 
 29 H        3.0290    -1.6290     1.1060 H     1 <1>   0.0800 
 30 H       -0.4060    -3.2330     2.1330 H     1 <1>   0.1500 
 31 H       -0.9570    -1.0000    -1.4440 H     1 <1>   0.1500 
 32 H        4.0740     1.9240    -0.5100 H     1 <1>   0.0800 
 33 H        3.1380     1.1420    -1.7540 H     1 <1>   0.0800 
 34 H        3.3440    -1.4930    -1.8970 H     1 <1>   0.0800 
 35 H        4.4370    -2.2630    -0.7870 H     1 <1>   0.0800 
 36 H       -1.6680    -5.0930     1.1730 H     1 <1>   0.1500 
 37 H       -2.2250    -2.8570    -2.4120 H     1 <1>   0.1500 
 38 H       -2.1570    -5.9050    -1.8320 H     1 <1>   0.0800 
 39 H       -3.5760    -4.8900    -1.9550 H     1 <1>   0.0800 
 40 H       -3.3020    -5.8280    -0.5120 H     1 <1>   0.0800 
 41 H        8.7700    -0.8270    -0.5340 H     1 <1>   0.0800 
 42 H        8.0130    -0.5070    -2.0480 H     1 <1>   0.0800 
 43 H        5.6330    -1.9530     1.0720 H     1 <1>   0.0800 
 44 H        6.5260    -0.5540     1.5730 H     1 <1>   0.0800 
 45 H        9.2420    -2.7920    -1.6570 H     1 <1>   0.0800 
 46 H        7.8330    -2.6760    -2.6460 H     1 <1>   0.0800 
 47 H        7.5620    -2.5310     2.4640 H     1 <1>   0.0800 
 48 H        8.6410    -1.7970     1.3550 H     1 <1>   0.0800 
 49 H        7.7310    -4.6460    -1.2130 H     1 <1>   0.0800 
 50 H        6.4160    -3.5730    -0.9130 H     1 <1>   0.0800 
 51 H        7.1800    -4.3930     1.1800 H     1 <1>   0.0800 
 52 H        8.8370    -4.0510     0.8190 H     1 <1>   0.0800 
@<TRIPOS>BOND
  1   1   2  2   
  2   1   3  2   
  3   1   4  am  
  4   1   5  1   
  5   4   6  1   
  6   4   7  1   
  7   5   8  ar  
  8   5   9  ar  
  9   6  10  1   
 10   6  26  1   
 11   6  27  1   
 12   7  11  1   
 13   7  28  1   
 14   7  29  1   
 15   8  12  ar  
 16   8  30  1   
 17   9  13  ar  
 18   9  31  1   
 19  10  14  1   
 20  10  32  1   
 21  10  33  1   
 22  11  14  1   
 23  11  34  1   
 24  11  35  1   
 25  12  15  ar  
 26  12  36  1   
 27  13  15  ar  
 28  13  37  1   
 29  14  16  am  
 30  15  17  1   
 31  16  18  2   
 32  16  19  am  
 33  17  38  1   
 34  17  39  1   
 35  17  40  1   
 36  19  20  1   
 37  19  21  1   
 38  20  22  1   
 39  20  41  1   
 40  20  42  1   
 41  21  23  1   
 42  21  43  1   
 43  21  44  1   
 44  22  24  1   
 45  22  45  1   
 46  22  46  1   
 47  23  25  1   
 48  23  47  1   
 49  23  48  1   
 50  24  25  1   
 51  24  49  1   
 52  24  50  1   
 53  25  51  1   
 54  25  52  1   
@<TRIPOS>SUBSTRUCTURE
  1 ****   7 GROUP 4 **** **** 0

# MOE 2024.06 (io_trps.svl 2023.06)
