@<TRIPOS>MOLECULE
NONAME
43 45 1 0 0 
SMALL
USER_CHARGES


@<TRIPOS>ATOM
  1 F        1.0870     1.0920    -0.7040 F     1 <1>  -0.3400 
  2 C        0.2360     2.1140    -0.6940 C.3   1 <1>   1.0200 
  3 F       -0.3050     2.1300    -1.9120 F     1 <1>  -0.3400 
  4 F        1.0070     3.1990    -0.6370 F     1 <1>  -0.3400 
  5 C       -0.8490     2.0500     0.4690 C.3   1 <1>   0.5800 
  6 O       -0.3030     2.1620     1.7560 O.3   1 <1>  -0.6800 
  7 N       -1.6210     0.7700     0.4200 N.am  1 <1>  -0.2980 
  8 C       -1.9920     3.0950     0.3590 C.3   1 <1>  -0.0190 
  9 N       -2.8560     0.9910    -0.1550 N.2   1 <1>  -0.5120 
 10 C       -1.0970    -0.4540     0.8280 C.2   1 <1>   0.5440 
 11 C       -3.0790     2.2270    -0.2430 C.2   1 <1>   0.3280 
 12 C       -1.7170     4.4370    -0.3610 C.3   1 <1>  -0.1600 
 13 O       -0.0170    -0.4610     1.3950 O.2   1 <1>  -0.5700 
 14 C       -1.7870    -1.7110     0.5960 C.ar  1 <1>   0.0860 
 15 C       -4.3300     2.8040    -0.8790 C.3   1 <1>  -0.0990 
 16 C       -2.7430     5.5260    -0.0130 C.3   1 <1>  -0.1600 
 17 C       -1.0860    -2.8140     0.1070 C.ar  1 <1>  -0.1500 
 18 C       -3.1460    -1.8890     0.8580 C.ar  1 <1>  -0.1500 
 19 C       -4.8730     4.0720    -0.2050 C.3   1 <1>  -0.1600 
 20 C       -4.1300     5.3420    -0.6420 C.3   1 <1>  -0.1600 
 21 C       -1.7090    -4.0280    -0.1200 C.ar  1 <1>  -0.1500 
 22 C       -3.7750    -3.1000     0.6320 C.ar  1 <1>  -0.1500 
 23 C       -3.0600    -4.1790     0.1410 C.ar  1 <1>  -0.1440 
 24 C       -3.7480    -5.5090    -0.1100 C.3   1 <1>  -0.0970 
 25 H        0.0860     1.2770     1.9680 H     1 <1>   0.4000 
 26 H       -2.3150     3.3260     1.3590 H     1 <1>   0.0800 
 27 H       -1.6690     4.3040    -1.4280 H     1 <1>   0.0800 
 28 H       -0.7640     4.8110    -0.0290 H     1 <1>   0.0800 
 29 H       -5.0910     2.0450    -0.8430 H     1 <1>   0.0800 
 30 H       -4.1310     2.9990    -1.9180 H     1 <1>   0.0800 
 31 H       -2.3540     6.4690    -0.3560 H     1 <1>   0.0800 
 32 H       -2.8430     5.6050     1.0570 H     1 <1>   0.0800 
 33 H       -0.0340    -2.7110    -0.0950 H     1 <1>   0.1500 
 34 H       -3.7190    -1.0650     1.2450 H     1 <1>   0.1500 
 35 H       -4.8570     3.9680     0.8670 H     1 <1>   0.0800 
 36 H       -5.9030     4.1820    -0.4980 H     1 <1>   0.0800 
 37 H       -4.0470     5.3680    -1.7150 H     1 <1>   0.0800 
 38 H       -4.7300     6.1910    -0.3570 H     1 <1>   0.0800 
 39 H       -1.1360    -4.8550    -0.5010 H     1 <1>   0.1500 
 40 H       -4.8260    -3.1990     0.8410 H     1 <1>   0.1500 
 41 H       -3.0570    -6.3210     0.0280 H     1 <1>   0.0800 
 42 H       -4.1240    -5.5390    -1.1160 H     1 <1>   0.0800 
 43 H       -4.5680    -5.6420     0.5720 H     1 <1>   0.0800 
@<TRIPOS>BOND
  1   1   2  1   
  2   2   3  1   
  3   2   4  1   
  4   2   5  1   
  5   5   6  1   
  6   5   7  1   
  7   5   8  1   
  8   6  25  1   
  9   7   9  1   
 10   7  10  am  
 11   8  11  1   
 12   8  12  1   
 13   8  26  1   
 14   9  11  2   
 15  10  13  2   
 16  10  14  1   
 17  11  15  1   
 18  12  16  1   
 19  12  27  1   
 20  12  28  1   
 21  14  17  ar  
 22  14  18  ar  
 23  15  19  1   
 24  15  29  1   
 25  15  30  1   
 26  16  20  1   
 27  16  31  1   
 28  16  32  1   
 29  17  21  ar  
 30  17  33  1   
 31  18  22  ar  
 32  18  34  1   
 33  19  20  1   
 34  19  35  1   
 35  19  36  1   
 36  20  37  1   
 37  20  38  1   
 38  21  23  ar  
 39  21  39  1   
 40  22  23  ar  
 41  22  40  1   
 42  23  24  1   
 43  24  41  1   
 44  24  42  1   
 45  24  43  1   
@<TRIPOS>SUBSTRUCTURE
  1 ****   7 GROUP 4 **** **** 0

# MOE 2024.06 (io_trps.svl 2023.06)
