@<TRIPOS>MOLECULE
NONAME
39 40 1 0 0 
SMALL
USER_CHARGES


@<TRIPOS>ATOM
  1 O        0.3730    -0.3140    -0.2890 O.3   1 <1>  -0.3630 
  2 C       -0.8690    -0.8610    -0.3170 C.ar  1 <1>   0.0830 
  3 C        1.5110    -1.0800     0.0150 C.3   1 <1>   0.1200 
  4 C       -1.1440    -2.1850     0.0190 C.ar  1 <1>  -0.1500 
  5 C       -1.9000    -0.0220    -0.7090 C.ar  1 <1>  -0.1500 
  6 C        2.7200    -0.1440    -0.0840 C.3   1 <1>   0.3430 
  7 C       -2.4520    -2.6570    -0.0440 C.ar  1 <1>   0.0830 
  8 C       -3.2000    -0.4910    -0.7720 C.ar  1 <1>  -0.1500 
  9 N        4.0190    -0.8240     0.2340 N.4   1 <1>  -0.9590 
 10 O       -2.8150    -3.9280     0.2650 O.3   1 <1>  -0.3630 
 11 C       -3.4710    -1.8060    -0.4400 C.ar  1 <1>  -0.1500 
 12 C        5.0980     0.1950     0.4030 C.3   1 <1>   0.3430 
 13 C        4.3960    -1.8390    -0.7990 C.3   1 <1>   0.3430 
 14 C       -1.8820    -4.8790     0.7250 C.3   1 <1>   0.0400 
 15 C        6.3860    -0.4890     0.8660 C.3   1 <1>  -0.1600 
 16 C        5.6670    -2.5700    -0.3630 C.3   1 <1>  -0.1600 
 17 C        6.8230    -1.5940    -0.1040 C.3   1 <1>  -0.1600 
 18 H        1.5710    -1.8780    -0.7030 H     1 <1>   0.0800 
 19 H        1.4000    -1.4610     1.0140 H     1 <1>   0.0800 
 20 H       -0.3610    -2.8430     0.3270 H     1 <1>   0.1500 
 21 H       -1.6850     0.9990    -0.9660 H     1 <1>   0.1500 
 22 H        2.5660     0.6680     0.6080 H     1 <1>   0.0800 
 23 H        2.7620     0.2670    -1.0800 H     1 <1>   0.0800 
 24 H       -3.9980     0.1630    -1.0780 H     1 <1>   0.1500 
 25 H        3.9320    -1.3110     1.1350 H     1 <1>   0.4500 
 26 H       -4.4780    -2.1810    -0.4860 H     1 <1>   0.1500 
 27 H        4.8020     0.9320     1.1330 H     1 <1>   0.0800 
 28 H        5.2760     0.6980    -0.5340 H     1 <1>   0.0800 
 29 H        4.5690    -1.3510    -1.7450 H     1 <1>   0.0800 
 30 H        3.6020    -2.5570    -0.9280 H     1 <1>   0.0800 
 31 H       -2.4100    -5.7960     0.9170 H     1 <1>   0.0800 
 32 H       -1.4350    -4.5190     1.6340 H     1 <1>   0.0800 
 33 H       -1.1410    -5.0390    -0.0380 H     1 <1>   0.0800 
 34 H        6.2400    -0.8990     1.8500 H     1 <1>   0.0800 
 35 H        7.1680     0.2480     0.9390 H     1 <1>   0.0800 
 36 H        5.9560    -3.2630    -1.1350 H     1 <1>   0.0800 
 37 H        5.4650    -3.1440     0.5240 H     1 <1>   0.0800 
 38 H        7.6680    -2.1260     0.3030 H     1 <1>   0.0800 
 39 H        7.1340    -1.1510    -1.0360 H     1 <1>   0.0800 
@<TRIPOS>BOND
  1   1   2  1   
  2   1   3  1   
  3   2   4  ar  
  4   2   5  ar  
  5   3   6  1   
  6   3  18  1   
  7   3  19  1   
  8   4   7  ar  
  9   4  20  1   
 10   5   8  ar  
 11   5  21  1   
 12   6   9  1   
 13   6  22  1   
 14   6  23  1   
 15   7  10  1   
 16   7  11  ar  
 17   8  11  ar  
 18   8  24  1   
 19   9  12  1   
 20   9  13  1   
 21   9  25  1   
 22  10  14  1   
 23  11  26  1   
 24  12  15  1   
 25  12  27  1   
 26  12  28  1   
 27  13  16  1   
 28  13  29  1   
 29  13  30  1   
 30  14  31  1   
 31  14  32  1   
 32  14  33  1   
 33  15  17  1   
 34  15  34  1   
 35  15  35  1   
 36  16  17  1   
 37  16  36  1   
 38  16  37  1   
 39  17  38  1   
 40  17  39  1   
@<TRIPOS>SUBSTRUCTURE
  1 ****   3 GROUP 4 **** **** 0

# MOE 2024.06 (io_trps.svl 2023.06)
