@<TRIPOS>MOLECULE
NONAME
47 49 1 0 0 
SMALL
USER_CHARGES


@<TRIPOS>ATOM
  1 O        0.8460    -1.3010    -1.7020 O.2   1 <1>  -0.5700 
  2 C        0.4130    -1.2400    -0.5810 C.2   1 <1>   0.6590 
  3 O        1.0620    -0.6090     0.3870 O.3   1 <1>  -0.4300 
  4 C       -0.8740    -1.9190    -0.1400 C.3   1 <1>  -0.0190 
  5 C        2.3860    -0.1370     0.2240 C.3   1 <1>   0.1200 
  6 C       -0.5750    -3.1650     0.7270 C.3   1 <1>  -0.0190 
  7 C       -1.8110    -2.2470    -1.3180 C.3   1 <1>  -0.0220 
  8 C        3.3790    -1.3110     0.2960 C.3   1 <1>   0.2000 
  9 C        0.2500    -4.2080    -0.0350 C.2   1 <1>   0.5690 
 10 C       -1.8840    -3.7490     1.3110 C.3   1 <1>  -0.0220 
 11 C       -3.0200    -3.0230    -0.8260 C.2   1 <1>  -0.2880 
 12 O        3.1040    -2.1040     1.4230 O.3   1 <1>  -0.5600 
 13 C        4.8400    -0.8720     0.4190 C.3   1 <1>  -0.1600 
 14 O       -0.3100    -5.0590    -0.6820 O.2   1 <1>  -0.5700 
 15 N        1.6140    -4.1420     0.0650 N.am  1 <1>  -0.5470 
 16 C       -3.0530    -3.6760     0.3380 C.2   1 <1>  -0.2880 
 17 C        4.1370    -2.0340     2.3510 C.3   1 <1>   0.1200 
 18 C        5.3820    -1.7460     1.5330 C.3   1 <1>  -0.1600 
 19 C        2.6040    -4.8820    -0.5970 C.ar  1 <1>   0.1170 
 20 C        3.8330    -5.0680     0.0250 C.ar  1 <1>  -0.1500 
 21 C        2.4200    -5.4170    -1.8680 C.ar  1 <1>  -0.1500 
 22 C        4.8500    -5.7670    -0.5990 C.ar  1 <1>  -0.1500 
 23 C        3.4330    -6.1190    -2.4960 C.ar  1 <1>  -0.1500 
 24 C        4.6510    -6.2950    -1.8630 C.ar  1 <1>  -0.1500 
 25 H       -1.3920    -1.2120     0.4830 H     1 <1>   0.0800 
 26 H        2.5800     0.5620     1.0170 H     1 <1>   0.0800 
 27 H        2.4640     0.3750    -0.7200 H     1 <1>   0.0800 
 28 H        0.0230    -2.8540     1.5660 H     1 <1>   0.0800 
 29 H       -1.2990    -2.8330    -2.0630 H     1 <1>   0.0800 
 30 H       -2.1330    -1.3290    -1.7790 H     1 <1>   0.0800 
 31 H        3.2650    -1.9360    -0.5750 H     1 <1>   0.0800 
 32 H       -2.1530    -3.1980     2.1950 H     1 <1>   0.0800 
 33 H       -1.7230    -4.7730     1.6020 H     1 <1>   0.0800 
 34 H       -3.8480    -3.0080    -1.5160 H     1 <1>   0.1500 
 35 H        4.9000     0.1650     0.6990 H     1 <1>   0.0800 
 36 H        5.3720    -1.0140    -0.5050 H     1 <1>   0.0800 
 37 H        1.9920    -3.4230     0.6980 H     1 <1>   0.3700 
 38 H       -3.9200    -4.2190     0.6770 H     1 <1>   0.1500 
 39 H        4.1990    -2.9620     2.8920 H     1 <1>   0.0800 
 40 H        3.9210    -1.2240     3.0270 H     1 <1>   0.0800 
 41 H        6.1460    -1.2580     2.1130 H     1 <1>   0.0800 
 42 H        5.7690    -2.6680     1.1340 H     1 <1>   0.0800 
 43 H        3.9900    -4.6640     1.0070 H     1 <1>   0.1500 
 44 H        1.4800    -5.2800    -2.3720 H     1 <1>   0.1500 
 45 H        5.7950    -5.9040    -0.1030 H     1 <1>   0.1500 
 46 H        3.2710    -6.5260    -3.4790 H     1 <1>   0.1500 
 47 H        5.4390    -6.8410    -2.3520 H     1 <1>   0.1500 
@<TRIPOS>BOND
  1   1   2  2   
  2   2   3  1   
  3   2   4  1   
  4   3   5  1   
  5   4   6  1   
  6   4   7  1   
  7   4  25  1   
  8   5   8  1   
  9   5  26  1   
 10   5  27  1   
 11   6   9  1   
 12   6  10  1   
 13   6  28  1   
 14   7  11  1   
 15   7  29  1   
 16   7  30  1   
 17   8  12  1   
 18   8  13  1   
 19   8  31  1   
 20   9  14  2   
 21   9  15  am  
 22  10  16  1   
 23  10  32  1   
 24  10  33  1   
 25  11  16  2   
 26  11  34  1   
 27  12  17  1   
 28  13  18  1   
 29  13  35  1   
 30  13  36  1   
 31  15  19  1   
 32  15  37  1   
 33  16  38  1   
 34  17  18  1   
 35  17  39  1   
 36  17  40  1   
 37  18  41  1   
 38  18  42  1   
 39  19  20  ar  
 40  19  21  ar  
 41  20  22  ar  
 42  20  43  1   
 43  21  23  ar  
 44  21  44  1   
 45  22  24  ar  
 46  22  45  1   
 47  23  24  ar  
 48  23  46  1   
 49  24  47  1   
@<TRIPOS>SUBSTRUCTURE
  1 ****  15 GROUP 4 **** **** 0

# MOE 2024.06 (io_trps.svl 2023.06)
