@<TRIPOS>MOLECULE
NONAME
40 41 1 0 0 
SMALL
USER_CHARGES


@<TRIPOS>ATOM
  1 S        0.2690     0.3690    -0.6480 S.o2  1 <1>   1.3330 
  2 O       -0.9690     0.7270    -1.2980 O.2   1 <1>  -0.6500 
  3 O        1.4950     1.0660    -0.9520 O.2   1 <1>  -0.6500 
  4 N        0.5130    -1.3290    -0.9230 N.am  1 <1>  -0.6930 
  5 C       -0.0010     0.4080     1.1100 C.3   1 <1>  -0.1350 
  6 C        1.6140    -2.0190    -0.4340 C.ar  1 <1>   0.1990 
  7 C       -0.5690    -2.0610    -1.6250 C.3   1 <1>   0.1160 
  8 C        1.4470    -3.1150     0.4060 C.ar  1 <1>  -0.1500 
  9 C        2.9130    -1.6450    -0.7600 C.ar  1 <1>  -0.1500 
 10 C        2.5370    -3.8040     0.9010 C.ar  1 <1>  -0.1500 
 11 C        4.0020    -2.3340    -0.2610 C.ar  1 <1>  -0.1500 
 12 C        3.8460    -3.4390     0.5820 C.ar  1 <1>   0.0860 
 13 C        4.9770    -4.1800     1.1090 C.2   1 <1>   0.5440 
 14 O        4.8650    -4.8410     2.1240 O.2   1 <1>  -0.5700 
 15 N        6.1860    -4.1650     0.4710 N.am  1 <1>  -0.7300 
 16 C        7.3970    -4.8840     0.9030 C.3   1 <1>   0.2200 
 17 C        8.5680    -3.9090     0.9170 C.3   1 <1>  -0.1600 
 18 C        7.7860    -5.8830    -0.1790 C.3   1 <1>  -0.1600 
 19 C        9.0540    -3.8140    -0.5340 C.3   1 <1>  -0.1600 
 20 C        8.5400    -5.0750    -1.2410 C.3   1 <1>  -0.1600 
 21 H       -0.1890     1.4150     1.4290 H     1 <1>   0.0800 
 22 H        0.8640     0.0400     1.6250 H     1 <1>   0.0800 
 23 H       -0.8450    -0.1990     1.3680 H     1 <1>   0.0800 
 24 H       -0.7650    -1.5900    -2.5730 H     1 <1>   0.0800 
 25 H       -1.4690    -2.0400    -1.0340 H     1 <1>   0.0800 
 26 H       -0.2820    -3.0830    -1.8010 H     1 <1>   0.0800 
 27 H        0.4540    -3.4240     0.6760 H     1 <1>   0.1500 
 28 H        3.0680    -0.8060    -1.4140 H     1 <1>   0.1500 
 29 H        2.3820    -4.6480     1.5540 H     1 <1>   0.1500 
 30 H        4.9890    -2.0010    -0.5250 H     1 <1>   0.1500 
 31 H        6.2780    -3.7100    -0.4340 H     1 <1>   0.3700 
 32 H        7.2460    -5.3550     1.8610 H     1 <1>   0.0800 
 33 H        9.3520    -4.3320     1.5210 H     1 <1>   0.0800 
 34 H        8.2960    -2.9540     1.3310 H     1 <1>   0.0800 
 35 H        6.9320    -6.4040    -0.5750 H     1 <1>   0.0800 
 36 H        8.4580    -6.6050     0.2530 H     1 <1>   0.0800 
 37 H       10.1280    -3.7530    -0.5730 H     1 <1>   0.0800 
 38 H        8.6390    -2.9390    -1.0040 H     1 <1>   0.0800 
 39 H        7.8670    -4.7970    -2.0340 H     1 <1>   0.0800 
 40 H        9.3480    -5.6510    -1.6590 H     1 <1>   0.0800 
@<TRIPOS>BOND
  1   1   2  2   
  2   1   3  2   
  3   1   4  am  
  4   1   5  1   
  5   4   6  1   
  6   4   7  1   
  7   5  21  1   
  8   5  22  1   
  9   5  23  1   
 10   6   8  ar  
 11   6   9  ar  
 12   7  24  1   
 13   7  25  1   
 14   7  26  1   
 15   8  10  ar  
 16   8  27  1   
 17   9  11  ar  
 18   9  28  1   
 19  10  12  ar  
 20  10  29  1   
 21  11  12  ar  
 22  11  30  1   
 23  12  13  1   
 24  13  14  2   
 25  13  15  am  
 26  15  16  1   
 27  15  31  1   
 28  16  17  1   
 29  16  18  1   
 30  16  32  1   
 31  17  19  1   
 32  17  33  1   
 33  17  34  1   
 34  18  20  1   
 35  18  35  1   
 36  18  36  1   
 37  19  20  1   
 38  19  37  1   
 39  19  38  1   
 40  20  39  1   
 41  20  40  1   
@<TRIPOS>SUBSTRUCTURE
  1 ****  11 GROUP 4 **** **** 0

# MOE 2024.06 (io_trps.svl 2023.06)
