@<TRIPOS>MOLECULE
NONAME
46 49 1 0 0 
SMALL
USER_CHARGES


@<TRIPOS>ATOM
  1 F       -1.3380     1.1170     1.8300 F     1 <1>  -0.1900 
  2 C       -0.8280     2.1420     1.1980 C.ar  1 <1>   0.1900 
  3 C       -1.5050     2.6770     0.1130 C.ar  1 <1>  -0.1440 
  4 C        0.3810     2.6440     1.6510 C.ar  1 <1>  -0.1500 
  5 C       -0.9000     3.7560    -0.5120 C.ar  1 <1>   0.1900 
  6 C       -2.8310     2.1030    -0.3630 C.3   1 <1>   0.2540 
  7 C        0.9530     3.7250     0.9990 C.ar  1 <1>  -0.1500 
  8 F       -1.4880     4.3140    -1.5380 F     1 <1>  -0.1900 
  9 C        0.3090     4.2870    -0.0930 C.ar  1 <1>  -0.1500 
 10 N       -3.9490     2.5910     0.4700 N.3   1 <1>  -0.8100 
 11 C       -4.1500     4.0520     0.3660 C.3   1 <1>   0.1100 
 12 C       -5.1880     1.8360     0.2060 C.3   1 <1>   0.1100 
 13 C       -5.2920     4.5310     1.2880 C.3   1 <1>   0.3430 
 14 C       -6.3390     2.3000     1.1250 C.3   1 <1>   0.3430 
 15 N       -6.5770     3.7870     1.0490 N.4   1 <1>  -0.9590 
 16 C       -7.2180     4.1900    -0.2330 C.3   1 <1>   0.4860 
 17 C       -8.5910     3.5520    -0.3140 C.ar  1 <1>  -0.1430 
 18 C       -9.6210     4.0170     0.5010 C.ar  1 <1>  -0.1500 
 19 C       -8.8240     2.4980    -1.2010 C.ar  1 <1>  -0.1500 
 20 C      -10.8520     3.3990     0.4100 C.ar  1 <1>   0.0830 
 21 C      -10.0720     1.8930    -1.2760 C.ar  1 <1>  -0.1500 
 22 O      -11.9650     3.6760     1.0940 O.3   1 <1>  -0.3630 
 23 C      -11.0720     2.3670    -0.4520 C.ar  1 <1>   0.0830 
 24 C      -12.9680     2.7720     0.6260 C.3   1 <1>   0.4000 
 25 O      -12.3370     1.9460    -0.3510 O.3   1 <1>  -0.3620 
 26 H        0.8640     2.1910     2.4980 H     1 <1>   0.1500 
 27 H       -2.7780     1.0290    -0.2950 H     1 <1>   0.0800 
 28 H       -3.0020     2.3540    -1.3960 H     1 <1>   0.0800 
 29 H        1.8940     4.1260     1.3390 H     1 <1>   0.1500 
 30 H        0.7380     5.1250    -0.6140 H     1 <1>   0.1500 
 31 H       -4.3540     4.3270    -0.6550 H     1 <1>   0.0800 
 32 H       -3.2510     4.5600     0.6680 H     1 <1>   0.0800 
 33 H       -5.0080     0.7900     0.3900 H     1 <1>   0.0800 
 34 H       -5.4760     1.9440    -0.8260 H     1 <1>   0.0800 
 35 H       -5.4430     5.5890     1.1500 H     1 <1>   0.0800 
 36 H       -4.9750     4.3760     2.3060 H     1 <1>   0.0800 
 37 H       -6.0780     2.0330     2.1360 H     1 <1>   0.0800 
 38 H       -7.2400     1.7650     0.8720 H     1 <1>   0.0800 
 39 H       -7.2430     4.0240     1.7950 H     1 <1>   0.4500 
 40 H       -6.6150     3.8760    -1.0680 H     1 <1>   0.0800 
 41 H       -7.3250     5.2620    -0.2730 H     1 <1>   0.0800 
 42 H       -9.5000     4.8340     1.1890 H     1 <1>   0.1500 
 43 H       -8.0410     2.1370    -1.8470 H     1 <1>   0.1500 
 44 H      -10.2740     1.0810    -1.9530 H     1 <1>   0.1500 
 45 H      -13.7680     3.3260     0.1680 H     1 <1>   0.0800 
 46 H      -13.3180     2.1650     1.4420 H     1 <1>   0.0800 
@<TRIPOS>BOND
  1   1   2  1   
  2   2   3  ar  
  3   2   4  ar  
  4   3   5  ar  
  5   3   6  1   
  6   4   7  ar  
  7   4  26  1   
  8   5   8  1   
  9   5   9  ar  
 10   6  10  1   
 11   6  27  1   
 12   6  28  1   
 13   7   9  ar  
 14   7  29  1   
 15   9  30  1   
 16  10  11  1   
 17  10  12  1   
 18  11  13  1   
 19  11  31  1   
 20  11  32  1   
 21  12  14  1   
 22  12  33  1   
 23  12  34  1   
 24  13  15  1   
 25  13  35  1   
 26  13  36  1   
 27  14  15  1   
 28  14  37  1   
 29  14  38  1   
 30  15  16  1   
 31  15  39  1   
 32  16  17  1   
 33  16  40  1   
 34  16  41  1   
 35  17  18  ar  
 36  17  19  ar  
 37  18  20  ar  
 38  18  42  1   
 39  19  21  ar  
 40  19  43  1   
 41  20  22  1   
 42  20  23  ar  
 43  21  23  ar  
 44  21  44  1   
 45  22  24  1   
 46  23  25  1   
 47  24  25  1   
 48  24  45  1   
 49  24  46  1   
@<TRIPOS>SUBSTRUCTURE
  1 ****  14 GROUP 4 **** **** 0

# MOE 2024.06 (io_trps.svl 2023.06)
