@<TRIPOS>MOLECULE
NONAME
49 50 1 0 0 
SMALL
USER_CHARGES


@<TRIPOS>ATOM
  1 O       -0.1190    -4.2960     0.9860 O.3   1 <1>  -0.5600 
  2 C        0.0640    -2.9560     0.6200 C.3   1 <1>   0.2000 
  3 C       -0.5920    -5.1910     0.0110 C.3   1 <1>   0.2000 
  4 C       -1.2720    -2.3310     0.1350 C.3   1 <1>   0.3430 
  5 C        1.2000    -2.8540    -0.4060 C.3   1 <1>  -0.2400 
  6 C       -1.6360    -4.5350    -0.9320 C.3   1 <1>   0.3430 
  7 C       -1.1910    -6.3680     0.7790 C.3   1 <1>  -0.2400 
  8 N       -2.2880    -3.3610    -0.2770 N.4   1 <1>  -0.9590 
  9 C       -3.4760    -2.8110    -0.9980 C.3   1 <1>   0.3430 
 10 C       -4.4360    -2.1180    -0.0080 C.3   1 <1>   0.2000 
 11 O       -4.4340    -2.8230     1.1970 O.3   1 <1>  -0.6800 
 12 C       -5.8730    -2.0450    -0.5360 C.3   1 <1>   0.1200 
 13 O       -6.7130    -1.6020     0.5070 O.3   1 <1>  -0.3630 
 14 C       -8.0390    -1.6870     0.2600 C.ar  1 <1>   0.0820 
 15 C       -8.7010    -0.6140    -0.3320 C.ar  1 <1>  -0.1430 
 16 C       -8.7260    -2.8480     0.6060 C.ar  1 <1>  -0.1430 
 17 C      -10.0530    -0.7290    -0.6100 C.ar  1 <1>  -0.1500 
 18 C       -7.9830     0.6850    -0.6740 C.3   1 <1>  -0.0970 
 19 C      -10.0780    -2.9400     0.3190 C.ar  1 <1>  -0.1500 
 20 C       -8.0310    -4.0110     1.3010 C.3   1 <1>  -0.0970 
 21 C      -10.7380    -1.8880    -0.2910 C.ar  1 <1>  -0.1500 
 22 H        0.3770    -2.4360     1.5100 H     1 <1>   0.0800 
 23 H        0.2510    -5.5390    -0.5630 H     1 <1>   0.0800 
 24 H       -1.0600    -1.6690    -0.6870 H     1 <1>   0.0800 
 25 H       -1.6800    -1.7330     0.9340 H     1 <1>   0.0800 
 26 H        0.9350    -3.2910    -1.3510 H     1 <1>   0.0800 
 27 H        2.0790    -3.3430    -0.0220 H     1 <1>   0.0800 
 28 H        1.4460    -1.8210    -0.5740 H     1 <1>   0.0800 
 29 H       -2.3720    -5.2720    -1.2080 H     1 <1>   0.0800 
 30 H       -1.1380    -4.2170    -1.8330 H     1 <1>   0.0800 
 31 H       -2.0170    -6.0450     1.3880 H     1 <1>   0.0800 
 32 H       -0.4410    -6.8060     1.4130 H     1 <1>   0.0800 
 33 H       -1.5370    -7.1250     0.0990 H     1 <1>   0.0800 
 34 H       -2.6800    -3.7090     0.6220 H     1 <1>   0.4500 
 35 H       -4.0110    -3.6210    -1.4650 H     1 <1>   0.0800 
 36 H       -3.1730    -2.1240    -1.7710 H     1 <1>   0.0800 
 37 H       -4.0890    -1.1200     0.1970 H     1 <1>   0.0800 
 38 H       -5.2030    -2.5140     1.7330 H     1 <1>   0.4000 
 39 H       -6.2130    -3.0140    -0.8600 H     1 <1>   0.0800 
 40 H       -5.9530    -1.3510    -1.3540 H     1 <1>   0.0800 
 41 H      -10.5840     0.0830    -1.0750 H     1 <1>   0.1500 
 42 H       -7.4720     0.5870    -1.6140 H     1 <1>   0.0800 
 43 H       -7.2710     0.9310     0.0930 H     1 <1>   0.0800 
 44 H       -8.6850     1.4960    -0.7480 H     1 <1>   0.0800 
 45 H      -10.6280    -3.8300     0.5700 H     1 <1>   0.1500 
 46 H       -7.4230    -3.6470     2.1090 H     1 <1>   0.0800 
 47 H       -7.4090    -4.5410     0.6040 H     1 <1>   0.0800 
 48 H       -8.7500    -4.6970     1.7090 H     1 <1>   0.0800 
 49 H      -11.7880    -1.9690    -0.5110 H     1 <1>   0.1500 
@<TRIPOS>BOND
  1   1   2  1   
  2   1   3  1   
  3   2   4  1   
  4   2   5  1   
  5   2  22  1   
  6   3   6  1   
  7   3   7  1   
  8   3  23  1   
  9   4   8  1   
 10   4  24  1   
 11   4  25  1   
 12   5  26  1   
 13   5  27  1   
 14   5  28  1   
 15   6   8  1   
 16   6  29  1   
 17   6  30  1   
 18   7  31  1   
 19   7  32  1   
 20   7  33  1   
 21   8   9  1   
 22   8  34  1   
 23   9  10  1   
 24   9  35  1   
 25   9  36  1   
 26  10  11  1   
 27  10  12  1   
 28  10  37  1   
 29  11  38  1   
 30  12  13  1   
 31  12  39  1   
 32  12  40  1   
 33  13  14  1   
 34  14  15  ar  
 35  14  16  ar  
 36  15  17  ar  
 37  15  18  1   
 38  16  19  ar  
 39  16  20  1   
 40  17  21  ar  
 41  17  41  1   
 42  18  42  1   
 43  18  43  1   
 44  18  44  1   
 45  19  21  ar  
 46  19  45  1   
 47  20  46  1   
 48  20  47  1   
 49  20  48  1   
 50  21  49  1   
@<TRIPOS>SUBSTRUCTURE
  1 ****  10 GROUP 4 **** **** 0

# MOE 2024.06 (io_trps.svl 2023.06)
