@<TRIPOS>MOLECULE
NONAME
34 34 1 0 0 
SMALL
USER_CHARGES


@<TRIPOS>ATOM
  1 CL      -0.0010    -0.0250     0.0330 Cl    1 <1>  -0.1770 
  2 C        0.8880     1.4760     0.0840 C.ar  1 <1>   0.1770 
  3 C        0.2020     2.6710     0.0130 C.ar  1 <1>  -0.1500 
  4 C        2.2630     1.4430     0.1950 C.ar  1 <1>  -0.1500 
  5 C        0.8860     3.8830     0.0600 C.ar  1 <1>  -0.0090 
  6 C        2.9610     2.6360     0.2300 C.ar  1 <1>  -0.1500 
  7 S        0.0200     5.4740    -0.0360 S.o2  1 <1>   1.4470 
  8 C        2.2760     3.8500     0.1580 C.ar  1 <1>   0.0830 
  9 O        0.0490     5.9830    -1.3890 O.2   1 <1>  -0.6500 
 10 O        0.3340     6.3320     1.0820 O.2   1 <1>  -0.6500 
 11 N       -1.5790     5.0830     0.2980 N.am  1 <1>  -0.9140 
 12 O        2.9190     5.0430     0.1730 O.3   1 <1>  -0.3620 
 13 C       -2.5300     6.0160    -0.3070 C.3   1 <1>   0.1960 
 14 C        4.3170     5.1560     0.2930 C.3   1 <1>   0.1200 
 15 C       -3.9580     5.6610     0.1120 C.3   1 <1>   0.1200 
 16 C        4.6640     6.6420     0.2900 C.3   1 <1>  -0.2400 
 17 O       -4.8260     6.6170    -0.4090 O.3   1 <1>  -0.5600 
 18 C       -6.1670     6.3820    -0.1210 C.3   1 <1>   0.0400 
 19 H       -0.8690     2.6460    -0.0820 H     1 <1>   0.1500 
 20 H        2.7740     0.4980     0.2490 H     1 <1>   0.1500 
 21 H        4.0320     2.5990     0.3100 H     1 <1>   0.1500 
 22 H       -1.6200     5.2420     1.3040 H     1 <1>   0.4200 
 23 H       -2.4610     5.9620    -1.3810 H     1 <1>   0.0800 
 24 H       -2.3030     7.0220     0.0080 H     1 <1>   0.0800 
 25 H        4.7750     4.6580    -0.5440 H     1 <1>   0.0800 
 26 H        4.6210     4.6970     1.2180 H     1 <1>   0.0800 
 27 H       -4.0490     5.6690     1.1840 H     1 <1>   0.0800 
 28 H       -4.2290     4.6970    -0.2820 H     1 <1>   0.0800 
 29 H        4.3420     7.0940    -0.6310 H     1 <1>   0.0800 
 30 H        5.7260     6.7700     0.3850 H     1 <1>   0.0800 
 31 H        4.1820     7.1340     1.1170 H     1 <1>   0.0800 
 32 H       -6.7470     7.1720    -0.5650 H     1 <1>   0.0800 
 33 H       -6.3080     6.3840     0.9460 H     1 <1>   0.0800 
 34 H       -6.4610     5.4360    -0.5430 H     1 <1>   0.0800 
@<TRIPOS>BOND
  1   1   2  1   
  2   2   3  ar  
  3   2   4  ar  
  4   3   5  ar  
  5   3  19  1   
  6   4   6  ar  
  7   4  20  1   
  8   5   7  1   
  9   5   8  ar  
 10   6   8  ar  
 11   6  21  1   
 12   7   9  2   
 13   7  10  2   
 14   7  11  am  
 15   8  12  1   
 16  11  13  1   
 17  11  22  1   
 18  12  14  1   
 19  13  15  1   
 20  13  23  1   
 21  13  24  1   
 22  14  16  1   
 23  14  25  1   
 24  14  26  1   
 25  15  17  1   
 26  15  27  1   
 27  15  28  1   
 28  16  29  1   
 29  16  30  1   
 30  16  31  1   
 31  17  18  1   
 32  18  32  1   
 33  18  33  1   
 34  18  34  1   
@<TRIPOS>SUBSTRUCTURE
  1 ****   5 GROUP 4 **** **** 0

# MOE 2024.06 (io_trps.svl 2023.06)
