@<TRIPOS>MOLECULE
NONAME
40 43 1 0 0 
SMALL
USER_CHARGES


@<TRIPOS>ATOM
  1 CL      -0.2690    -1.2700     0.7550 Cl    1 <1>  -0.1770 
  2 C       -1.9940    -1.4740     0.6100 C.ar  1 <1>   0.1770 
  3 C       -2.5030    -2.6850     0.1820 C.ar  1 <1>  -0.1500 
  4 C       -2.8320    -0.4240     0.9280 C.ar  1 <1>  -0.1500 
  5 C       -3.8730    -2.8390     0.0670 C.ar  1 <1>  -0.1500 
  6 C       -4.2020    -0.5890     0.8100 C.ar  1 <1>  -0.1500 
  7 C       -4.7550    -1.7970     0.3700 C.ar  1 <1>   0.0860 
  8 C       -6.1900    -1.9760     0.2300 C.2   1 <1>   0.5440 
  9 O       -6.6860    -3.0720     0.3990 O.2   1 <1>  -0.5700 
 10 N       -6.9820    -0.9120    -0.1100 N.am  1 <1>  -0.7300 
 11 C       -8.4450    -0.8610    -0.2870 C.3   1 <1>   0.3000 
 12 C       -8.8140     0.5930    -0.6360 C.3   1 <1>  -0.1600 
 13 C       -9.1740    -1.2580     1.0110 C.3   1 <1>  -0.1600 
 14 C       -8.8920    -1.7770    -1.4420 C.3   1 <1>  -0.1600 
 15 C      -10.3360     0.7280    -0.8390 C.3   1 <1>  -0.0800 
 16 C      -10.6990    -1.1430     0.8160 C.3   1 <1>  -0.0800 
 17 C      -10.4160    -1.6630    -1.6440 C.3   1 <1>  -0.0800 
 18 C      -11.0560     0.3120     0.4580 C.3   1 <1>  -0.1600 
 19 C      -10.7750    -0.2040    -1.9840 C.3   1 <1>  -0.1600 
 20 C      -11.1300    -2.0680    -0.3390 C.3   1 <1>  -0.1600 
 21 H       -1.8340    -3.4930    -0.0550 H     1 <1>   0.1500 
 22 H       -2.4130     0.5080     1.2650 H     1 <1>   0.1500 
 23 H       -4.2790    -3.7810    -0.2620 H     1 <1>   0.1500 
 24 H       -4.8510     0.2270     1.0720 H     1 <1>   0.1500 
 25 H       -6.5230    -0.0440    -0.3740 H     1 <1>   0.3700 
 26 H       -8.3110     0.8910    -1.5390 H     1 <1>   0.0800 
 27 H       -8.5050     1.2490     0.1580 H     1 <1>   0.0800 
 28 H       -8.9340    -2.2730     1.2740 H     1 <1>   0.0800 
 29 H       -8.8610    -0.6200     1.8180 H     1 <1>   0.0800 
 30 H       -8.6470    -2.7990    -1.2170 H     1 <1>   0.0800 
 31 H       -8.3830    -1.5010    -2.3470 H     1 <1>   0.0800 
 32 H      -10.5840     1.7470    -1.0830 H     1 <1>   0.0800 
 33 H      -11.2040    -1.4310     1.7220 H     1 <1>   0.0800 
 34 H      -10.7260    -2.3130    -2.4450 H     1 <1>   0.0800 
 35 H      -12.1200     0.4040     0.3280 H     1 <1>   0.0800 
 36 H      -10.7680     0.9660     1.2620 H     1 <1>   0.0800 
 37 H      -11.8370    -0.1180    -2.1370 H     1 <1>   0.0800 
 38 H      -10.2900     0.0860    -2.9000 H     1 <1>   0.0800 
 39 H      -12.1960    -2.0090    -0.4740 H     1 <1>   0.0800 
 40 H      -10.8890    -3.0890    -0.0950 H     1 <1>   0.0800 
@<TRIPOS>BOND
  1   1   2  1   
  2   2   3  ar  
  3   2   4  ar  
  4   3   5  ar  
  5   3  21  1   
  6   4   6  ar  
  7   4  22  1   
  8   5   7  ar  
  9   5  23  1   
 10   6   7  ar  
 11   6  24  1   
 12   7   8  1   
 13   8   9  2   
 14   8  10  am  
 15  10  11  1   
 16  10  25  1   
 17  11  12  1   
 18  11  13  1   
 19  11  14  1   
 20  12  15  1   
 21  12  26  1   
 22  12  27  1   
 23  13  16  1   
 24  13  28  1   
 25  13  29  1   
 26  14  17  1   
 27  14  30  1   
 28  14  31  1   
 29  15  18  1   
 30  15  19  1   
 31  15  32  1   
 32  16  18  1   
 33  16  20  1   
 34  16  33  1   
 35  17  19  1   
 36  17  20  1   
 37  17  34  1   
 38  18  35  1   
 39  18  36  1   
 40  19  37  1   
 41  19  38  1   
 42  20  39  1   
 43  20  40  1   
@<TRIPOS>SUBSTRUCTURE
  1 ****  10 GROUP 4 **** **** 0

# MOE 2024.06 (io_trps.svl 2023.06)
