@<TRIPOS>MOLECULE
NONAME
41 42 1 0 0 
SMALL
USER_CHARGES


@<TRIPOS>ATOM
  1 F       -0.7450     0.2370    -0.2200 F     1 <1>  -0.3400 
  2 C       -1.8790    -0.4450    -0.1230 C.3   1 <1>   1.1640 
  3 F       -2.4680    -0.0260     0.9950 F     1 <1>  -0.3400 
  4 F       -2.6550    -0.0260    -1.1150 F     1 <1>  -0.3400 
  5 C       -1.7000    -1.9660    -0.1350 C.ar  1 <1>  -0.1430 
  6 C       -2.7940    -2.8060     0.1010 C.ar  1 <1>   0.1170 
  7 C       -0.4530    -2.5280    -0.3960 C.ar  1 <1>  -0.1500 
  8 N       -4.0690    -2.2840     0.3900 N.am  1 <1>  -0.5470 
  9 C       -2.6040    -4.1840     0.0650 C.ar  1 <1>  -0.1500 
 10 C       -0.2830    -3.9000    -0.4240 C.ar  1 <1>  -0.1500 
 11 C       -5.2830    -2.6860    -0.1070 C.2   1 <1>   0.5690 
 12 C       -1.3630    -4.7300    -0.1940 C.ar  1 <1>  -0.1500 
 13 O       -5.4120    -3.6310    -0.8490 O.2   1 <1>  -0.5700 
 14 C       -6.5600    -1.9120     0.2720 C.3   1 <1>   0.4040 
 15 N       -7.8340    -2.6610    -0.0460 N.4   1 <1>  -0.9590 
 16 C       -9.0300    -1.7730    -0.0910 C.3   1 <1>   0.3430 
 17 C       -8.0230    -3.8410     0.8490 C.3   1 <1>   0.3430 
 18 C      -10.2410    -2.5670    -0.5800 C.3   1 <1>  -0.1600 
 19 C       -9.2210    -4.6600     0.3730 C.3   1 <1>  -0.1600 
 20 C      -10.4960    -3.8080     0.2880 C.3   1 <1>  -0.0800 
 21 C      -11.6580    -4.6310    -0.2770 C.3   1 <1>  -0.2400 
 22 H        0.4080    -1.9060    -0.5840 H     1 <1>   0.1500 
 23 H       -4.0530    -1.4540     0.9900 H     1 <1>   0.3700 
 24 H       -3.4340    -4.8460     0.2410 H     1 <1>   0.1500 
 25 H        0.6860    -4.3230    -0.6270 H     1 <1>   0.1500 
 26 H       -1.2350    -5.7990    -0.2200 H     1 <1>   0.1500 
 27 H       -6.5480    -0.9870    -0.2770 H     1 <1>   0.0800 
 28 H       -6.5300    -1.6790     1.3220 H     1 <1>   0.0800 
 29 H       -7.6880    -3.0610    -0.9890 H     1 <1>   0.4500 
 30 H       -8.8530    -0.9450    -0.7590 H     1 <1>   0.0800 
 31 H       -9.2320    -1.3820     0.8930 H     1 <1>   0.0800 
 32 H       -8.1910    -3.5120     1.8620 H     1 <1>   0.0800 
 33 H       -7.1410    -4.4630     0.8310 H     1 <1>   0.0800 
 34 H      -10.0860    -2.8550    -1.6050 H     1 <1>   0.0800 
 35 H      -11.1080    -1.9280    -0.5540 H     1 <1>   0.0800 
 36 H       -9.3790    -5.4740     1.0590 H     1 <1>   0.0800 
 37 H       -8.9950    -5.0910    -0.5880 H     1 <1>   0.0800 
 38 H      -10.7640    -3.4870     1.2820 H     1 <1>   0.0800 
 39 H      -11.4390    -4.9780    -1.2720 H     1 <1>   0.0800 
 40 H      -12.5560    -4.0390    -0.3130 H     1 <1>   0.0800 
 41 H      -11.8500    -5.4870     0.3470 H     1 <1>   0.0800 
@<TRIPOS>BOND
  1   1   2  1   
  2   2   3  1   
  3   2   4  1   
  4   2   5  1   
  5   5   6  ar  
  6   5   7  ar  
  7   6   8  1   
  8   6   9  ar  
  9   7  10  ar  
 10   7  22  1   
 11   8  11  am  
 12   8  23  1   
 13   9  12  ar  
 14   9  24  1   
 15  10  12  ar  
 16  10  25  1   
 17  11  13  2   
 18  11  14  1   
 19  12  26  1   
 20  14  15  1   
 21  14  27  1   
 22  14  28  1   
 23  15  16  1   
 24  15  17  1   
 25  15  29  1   
 26  16  18  1   
 27  16  30  1   
 28  16  31  1   
 29  17  19  1   
 30  17  32  1   
 31  17  33  1   
 32  18  20  1   
 33  18  34  1   
 34  18  35  1   
 35  19  20  1   
 36  19  36  1   
 37  19  37  1   
 38  20  21  1   
 39  20  38  1   
 40  21  39  1   
 41  21  40  1   
 42  21  41  1   
@<TRIPOS>SUBSTRUCTURE
  1 ****  11 GROUP 4 **** **** 0

# MOE 2024.06 (io_trps.svl 2023.06)
