@<TRIPOS>MOLECULE
NONAME
46 49 1 0 0 
SMALL
USER_CHARGES


@<TRIPOS>ATOM
  1 O        0.0590     0.7350     1.2320 O.2   1 <1>  -0.5700 
  2 C        0.2240     1.8430     0.7530 C.2   1 <1>   0.5440 
  3 N        1.4160     2.2830     0.2170 N.am  1 <1>  -0.4770 
  4 C       -0.7610     2.8800     0.6240 C.ar  1 <1>   0.0860 
  5 C        1.2340     3.5830    -0.2670 C.ar  1 <1>   0.1170 
  6 C        2.6830     1.5030     0.3060 C.3   1 <1>   0.2810 
  7 C       -0.0920     3.9220    -0.0090 C.ar  1 <1>   0.0000 
  8 C       -2.0880     3.0590     0.9500 C.ar  1 <1>  -0.1500 
  9 C        2.0360     4.5050    -0.8990 C.ar  1 <1>  -0.1500 
 10 C        3.8640     2.3320     0.8520 C.2   1 <1>   0.5690 
 11 C        2.9390     0.8540    -1.0640 C.3   1 <1>  -0.2400 
 12 C       -0.6710     5.1450    -0.3420 C.ar  1 <1>   0.0000 
 13 C       -2.7150     4.2760     0.6360 C.ar  1 <1>  -0.1500 
 14 C        1.4960     5.7520    -1.2530 C.ar  1 <1>  -0.1500 
 15 O        3.8930     2.6020     2.0290 O.2   1 <1>  -0.5700 
 16 N        4.8670     2.7350     0.0170 N.am  1 <1>  -0.7300 
 17 C        0.1810     6.0670    -0.9840 C.ar  1 <1>  -0.1500 
 18 C       -2.0290     5.2920     0.0070 C.ar  1 <1>  -0.1500 
 19 C        6.0330     3.5390     0.4160 C.3   1 <1>   0.2200 
 20 C        5.9280     4.9210    -0.2360 C.3   1 <1>  -0.1600 
 21 C        7.3070     2.8100    -0.0200 C.3   1 <1>  -0.1600 
 22 C        7.1750     5.7680     0.0530 C.3   1 <1>  -0.1600 
 23 C        8.5570     3.6550     0.2720 C.3   1 <1>  -0.1600 
 24 C        8.4550     5.0400    -0.3810 C.3   1 <1>  -0.1600 
 25 H        2.5320     0.7090     1.0170 H     1 <1>   0.0800 
 26 H       -2.6340     2.2720     1.4410 H     1 <1>   0.1500 
 27 H        3.0620     4.2900    -1.1240 H     1 <1>   0.1500 
 28 H        3.0470     1.6030    -1.8280 H     1 <1>   0.0800 
 29 H        2.1130     0.2120    -1.3170 H     1 <1>   0.0800 
 30 H        3.8300     0.2550    -1.0260 H     1 <1>   0.0800 
 31 H       -3.7520     4.4030     0.8970 H     1 <1>   0.1500 
 32 H        2.1320     6.4690    -1.7430 H     1 <1>   0.1500 
 33 H        4.8420     2.4740    -0.9670 H     1 <1>   0.3700 
 34 H       -0.2190     7.0260    -1.2600 H     1 <1>   0.1500 
 35 H       -2.5190     6.2200    -0.2280 H     1 <1>   0.1500 
 36 H        6.0450     3.6580     1.4880 H     1 <1>   0.0800 
 37 H        5.0600     5.4280     0.1480 H     1 <1>   0.0800 
 38 H        5.8200     4.8120    -1.3010 H     1 <1>   0.0800 
 39 H        7.2650     2.6050    -1.0750 H     1 <1>   0.0800 
 40 H        7.3810     1.8760     0.5090 H     1 <1>   0.0800 
 41 H        7.2260     5.9760     1.1090 H     1 <1>   0.0800 
 42 H        7.1020     6.7100    -0.4640 H     1 <1>   0.0800 
 43 H        9.4310     3.1460    -0.0960 H     1 <1>   0.0800 
 44 H        8.6670     3.7710     1.3370 H     1 <1>   0.0800 
 45 H        9.3140     5.6290    -0.1100 H     1 <1>   0.0800 
 46 H        8.4570     4.9310    -1.4520 H     1 <1>   0.0800 
@<TRIPOS>BOND
  1   1   2  2   
  2   2   3  am  
  3   2   4  1   
  4   3   5  1   
  5   3   6  1   
  6   4   7  ar  
  7   4   8  ar  
  8   5   7  ar  
  9   5   9  ar  
 10   6  10  1   
 11   6  11  1   
 12   6  25  1   
 13   7  12  ar  
 14   8  13  ar  
 15   8  26  1   
 16   9  14  ar  
 17   9  27  1   
 18  10  15  2   
 19  10  16  am  
 20  11  28  1   
 21  11  29  1   
 22  11  30  1   
 23  12  17  ar  
 24  12  18  ar  
 25  13  18  ar  
 26  13  31  1   
 27  14  17  ar  
 28  14  32  1   
 29  16  19  1   
 30  16  33  1   
 31  17  34  1   
 32  18  35  1   
 33  19  20  1   
 34  19  21  1   
 35  19  36  1   
 36  20  22  1   
 37  20  37  1   
 38  20  38  1   
 39  21  23  1   
 40  21  39  1   
 41  21  40  1   
 42  22  24  1   
 43  22  41  1   
 44  22  42  1   
 45  23  24  1   
 46  23  43  1   
 47  23  44  1   
 48  24  45  1   
 49  24  46  1   
@<TRIPOS>SUBSTRUCTURE
  1 ****   5 GROUP 4 **** **** 0

# MOE 2024.06 (io_trps.svl 2023.06)
