@<TRIPOS>MOLECULE
NONAME
36 37 1 0 0 
SMALL
USER_CHARGES


@<TRIPOS>ATOM
  1 S       -0.0420     0.4280     0.0480 S.3   1 <1>  -0.3320 
  2 C       -1.5060    -0.6230     0.0450 C.ar  1 <1>   0.1020 
  3 C        1.4130    -0.7020    -0.0810 C.3   1 <1>   0.0700 
  4 C       -2.7330     0.0060     0.1360 C.ar  1 <1>  -0.1500 
  5 C       -1.4230    -2.0040    -0.0450 C.ar  1 <1>  -0.1500 
  6 C        2.6790     0.1560    -0.0810 C.3   1 <1>  -0.0990 
  7 C       -3.8930    -0.7500     0.1380 C.ar  1 <1>  -0.1500 
  8 C       -2.5880    -2.7540    -0.0420 C.ar  1 <1>  -0.1500 
  9 C        3.9470    -0.6750    -0.1710 C.2   1 <1>   0.5690 
 10 C       -3.8250    -2.1330     0.0470 C.ar  1 <1>  -0.1440 
 11 O        3.8570    -1.8730    -0.3130 O.2   1 <1>  -0.5700 
 12 N        5.1620    -0.0550    -0.0920 N.am  1 <1>  -0.6600 
 13 C       -5.0970    -2.9600     0.0510 C.3   1 <1>  -0.0970 
 14 C        5.4010     1.3960     0.0690 C.3   1 <1>   0.1400 
 15 C        6.4360    -0.8020    -0.1560 C.3   1 <1>   0.1400 
 16 C        6.9010     1.5670    -0.1420 C.3   1 <1>  -0.1600 
 17 C        7.5020     0.2160     0.2340 C.3   1 <1>  -0.1600 
 18 H        1.3160    -1.2580    -0.9970 H     1 <1>   0.0800 
 19 H        1.3890    -1.3650     0.7660 H     1 <1>   0.0800 
 20 H       -2.7780     1.0780     0.2050 H     1 <1>   0.1500 
 21 H       -0.4790    -2.5060    -0.1160 H     1 <1>   0.1500 
 22 H        2.7090     0.7320     0.8240 H     1 <1>   0.0800 
 23 H        2.6480     0.8250    -0.9200 H     1 <1>   0.0800 
 24 H       -4.8470    -0.2580     0.2110 H     1 <1>   0.1500 
 25 H       -2.5260    -3.8260    -0.1100 H     1 <1>   0.1500 
 26 H       -5.9040    -2.4110    -0.3990 H     1 <1>   0.0800 
 27 H       -5.3670    -3.2070     1.0620 H     1 <1>   0.0800 
 28 H       -4.9560    -3.8700    -0.5030 H     1 <1>   0.0800 
 29 H        5.1280     1.6900     1.0680 H     1 <1>   0.0800 
 30 H        4.8370     1.9670    -0.6490 H     1 <1>   0.0800 
 31 H        6.5880    -1.1470    -1.1640 H     1 <1>   0.0800 
 32 H        6.4210    -1.6450     0.5150 H     1 <1>   0.0800 
 33 H        7.3000     2.3730     0.4480 H     1 <1>   0.0800 
 34 H        7.0860     1.7710    -1.1830 H     1 <1>   0.0800 
 35 H        8.4350     0.0260    -0.2660 H     1 <1>   0.0800 
 36 H        7.6570     0.1670     1.2980 H     1 <1>   0.0800 
@<TRIPOS>BOND
  1   1   2  1   
  2   1   3  1   
  3   2   4  ar  
  4   2   5  ar  
  5   3   6  1   
  6   3  18  1   
  7   3  19  1   
  8   4   7  ar  
  9   4  20  1   
 10   5   8  ar  
 11   5  21  1   
 12   6   9  1   
 13   6  22  1   
 14   6  23  1   
 15   7  10  ar  
 16   7  24  1   
 17   8  10  ar  
 18   8  25  1   
 19   9  11  2   
 20   9  12  am  
 21  10  13  1   
 22  12  14  1   
 23  12  15  1   
 24  13  26  1   
 25  13  27  1   
 26  13  28  1   
 27  14  16  1   
 28  14  29  1   
 29  14  30  1   
 30  15  17  1   
 31  15  31  1   
 32  15  32  1   
 33  16  17  1   
 34  16  33  1   
 35  16  34  1   
 36  17  35  1   
 37  17  36  1   
@<TRIPOS>SUBSTRUCTURE
  1 ****   3 GROUP 4 **** **** 0

# MOE 2024.06 (io_trps.svl 2023.06)
