@<TRIPOS>MOLECULE
NONAME
45 46 1 0 0 
SMALL
USER_CHARGES


@<TRIPOS>ATOM
  1 N        0.0570     0.1140    -0.0380 N.3   1 <1>  -0.8100 
  2 C        1.2290     0.8630     0.4980 C.3   1 <1>   0.1900 
  3 C       -1.2390     0.8320     0.1370 C.3   1 <1>   0.1100 
  4 C       -0.0650    -1.2700     0.5030 C.3   1 <1>   0.1100 
  5 C        1.3240     2.2520    -0.1640 C.3   1 <1>  -0.1600 
  6 C        2.5320     0.0850     0.2250 C.3   1 <1>  -0.1600 
  7 C       -2.4400     0.0650    -0.4570 C.3   1 <1>   0.3430 
  8 C       -1.2600    -2.0470    -0.0920 C.3   1 <1>   0.3430 
  9 C        2.6180     2.9920     0.1680 C.3   1 <1>   0.3430 
 10 C        3.7920     0.8850     0.5440 C.3   1 <1>   0.3430 
 11 N       -2.5550    -1.3210     0.1050 N.4   1 <1>  -0.9590 
 12 N        3.7860     2.1620    -0.2180 N.4   1 <1>  -0.9590 
 13 C       -3.6810    -2.0840    -0.4930 C.3   1 <1>   0.3430 
 14 C        5.0490     2.9280    -0.0500 C.3   1 <1>   0.3430 
 15 C       -5.0060    -1.5320     0.0210 C.3   1 <1>  -0.2400 
 16 C        6.1720     2.2440    -0.8210 C.3   1 <1>  -0.2400 
 17 H        1.1150     0.9900     1.5630 H     1 <1>   0.0800 
 18 H       -1.2080     1.7790    -0.3710 H     1 <1>   0.0800 
 19 H       -1.4170     1.0220     1.1820 H     1 <1>   0.0800 
 20 H       -0.1550    -1.2400     1.5760 H     1 <1>   0.0800 
 21 H        0.8130    -1.8400     0.2610 H     1 <1>   0.0800 
 22 H        0.5230     2.8790     0.1810 H     1 <1>   0.0800 
 23 H        1.2410     2.1540    -1.2320 H     1 <1>   0.0800 
 24 H        2.5650    -0.2200    -0.8070 H     1 <1>   0.0800 
 25 H        2.5710    -0.7940     0.8390 H     1 <1>   0.0800 
 26 H       -2.3150     0.0130    -1.5260 H     1 <1>   0.0800 
 27 H       -3.3420     0.6190    -0.2570 H     1 <1>   0.0800 
 28 H       -1.3120    -3.0200     0.3700 H     1 <1>   0.0800 
 29 H       -1.0800    -2.1890    -1.1450 H     1 <1>   0.0800 
 30 H        2.6540     3.2060     1.2240 H     1 <1>   0.0800 
 31 H        2.6390     3.9290    -0.3670 H     1 <1>   0.0800 
 32 H        4.6580     0.2990     0.2790 H     1 <1>   0.0800 
 33 H        3.8350     1.0910     1.6010 H     1 <1>   0.0800 
 34 H       -2.7230    -1.2420     1.1160 H     1 <1>   0.4500 
 35 H        3.6930     1.9340    -1.2180 H     1 <1>   0.4500 
 36 H       -3.6060    -3.1230    -0.2110 H     1 <1>   0.0800 
 37 H       -3.6440    -2.0230    -1.5690 H     1 <1>   0.0800 
 38 H        5.3070     3.0040     0.9950 H     1 <1>   0.0800 
 39 H        4.9230     3.9270    -0.4380 H     1 <1>   0.0800 
 40 H       -5.0480    -1.5700     1.0950 H     1 <1>   0.0800 
 41 H       -5.8080    -2.1380    -0.3620 H     1 <1>   0.0800 
 42 H       -5.1720    -0.5250    -0.3160 H     1 <1>   0.0800 
 43 H        6.4040     1.2780    -0.4110 H     1 <1>   0.0800 
 44 H        7.0610     2.8460    -0.7520 H     1 <1>   0.0800 
 45 H        5.9200     2.1470    -1.8620 H     1 <1>   0.0800 
@<TRIPOS>BOND
  1   1   2  1   
  2   1   3  1   
  3   1   4  1   
  4   2   5  1   
  5   2   6  1   
  6   2  17  1   
  7   3   7  1   
  8   3  18  1   
  9   3  19  1   
 10   4   8  1   
 11   4  20  1   
 12   4  21  1   
 13   5   9  1   
 14   5  22  1   
 15   5  23  1   
 16   6  10  1   
 17   6  24  1   
 18   6  25  1   
 19   7  11  1   
 20   7  26  1   
 21   7  27  1   
 22   8  11  1   
 23   8  28  1   
 24   8  29  1   
 25   9  12  1   
 26   9  30  1   
 27   9  31  1   
 28  10  12  1   
 29  10  32  1   
 30  10  33  1   
 31  11  13  1   
 32  11  34  1   
 33  12  14  1   
 34  12  35  1   
 35  13  15  1   
 36  13  36  1   
 37  13  37  1   
 38  14  16  1   
 39  14  38  1   
 40  14  39  1   
 41  15  40  1   
 42  15  41  1   
 43  15  42  1   
 44  16  43  1   
 45  16  44  1   
 46  16  45  1   
@<TRIPOS>SUBSTRUCTURE
  1 ****   1 GROUP 4 **** **** 0

# MOE 2024.06 (io_trps.svl 2023.06)
