@<TRIPOS>MOLECULE
NONAME
46 48 1 0 0 
SMALL
USER_CHARGES


@<TRIPOS>ATOM
  1 S       -0.5080     0.4780    -0.3300 S.o2  1 <1>   1.4470 
  2 O       -0.9700     0.3470    -1.6970 O.2   1 <1>  -0.6500 
  3 O       -0.2010    -0.7170     0.4250 O.2   1 <1>  -0.6500 
  4 N       -1.6850     1.3440     0.5260 N.am  1 <1>  -0.8490 
  5 C        0.9310     1.5840    -0.2800 C.ar  1 <1>  -0.0090 
  6 C       -2.7960     0.4910     0.9500 C.3   1 <1>   0.1960 
  7 C       -2.1920     2.4910    -0.2290 C.3   1 <1>   0.1960 
  8 C        1.2470     2.3000     0.8690 C.ar  1 <1>  -0.1500 
  9 C        1.7610     1.7340    -1.3860 C.ar  1 <1>  -0.1500 
 10 C       -3.7120     1.2770     1.8870 C.3   1 <1>  -0.1600 
 11 C       -3.1530     3.3240     0.6300 C.3   1 <1>  -0.1600 
 12 C        2.3430     3.1440     0.9100 C.ar  1 <1>  -0.1500 
 13 C        2.8620     2.5740    -1.3560 C.ar  1 <1>  -0.1500 
 14 C       -4.3500     2.5140     1.2000 C.3   1 <1>   0.0370 
 15 C        3.1580     3.2890    -0.1990 C.ar  1 <1>   0.0830 
 16 C       -5.3630     2.0480     0.1140 C.ar  1 <1>  -0.1430 
 17 C       -5.0950     3.3700     2.2590 C.2   1 <1>   0.9060 
 18 O        4.2090     4.1340    -0.0810 O.3   1 <1>  -0.3630 
 19 C       -5.3100     2.4350    -1.2230 C.ar  1 <1>  -0.1500 
 20 C       -6.4070     1.2120     0.4950 C.ar  1 <1>  -0.1500 
 21 O       -5.0850     4.6070     2.1660 O.co2 1 <1>  -0.9000 
 22 O       -5.6610     2.8070     3.2110 O.co2 1 <1>  -0.9000 
 23 C        5.1160     4.3340    -1.1430 C.3   1 <1>   0.0400 
 24 C       -6.2280     1.9640    -2.1460 C.ar  1 <1>  -0.1500 
 25 C       -7.3290     0.7380    -0.4210 C.ar  1 <1>  -0.1500 
 26 C       -7.2370     1.1080    -1.7480 C.ar  1 <1>  -0.1500 
 27 H       -2.4170    -0.3640     1.4840 H     1 <1>   0.0800 
 28 H       -3.3470     0.1390     0.0920 H     1 <1>   0.0800 
 29 H       -2.6850     2.1430    -1.1200 H     1 <1>   0.0800 
 30 H       -1.3710     3.1190    -0.5280 H     1 <1>   0.0800 
 31 H        0.6220     2.1970     1.7410 H     1 <1>   0.1500 
 32 H        1.5390     1.1840    -2.2860 H     1 <1>   0.1500 
 33 H       -3.1380     1.6020     2.7360 H     1 <1>   0.0800 
 34 H       -4.4720     0.6220     2.2700 H     1 <1>   0.0800 
 35 H       -3.5170     4.1680     0.0740 H     1 <1>   0.0800 
 36 H       -2.5920     3.7300     1.4540 H     1 <1>   0.0800 
 37 H        2.5730     3.6940     1.8050 H     1 <1>   0.1500 
 38 H        3.4720     2.6580    -2.2350 H     1 <1>   0.1500 
 39 H       -4.5640     3.1190    -1.5760 H     1 <1>   0.1500 
 40 H       -6.5180     0.9340     1.5300 H     1 <1>   0.1500 
 41 H        5.8640     5.0320    -0.8150 H     1 <1>   0.0800 
 42 H        4.5830     4.7370    -1.9860 H     1 <1>   0.0800 
 43 H        5.5760     3.3940    -1.3900 H     1 <1>   0.0800 
 44 H       -6.1590     2.2710    -3.1740 H     1 <1>   0.1500 
 45 H       -8.1200     0.0890    -0.0920 H     1 <1>   0.1500 
 46 H       -7.9510     0.7410    -2.4630 H     1 <1>   0.1500 
@<TRIPOS>BOND
  1   1   2  2   
  2   1   3  2   
  3   1   4  am  
  4   1   5  1   
  5   4   6  1   
  6   4   7  1   
  7   5   8  ar  
  8   5   9  ar  
  9   6  10  1   
 10   6  27  1   
 11   6  28  1   
 12   7  11  1   
 13   7  29  1   
 14   7  30  1   
 15   8  12  ar  
 16   8  31  1   
 17   9  13  ar  
 18   9  32  1   
 19  10  14  1   
 20  10  33  1   
 21  10  34  1   
 22  11  14  1   
 23  11  35  1   
 24  11  36  1   
 25  12  15  ar  
 26  12  37  1   
 27  13  15  ar  
 28  13  38  1   
 29  14  16  1   
 30  14  17  1   
 31  15  18  1   
 32  16  19  ar  
 33  16  20  ar  
 34  17  21  ar  
 35  17  22  ar  
 36  18  23  1   
 37  19  24  ar  
 38  19  39  1   
 39  20  25  ar  
 40  20  40  1   
 41  23  41  1   
 42  23  42  1   
 43  23  43  1   
 44  24  26  ar  
 45  24  44  1   
 46  25  26  ar  
 47  25  45  1   
 48  26  46  1   
@<TRIPOS>SUBSTRUCTURE
  1 ****   7 GROUP 4 **** **** 0

# MOE 2024.06 (io_trps.svl 2023.06)
