@<TRIPOS>MOLECULE
NONAME
54 57 1 0 0 
SMALL
USER_CHARGES


@<TRIPOS>ATOM
  1 O       -0.3780     0.2660    -0.9600 O.2   1 <1>  -0.5700 
  2 C       -0.4640     1.4660    -0.7770 C.2   1 <1>   0.5440 
  3 N        0.6970     2.2070    -0.6860 N.am  1 <1>  -0.6600 
  4 C       -1.7760     2.0710    -0.6500 C.ar  1 <1>   0.0860 
  5 C        2.0270     1.6480    -1.0780 C.3   1 <1>   0.1400 
  6 C        0.8010     3.5100     0.0380 C.3   1 <1>   0.1400 
  7 C       -2.1130     3.2520    -1.3120 C.ar  1 <1>  -0.1500 
  8 C       -2.7640     1.4810     0.1390 C.ar  1 <1>  -0.1500 
  9 C        2.9950     1.6670     0.1150 C.3   1 <1>   0.1200 
 10 C        1.8520     3.4270     1.1590 C.3   1 <1>   0.1200 
 11 C       -3.3620     3.8260    -1.1760 C.ar  1 <1>  -0.1500 
 12 C       -4.0150     2.0520     0.2770 C.ar  1 <1>  -0.1500 
 13 O        3.0730     2.9520     0.6660 O.3   1 <1>  -0.5600 
 14 C       -4.3350     3.2390    -0.3730 C.ar  1 <1>   0.1170 
 15 N       -5.6150     3.7710    -0.2050 N.am  1 <1>  -0.5470 
 16 C       -6.1150     5.0390    -0.3750 C.2   1 <1>   0.5690 
 17 O       -5.4060     5.9700    -0.6830 O.2   1 <1>  -0.5700 
 18 C       -7.6350     5.2470    -0.1440 C.3   1 <1>   0.2040 
 19 C       -8.1830     4.0670     0.6940 C.ar  1 <1>  -0.1430 
 20 C       -8.3640     5.4100    -1.4910 C.3   1 <1>  -0.1600 
 21 C       -7.9400     6.6020     0.5300 C.3   1 <1>  -0.1600 
 22 C       -8.0230     4.0640     2.0760 C.ar  1 <1>  -0.1500 
 23 C       -8.7920     2.9640     0.1010 C.ar  1 <1>  -0.1500 
 24 C       -8.2000     6.8760    -1.8930 C.3   1 <1>  -0.1600 
 25 C       -8.0460     7.6510    -0.5840 C.3   1 <1>  -0.1600 
 26 C       -8.4660     3.0010     2.8430 C.ar  1 <1>  -0.1500 
 27 C       -9.2360     1.9000     0.8660 C.ar  1 <1>  -0.1500 
 28 C       -9.0750     1.9180     2.2390 C.ar  1 <1>  -0.1500 
 29 H        2.4370     2.2420    -1.8750 H     1 <1>   0.0800 
 30 H        1.9270     0.6390    -1.4400 H     1 <1>   0.0800 
 31 H       -0.1450     3.7820     0.4710 H     1 <1>   0.0800 
 32 H        1.0860     4.2800    -0.6580 H     1 <1>   0.0800 
 33 H       -1.3820     3.7200    -1.9480 H     1 <1>   0.1500 
 34 H       -2.5350     0.5590     0.6450 H     1 <1>   0.1500 
 35 H        3.9830     1.3850    -0.2040 H     1 <1>   0.0800 
 36 H        2.6680     0.9800     0.8760 H     1 <1>   0.0800 
 37 H        1.5180     2.7690     1.9420 H     1 <1>   0.0800 
 38 H        2.0250     4.4020     1.5780 H     1 <1>   0.0800 
 39 H       -3.5840     4.7350    -1.7050 H     1 <1>   0.1500 
 40 H       -4.7510     1.5720     0.8960 H     1 <1>   0.1500 
 41 H       -6.3060     3.1230     0.1830 H     1 <1>   0.3700 
 42 H       -9.4150     5.2190    -1.3550 H     1 <1>   0.0800 
 43 H       -7.9790     4.7470    -2.2460 H     1 <1>   0.0800 
 44 H       -7.1860     6.8710     1.2490 H     1 <1>   0.0800 
 45 H       -8.8920     6.5430     1.0300 H     1 <1>   0.0800 
 46 H       -7.5440     4.8890     2.5740 H     1 <1>   0.1500 
 47 H       -8.9280     2.9090    -0.9650 H     1 <1>   0.1500 
 48 H       -9.0400     7.2250    -2.4690 H     1 <1>   0.0800 
 49 H       -7.3040     6.9910    -2.4810 H     1 <1>   0.0800 
 50 H       -7.1480     8.2460    -0.6200 H     1 <1>   0.0800 
 51 H       -8.8870     8.3000    -0.4140 H     1 <1>   0.0800 
 52 H       -8.3380     3.0180     3.9110 H     1 <1>   0.1500 
 53 H       -9.7100     1.0570     0.3930 H     1 <1>   0.1500 
 54 H       -9.4230     1.0910     2.8350 H     1 <1>   0.1500 
@<TRIPOS>BOND
  1   1   2  2   
  2   2   3  am  
  3   2   4  1   
  4   3   5  1   
  5   3   6  1   
  6   4   7  ar  
  7   4   8  ar  
  8   5   9  1   
  9   5  29  1   
 10   5  30  1   
 11   6  10  1   
 12   6  31  1   
 13   6  32  1   
 14   7  11  ar  
 15   7  33  1   
 16   8  12  ar  
 17   8  34  1   
 18   9  13  1   
 19   9  35  1   
 20   9  36  1   
 21  10  13  1   
 22  10  37  1   
 23  10  38  1   
 24  11  14  ar  
 25  11  39  1   
 26  12  14  ar  
 27  12  40  1   
 28  14  15  1   
 29  15  16  am  
 30  15  41  1   
 31  16  17  2   
 32  16  18  1   
 33  18  19  1   
 34  18  20  1   
 35  18  21  1   
 36  19  22  ar  
 37  19  23  ar  
 38  20  24  1   
 39  20  42  1   
 40  20  43  1   
 41  21  25  1   
 42  21  44  1   
 43  21  45  1   
 44  22  26  ar  
 45  22  46  1   
 46  23  27  ar  
 47  23  47  1   
 48  24  25  1   
 49  24  48  1   
 50  24  49  1   
 51  25  50  1   
 52  25  51  1   
 53  26  28  ar  
 54  26  52  1   
 55  27  28  ar  
 56  27  53  1   
 57  28  54  1   
@<TRIPOS>SUBSTRUCTURE
  1 ****  14 GROUP 4 **** **** 0

# MOE 2024.06 (io_trps.svl 2023.06)
