@<TRIPOS>MOLECULE
11946
42 43 1 0 0 
SMALL
USER_CHARGES


@<TRIPOS>ATOM
  1 BR       3.2370    -0.4140     3.1110 Br    1 <1>  -0.1110 
  2 C        2.8740    -1.8180     1.8460 C.ar  1 <1>   0.1110 
  3 C        3.2340    -1.6330     0.5270 C.ar  1 <1>  -0.1500 
  4 C        2.2690    -2.9770     2.2940 C.ar  1 <1>  -0.1500 
  5 C        2.9850    -2.6480    -0.3820 C.ar  1 <1>   0.0830 
  6 C        2.0170    -3.9870     1.3800 C.ar  1 <1>  -0.1500 
  7 O        3.3870    -2.4320    -1.6600 O.3   1 <1>  -0.3630 
  8 C        2.3720    -3.8250     0.0490 C.ar  1 <1>  -0.1500 
  9 C        3.5870    -3.4990    -2.5800 C.3   1 <1>   0.2610 
 10 C        4.6740    -4.4680    -2.0900 C.2   1 <1>   0.5690 
 11 C        3.9520    -2.8610    -3.9240 C.3   1 <1>  -0.2400 
 12 O        4.6270    -5.6160    -2.4620 O.2   1 <1>  -0.5700 
 13 N        5.6280    -3.9750    -1.2340 N.am  1 <1>  -0.4940 
 14 C        6.7100    -4.5370    -0.5760 C.2   1 <1>   0.1040 
 15 S        7.3040    -6.1140    -1.0530 S.3   1 <1>  -0.0800 
 16 C        7.4480    -4.0250     0.4590 C.2   1 <1>  -0.0860 
 17 C        8.5710    -6.0730     0.1560 C.2   1 <1>  -0.1400 
 18 C        8.5190    -4.9220     0.8580 C.2   1 <1>  -0.1810 
 19 C        7.1380    -2.7430     1.0430 C.2   1 <1>   0.8060 
 20 C        9.4620    -7.3000     0.1840 C.3   1 <1>  -0.0600 
 21 C        9.5000    -4.5710     1.9700 C.3   1 <1>  -0.0590 
 22 O        6.4630    -1.9040     0.4710 O.2   1 <1>  -0.5700 
 23 O        7.5770    -2.4520     2.2750 O.3   1 <1>  -0.4300 
 24 C        7.2530    -1.2350     2.9190 C.3   1 <1>   0.0400 
 25 H        3.7090    -0.7230     0.2100 H     1 <1>   0.1500 
 26 H        2.0030    -3.0850     3.3300 H     1 <1>   0.1500 
 27 H        1.5470    -4.9000     1.7040 H     1 <1>   0.1500 
 28 H        2.1630    -4.6290    -0.6330 H     1 <1>   0.1500 
 29 H        2.6580    -4.0290    -2.6850 H     1 <1>   0.0800 
 30 H        4.8680    -2.3060    -3.8380 H     1 <1>   0.0800 
 31 H        3.1630    -2.2070    -4.2490 H     1 <1>   0.0800 
 32 H        4.0870    -3.6300    -4.6640 H     1 <1>   0.0800 
 33 H        5.4380    -3.0030    -0.9540 H     1 <1>   0.3700 
 34 H        9.9650    -7.4030    -0.7610 H     1 <1>   0.0800 
 35 H        8.8630    -8.1770     0.3520 H     1 <1>   0.0800 
 36 H       10.1990    -7.2370     0.9610 H     1 <1>   0.0800 
 37 H        8.9900    -4.5430     2.9160 H     1 <1>   0.0800 
 38 H        9.9460    -3.6110     1.7800 H     1 <1>   0.0800 
 39 H       10.2910    -5.2930     2.0400 H     1 <1>   0.0800 
 40 H        7.7130    -1.2290     3.8910 H     1 <1>   0.0800 
 41 H        6.1830    -1.1670     3.0170 H     1 <1>   0.0800 
 42 H        7.6250    -0.4160     2.3280 H     1 <1>   0.0800 
@<TRIPOS>BOND
  1   1   2  1   
  2   2   3  ar  
  3   2   4  ar  
  4   3   5  ar  
  5   3  25  1   
  6   4   6  ar  
  7   4  26  1   
  8   5   7  1   
  9   5   8  ar  
 10   6   8  ar  
 11   6  27  1   
 12   7   9  1   
 13   8  28  1   
 14   9  10  1   
 15   9  11  1   
 16   9  29  1   
 17  10  12  2   
 18  10  13  am  
 19  11  30  1   
 20  11  31  1   
 21  11  32  1   
 22  13  14  1   
 23  13  33  1   
 24  14  15  1   
 25  14  16  2   
 26  15  17  1   
 27  16  18  1   
 28  16  19  1   
 29  17  18  2   
 30  17  20  1   
 31  18  21  1   
 32  19  22  2   
 33  19  23  1   
 34  20  34  1   
 35  20  35  1   
 36  20  36  1   
 37  21  37  1   
 38  21  38  1   
 39  21  39  1   
 40  23  24  1   
 41  24  40  1   
 42  24  41  1   
 43  24  42  1   
@<TRIPOS>SUBSTRUCTURE
  1 ****  13 GROUP 4 **** **** 0

# MOE 2024.06 (io_trps.svl 2023.06)
