@<TRIPOS>MOLECULE
NONAME
24 25 1 0 0 
SMALL
USER_CHARGES


@<TRIPOS>ATOM
  1 O        0.3250    -1.2230    -0.0480 O.2   1 <1>  -0.5700 
  2 C       -0.2160    -1.3970     1.0150 C.2   1 <1>   0.5690 
  3 N        0.4500    -1.1420     2.1530 N.am  1 <1>  -0.8000 
  4 C       -1.6480    -1.9110     1.0730 C.3   1 <1>  -0.0190 
  5 C       -2.1100    -2.8790    -0.0720 C.3   1 <1>   0.4230 
  6 C       -2.6480    -0.7410     0.9530 C.3   1 <1>   0.0580 
  7 N       -1.0750    -3.2080    -1.0910 N.4   1 <1>  -0.8530 
  8 C       -3.2940    -2.1160    -0.7120 C.3   1 <1>   0.0580 
  9 C       -4.0010    -1.3170     1.3220 C.2   1 <1>  -0.2880 
 10 C       -2.8470    -0.6630    -0.5600 C.3   1 <1>  -0.1600 
 11 C       -4.3840    -2.1260     0.3390 C.2   1 <1>  -0.2880 
 12 H        1.4010    -0.7620     2.1080 H     1 <1>   0.3700 
 13 H        0.0590    -1.2090     3.0960 H     1 <1>   0.3700 
 14 H       -1.7970    -2.3960     2.0210 H     1 <1>   0.0800 
 15 H       -2.4920    -3.7920     0.3550 H     1 <1>   0.0800 
 16 H       -2.3910     0.1880     1.4350 H     1 <1>   0.0800 
 17 H       -0.4580    -2.3780    -1.2000 H     1 <1>   0.4500 
 18 H       -1.4770    -3.4440    -2.0020 H     1 <1>   0.4500 
 19 H       -0.4660    -3.9690    -0.7780 H     1 <1>   0.4500 
 20 H       -3.6160    -2.4120    -1.6950 H     1 <1>   0.0800 
 21 H       -4.4810    -1.0560     2.2530 H     1 <1>   0.1500 
 22 H       -1.9510    -0.4180    -1.1040 H     1 <1>   0.0800 
 23 H       -3.6300     0.0300    -0.8250 H     1 <1>   0.0800 
 24 H       -5.2750    -2.7250     0.2240 H     1 <1>   0.1500 
@<TRIPOS>BOND
  1   1   2  2   
  2   2   3  am  
  3   2   4  1   
  4   3  12  1   
  5   3  13  1   
  6   4   5  1   
  7   4   6  1   
  8   4  14  1   
  9   5   7  1   
 10   5   8  1   
 11   5  15  1   
 12   6   9  1   
 13   6  10  1   
 14   6  16  1   
 15   7  17  1   
 16   7  18  1   
 17   7  19  1   
 18   8  10  1   
 19   8  11  1   
 20   8  20  1   
 21   9  11  2   
 22   9  21  1   
 23  10  22  1   
 24  10  23  1   
 25  11  24  1   
@<TRIPOS>SUBSTRUCTURE
  1 ****   4 GROUP 4 **** **** 0

# MOE 2024.06 (io_trps.svl 2023.06)
