@<TRIPOS>MOLECULE
NONAME
42 43 1 0 0 
SMALL
USER_CHARGES


@<TRIPOS>ATOM
  1 S       -0.7430    -1.0780    -0.0670 S.3   1 <1>  -0.2860 
  2 C       -1.4880     0.5400     0.1600 C.2   1 <1>   0.2420 
  3 C       -0.2540    -1.0570    -1.8590 C.3   1 <1>   0.1310 
  4 N       -2.0220     1.2290    -0.7870 N.2   1 <1>  -0.3380 
  5 N       -1.5200     1.1470     1.3430 N.pl3 1 <1>   0.0480 
  6 C        1.1550    -1.6030    -2.0630 C.2   1 <1>   0.5690 
  7 N       -2.4510     2.3600    -0.2140 N.2   1 <1>  -0.3380 
  8 C       -2.1410     2.2910     1.0390 C.2   1 <1>   0.0360 
  9 C       -0.9650     0.6970     2.6320 C.3   1 <1>   0.0160 
 10 O        1.3140    -2.4750    -2.8790 O.2   1 <1>  -0.5700 
 11 N        2.2410    -1.1450    -1.3760 N.am  1 <1>  -0.5470 
 12 C        2.3630    -0.2130    -0.3370 C.ar  1 <1>   0.1170 
 13 C        1.8210     1.0630    -0.4220 C.ar  1 <1>  -0.1500 
 14 C        3.0460    -0.5790     0.8160 C.ar  1 <1>  -0.1500 
 15 C        1.9310     1.9490     0.6440 C.ar  1 <1>   0.0830 
 16 C        3.1730     0.3030     1.8740 C.ar  1 <1>  -0.1500 
 17 O        1.3980     3.1960     0.6520 O.3   1 <1>  -0.3630 
 18 C        2.6130     1.5640     1.7870 C.ar  1 <1>  -0.1500 
 19 C        0.7820     3.7360    -0.4970 C.3   1 <1>   0.1200 
 20 C        0.1930     5.0980    -0.1300 C.3   1 <1>  -0.1600 
 21 C       -0.5780     5.6990    -1.3110 C.3   1 <1>  -0.1600 
 22 C       -1.1720     7.0620    -0.9450 C.3   1 <1>  -0.2400 
 23 H       -0.3110    -0.0460    -2.2120 H     1 <1>   0.0800 
 24 H       -0.9710    -1.6610    -2.3840 H     1 <1>   0.0800 
 25 H       -2.3460     3.0580     1.7640 H     1 <1>   0.1500 
 26 H        0.0410     0.3470     2.4820 H     1 <1>   0.0800 
 27 H       -1.5680    -0.1030     3.0200 H     1 <1>   0.0800 
 28 H       -0.9550     1.5160     3.3280 H     1 <1>   0.0800 
 29 H        3.0800    -1.6840    -1.5910 H     1 <1>   0.3700 
 30 H        1.3150     1.3470    -1.3230 H     1 <1>   0.1500 
 31 H        3.4760    -1.5620     0.8890 H     1 <1>   0.1500 
 32 H        3.7060     0.0100     2.7620 H     1 <1>   0.1500 
 33 H        2.7030     2.2590     2.6030 H     1 <1>   0.1500 
 34 H        0.0030     3.0690    -0.8180 H     1 <1>   0.0800 
 35 H        1.5260     3.8320    -1.2690 H     1 <1>   0.0800 
 36 H        0.9900     5.7600     0.1580 H     1 <1>   0.0800 
 37 H       -0.4770     4.9750     0.7030 H     1 <1>   0.0800 
 38 H       -1.3760     5.0310    -1.5960 H     1 <1>   0.0800 
 39 H        0.0800     5.8130    -2.1560 H     1 <1>   0.0800 
 40 H       -1.8530     6.9640    -0.1180 H     1 <1>   0.0800 
 41 H       -1.7100     7.4660    -1.7850 H     1 <1>   0.0800 
 42 H       -0.3920     7.7520    -0.6730 H     1 <1>   0.0800 
@<TRIPOS>BOND
  1   1   2  1   
  2   1   3  1   
  3   2   4  2   
  4   2   5  1   
  5   3   6  1   
  6   3  23  1   
  7   3  24  1   
  8   4   7  1   
  9   5   8  1   
 10   5   9  1   
 11   6  10  2   
 12   6  11  am  
 13   7   8  2   
 14   8  25  1   
 15   9  26  1   
 16   9  27  1   
 17   9  28  1   
 18  11  12  1   
 19  11  29  1   
 20  12  13  ar  
 21  12  14  ar  
 22  13  15  ar  
 23  13  30  1   
 24  14  16  ar  
 25  14  31  1   
 26  15  17  1   
 27  15  18  ar  
 28  16  18  ar  
 29  16  32  1   
 30  17  19  1   
 31  18  33  1   
 32  19  20  1   
 33  19  34  1   
 34  19  35  1   
 35  20  21  1   
 36  20  36  1   
 37  20  37  1   
 38  21  22  1   
 39  21  38  1   
 40  21  39  1   
 41  22  40  1   
 42  22  41  1   
 43  22  42  1   
@<TRIPOS>SUBSTRUCTURE
  1 ****  13 GROUP 4 **** **** 0

# MOE 2024.06 (io_trps.svl 2023.06)
