@<TRIPOS>MOLECULE
NONAME
52 54 1 0 0 
SMALL
USER_CHARGES


@<TRIPOS>ATOM
  1 O       -0.6420     1.7240     1.6430 O.2   1 <1>  -0.5700 
  2 C       -0.8110     1.7520     0.4470 C.2   1 <1>   0.5690 
  3 N        0.2020     2.0290    -0.4140 N.am  1 <1>  -0.7300 
  4 C       -2.1980     1.4770    -0.1250 C.3   1 <1>  -0.0190 
  5 C        1.5940     2.3270    -0.0170 C.3   1 <1>   0.1400 
  6 C       -3.2750     2.3890     0.4870 C.3   1 <1>  -0.1600 
  7 C       -2.6150     0.0030     0.0550 C.3   1 <1>  -0.1600 
  8 C        1.8510     3.8230    -0.2050 C.3   1 <1>  -0.1600 
  9 C       -4.6540     2.1370    -0.1660 C.3   1 <1>   0.2800 
 10 C       -4.1400    -0.1760     0.1020 C.3   1 <1>   0.1200 
 11 C        3.2050     4.2820     0.3660 C.3   1 <1>   0.2440 
 12 O       -4.7530     0.8280    -0.6490 O.3   1 <1>  -0.5600 
 13 C       -4.8430     3.0300    -1.3930 C.3   1 <1>  -0.2400 
 14 C       -5.8010     2.3710     0.8200 C.3   1 <1>  -0.2400 
 15 C        3.2570     5.8120     0.4320 C.ar  1 <1>  -0.1440 
 16 C        4.3960     3.7250    -0.4150 C.2   1 <1>  -0.0400 
 17 C        3.0190     6.5940    -0.6930 C.ar  1 <1>  -0.1500 
 18 C        3.5470     6.4430     1.6340 C.ar  1 <1>  -0.1500 
 19 O        4.6140     2.4220    -0.4090 O.3   1 <1>  -0.2800 
 20 C        5.3490     4.3490    -1.1460 C.2   1 <1>  -0.1500 
 21 C        3.0670     7.9750    -0.6150 C.ar  1 <1>  -0.1500 
 22 C        3.5960     7.8240     1.7130 C.ar  1 <1>  -0.1500 
 23 C        5.6910     2.1880    -1.1310 C.2   1 <1>  -0.0100 
 24 C        6.1960     3.3400    -1.6190 C.2   1 <1>  -0.1500 
 25 C        3.3550     8.5920     0.5890 C.ar  1 <1>  -0.1500 
 26 H        0.0170     2.0470    -1.4180 H     1 <1>   0.3700 
 27 H       -2.1690     1.6800    -1.1800 H     1 <1>   0.0800 
 28 H        2.2630     1.7410    -0.6230 H     1 <1>   0.0800 
 29 H        1.7440     2.0530     1.0150 H     1 <1>   0.0800 
 30 H       -2.9960     3.4210     0.3800 H     1 <1>   0.0800 
 31 H       -3.3320     2.1930     1.5440 H     1 <1>   0.0800 
 32 H       -2.2070    -0.3890     0.9700 H     1 <1>   0.0800 
 33 H       -2.2100    -0.5830    -0.7510 H     1 <1>   0.0800 
 34 H        1.0740     4.3650     0.3060 H     1 <1>   0.0800 
 35 H        1.8030     4.0600    -1.2520 H     1 <1>   0.0800 
 36 H       -4.5040    -0.1180     1.1130 H     1 <1>   0.0800 
 37 H       -4.4250    -1.1260    -0.3140 H     1 <1>   0.0800 
 38 H        3.2820     3.9040     1.3700 H     1 <1>   0.0800 
 39 H       -4.0650     2.8500    -2.1120 H     1 <1>   0.0800 
 40 H       -4.8160     4.0660    -1.1100 H     1 <1>   0.0800 
 41 H       -5.7930     2.8280    -1.8530 H     1 <1>   0.0800 
 42 H       -5.6980     1.7430     1.6850 H     1 <1>   0.0800 
 43 H       -6.7430     2.1620     0.3460 H     1 <1>   0.0800 
 44 H       -5.8020     3.3940     1.1460 H     1 <1>   0.0800 
 45 H        2.8000     6.1330    -1.6390 H     1 <1>   0.1500 
 46 H        3.7390     5.8630     2.5200 H     1 <1>   0.1500 
 47 H        5.4690     5.4000    -1.3390 H     1 <1>   0.1500 
 48 H        2.8800     8.5700    -1.4920 H     1 <1>   0.1500 
 49 H        3.8220     8.3010     2.6510 H     1 <1>   0.1500 
 50 H        6.0300     1.1730    -1.2460 H     1 <1>   0.1500 
 51 H        7.0620     3.4900    -2.2380 H     1 <1>   0.1500 
 52 H        3.3920     9.6650     0.6500 H     1 <1>   0.1500 
@<TRIPOS>BOND
  1   1   2  2   
  2   2   3  am  
  3   2   4  1   
  4   3   5  1   
  5   3  26  1   
  6   4   6  1   
  7   4   7  1   
  8   4  27  1   
  9   5   8  1   
 10   5  28  1   
 11   5  29  1   
 12   6   9  1   
 13   6  30  1   
 14   6  31  1   
 15   7  10  1   
 16   7  32  1   
 17   7  33  1   
 18   8  11  1   
 19   8  34  1   
 20   8  35  1   
 21   9  12  1   
 22   9  13  1   
 23   9  14  1   
 24  10  12  1   
 25  10  36  1   
 26  10  37  1   
 27  11  15  1   
 28  11  16  1   
 29  11  38  1   
 30  13  39  1   
 31  13  40  1   
 32  13  41  1   
 33  14  42  1   
 34  14  43  1   
 35  14  44  1   
 36  15  17  ar  
 37  15  18  ar  
 38  16  19  1   
 39  16  20  2   
 40  17  21  ar  
 41  17  45  1   
 42  18  22  ar  
 43  18  46  1   
 44  19  23  1   
 45  20  24  1   
 46  20  47  1   
 47  21  25  ar  
 48  21  48  1   
 49  22  25  ar  
 50  22  49  1   
 51  23  24  2   
 52  23  50  1   
 53  24  51  1   
 54  25  52  1   
@<TRIPOS>SUBSTRUCTURE
  1 ****   8 GROUP 4 **** **** 0

# MOE 2024.06 (io_trps.svl 2023.06)
