@<TRIPOS>MOLECULE
NONAME
39 40 1 0 0 
SMALL
USER_CHARGES


@<TRIPOS>ATOM
  1 N        1.2230     0.3940     1.2020 N.ar  1 <1>  -0.6200 
  2 C        1.4740     0.7380    -0.0550 C.ar  1 <1>   0.4100 
  3 C        0.0850     0.8500     1.7010 C.ar  1 <1>   0.1600 
  4 N        2.6560     0.2700    -0.5850 N.pl3 1 <1>  -0.8380 
  5 C        0.6250     1.5210    -0.8290 C.ar  1 <1>  -0.1500 
  6 C       -0.8230     1.6340     1.0110 C.ar  1 <1>  -0.1500 
  7 C        2.7080    -1.2160    -0.7230 C.3   1 <1>   0.2090 
  8 C        3.8740     0.8560     0.0530 C.3   1 <1>   0.2090 
  9 C       -0.5540     1.9860    -0.2970 C.ar  1 <1>  -0.1500 
 10 C        4.0100    -1.6810    -1.4070 C.3   1 <1>   0.3430 
 11 C        5.1670     0.3750    -0.6350 C.3   1 <1>   0.3430 
 12 N        5.2370    -1.1260    -0.7370 N.4   1 <1>  -0.9590 
 13 C        6.4860    -1.5850    -1.3800 C.3   1 <1>   0.4810 
 14 C        7.6190    -1.2680    -0.4220 C.2   1 <1>  -0.2760 
 15 C        7.7320    -1.8930     0.7600 C.2   1 <1>  -0.2880 
 16 C        8.5730    -0.2090    -0.9740 C.3   1 <1>  -0.1020 
 17 C        8.7930    -1.7130     1.8390 C.3   1 <1>  -0.1020 
 18 H       -0.1390     0.5840     2.7200 H     1 <1>   0.1500 
 19 H        0.9050     1.7520    -1.8380 H     1 <1>   0.1500 
 20 H       -1.7280     1.9640     1.4890 H     1 <1>   0.1500 
 21 H        2.6300    -1.6710     0.2500 H     1 <1>   0.0800 
 22 H        1.8630    -1.5450    -1.3040 H     1 <1>   0.0800 
 23 H        3.8190     1.9300    -0.0030 H     1 <1>   0.0800 
 24 H        3.8990     0.5850     1.0960 H     1 <1>   0.0800 
 25 H       -1.2350     2.5950    -0.8670 H     1 <1>   0.1500 
 26 H        3.9810    -1.3570    -2.4340 H     1 <1>   0.0800 
 27 H        4.0420    -2.7580    -1.3990 H     1 <1>   0.0800 
 28 H        6.0130     0.7430    -0.0790 H     1 <1>   0.0800 
 29 H        5.2030     0.8070    -1.6210 H     1 <1>   0.0800 
 30 H        5.2760    -1.4800     0.2270 H     1 <1>   0.4500 
 31 H        6.4480    -2.6510    -1.5380 H     1 <1>   0.0800 
 32 H        6.6330    -1.0980    -2.3300 H     1 <1>   0.0800 
 33 H        7.0280    -2.6480     1.0710 H     1 <1>   0.1500 
 34 H        9.0190    -0.5580    -1.8890 H     1 <1>   0.0800 
 35 H        9.3720     0.0160    -0.2950 H     1 <1>   0.0800 
 36 H        8.0520     0.7090    -1.1770 H     1 <1>   0.0800 
 37 H        8.3270    -1.4250     2.7650 H     1 <1>   0.0800 
 38 H        9.5230    -0.9680     1.5900 H     1 <1>   0.0800 
 39 H        9.3090    -2.6440     1.9970 H     1 <1>   0.0800 
@<TRIPOS>BOND
  1   1   2  ar  
  2   1   3  ar  
  3   2   4  1   
  4   2   5  ar  
  5   3   6  ar  
  6   3  18  1   
  7   4   7  1   
  8   4   8  1   
  9   5   9  ar  
 10   5  19  1   
 11   6   9  ar  
 12   6  20  1   
 13   7  10  1   
 14   7  21  1   
 15   7  22  1   
 16   8  11  1   
 17   8  23  1   
 18   8  24  1   
 19   9  25  1   
 20  10  12  1   
 21  10  26  1   
 22  10  27  1   
 23  11  12  1   
 24  11  28  1   
 25  11  29  1   
 26  12  13  1   
 27  12  30  1   
 28  13  14  1   
 29  13  31  1   
 30  13  32  1   
 31  14  15  2   
 32  14  16  1   
 33  15  17  1   
 34  15  33  1   
 35  16  34  1   
 36  16  35  1   
 37  16  36  1   
 38  17  37  1   
 39  17  38  1   
 40  17  39  1   
@<TRIPOS>SUBSTRUCTURE
  1 ****   8 GROUP 4 **** **** 0

# MOE 2024.06 (io_trps.svl 2023.06)
