@<TRIPOS>MOLECULE
NONAME
38 39 1 0 0 
SMALL
USER_CHARGES


@<TRIPOS>ATOM
  1 O        0.8900    -1.4910    -0.5790 O.2   1 <1>  -0.5700 
  2 C        0.6610    -2.5700    -0.0630 C.2   1 <1>   0.7060 
  3 O       -0.5950    -3.0140    -0.1540 O.3   1 <1>  -0.2320 
  4 C        1.6370    -3.3820     0.6220 C.2   1 <1>   0.0290 
  5 C       -1.0230    -4.1940     0.3520 C.ar  1 <1>   0.0830 
  6 C        3.0070    -2.9280     0.7440 C.2   1 <1>   0.6160 
  7 C        1.2310    -4.5760     1.1400 C.2   1 <1>  -0.1780 
  8 C       -2.3580    -4.5710     0.2010 C.ar  1 <1>   0.0830 
  9 C       -0.1160    -5.0190     1.0200 C.ar  1 <1>   0.0280 
 10 O        3.8430    -3.6670     1.2260 O.2   1 <1>  -0.5700 
 11 N        3.4250    -1.6930     0.3380 N.am  1 <1>  -0.7300 
 12 O       -3.1840    -3.7150    -0.4610 O.3   1 <1>  -0.3630 
 13 C       -2.7850    -5.7860     0.7250 C.ar  1 <1>  -0.1500 
 14 C       -0.5700    -6.2330     1.5350 C.ar  1 <1>  -0.1500 
 15 C        4.7980    -1.1440     0.4750 C.3   1 <1>   0.1400 
 16 C       -4.5450    -4.0070    -0.6660 C.3   1 <1>   0.1200 
 17 C       -1.8880    -6.6110     1.3890 C.ar  1 <1>  -0.1500 
 18 C        5.6820    -1.6300    -0.6730 C.3   1 <1>   0.1200 
 19 C       -5.1630    -2.8440    -1.4350 C.3   1 <1>  -0.2400 
 20 O        6.9030    -0.9630    -0.6040 O.3   1 <1>  -0.5600 
 21 C        7.8220    -1.3750    -1.5630 C.3   1 <1>   0.0400 
 22 H        1.9180    -5.2230     1.6600 H     1 <1>   0.1500 
 23 H        2.7370    -1.0870    -0.1330 H     1 <1>   0.3700 
 24 H       -3.8030    -6.1120     0.6300 H     1 <1>   0.1500 
 25 H        0.1190    -6.8780     2.0520 H     1 <1>   0.1500 
 26 H        5.2230    -1.4680     1.4100 H     1 <1>   0.0800 
 27 H        4.7500    -0.0690     0.4660 H     1 <1>   0.0800 
 28 H       -5.0180    -4.1220     0.2950 H     1 <1>   0.0800 
 29 H       -4.6180    -4.9190    -1.2320 H     1 <1>   0.0800 
 30 H       -2.2270    -7.5500     1.7920 H     1 <1>   0.1500 
 31 H        5.2240    -1.4040    -1.6200 H     1 <1>   0.0800 
 32 H        5.8560    -2.6880    -0.5790 H     1 <1>   0.0800 
 33 H       -5.0690    -1.9350    -0.8680 H     1 <1>   0.0800 
 34 H       -6.2060    -3.0340    -1.6090 H     1 <1>   0.0800 
 35 H       -4.6710    -2.7270    -2.3840 H     1 <1>   0.0800 
 36 H        8.7230    -0.8020    -1.4310 H     1 <1>   0.0800 
 37 H        7.4170    -1.1950    -2.5440 H     1 <1>   0.0800 
 38 H        8.0340    -2.4210    -1.4250 H     1 <1>   0.0800 
@<TRIPOS>BOND
  1   1   2  2   
  2   2   3  1   
  3   2   4  1   
  4   3   5  1   
  5   4   6  1   
  6   4   7  2   
  7   5   8  ar  
  8   5   9  ar  
  9   6  10  2   
 10   6  11  am  
 11   7   9  1   
 12   7  22  1   
 13   8  12  1   
 14   8  13  ar  
 15   9  14  ar  
 16  11  15  1   
 17  11  23  1   
 18  12  16  1   
 19  13  17  ar  
 20  13  24  1   
 21  14  17  ar  
 22  14  25  1   
 23  15  18  1   
 24  15  26  1   
 25  15  27  1   
 26  16  19  1   
 27  16  28  1   
 28  16  29  1   
 29  17  30  1   
 30  18  20  1   
 31  18  31  1   
 32  18  32  1   
 33  19  33  1   
 34  19  34  1   
 35  19  35  1   
 36  20  21  1   
 37  21  36  1   
 38  21  37  1   
 39  21  38  1   
@<TRIPOS>SUBSTRUCTURE
  1 ****   2 GROUP 4 **** **** 0

# MOE 2024.06 (io_trps.svl 2023.06)
