@<TRIPOS>MOLECULE
NONAME
62 66 1 0 0 
SMALL
USER_CHARGES


@<TRIPOS>ATOM
  1 O       -1.1040     0.0240     1.4910 O.2   1 <1>  -0.5700 
  2 C       -1.4430     0.7630     0.5910 C.2   1 <1>   0.5690 
  3 N       -2.6590     0.7740    -0.0220 N.am  1 <1>  -0.4770 
  4 C       -0.5250     1.8300    -0.0420 C.3   1 <1>   0.4750 
  5 C       -2.6480     1.6770    -1.0830 C.ar  1 <1>   0.1170 
  6 C       -3.7980    -0.0650     0.3880 C.3   1 <1>   0.2780 
  7 N        0.8110     1.3520    -0.5270 N.3   1 <1>  -0.9000 
  8 C       -1.4180     2.3060    -1.1870 C.ar  1 <1>  -0.1440 
  9 C       -0.1540     2.8870     0.9720 C.3   1 <1>  -0.0190 
 10 C       -3.6640     1.9620    -1.9840 C.ar  1 <1>  -0.1500 
 11 C       -4.7560     0.7680     1.2200 C.2   1 <1>  -0.2880 
 12 C        1.8690     2.2070     0.0570 C.3   1 <1>   0.1900 
 13 C       -1.1750     3.1940    -2.2220 C.ar  1 <1>  -0.1500 
 14 C       -0.8740     4.1190     1.4220 C.2   1 <1>   0.5690 
 15 C        1.1100     3.4780     0.3960 C.3   1 <1>  -0.0190 
 16 C       -3.4290     2.8680    -3.0040 C.ar  1 <1>  -0.1500 
 17 C       -5.1400     0.4850     2.4680 C.2   1 <1>  -0.3000 
 18 C        2.9890     2.3670    -0.9750 C.3   1 <1>  -0.1600 
 19 C       -2.1880     3.4760    -3.1260 C.ar  1 <1>  -0.1500 
 20 O       -2.0670     4.2460     1.5050 O.2   1 <1>  -0.5700 
 21 N        0.0810     5.0300     1.7730 N.am  1 <1>  -0.4200 
 22 C        1.3180     4.6160     1.3630 C.2   1 <1>   0.5690 
 23 C        4.1210     3.2900    -0.5000 C.3   1 <1>  -0.1600 
 24 C       -0.2080     6.3950     2.2300 C.3   1 <1>   0.2840 
 25 O        2.3770     5.0900     1.6830 O.2   1 <1>  -0.5700 
 26 C        5.2810     3.2990    -1.5020 C.3   1 <1>  -0.1600 
 27 C       -0.3050     7.2960     1.0110 C.ar  1 <1>  -0.1430 
 28 C        6.4040     4.2270    -1.0330 C.3   1 <1>  -0.2400 
 29 C       -1.5110     7.4330     0.3380 C.ar  1 <1>  -0.1500 
 30 C        0.8140     7.9700     0.5470 C.ar  1 <1>  -0.1500 
 31 C       -1.5970     8.2420    -0.7810 C.ar  1 <1>  -0.1500 
 32 C        0.7280     8.7790    -0.5720 C.ar  1 <1>  -0.1500 
 33 C       -0.4780     8.9160    -1.2370 C.ar  1 <1>  -0.1500 
 34 H       -3.4410    -0.9020     0.9640 H     1 <1>   0.0800 
 35 H       -4.2970    -0.4460    -0.4860 H     1 <1>   0.0800 
 36 H        0.9330     0.3910    -0.1790 H     1 <1>   0.3600 
 37 H        0.0900     2.3650     1.8820 H     1 <1>   0.0800 
 38 H       -4.6220     1.4850    -1.8940 H     1 <1>   0.1500 
 39 H       -5.1020     1.6420     0.6940 H     1 <1>   0.1500 
 40 H        2.2510     1.7520     0.9580 H     1 <1>   0.0800 
 41 H       -0.2160     3.6620    -2.3450 H     1 <1>   0.1500 
 42 H        0.9040     3.9700    -0.5350 H     1 <1>   0.0800 
 43 H       -4.2080     3.0990    -3.7090 H     1 <1>   0.1500 
 44 H       -5.8180     1.0960     3.0390 H     1 <1>   0.1500 
 45 H       -4.8090    -0.3740     3.0270 H     1 <1>   0.1500 
 46 H        2.5780     2.7530    -1.8930 H     1 <1>   0.0800 
 47 H        3.3970     1.3930    -1.1790 H     1 <1>   0.0800 
 48 H       -2.0090     4.1710    -3.9290 H     1 <1>   0.1500 
 49 H        4.4800     2.9590     0.4600 H     1 <1>   0.0800 
 50 H        3.7500     4.2940    -0.3900 H     1 <1>   0.0800 
 51 H        0.5790     6.7300     2.8830 H     1 <1>   0.0800 
 52 H       -1.1360     6.4050     2.7770 H     1 <1>   0.0800 
 53 H        4.9260     3.6300    -2.4630 H     1 <1>   0.0800 
 54 H        5.6710     2.3010    -1.6150 H     1 <1>   0.0800 
 55 H        6.0410     5.2350    -0.9320 H     1 <1>   0.0800 
 56 H        7.2080     4.2230    -1.7470 H     1 <1>   0.0800 
 57 H        6.7890     3.9020    -0.0820 H     1 <1>   0.0800 
 58 H       -2.3860     6.9050     0.6800 H     1 <1>   0.1500 
 59 H        1.7600     7.8620     1.0530 H     1 <1>   0.1500 
 60 H       -2.5360     8.3440    -1.2980 H     1 <1>   0.1500 
 61 H        1.6000     9.3010    -0.9270 H     1 <1>   0.1500 
 62 H       -0.5450     9.5440    -2.1070 H     1 <1>   0.1500 
@<TRIPOS>BOND
  1   1   2  2   
  2   2   3  am  
  3   2   4  1   
  4   3   5  1   
  5   3   6  1   
  6   4   7  1   
  7   4   8  1   
  8   4   9  1   
  9   5   8  ar  
 10   5  10  ar  
 11   6  11  1   
 12   6  34  1   
 13   6  35  1   
 14   7  12  1   
 15   7  36  1   
 16   8  13  ar  
 17   9  14  1   
 18   9  15  1   
 19   9  37  1   
 20  10  16  ar  
 21  10  38  1   
 22  11  17  2   
 23  11  39  1   
 24  12  15  1   
 25  12  18  1   
 26  12  40  1   
 27  13  19  ar  
 28  13  41  1   
 29  14  20  2   
 30  14  21  am  
 31  15  22  1   
 32  15  42  1   
 33  16  19  ar  
 34  16  43  1   
 35  17  44  1   
 36  17  45  1   
 37  18  23  1   
 38  18  46  1   
 39  18  47  1   
 40  19  48  1   
 41  21  22  am  
 42  21  24  1   
 43  22  25  2   
 44  23  26  1   
 45  23  49  1   
 46  23  50  1   
 47  24  27  1   
 48  24  51  1   
 49  24  52  1   
 50  26  28  1   
 51  26  53  1   
 52  26  54  1   
 53  27  29  ar  
 54  27  30  ar  
 55  28  55  1   
 56  28  56  1   
 57  28  57  1   
 58  29  31  ar  
 59  29  58  1   
 60  30  32  ar  
 61  30  59  1   
 62  31  33  ar  
 63  31  60  1   
 64  32  33  ar  
 65  32  61  1   
 66  33  62  1   
@<TRIPOS>SUBSTRUCTURE
  1 ****   9 GROUP 4 **** **** 0

# MOE 2024.06 (io_trps.svl 2023.06)
