@<TRIPOS>MOLECULE
NONAME
49 51 1 0 0 
SMALL
USER_CHARGES


@<TRIPOS>ATOM
  1 F       -2.2180    -0.1570     3.8510 F     1 <1>  -0.1900 
  2 C       -2.7230     0.6940     3.0030 C.ar  1 <1>   0.1900 
  3 C       -2.4680     0.5270     1.6550 C.ar  1 <1>  -0.1500 
  4 C       -3.4940     1.7360     3.4790 C.ar  1 <1>  -0.1500 
  5 C       -3.0080     1.4340     0.7610 C.ar  1 <1>  -0.1500 
  6 C       -4.0260     2.6360     2.5720 C.ar  1 <1>  -0.1500 
  7 C       -3.8000     2.5000     1.1980 C.ar  1 <1>   0.0860 
  8 C       -4.3670     3.4420     0.2580 C.2   1 <1>   0.5440 
  9 O       -3.6730     3.9560    -0.6000 O.2   1 <1>  -0.5700 
 10 N       -5.7030     3.7460     0.3340 N.am  1 <1>  -0.5470 
 11 C       -6.4000     4.8750    -0.1130 C.ar  1 <1>   0.1170 
 12 C       -5.9980     6.1930     0.1720 C.ar  1 <1>   0.0860 
 13 C       -7.5720     4.6610    -0.8300 C.ar  1 <1>  -0.1500 
 14 C       -4.7790     6.4820     0.8960 C.2   1 <1>   0.5440 
 15 C       -6.8180     7.2420    -0.2510 C.ar  1 <1>  -0.1500 
 16 C       -8.3560     5.7140    -1.2550 C.ar  1 <1>  -0.1500 
 17 O       -4.6250     6.0310     2.0180 O.2   1 <1>  -0.5700 
 18 N       -3.7510     7.2260     0.3420 N.am  1 <1>  -0.6600 
 19 C       -7.9800     7.0120    -0.9600 C.ar  1 <1>  -0.1500 
 20 C       -2.4150     7.2460     1.0000 C.3   1 <1>   0.1400 
 21 C       -3.6580     7.5390    -1.1170 C.3   1 <1>   0.1400 
 22 C       -1.5330     6.1690     0.3480 C.3   1 <1>   0.3430 
 23 C       -2.7070     6.5570    -1.8320 C.3   1 <1>   0.3430 
 24 N       -1.3710     6.3790    -1.1400 N.4   1 <1>  -0.9590 
 25 C       -0.6490     5.2160    -1.7110 C.3   1 <1>   0.3430 
 26 C       -0.1350     5.5580    -3.1050 C.3   1 <1>  -0.2400 
 27 H       -1.8610    -0.2970     1.3220 H     1 <1>   0.1500 
 28 H       -3.6670     1.8380     4.5360 H     1 <1>   0.1500 
 29 H       -2.8210     1.3190    -0.2930 H     1 <1>   0.1500 
 30 H       -4.6180     3.4620     2.9320 H     1 <1>   0.1500 
 31 H       -6.2530     3.1060     0.9090 H     1 <1>   0.3700 
 32 H       -7.8760     3.6540    -1.0570 H     1 <1>   0.1500 
 33 H       -6.5370     8.2530    -0.0110 H     1 <1>   0.1500 
 34 H       -9.2610     5.5290    -1.8090 H     1 <1>   0.1500 
 35 H       -8.5970     7.8360    -1.2790 H     1 <1>   0.1500 
 36 H       -2.5030     7.0490     2.0550 H     1 <1>   0.0800 
 37 H       -1.9660     8.2170     0.8900 H     1 <1>   0.0800 
 38 H       -3.2960     8.5450    -1.2380 H     1 <1>   0.0800 
 39 H       -4.6220     7.4880    -1.5880 H     1 <1>   0.0800 
 40 H       -1.9930     5.2110     0.5290 H     1 <1>   0.0800 
 41 H       -0.5670     6.1670     0.8240 H     1 <1>   0.0800 
 42 H       -2.5490     6.9020    -2.8400 H     1 <1>   0.0800 
 43 H       -3.2050     5.6070    -1.9030 H     1 <1>   0.0800 
 44 H       -0.8100     7.2260    -1.2870 H     1 <1>   0.4500 
 45 H       -1.3060     4.3590    -1.7520 H     1 <1>   0.0800 
 46 H        0.1910     4.9650    -1.0820 H     1 <1>   0.0800 
 47 H       -0.9430     5.7190    -3.7940 H     1 <1>   0.0800 
 48 H        0.4460     4.7310    -3.4750 H     1 <1>   0.0800 
 49 H        0.5020     6.4240    -3.0780 H     1 <1>   0.0800 
@<TRIPOS>BOND
  1   1   2  1   
  2   2   3  ar  
  3   2   4  ar  
  4   3   5  ar  
  5   3  27  1   
  6   4   6  ar  
  7   4  28  1   
  8   5   7  ar  
  9   5  29  1   
 10   6   7  ar  
 11   6  30  1   
 12   7   8  1   
 13   8   9  2   
 14   8  10  am  
 15  10  11  1   
 16  10  31  1   
 17  11  12  ar  
 18  11  13  ar  
 19  12  14  1   
 20  12  15  ar  
 21  13  16  ar  
 22  13  32  1   
 23  14  17  2   
 24  14  18  am  
 25  15  19  ar  
 26  15  33  1   
 27  16  19  ar  
 28  16  34  1   
 29  18  20  1   
 30  18  21  1   
 31  19  35  1   
 32  20  22  1   
 33  20  36  1   
 34  20  37  1   
 35  21  23  1   
 36  21  38  1   
 37  21  39  1   
 38  22  24  1   
 39  22  40  1   
 40  22  41  1   
 41  23  24  1   
 42  23  42  1   
 43  23  43  1   
 44  24  25  1   
 45  24  44  1   
 46  25  26  1   
 47  25  45  1   
 48  25  46  1   
 49  26  47  1   
 50  26  48  1   
 51  26  49  1   
@<TRIPOS>SUBSTRUCTURE
  1 ****   9 GROUP 4 **** **** 0

# MOE 2024.06 (io_trps.svl 2023.06)
