@<TRIPOS>MOLECULE
NONAME
46 48 1 0 0 
SMALL
USER_CHARGES


@<TRIPOS>ATOM
  1 O       -0.2780     0.2590    -1.7020 O.2   1 <1>  -0.5700 
  2 C       -0.2440     1.2280    -0.9710 C.2   1 <1>   0.5440 
  3 N        0.8780     1.4610    -0.2300 N.am  1 <1>  -0.7300 
  4 C       -1.3820     2.1270    -0.8930 C.ar  1 <1>   0.0860 
  5 C        2.0820     0.6140    -0.2030 C.3   1 <1>   0.2200 
  6 C       -1.7100     2.8090     0.2790 C.ar  1 <1>  -0.1500 
  7 C       -2.2030     2.3330    -2.0000 C.ar  1 <1>  -0.1500 
  8 C        2.4290     0.3070     1.2480 C.3   1 <1>  -0.1600 
  9 C        3.2710     1.4380    -0.6800 C.3   1 <1>  -0.1600 
 10 C       -2.8060     3.6500     0.3450 C.ar  1 <1>  -0.1500 
 11 C       -3.3000     3.1710    -1.9450 C.ar  1 <1>  -0.1500 
 12 C        3.1750     1.5410     1.7690 C.3   1 <1>  -0.1600 
 13 C        3.7220     2.2640     0.5310 C.3   1 <1>  -0.1600 
 14 C       -3.6170     3.8290    -0.7670 C.ar  1 <1>  -0.1430 
 15 C       -4.8450     4.7170    -0.6940 C.3   1 <1>   0.4860 
 16 N       -5.9130     3.9800     0.0340 N.4   1 <1>  -0.9590 
 17 C       -6.3120     2.7150    -0.6840 C.3   1 <1>   0.3430 
 18 C       -7.1150     4.8440     0.2960 C.3   1 <1>   0.3430 
 19 C       -7.4910     2.0150     0.0160 C.3   1 <1>   0.1200 
 20 C       -8.2570     4.0420     0.9490 C.3   1 <1>   0.1200 
 21 O       -8.5520     2.9100     0.1830 O.3   1 <1>  -0.5600 
 22 H        0.9820     2.3330     0.2860 H     1 <1>   0.3700 
 23 H        1.9400    -0.2800    -0.7890 H     1 <1>   0.0800 
 24 H       -1.0980     2.6700     1.1540 H     1 <1>   0.1500 
 25 H       -1.9650     1.8180    -2.9180 H     1 <1>   0.1500 
 26 H        3.0960    -0.5370     1.2650 H     1 <1>   0.0800 
 27 H        1.5580     0.0660     1.8320 H     1 <1>   0.0800 
 28 H        3.0270     2.0460    -1.5350 H     1 <1>   0.0800 
 29 H        4.0610     0.7630    -0.9560 H     1 <1>   0.0800 
 30 H       -3.0150     4.1570     1.2720 H     1 <1>   0.1500 
 31 H       -3.8980     3.2990    -2.8330 H     1 <1>   0.1500 
 32 H        3.9670     1.2550     2.4390 H     1 <1>   0.0800 
 33 H        2.4930     2.1870     2.2950 H     1 <1>   0.0800 
 34 H        3.3070     3.2560     0.4750 H     1 <1>   0.0800 
 35 H        4.7950     2.3390     0.5620 H     1 <1>   0.0800 
 36 H       -5.1760     4.9700    -1.6880 H     1 <1>   0.0800 
 37 H       -4.5970     5.6270    -0.1720 H     1 <1>   0.0800 
 38 H       -5.5160     3.6910     0.9360 H     1 <1>   0.4500 
 39 H       -5.4750     2.0370    -0.7310 H     1 <1>   0.0800 
 40 H       -6.6070     2.9460    -1.6940 H     1 <1>   0.0800 
 41 H       -7.4810     5.2520    -0.6320 H     1 <1>   0.0800 
 42 H       -6.8480     5.6680     0.9380 H     1 <1>   0.0800 
 43 H       -7.2020     1.6330     0.9800 H     1 <1>   0.0800 
 44 H       -7.8450     1.1960    -0.5850 H     1 <1>   0.0800 
 45 H       -9.1500     4.6420     1.0010 H     1 <1>   0.0800 
 46 H       -7.9970     3.7290     1.9460 H     1 <1>   0.0800 
@<TRIPOS>BOND
  1   1   2  2   
  2   2   3  am  
  3   2   4  1   
  4   3   5  1   
  5   3  22  1   
  6   4   6  ar  
  7   4   7  ar  
  8   5   8  1   
  9   5   9  1   
 10   5  23  1   
 11   6  10  ar  
 12   6  24  1   
 13   7  11  ar  
 14   7  25  1   
 15   8  12  1   
 16   8  26  1   
 17   8  27  1   
 18   9  13  1   
 19   9  28  1   
 20   9  29  1   
 21  10  14  ar  
 22  10  30  1   
 23  11  14  ar  
 24  11  31  1   
 25  12  13  1   
 26  12  32  1   
 27  12  33  1   
 28  13  34  1   
 29  13  35  1   
 30  14  15  1   
 31  15  16  1   
 32  15  36  1   
 33  15  37  1   
 34  16  17  1   
 35  16  18  1   
 36  16  38  1   
 37  17  19  1   
 38  17  39  1   
 39  17  40  1   
 40  18  20  1   
 41  18  41  1   
 42  18  42  1   
 43  19  21  1   
 44  19  43  1   
 45  19  44  1   
 46  20  21  1   
 47  20  45  1   
 48  20  46  1   
@<TRIPOS>SUBSTRUCTURE
  1 ****   6 GROUP 4 **** **** 0

# MOE 2024.06 (io_trps.svl 2023.06)
