@<TRIPOS>MOLECULE
NONAME
40 42 1 0 0 
SMALL
USER_CHARGES


@<TRIPOS>ATOM
  1 S       -1.3260     1.9170    -1.0940 S.3   1 <1>  -0.0800 
  2 C       -1.8780     0.8910     0.1900 C.2   1 <1>   0.4420 
  3 C        0.2770     1.3720    -0.7400 C.2   1 <1>   0.1980 
  4 N       -0.9140     0.2600     0.7540 N.2   1 <1>  -0.3380 
  5 N       -3.2360     0.8840     0.4300 N.am  1 <1>  -0.4940 
  6 N        0.3140     0.5400     0.2170 N.2   1 <1>  -0.3380 
  7 C        1.4160     1.9190    -1.5700 C.3   1 <1>  -0.0600 
  8 C       -3.9540     0.2160     1.3820 C.2   1 <1>   0.5690 
  9 O       -3.4540    -0.4940     2.2150 O.2   1 <1>  -0.5700 
 10 C       -5.4680     0.3650     1.3920 C.3   1 <1>   0.1310 
 11 S       -6.0260     1.8180     0.3690 S.3   1 <1>  -0.2860 
 12 C       -7.8150     1.7000     0.4800 C.2   1 <1>   0.2430 
 13 N       -8.4190     0.7590     1.1100 N.2   1 <1>  -0.3380 
 14 N       -8.6390     2.5800    -0.0870 N.pl3 1 <1>   0.0480 
 15 N       -9.7230     1.0060     0.9620 N.2   1 <1>  -0.3380 
 16 C       -9.8400     2.0820     0.2500 C.2   1 <1>   0.0060 
 17 C       -8.2930     3.7780    -0.8810 C.3   1 <1>   0.0160 
 18 C      -11.1670     2.7200    -0.1640 C.3   1 <1>   0.1000 
 19 C      -12.4080     2.0970     0.4750 C.3   1 <1>  -0.1600 
 20 C      -11.4510     2.5920    -1.6610 C.3   1 <1>  -0.1600 
 21 C      -13.5680     2.5410    -0.4160 C.3   1 <1>  -0.1600 
 22 C      -12.9680     2.7540    -1.8110 C.3   1 <1>  -0.1600 
 23 H       -3.7870     1.4820    -0.1820 H     1 <1>   0.3700 
 24 H        1.2690     1.6690    -2.6040 H     1 <1>   0.0800 
 25 H        2.3450     1.4920    -1.2360 H     1 <1>   0.0800 
 26 H        1.4650     2.9870    -1.4640 H     1 <1>   0.0800 
 27 H       -5.8210     0.5270     2.3940 H     1 <1>   0.0800 
 28 H       -5.9320    -0.5130     0.9840 H     1 <1>   0.0800 
 29 H       -7.3760     4.2010    -0.5150 H     1 <1>   0.0800 
 30 H       -9.0740     4.5110    -0.7960 H     1 <1>   0.0800 
 31 H       -8.1730     3.4970    -1.9110 H     1 <1>   0.0800 
 32 H      -11.1530     3.7630     0.1010 H     1 <1>   0.0800 
 33 H      -12.5330     2.4070     1.4980 H     1 <1>   0.0800 
 34 H      -12.3350     1.0230     0.4420 H     1 <1>   0.0800 
 35 H      -11.1690     1.6050    -1.9870 H     1 <1>   0.0800 
 36 H      -10.9140     3.3200    -2.2410 H     1 <1>   0.0800 
 37 H      -13.9670     3.4720    -0.0500 H     1 <1>   0.0800 
 38 H      -14.3540     1.8060    -0.4270 H     1 <1>   0.0800 
 39 H      -13.3540     2.0310    -2.5100 H     1 <1>   0.0800 
 40 H      -13.2090     3.7410    -2.1650 H     1 <1>   0.0800 
@<TRIPOS>BOND
  1   1   2  1   
  2   1   3  1   
  3   2   4  2   
  4   2   5  1   
  5   3   6  2   
  6   3   7  1   
  7   4   6  1   
  8   5   8  am  
  9   5  23  1   
 10   7  24  1   
 11   7  25  1   
 12   7  26  1   
 13   8   9  2   
 14   8  10  1   
 15  10  11  1   
 16  10  27  1   
 17  10  28  1   
 18  11  12  1   
 19  12  13  2   
 20  12  14  1   
 21  13  15  1   
 22  14  16  1   
 23  14  17  1   
 24  15  16  2   
 25  16  18  1   
 26  17  29  1   
 27  17  30  1   
 28  17  31  1   
 29  18  19  1   
 30  18  20  1   
 31  18  32  1   
 32  19  21  1   
 33  19  33  1   
 34  19  34  1   
 35  20  22  1   
 36  20  35  1   
 37  20  36  1   
 38  21  22  1   
 39  21  37  1   
 40  21  38  1   
 41  22  39  1   
 42  22  40  1   
@<TRIPOS>SUBSTRUCTURE
  1 ****  11 GROUP 4 **** **** 0

# MOE 2024.06 (io_trps.svl 2023.06)
