@<TRIPOS>MOLECULE
NONAME
47 48 1 0 0 
SMALL
USER_CHARGES


@<TRIPOS>ATOM
  1 O       -0.6140    -0.3240     0.0030 O.2   1 <1>  -0.5700 
  2 C       -0.5630    -1.4590     0.4360 C.2   1 <1>   0.6900 
  3 N       -1.6310    -1.9840     1.1120 N.am  1 <1>  -0.6600 
  4 N        0.5490    -2.2200     0.2810 N.am  1 <1>  -0.7300 
  5 C       -2.8430    -1.1380     1.3480 C.3   1 <1>   0.3200 
  6 C       -1.7850    -3.4280     1.4320 C.3   1 <1>   0.1400 
  7 C        1.7980    -1.9150    -0.4200 C.3   1 <1>   0.3000 
  8 C       -3.9620    -1.4630     0.3690 C.2   1 <1>   0.2980 
  9 C       -1.2810    -3.6870     2.8490 C.3   1 <1>  -0.2400 
 10 C        2.6720    -3.1630    -0.3050 C.3   1 <1>  -0.2400 
 11 C        2.4970    -0.7360     0.2560 C.3   1 <1>  -0.2400 
 12 C        1.5110    -1.6280    -1.8950 C.3   1 <1>  -0.2400 
 13 O       -3.8000    -1.1670    -0.8940 O.3   1 <1>  -0.0190 
 14 N       -5.0700    -2.0130     0.6610 N.2   1 <1>  -0.5650 
 15 N       -4.8980    -1.5640    -1.4550 N.2   1 <1>  -0.4100 
 16 C       -5.6530    -2.0650    -0.5420 C.2   1 <1>   0.4620 
 17 C       -6.9760    -2.6300    -0.7530 C.ar  1 <1>   0.0540 
 18 C       -7.7410    -3.1280     0.3050 C.ar  1 <1>  -0.1500 
 19 C       -7.5380    -2.6970    -2.0290 C.ar  1 <1>  -0.1500 
 20 C       -9.0020    -3.6660     0.1080 C.ar  1 <1>  -0.1440 
 21 C       -8.7940    -3.2330    -2.2390 C.ar  1 <1>  -0.1500 
 22 C       -9.5270    -3.7190    -1.1720 C.ar  1 <1>  -0.1500 
 23 C       -9.8050    -4.2000     1.2810 C.3   1 <1>  -0.0970 
 24 H        0.5630    -3.0970     0.7870 H     1 <1>   0.3700 
 25 H       -2.6020    -0.0940     1.2660 H     1 <1>   0.0800 
 26 H       -3.1960    -1.3090     2.3490 H     1 <1>   0.0800 
 27 H       -1.2340    -4.0240     0.7240 H     1 <1>   0.0800 
 28 H       -2.8210    -3.7150     1.3550 H     1 <1>   0.0800 
 29 H       -1.8650    -3.1310     3.5600 H     1 <1>   0.0800 
 30 H       -0.2480    -3.4040     2.9400 H     1 <1>   0.0800 
 31 H       -1.3720    -4.7330     3.0790 H     1 <1>   0.0800 
 32 H        2.1880    -4.0070    -0.7620 H     1 <1>   0.0800 
 33 H        2.8790    -3.3860     0.7260 H     1 <1>   0.0800 
 34 H        3.6100    -3.0020    -0.8060 H     1 <1>   0.0800 
 35 H        2.6530    -0.9370     1.3000 H     1 <1>   0.0800 
 36 H        1.9090     0.1590     0.1570 H     1 <1>   0.0800 
 37 H        3.4510    -0.5560    -0.2050 H     1 <1>   0.0800 
 38 H        0.9740    -2.4450    -2.3400 H     1 <1>   0.0800 
 39 H        2.4320    -1.4890    -2.4320 H     1 <1>   0.0800 
 40 H        0.9300    -0.7310    -2.0000 H     1 <1>   0.0800 
 41 H       -7.3370    -3.0910     1.3000 H     1 <1>   0.1500 
 42 H       -6.9810    -2.3230    -2.8710 H     1 <1>   0.1500 
 43 H       -9.2030    -3.2740    -3.2340 H     1 <1>   0.1500 
 44 H      -10.5040    -4.1360    -1.3410 H     1 <1>   0.1500 
 45 H       -9.4850    -3.7400     2.1990 H     1 <1>   0.0800 
 46 H       -9.6690    -5.2630     1.3590 H     1 <1>   0.0800 
 47 H      -10.8500    -3.9910     1.1440 H     1 <1>   0.0800 
@<TRIPOS>BOND
  1   1   2  2   
  2   2   3  am  
  3   2   4  am  
  4   3   5  1   
  5   3   6  1   
  6   4   7  1   
  7   4  24  1   
  8   5   8  1   
  9   5  25  1   
 10   5  26  1   
 11   6   9  1   
 12   6  27  1   
 13   6  28  1   
 14   7  10  1   
 15   7  11  1   
 16   7  12  1   
 17   8  13  1   
 18   8  14  2   
 19   9  29  1   
 20   9  30  1   
 21   9  31  1   
 22  10  32  1   
 23  10  33  1   
 24  10  34  1   
 25  11  35  1   
 26  11  36  1   
 27  11  37  1   
 28  12  38  1   
 29  12  39  1   
 30  12  40  1   
 31  13  15  1   
 32  14  16  1   
 33  15  16  2   
 34  16  17  1   
 35  17  18  ar  
 36  17  19  ar  
 37  18  20  ar  
 38  18  41  1   
 39  19  21  ar  
 40  19  42  1   
 41  20  22  ar  
 42  20  23  1   
 43  21  22  ar  
 44  21  43  1   
 45  22  44  1   
 46  23  45  1   
 47  23  46  1   
 48  23  47  1   
@<TRIPOS>SUBSTRUCTURE
  1 ****   8 GROUP 4 **** **** 0

# MOE 2024.06 (io_trps.svl 2023.06)
