@<TRIPOS>MOLECULE
NONAME
41 41 1 0 0 
SMALL
USER_CHARGES


@<TRIPOS>ATOM
  1 O        0.6730     1.5470     3.0450 O.2   1 <1>  -0.5700 
  2 C        1.1520     1.9720     2.0150 C.2   1 <1>   0.6900 
  3 N        0.5400     2.9210     1.2300 N.am  1 <1>  -0.3680 
  4 N        2.3420     1.4830     1.6300 N.am  1 <1>  -0.8000 
  5 N       -0.7340     3.4400     1.3380 N.2   1 <1>  -0.5120 
  6 C       -1.1390     4.3850     0.5700 C.2   1 <1>   0.3750 
  7 C       -0.3480     5.1120    -0.4060 C.2   1 <1>  -0.1360 
  8 C       -2.6230     4.7860     0.7000 C.3   1 <1>   0.1190 
  9 C        0.9800     5.3390    -0.4880 C.2   1 <1>  -0.2880 
 10 C       -2.8720     6.3100     0.6620 C.2   1 <1>  -0.2760 
 11 C       -3.5620     3.9830    -0.2720 C.3   1 <1>   0.0000 
 12 C        1.6450     6.1380    -1.5960 C.3   1 <1>  -0.1020 
 13 C       -3.8850     6.8700    -0.0070 C.2   1 <1>  -0.2880 
 14 C       -1.9220     7.1580     1.5040 C.3   1 <1>  -0.1020 
 15 C       -4.9650     4.6280    -0.2990 C.3   1 <1>  -0.1600 
 16 C       -3.0310     3.8980    -1.7200 C.3   1 <1>  -0.2400 
 17 C       -3.7260     2.5340     0.2300 C.3   1 <1>  -0.2400 
 18 C       -4.9470     6.0930    -0.7590 C.3   1 <1>  -0.0220 
 19 H        1.1060     3.2650     0.4570 H     1 <1>   0.3700 
 20 H        2.7350     0.7370     2.2030 H     1 <1>   0.3700 
 21 H        2.6980     1.5600     0.6820 H     1 <1>   0.3700 
 22 H       -0.9630     5.5620    -1.1620 H     1 <1>   0.1500 
 23 H       -2.9140     4.5030     1.6970 H     1 <1>   0.0800 
 24 H        1.6900     4.9950     0.2440 H     1 <1>   0.1500 
 25 H        2.1490     6.9920    -1.1800 H     1 <1>   0.0800 
 26 H        0.9190     6.4850    -2.3100 H     1 <1>   0.0800 
 27 H        2.3660     5.5280    -2.1100 H     1 <1>   0.0800 
 28 H       -4.0460     7.9340    -0.0470 H     1 <1>   0.1500 
 29 H       -0.9300     7.1710     1.0950 H     1 <1>   0.0800 
 30 H       -1.8770     6.7720     2.5070 H     1 <1>   0.0800 
 31 H       -2.2700     8.1740     1.5530 H     1 <1>   0.0800 
 32 H       -5.6250     4.0670    -0.9360 H     1 <1>   0.0800 
 33 H       -5.3760     4.5980     0.6960 H     1 <1>   0.0800 
 34 H       -3.7440     3.3960    -2.3500 H     1 <1>   0.0800 
 35 H       -2.1120     3.3400    -1.7610 H     1 <1>   0.0800 
 36 H       -2.8580     4.8750    -2.1300 H     1 <1>   0.0800 
 37 H       -4.4030     1.9850    -0.4000 H     1 <1>   0.0800 
 38 H       -4.1140     2.5200     1.2330 H     1 <1>   0.0800 
 39 H       -2.7810     2.0190     0.2320 H     1 <1>   0.0800 
 40 H       -5.9110     6.5270    -0.5600 H     1 <1>   0.0800 
 41 H       -4.7670     6.1630    -1.8170 H     1 <1>   0.0800 
@<TRIPOS>BOND
  1   1   2  2   
  2   2   3  am  
  3   2   4  am  
  4   3   5  1   
  5   3  19  1   
  6   4  20  1   
  7   4  21  1   
  8   5   6  2   
  9   6   7  1   
 10   6   8  1   
 11   7   9  2   
 12   7  22  1   
 13   8  10  1   
 14   8  11  1   
 15   8  23  1   
 16   9  12  1   
 17   9  24  1   
 18  10  13  2   
 19  10  14  1   
 20  11  15  1   
 21  11  16  1   
 22  11  17  1   
 23  12  25  1   
 24  12  26  1   
 25  12  27  1   
 26  13  18  1   
 27  13  28  1   
 28  14  29  1   
 29  14  30  1   
 30  14  31  1   
 31  15  18  1   
 32  15  32  1   
 33  15  33  1   
 34  16  34  1   
 35  16  35  1   
 36  16  36  1   
 37  17  37  1   
 38  17  38  1   
 39  17  39  1   
 40  18  40  1   
 41  18  41  1   
@<TRIPOS>SUBSTRUCTURE
  1 ****   6 GROUP 4 **** **** 0

# MOE 2024.06 (io_trps.svl 2023.06)
