@<TRIPOS>MOLECULE
NONAME
47 49 1 0 0 
SMALL
USER_CHARGES


@<TRIPOS>ATOM
  1 O        0.1200     0.7440     0.2530 O.2   1 <1>  -0.5750 
  2 C        0.7580     1.7560     0.0520 C.2   1 <1>   0.6860 
  3 N        0.1680     2.8450    -0.5840 N.am  1 <1>  -0.4260 
  4 N        2.0880     1.8190     0.4560 N.am  1 <1>  -0.4420 
  5 C        0.8930     3.9970    -0.8610 C.2   1 <1>   0.6990 
  6 C       -1.2800     2.7870    -0.9460 C.3   1 <1>   0.1320 
  7 C        2.8040     2.9650     0.1700 C.2   1 <1>   0.4200 
  8 C        2.7200     0.6620     1.1580 C.3   1 <1>   0.0520 
  9 O        0.3820     4.9460    -1.4320 O.2   1 <1>  -0.5750 
 10 C        2.2590     4.0330    -0.4610 C.2   1 <1>   0.2700 
 11 C       -2.1310     3.3250     0.2080 C.3   1 <1>  -0.1680 
 12 N        4.1180     3.2250     0.4450 N.pl3 1 <1>  -0.7040 
 13 N        3.2820     4.9860    -0.5710 N.pl3 1 <1>  -0.6330 
 14 C       -3.6230     3.2770    -0.1400 C.3   1 <1>  -0.1680 
 15 C        4.3650     4.4590    -0.0180 C.cat 1 <1>   1.0690 
 16 C        3.6310     6.2390    -1.0240 C.2   1 <1>   0.2220 
 17 C       -4.4730     3.8190     1.0110 C.3   1 <1>  -0.2470 
 18 N        5.4130     5.2910    -0.0760 N.pl3 1 <1>  -0.5720 
 19 C        4.9350     6.4330    -0.7230 C.2   1 <1>   0.1570 
 20 C        6.7660     4.9450     0.4290 C.3   1 <1>   0.2410 
 21 C        5.7530     7.6760    -1.0270 C.3   1 <1>  -0.1100 
 22 C        7.3080     6.0150     1.3740 C.3   1 <1>  -0.2470 
 23 C        7.7120     4.6800    -0.7400 C.3   1 <1>  -0.2470 
 24 H       -1.5650     1.7720    -1.1650 H     1 <1>   0.0720 
 25 H       -1.4610     3.3700    -1.8340 H     1 <1>   0.0720 
 26 H        1.9760     0.0970     1.6950 H     1 <1>   0.0720 
 27 H        3.4530     1.0020     1.8670 H     1 <1>   0.0720 
 28 H        3.1880     0.0130     0.4380 H     1 <1>   0.0720 
 29 H       -1.8530     4.3440     0.4150 H     1 <1>   0.0720 
 30 H       -1.9570     2.7300     1.0880 H     1 <1>   0.0720 
 31 H        4.7950     2.6150     0.8970 H     1 <1>   0.4440 
 32 H       -3.9160     2.2610    -0.3460 H     1 <1>   0.0720 
 33 H       -3.8110     3.8650    -1.0230 H     1 <1>   0.0720 
 34 H        2.9270     6.8910    -1.5210 H     1 <1>   0.1420 
 35 H       -4.3180     3.2330     1.9010 H     1 <1>   0.0720 
 36 H       -5.5160     3.7750     0.7500 H     1 <1>   0.0720 
 37 H       -4.2160     4.8420     1.2210 H     1 <1>   0.0720 
 38 H        6.6910     4.0330     0.9980 H     1 <1>   0.0720 
 39 H        6.6420     7.4280    -1.5740 H     1 <1>   0.0720 
 40 H        6.0230     8.1780    -0.1160 H     1 <1>   0.0720 
 41 H        5.1770     8.3620    -1.6230 H     1 <1>   0.0720 
 42 H        7.6200     6.8930     0.8410 H     1 <1>   0.0720 
 43 H        8.1730     5.6320     1.8860 H     1 <1>   0.0720 
 44 H        6.5740     6.2800     2.1140 H     1 <1>   0.0720 
 45 H        7.8870     5.5690    -1.3150 H     1 <1>   0.0720 
 46 H        7.3170     3.9140    -1.3840 H     1 <1>   0.0720 
 47 H        8.6620     4.3410    -0.3650 H     1 <1>   0.0720 
@<TRIPOS>BOND
  1   1   2  2   
  2   2   3  am  
  3   2   4  am  
  4   3   5  am  
  5   3   6  1   
  6   4   7  1   
  7   4   8  1   
  8   5   9  2   
  9   5  10  1   
 10   6  11  1   
 11   6  24  1   
 12   6  25  1   
 13   7  10  2   
 14   7  12  1   
 15   8  26  1   
 16   8  27  1   
 17   8  28  1   
 18  10  13  1   
 19  11  14  1   
 20  11  29  1   
 21  11  30  1   
 22  12  15  ar  
 23  12  31  1   
 24  13  15  ar  
 25  13  16  1   
 26  14  17  1   
 27  14  32  1   
 28  14  33  1   
 29  15  18  ar  
 30  16  19  2   
 31  16  34  1   
 32  17  35  1   
 33  17  36  1   
 34  17  37  1   
 35  18  19  1   
 36  18  20  1   
 37  19  21  1   
 38  20  22  1   
 39  20  23  1   
 40  20  38  1   
 41  21  39  1   
 42  21  40  1   
 43  21  41  1   
 44  22  42  1   
 45  22  43  1   
 46  22  44  1   
 47  23  45  1   
 48  23  46  1   
 49  23  47  1   
@<TRIPOS>SUBSTRUCTURE
  1 ****  10 GROUP 4 **** **** 0

# MOE 2024.06 (io_trps.svl 2023.06)
