@<TRIPOS>MOLECULE
NONAME
36 36 1 0 0 
SMALL
USER_CHARGES


@<TRIPOS>ATOM
  1 O        0.3350    -0.3620     0.3040 O.3   1 <1>  -0.6800 
  2 C        1.0000    -1.2880     1.0810 C.3   1 <1>   0.5440 
  3 C        2.4590    -1.0710     0.8590 C.1   1 <1>  -0.2000 
  4 C        0.6280    -2.7090     0.6600 C.ar  1 <1>  -0.1440 
  5 C        3.6170    -1.0120     0.5940 C.1   1 <1>  -0.2000 
  6 C        0.3440    -3.0300    -0.6630 C.ar  1 <1>  -0.1500 
  7 C        0.5960    -3.7180     1.6140 C.ar  1 <1>  -0.1500 
  8 C        5.0360    -1.0740     0.1550 C.3   1 <1>   0.5430 
  9 C        0.0410    -4.3320    -1.0240 C.ar  1 <1>  -0.1500 
 10 C        0.2940    -5.0200     1.2550 C.ar  1 <1>  -0.1500 
 11 N        5.3760    -2.5020    -0.0970 N.4   1 <1>  -0.9590 
 12 C        0.0180    -5.3280    -0.0650 C.ar  1 <1>  -0.1500 
 13 C        6.8460    -2.6640    -0.2590 C.3   1 <1>   0.3430 
 14 C        4.5880    -3.0620    -1.2340 C.3   1 <1>   0.3430 
 15 C        7.2350    -4.1330    -0.1420 C.3   1 <1>  -0.2400 
 16 C        3.8340    -4.2920    -0.7450 C.3   1 <1>  -0.2400 
 17 H        0.6490     0.5290     0.5370 H     1 <1>   0.4000 
 18 H        0.7360    -1.1110     2.1090 H     1 <1>   0.0800 
 19 H        0.3530    -2.2630    -1.4180 H     1 <1>   0.1500 
 20 H        0.8060    -3.4980     2.6470 H     1 <1>   0.1500 
 21 H        5.6650    -0.6720     0.9330 H     1 <1>   0.0800 
 22 H        5.1720    -0.4900    -0.7400 H     1 <1>   0.0800 
 23 H       -0.1840    -4.5670    -2.0500 H     1 <1>   0.1500 
 24 H        0.2690    -5.7940     2.0020 H     1 <1>   0.1500 
 25 H        5.0740    -3.0100     0.7430 H     1 <1>   0.4500 
 26 H       -0.2210    -6.3400    -0.3440 H     1 <1>   0.1500 
 27 H        7.3580    -2.1120     0.5130 H     1 <1>   0.0800 
 28 H        7.1610    -2.2760    -1.2160 H     1 <1>   0.0800 
 29 H        5.2400    -3.3290    -2.0510 H     1 <1>   0.0800 
 30 H        3.8750    -2.3360    -1.5930 H     1 <1>   0.0800 
 31 H        6.8900    -4.5500     0.7870 H     1 <1>   0.0800 
 32 H        8.3080    -4.2150    -0.1640 H     1 <1>   0.0800 
 33 H        6.8510    -4.7070    -0.9650 H     1 <1>   0.0800 
 34 H        4.5060    -5.0660    -0.4220 H     1 <1>   0.0800 
 35 H        3.2390    -4.6840    -1.5500 H     1 <1>   0.0800 
 36 H        3.1650    -4.0370     0.0570 H     1 <1>   0.0800 
@<TRIPOS>BOND
  1   1   2  1   
  2   1  17  1   
  3   2   3  1   
  4   2   4  1   
  5   2  18  1   
  6   3   5  3   
  7   4   6  ar  
  8   4   7  ar  
  9   5   8  1   
 10   6   9  ar  
 11   6  19  1   
 12   7  10  ar  
 13   7  20  1   
 14   8  11  1   
 15   8  21  1   
 16   8  22  1   
 17   9  12  ar  
 18   9  23  1   
 19  10  12  ar  
 20  10  24  1   
 21  11  13  1   
 22  11  14  1   
 23  11  25  1   
 24  12  26  1   
 25  13  15  1   
 26  13  27  1   
 27  13  28  1   
 28  14  16  1   
 29  14  29  1   
 30  14  30  1   
 31  15  31  1   
 32  15  32  1   
 33  15  33  1   
 34  16  34  1   
 35  16  35  1   
 36  16  36  1   
@<TRIPOS>SUBSTRUCTURE
  1 ****   3 GROUP 4 **** **** 0

# MOE 2024.06 (io_trps.svl 2023.06)
