@<TRIPOS>MOLECULE
NONAME
50 51 1 0 0 
SMALL
USER_CHARGES


@<TRIPOS>ATOM
  1 S       -0.9320     1.7200     0.1090 S.o2  1 <1>   1.4470 
  2 O       -1.5320     1.2350    -1.1160 O.2   1 <1>  -0.6500 
  3 O       -1.4540     2.9060     0.7440 O.2   1 <1>  -0.6500 
  4 N       -1.1350     0.5230     1.2640 N.am  1 <1>  -0.9140 
  5 C        0.8670     1.8310    -0.0690 C.ar  1 <1>  -0.0090 
  6 C       -2.3550    -0.2710     1.0900 C.3   1 <1>   0.3370 
  7 C        1.5860     0.8090    -0.6770 C.ar  1 <1>  -0.1500 
  8 C        1.5740     2.9290     0.4060 C.ar  1 <1>  -0.1500 
  9 C       -3.6690     0.5520     1.1670 C.2   1 <1>   0.5690 
 10 C       -2.2960    -1.3870     2.1360 C.3   1 <1>  -0.2400 
 11 C        2.9640     0.8690    -0.8150 C.ar  1 <1>  -0.1440 
 12 C        2.9490     3.0070     0.2780 C.ar  1 <1>  -0.1500 
 13 O       -4.2100     0.7170     2.2370 O.2   1 <1>  -0.5700 
 14 N       -4.1640     1.0970     0.0240 N.am  1 <1>  -0.7300 
 15 C        3.6550     1.9770    -0.3350 C.ar  1 <1>   0.0830 
 16 C        3.7080    -0.2740    -1.4910 C.3   1 <1>  -0.0970 
 17 C       -5.3040     2.0200    -0.0520 C.3   1 <1>   0.2200 
 18 O        5.0040     1.9960    -0.4900 O.3   1 <1>  -0.3630 
 19 C       -6.2110     1.5890    -1.2080 C.3   1 <1>  -0.1600 
 20 C       -4.7680     3.4400    -0.2630 C.3   1 <1>  -0.1600 
 21 C        5.7900     3.0790    -0.0450 C.3   1 <1>   0.0400 
 22 C       -7.3600     2.5880    -1.4150 C.3   1 <1>  -0.1600 
 23 C       -5.9130     4.4420    -0.4690 C.3   1 <1>  -0.1600 
 24 C       -6.8260     4.0110    -1.6260 C.3   1 <1>  -0.1600 
 25 H       -1.2750     1.0500     2.1260 H     1 <1>   0.4200 
 26 H       -2.3250    -0.7450     0.1230 H     1 <1>   0.0800 
 27 H        1.0500    -0.0470    -1.0480 H     1 <1>   0.1500 
 28 H        1.0420     3.7350     0.8840 H     1 <1>   0.1500 
 29 H       -2.3090    -0.9750     3.1300 H     1 <1>   0.0800 
 30 H       -1.4070    -1.9770     2.0040 H     1 <1>   0.0800 
 31 H       -3.1520    -2.0290     2.0270 H     1 <1>   0.0800 
 32 H        3.4500     3.8760     0.6610 H     1 <1>   0.1500 
 33 H       -3.5720     1.0890    -0.8160 H     1 <1>   0.3700 
 34 H        3.0340    -1.0530    -1.7990 H     1 <1>   0.0800 
 35 H        4.4280    -0.6920    -0.8100 H     1 <1>   0.0800 
 36 H        4.2280     0.0930    -2.3580 H     1 <1>   0.0800 
 37 H       -5.8630     1.9860     0.8690 H     1 <1>   0.0800 
 38 H       -6.6190     0.6170    -0.9960 H     1 <1>   0.0800 
 39 H       -5.6340     1.5290    -2.1150 H     1 <1>   0.0800 
 40 H       -4.1240     3.4590    -1.1250 H     1 <1>   0.0800 
 41 H       -4.1910     3.7320     0.5970 H     1 <1>   0.0800 
 42 H        6.8160     2.8660    -0.2830 H     1 <1>   0.0800 
 43 H        5.6750     3.1800     1.0190 H     1 <1>   0.0800 
 44 H        5.4740     3.9720    -0.5550 H     1 <1>   0.0800 
 45 H       -8.0030     2.5740    -0.5510 H     1 <1>   0.0800 
 46 H       -7.9470     2.2920    -2.2670 H     1 <1>   0.0800 
 47 H       -5.5050     5.4170    -0.6740 H     1 <1>   0.0800 
 48 H       -6.4930     4.5100     0.4360 H     1 <1>   0.0800 
 49 H       -7.6510     4.6970    -1.7090 H     1 <1>   0.0800 
 50 H       -6.2720     4.0500    -2.5490 H     1 <1>   0.0800 
@<TRIPOS>BOND
  1   1   2  2   
  2   1   3  2   
  3   1   4  am  
  4   1   5  1   
  5   4   6  1   
  6   4  25  1   
  7   5   7  ar  
  8   5   8  ar  
  9   6   9  1   
 10   6  10  1   
 11   6  26  1   
 12   7  11  ar  
 13   7  27  1   
 14   8  12  ar  
 15   8  28  1   
 16   9  13  2   
 17   9  14  am  
 18  10  29  1   
 19  10  30  1   
 20  10  31  1   
 21  11  15  ar  
 22  11  16  1   
 23  12  15  ar  
 24  12  32  1   
 25  14  17  1   
 26  14  33  1   
 27  15  18  1   
 28  16  34  1   
 29  16  35  1   
 30  16  36  1   
 31  17  19  1   
 32  17  20  1   
 33  17  37  1   
 34  18  21  1   
 35  19  22  1   
 36  19  38  1   
 37  19  39  1   
 38  20  23  1   
 39  20  40  1   
 40  20  41  1   
 41  21  42  1   
 42  21  43  1   
 43  21  44  1   
 44  22  24  1   
 45  22  45  1   
 46  22  46  1   
 47  23  24  1   
 48  23  47  1   
 49  23  48  1   
 50  24  49  1   
 51  24  50  1   
@<TRIPOS>SUBSTRUCTURE
  1 ****   1 GROUP 4 **** **** 0

# MOE 2024.06 (io_trps.svl 2023.06)
