@<TRIPOS>MOLECULE
NONAME
36 36 1 0 0 
SMALL
USER_CHARGES


@<TRIPOS>ATOM
  1 CL      -0.9300    -0.0840     1.8500 Cl    1 <1>  -0.1770 
  2 C       -2.4820    -0.7200     1.3640 C.ar  1 <1>   0.1770 
  3 C       -2.6280    -1.2530     0.0960 C.ar  1 <1>  -0.1500 
  4 C       -3.5390    -0.6800     2.2530 C.ar  1 <1>  -0.1500 
  5 C       -3.8580    -1.7580    -0.2930 C.ar  1 <1>  -0.1500 
  6 C       -4.7680    -1.1850     1.8620 C.ar  1 <1>  -0.1500 
  7 C       -4.9350    -1.7230     0.5930 C.ar  1 <1>   0.0830 
  8 O       -6.1710    -2.1930     0.2930 O.3   1 <1>  -0.3630 
  9 C       -6.4640    -2.7220    -0.9950 C.3   1 <1>   0.1810 
 10 C       -7.9250    -3.1340    -1.1010 C.2   1 <1>   0.5690 
 11 O       -8.2660    -3.8040    -2.0540 O.2   1 <1>  -0.5700 
 12 N       -8.7970    -2.7500    -0.1300 N.am  1 <1>  -0.4300 
 13 N      -10.2590    -2.8450    -0.2150 N.am  1 <1>  -0.4300 
 14 C      -11.0760    -1.8440    -0.6360 C.2   1 <1>   0.5690 
 15 O      -10.6820    -0.7120    -0.8110 O.2   1 <1>  -0.5700 
 16 C      -12.5410    -2.1540    -0.8780 C.3   1 <1>  -0.0990 
 17 C      -13.3400    -2.2440     0.4320 C.3   1 <1>  -0.1600 
 18 C      -14.8180    -2.5530     0.1630 C.3   1 <1>  -0.1600 
 19 C      -15.6070    -2.6390     1.4720 C.3   1 <1>  -0.2400 
 20 H       -1.7870    -1.2710    -0.5730 H     1 <1>   0.1500 
 21 H       -3.3990    -0.2600     3.2330 H     1 <1>   0.1500 
 22 H       -3.9520    -2.1680    -1.2800 H     1 <1>   0.1500 
 23 H       -5.6020    -1.1620     2.5400 H     1 <1>   0.1500 
 24 H       -5.8400    -3.5800    -1.1610 H     1 <1>   0.0800 
 25 H       -6.2590    -1.9660    -1.7300 H     1 <1>   0.0800 
 26 H       -8.4210    -2.1910     0.6460 H     1 <1>   0.3700 
 27 H      -10.6510    -3.7800    -0.0760 H     1 <1>   0.3700 
 28 H      -12.6140    -3.0790    -1.4220 H     1 <1>   0.0800 
 29 H      -12.9520    -1.3770    -1.4980 H     1 <1>   0.0800 
 30 H      -13.2590    -1.3060     0.9560 H     1 <1>   0.0800 
 31 H      -12.9220    -3.0120     1.0600 H     1 <1>   0.0800 
 32 H      -14.9050    -3.4870    -0.3650 H     1 <1>   0.0800 
 33 H      -15.2430    -1.7790    -0.4540 H     1 <1>   0.0800 
 34 H      -15.2160    -3.4210     2.0990 H     1 <1>   0.0800 
 35 H      -16.6410    -2.8530     1.2650 H     1 <1>   0.0800 
 36 H      -15.5530    -1.7070     2.0070 H     1 <1>   0.0800 
@<TRIPOS>BOND
  1   1   2  1   
  2   2   3  ar  
  3   2   4  ar  
  4   3   5  ar  
  5   3  20  1   
  6   4   6  ar  
  7   4  21  1   
  8   5   7  ar  
  9   5  22  1   
 10   6   7  ar  
 11   6  23  1   
 12   7   8  1   
 13   8   9  1   
 14   9  10  1   
 15   9  24  1   
 16   9  25  1   
 17  10  11  2   
 18  10  12  am  
 19  12  13  1   
 20  12  26  1   
 21  13  14  am  
 22  13  27  1   
 23  14  15  2   
 24  14  16  1   
 25  16  17  1   
 26  16  28  1   
 27  16  29  1   
 28  17  18  1   
 29  17  30  1   
 30  17  31  1   
 31  18  19  1   
 32  18  32  1   
 33  18  33  1   
 34  19  34  1   
 35  19  35  1   
 36  19  36  1   
@<TRIPOS>SUBSTRUCTURE
  1 ****  12 GROUP 4 **** **** 0

# MOE 2024.06 (io_trps.svl 2023.06)
