@<TRIPOS>MOLECULE
NONAME
46 47 1 0 0 
SMALL
USER_CHARGES


@<TRIPOS>ATOM
  1 O       -2.3820     1.5930    -2.3820 O.2   1 <1>  -0.5700 
  2 C       -2.0680     1.7690    -1.2300 C.2   1 <1>   0.6590 
  3 O       -2.0640     0.7730    -0.3450 O.3   1 <1>  -0.4300 
  4 C       -1.6410     3.1670    -0.7300 C.3   1 <1>   0.2510 
  5 C       -2.4180    -0.5510    -0.6800 C.3   1 <1>   0.1200 
  6 N       -0.2100     3.2870    -0.3080 N.3   1 <1>  -0.8100 
  7 C       -2.5520     3.6250     0.4240 C.3   1 <1>  -0.1600 
  8 C       -1.1930    -1.2680    -1.2430 C.3   1 <1>  -0.2400 
  9 C        0.1380     4.6760     0.0420 C.3   1 <1>   0.1100 
 10 C        0.7040     2.7240    -1.3260 C.3   1 <1>   0.2530 
 11 C       -2.2260     5.0540     0.8720 C.3   1 <1>  -0.1600 
 12 C       -0.7340     5.1630     1.2020 C.3   1 <1>  -0.1600 
 13 C        2.1880     2.8740    -0.9810 C.ar  1 <1>  -0.1430 
 14 C        2.7960     2.4090     0.1940 C.ar  1 <1>   0.0830 
 15 C        2.9760     3.5400    -1.9130 C.ar  1 <1>  -0.1500 
 16 O        2.1710     1.7420     1.1960 O.3   1 <1>  -0.3630 
 17 C        4.1470     2.6390     0.4090 C.ar  1 <1>  -0.1500 
 18 C        4.3250     3.7530    -1.6940 C.ar  1 <1>  -0.1500 
 19 C        1.2930     0.6790     0.9210 C.3   1 <1>   0.1200 
 20 C        4.9130     3.3050    -0.5280 C.ar  1 <1>  -0.1500 
 21 C        1.3810    -0.3150     2.0750 C.3   1 <1>  -0.2400 
 22 H       -1.7970     3.8390    -1.5560 H     1 <1>   0.0800 
 23 H       -3.2250    -0.5310    -1.3940 H     1 <1>   0.0800 
 24 H       -2.7580    -1.0350     0.2190 H     1 <1>   0.0800 
 25 H       -2.4260     2.9500     1.2540 H     1 <1>   0.0800 
 26 H       -3.5790     3.5750     0.1110 H     1 <1>   0.0800 
 27 H       -0.8480    -0.7770    -2.1350 H     1 <1>   0.0800 
 28 H       -1.4530    -2.2800    -1.4940 H     1 <1>   0.0800 
 29 H       -0.4060    -1.2920    -0.5120 H     1 <1>   0.0800 
 30 H        0.0090     5.3150    -0.8150 H     1 <1>   0.0800 
 31 H        1.1660     4.7330     0.3570 H     1 <1>   0.0800 
 32 H        0.5060     3.2060    -2.2680 H     1 <1>   0.0800 
 33 H        0.5000     1.6780    -1.4590 H     1 <1>   0.0800 
 34 H       -2.8120     5.3110     1.7380 H     1 <1>   0.0800 
 35 H       -2.4700     5.7440     0.0830 H     1 <1>   0.0800 
 36 H       -0.4860     6.1840     1.4290 H     1 <1>   0.0800 
 37 H       -0.5080     4.5690     2.0710 H     1 <1>   0.0800 
 38 H        2.5410     3.9060    -2.8260 H     1 <1>   0.1500 
 39 H        4.5930     2.2880     1.3210 H     1 <1>   0.1500 
 40 H        4.9160     4.2710    -2.4300 H     1 <1>   0.1500 
 41 H        1.5860     0.2160    -0.0050 H     1 <1>   0.0800 
 42 H        0.2970     1.0730     0.8460 H     1 <1>   0.0800 
 43 H        5.9610     3.4720    -0.3490 H     1 <1>   0.1500 
 44 H        2.3830    -0.6960     2.1580 H     1 <1>   0.0800 
 45 H        0.7110    -1.1360     1.9000 H     1 <1>   0.0800 
 46 H        1.1010     0.1670     2.9940 H     1 <1>   0.0800 
@<TRIPOS>BOND
  1   1   2  2   
  2   2   3  1   
  3   2   4  1   
  4   3   5  1   
  5   4   6  1   
  6   4   7  1   
  7   4  22  1   
  8   5   8  1   
  9   5  23  1   
 10   5  24  1   
 11   6   9  1   
 12   6  10  1   
 13   7  11  1   
 14   7  25  1   
 15   7  26  1   
 16   8  27  1   
 17   8  28  1   
 18   8  29  1   
 19   9  12  1   
 20   9  30  1   
 21   9  31  1   
 22  10  13  1   
 23  10  32  1   
 24  10  33  1   
 25  11  12  1   
 26  11  34  1   
 27  11  35  1   
 28  12  36  1   
 29  12  37  1   
 30  13  14  ar  
 31  13  15  ar  
 32  14  16  1   
 33  14  17  ar  
 34  15  18  ar  
 35  15  38  1   
 36  16  19  1   
 37  17  20  ar  
 38  17  39  1   
 39  18  20  ar  
 40  18  40  1   
 41  19  21  1   
 42  19  41  1   
 43  19  42  1   
 44  20  43  1   
 45  21  44  1   
 46  21  45  1   
 47  21  46  1   
@<TRIPOS>SUBSTRUCTURE
  1 ****   6 GROUP 4 **** **** 0

# MOE 2024.06 (io_trps.svl 2023.06)
