@<TRIPOS>MOLECULE
NONAME
35 36 1 0 0 
SMALL
USER_CHARGES


@<TRIPOS>ATOM
  1 CL      -0.2730    -1.0750     0.7370 Cl    1 <1>  -0.2900 
  2 C       -1.1140    -1.3510    -0.7780 C.3   1 <1>   0.8700 
  3 CL       0.1300    -1.7620    -1.9490 Cl    1 <1>  -0.2900 
  4 CL      -1.7440     0.2050    -1.2970 Cl    1 <1>  -0.2900 
  5 C       -2.1990    -2.4520    -0.7630 C.3   1 <1>   0.2760 
  6 P       -3.5780    -1.8770     0.2410 P.3   1 <1>   1.2420 
  7 N       -1.7320    -3.9030    -0.6770 N.am  1 <1>  -0.9140 
  8 O       -3.3310    -1.0200     1.3950 O.2   1 <1>  -0.7000 
  9 O       -4.5650    -1.1740    -0.8100 O.3   1 <1>  -0.5510 
 10 O       -4.4250    -3.2070     0.5710 O.3   1 <1>  -0.5510 
 11 S       -1.0840    -4.4580     0.7700 S.o2  1 <1>   1.4470 
 12 C       -5.8410    -0.8340    -0.3790 C.3   1 <1>   0.1200 
 13 C       -5.7500    -3.3400     0.1690 C.3   1 <1>   0.1200 
 14 O       -1.4860    -5.8420     0.7690 O.2   1 <1>  -0.6500 
 15 O       -1.5750    -3.5780     1.7970 O.2   1 <1>  -0.6500 
 16 C        0.7110    -4.3170     0.5560 C.ar  1 <1>  -0.0090 
 17 C       -6.4940    -2.0120     0.3700 C.3   1 <1>  -0.1600 
 18 C        1.3350    -4.7940    -0.5920 C.ar  1 <1>  -0.1500 
 19 C        1.5090    -3.7390     1.5370 C.ar  1 <1>  -0.1500 
 20 C        2.7050    -4.6890    -0.7610 C.ar  1 <1>  -0.1500 
 21 C        2.8800    -3.6310     1.3760 C.ar  1 <1>  -0.1500 
 22 C        3.4790    -4.1060     0.2240 C.ar  1 <1>  -0.1500 
 23 H       -2.5780    -2.4000    -1.7650 H     1 <1>   0.0800 
 24 H       -2.5570    -4.5040    -0.7620 H     1 <1>   0.4200 
 25 H       -6.4150    -0.5660    -1.2490 H     1 <1>   0.0800 
 26 H       -5.7600     0.0260     0.2670 H     1 <1>   0.0800 
 27 H       -6.1960    -4.1270     0.7530 H     1 <1>   0.0800 
 28 H       -5.7590    -3.6210    -0.8700 H     1 <1>   0.0800 
 29 H       -7.5140    -2.1150     0.0440 H     1 <1>   0.0800 
 30 H       -6.5270    -1.7880     1.4220 H     1 <1>   0.0800 
 31 H        0.7420    -5.2520    -1.3650 H     1 <1>   0.1500 
 32 H        1.0520    -3.3620     2.4370 H     1 <1>   0.1500 
 33 H        3.1670    -5.0620    -1.6590 H     1 <1>   0.1500 
 34 H        3.4780    -3.1750     2.1470 H     1 <1>   0.1500 
 35 H        4.5450    -4.0230     0.0960 H     1 <1>   0.1500 
@<TRIPOS>BOND
  1   1   2  1   
  2   2   3  1   
  3   2   4  1   
  4   2   5  1   
  5   5   6  1   
  6   5   7  1   
  7   5  23  1   
  8   6   8  2   
  9   6   9  1   
 10   6  10  1   
 11   7  11  am  
 12   7  24  1   
 13   9  12  1   
 14  10  13  1   
 15  11  14  2   
 16  11  15  2   
 17  11  16  1   
 18  12  17  1   
 19  12  25  1   
 20  12  26  1   
 21  13  17  1   
 22  13  27  1   
 23  13  28  1   
 24  16  18  ar  
 25  16  19  ar  
 26  17  29  1   
 27  17  30  1   
 28  18  20  ar  
 29  18  31  1   
 30  19  21  ar  
 31  19  32  1   
 32  20  22  ar  
 33  20  33  1   
 34  21  22  ar  
 35  21  34  1   
 36  22  35  1   
@<TRIPOS>SUBSTRUCTURE
  1 ****   5 GROUP 4 **** **** 0

# MOE 2024.06 (io_trps.svl 2023.06)
