@<TRIPOS>MOLECULE
NONAME
43 44 1 0 0 
SMALL
USER_CHARGES


@<TRIPOS>ATOM
  1 O        0.2030     0.8510     1.4340 O.2   1 <1>  -0.5700 
  2 C       -0.4030     1.5230     0.6200 C.2   1 <1>   0.5440 
  3 N       -1.5800     1.0440     0.1170 N.am  1 <1>  -0.7300 
  4 C        0.1150     2.7950     0.1660 C.ar  1 <1>   0.0860 
  5 C       -2.1610    -0.2710     0.4300 C.3   1 <1>   0.2200 
  6 C        1.4570     2.9420    -0.2260 C.ar  1 <1>   0.1170 
  7 C       -0.7280     3.9060     0.0960 C.ar  1 <1>  -0.1500 
  8 C       -1.7990    -1.2500    -0.6910 C.3   1 <1>  -0.1600 
  9 C       -3.6790    -0.1220     0.5730 C.3   1 <1>  -0.1600 
 10 N        2.3240     1.8400    -0.1600 N.am  1 <1>  -0.5470 
 11 C        1.9000     4.1870    -0.6680 C.ar  1 <1>  -0.1500 
 12 C       -0.2730     5.1310    -0.3490 C.ar  1 <1>  -0.1500 
 13 C       -2.4670    -2.6160    -0.4720 C.3   1 <1>  -0.1600 
 14 C       -4.3500    -1.4860     0.7950 C.3   1 <1>  -0.1600 
 15 C        3.5060     1.5380    -0.7780 C.2   1 <1>   0.5690 
 16 C        1.0480     5.2710    -0.7330 C.ar  1 <1>  -0.1500 
 17 C       -3.9880    -2.4720    -0.3240 C.3   1 <1>  -0.1600 
 18 O        4.0590     2.2680    -1.5660 O.2   1 <1>  -0.5700 
 19 C        4.1550     0.1940    -0.4570 C.3   1 <1>   0.1810 
 20 O        3.2830    -0.6460     0.2600 O.3   1 <1>  -0.5600 
 21 C        3.8290    -1.8780     0.6010 C.3   1 <1>   0.0400 
 22 H       -2.0160     1.5310    -0.6640 H     1 <1>   0.3700 
 23 H       -1.7550    -0.6350     1.3610 H     1 <1>   0.0800 
 24 H       -1.7540     3.8060     0.4040 H     1 <1>   0.1500 
 25 H       -0.7300    -1.3780    -0.7150 H     1 <1>   0.0800 
 26 H       -2.1180    -0.8510    -1.6370 H     1 <1>   0.0800 
 27 H       -4.0830     0.3240    -0.3180 H     1 <1>   0.0800 
 28 H       -3.8950     0.5200     1.4080 H     1 <1>   0.0800 
 29 H        1.9800     1.0620     0.4290 H     1 <1>   0.3700 
 30 H        2.9250     4.3160    -0.9620 H     1 <1>   0.1500 
 31 H       -0.9380     5.9770    -0.3960 H     1 <1>   0.1500 
 32 H       -2.0640    -3.0680     0.4180 H     1 <1>   0.0800 
 33 H       -2.2430    -3.2640    -1.3010 H     1 <1>   0.0800 
 34 H       -5.4180    -1.3600     0.8350 H     1 <1>   0.0800 
 35 H       -4.0310    -1.8890     1.7410 H     1 <1>   0.0800 
 36 H        1.4130     6.2230    -1.0800 H     1 <1>   0.1500 
 37 H       -4.4210    -3.4340    -0.1100 H     1 <1>   0.0800 
 38 H       -4.4050    -2.1240    -1.2540 H     1 <1>   0.0800 
 39 H        5.0360     0.3640     0.1360 H     1 <1>   0.0800 
 40 H        4.4260    -0.2940    -1.3750 H     1 <1>   0.0800 
 41 H        3.0830    -2.4350     1.1400 H     1 <1>   0.0800 
 42 H        4.6900    -1.7250     1.2290 H     1 <1>   0.0800 
 43 H        4.1000    -2.4080    -0.2960 H     1 <1>   0.0800 
@<TRIPOS>BOND
  1   1   2  2   
  2   2   3  am  
  3   2   4  1   
  4   3   5  1   
  5   3  22  1   
  6   4   6  ar  
  7   4   7  ar  
  8   5   8  1   
  9   5   9  1   
 10   5  23  1   
 11   6  10  1   
 12   6  11  ar  
 13   7  12  ar  
 14   7  24  1   
 15   8  13  1   
 16   8  25  1   
 17   8  26  1   
 18   9  14  1   
 19   9  27  1   
 20   9  28  1   
 21  10  15  am  
 22  10  29  1   
 23  11  16  ar  
 24  11  30  1   
 25  12  16  ar  
 26  12  31  1   
 27  13  17  1   
 28  13  32  1   
 29  13  33  1   
 30  14  17  1   
 31  14  34  1   
 32  14  35  1   
 33  15  18  2   
 34  15  19  1   
 35  16  36  1   
 36  17  37  1   
 37  17  38  1   
 38  19  20  1   
 39  19  39  1   
 40  19  40  1   
 41  20  21  1   
 42  21  41  1   
 43  21  42  1   
 44  21  43  1   
@<TRIPOS>SUBSTRUCTURE
  1 ****   2 GROUP 4 **** **** 0

# MOE 2024.06 (io_trps.svl 2023.06)
