@<TRIPOS>MOLECULE
NONAME
45 47 1 0 0 
SMALL
USER_CHARGES


@<TRIPOS>ATOM
  1 CL       4.6280    -2.1300    -2.3460 Cl    1 <1>  -0.1770 
  2 C        2.9910    -2.6590    -2.0330 C.ar  1 <1>   0.1770 
  3 C        2.3760    -2.3290    -0.8330 C.ar  1 <1>  -0.1440 
  4 C        2.3430    -3.4130    -2.9930 C.ar  1 <1>  -0.1500 
  5 C        1.0800    -2.7700    -0.6050 C.ar  1 <1>  -0.1500 
  6 C        3.1070    -1.5030     0.2060 C.3   1 <1>   0.4870 
  7 C        1.0530    -3.8500    -2.7540 C.ar  1 <1>  -0.1500 
  8 C        0.4250    -3.5290    -1.5620 C.ar  1 <1>  -0.1500 
  9 N        4.2330    -2.2970     0.7610 N.4   1 <1>  -0.9590 
 10 C        3.8290    -3.6000     1.3880 C.3   1 <1>   0.3430 
 11 C        5.1470    -1.5190     1.6550 C.3   1 <1>   0.3430 
 12 C        5.0680    -4.4190     1.8340 C.3   1 <1>   0.1100 
 13 C        6.3660    -2.3720     2.0890 C.3   1 <1>   0.1100 
 14 N        6.3510    -3.7450     1.5100 N.3   1 <1>  -0.8100 
 15 C        7.5100    -4.5400     2.0220 C.3   1 <1>   0.1710 
 16 C        8.8720    -3.9690     1.6210 C.2   1 <1>   0.5690 
 17 O        9.6630    -3.7090     2.4910 O.2   1 <1>  -0.5700 
 18 N        9.0880    -3.7490     0.2920 N.am  1 <1>  -0.4940 
 19 C       10.1740    -3.1840    -0.3410 C.2   1 <1>   0.4420 
 20 S       10.1000    -3.0850    -2.0700 S.3   1 <1>  -0.0800 
 21 N       11.2600    -2.6890     0.1270 N.2   1 <1>  -0.3380 
 22 C       11.6560    -2.3340    -2.0180 C.2   1 <1>   0.1980 
 23 N       12.1020    -2.2060    -0.8370 N.2   1 <1>  -0.3380 
 24 C       12.2950    -1.9240    -3.3260 C.3   1 <1>  -0.0600 
 25 H        2.8400    -3.6540    -3.9170 H     1 <1>   0.1500 
 26 H        0.5620    -2.5300     0.3090 H     1 <1>   0.1500 
 27 H        2.4290    -1.2200     0.9930 H     1 <1>   0.0800 
 28 H        3.4840    -0.6060    -0.2590 H     1 <1>   0.0800 
 29 H        0.5350    -4.4380    -3.4940 H     1 <1>   0.1500 
 30 H       -0.5830    -3.8690    -1.3840 H     1 <1>   0.1500 
 31 H        4.8310    -2.5800    -0.0330 H     1 <1>   0.4500 
 32 H        3.2620    -4.1860     0.6830 H     1 <1>   0.0800 
 33 H        3.1990    -3.4190     2.2430 H     1 <1>   0.0800 
 34 H        4.6160    -1.1920     2.5340 H     1 <1>   0.0800 
 35 H        5.5050    -0.6410     1.1420 H     1 <1>   0.0800 
 36 H        5.0370    -5.3800     1.3490 H     1 <1>   0.0800 
 37 H        5.0040    -4.5930     2.8950 H     1 <1>   0.0800 
 38 H        6.3850    -2.4280     3.1650 H     1 <1>   0.0800 
 39 H        7.2630    -1.8570     1.7850 H     1 <1>   0.0800 
 40 H        7.4530    -5.5440     1.6400 H     1 <1>   0.0800 
 41 H        7.4710    -4.5960     3.0960 H     1 <1>   0.0800 
 42 H        8.3090    -3.9930    -0.3130 H     1 <1>   0.3700 
 43 H       12.4370    -2.7880    -3.9490 H     1 <1>   0.0800 
 44 H       13.2500    -1.4690    -3.1360 H     1 <1>   0.0800 
 45 H       11.6660    -1.2170    -3.8350 H     1 <1>   0.0800 
@<TRIPOS>BOND
  1   1   2  1   
  2   2   3  ar  
  3   2   4  ar  
  4   3   5  ar  
  5   3   6  1   
  6   4   7  ar  
  7   4  25  1   
  8   5   8  ar  
  9   5  26  1   
 10   6   9  1   
 11   6  27  1   
 12   6  28  1   
 13   7   8  ar  
 14   7  29  1   
 15   8  30  1   
 16   9  10  1   
 17   9  11  1   
 18   9  31  1   
 19  10  12  1   
 20  10  32  1   
 21  10  33  1   
 22  11  13  1   
 23  11  34  1   
 24  11  35  1   
 25  12  14  1   
 26  12  36  1   
 27  12  37  1   
 28  13  14  1   
 29  13  38  1   
 30  13  39  1   
 31  14  15  1   
 32  15  16  1   
 33  15  40  1   
 34  15  41  1   
 35  16  17  2   
 36  16  18  am  
 37  18  19  1   
 38  18  42  1   
 39  19  20  1   
 40  19  21  2   
 41  20  22  1   
 42  21  23  1   
 43  22  23  2   
 44  22  24  1   
 45  24  43  1   
 46  24  44  1   
 47  24  45  1   
@<TRIPOS>SUBSTRUCTURE
  1 ****  14 GROUP 4 **** **** 0

# MOE 2024.06 (io_trps.svl 2023.06)
