@<TRIPOS>MOLECULE
NONAME
40 41 1 0 0 
SMALL
USER_CHARGES


@<TRIPOS>ATOM
  1 S        0.6060    -1.0130     0.7180 S.o2  1 <1>   1.4470 
  2 O        1.7980    -1.8280     0.8510 O.2   1 <1>  -0.6500 
  3 O       -0.4420    -1.1890     1.7000 O.2   1 <1>  -0.6500 
  4 N       -0.0680    -1.3540    -0.8090 N.am  1 <1>  -0.8490 
  5 C        1.0560     0.7480     0.6820 C.ar  1 <1>  -0.0090 
  6 C        0.9070    -1.8850    -1.8020 C.3   1 <1>   0.2570 
  7 C       -1.2480    -2.2220    -0.7380 C.3   1 <1>   0.1160 
  8 C        0.7630     1.5770    -0.3980 C.ar  1 <1>  -0.1500 
  9 C        1.7110     1.3160     1.7700 C.ar  1 <1>  -0.1500 
 10 C        2.0700    -0.9590    -2.1930 C.2   1 <1>   0.5690 
 11 C        1.1180     2.9150    -0.3950 C.ar  1 <1>  -0.1500 
 12 C        2.0690     2.6530     1.7820 C.ar  1 <1>  -0.1500 
 13 O        1.9740    -0.2880    -3.1930 O.2   1 <1>  -0.5700 
 14 N        3.1880    -0.9370    -1.4230 N.am  1 <1>  -0.7300 
 15 C        1.7720     3.4550     0.6970 C.ar  1 <1>  -0.1500 
 16 C        4.4200    -0.1810    -1.6970 C.3   1 <1>   0.2200 
 17 C        5.6100    -1.1040    -1.4700 C.3   1 <1>  -0.1600 
 18 C        4.6020     0.8810    -0.6220 C.3   1 <1>  -0.1600 
 19 C        5.8390    -1.1220     0.0470 C.3   1 <1>  -0.1600 
 20 C        5.1610     0.1410     0.5970 C.3   1 <1>  -0.1600 
 21 H        0.3800    -2.1050    -2.7140 H     1 <1>   0.0800 
 22 H        1.3180    -2.8110    -1.4420 H     1 <1>   0.0800 
 23 H       -2.0130    -1.7560    -0.1390 H     1 <1>   0.0800 
 24 H       -0.9920    -3.1700    -0.2950 H     1 <1>   0.0800 
 25 H       -1.6530    -2.3870    -1.7220 H     1 <1>   0.0800 
 26 H        0.2540     1.1810    -1.2600 H     1 <1>   0.1500 
 27 H        1.9450     0.7000     2.6220 H     1 <1>   0.1500 
 28 H        0.8840     3.5330    -1.2450 H     1 <1>   0.1500 
 29 H        2.5760     3.0690     2.6360 H     1 <1>   0.1500 
 30 H        3.1850    -1.4280    -0.5190 H     1 <1>   0.3700 
 31 H        2.0480     4.4960     0.7000 H     1 <1>   0.1500 
 32 H        4.4010     0.2370    -2.6910 H     1 <1>   0.0800 
 33 H        6.4710    -0.6720    -1.9480 H     1 <1>   0.0800 
 34 H        5.4470    -2.0870    -1.8780 H     1 <1>   0.0800 
 35 H        3.6900     1.4090    -0.4130 H     1 <1>   0.0800 
 36 H        5.3330     1.5920    -0.9660 H     1 <1>   0.0800 
 37 H        6.8910    -1.1330     0.2750 H     1 <1>   0.0800 
 38 H        5.3800    -1.9950     0.4800 H     1 <1>   0.0800 
 39 H        4.3540    -0.1410     1.2520 H     1 <1>   0.0800 
 40 H        5.8520     0.7590     1.1420 H     1 <1>   0.0800 
@<TRIPOS>BOND
  1   1   2  2   
  2   1   3  2   
  3   1   4  am  
  4   1   5  1   
  5   4   6  1   
  6   4   7  1   
  7   5   8  ar  
  8   5   9  ar  
  9   6  10  1   
 10   6  21  1   
 11   6  22  1   
 12   7  23  1   
 13   7  24  1   
 14   7  25  1   
 15   8  11  ar  
 16   8  26  1   
 17   9  12  ar  
 18   9  27  1   
 19  10  13  2   
 20  10  14  am  
 21  11  15  ar  
 22  11  28  1   
 23  12  15  ar  
 24  12  29  1   
 25  14  16  1   
 26  14  30  1   
 27  15  31  1   
 28  16  17  1   
 29  16  18  1   
 30  16  32  1   
 31  17  19  1   
 32  17  33  1   
 33  17  34  1   
 34  18  20  1   
 35  18  35  1   
 36  18  36  1   
 37  19  20  1   
 38  19  37  1   
 39  19  38  1   
 40  20  39  1   
 41  20  40  1   
@<TRIPOS>SUBSTRUCTURE
  1 ****   5 GROUP 4 **** **** 0

# MOE 2024.06 (io_trps.svl 2023.06)
