@<TRIPOS>MOLECULE
NONAME
30 32 1 0 0 
SMALL
USER_CHARGES


@<TRIPOS>ATOM
  1 BR      -0.3610    -1.1120     0.9550 Br    1 <1>  -0.1110 
  2 C        1.4530    -1.3820     0.3670 C.ar  1 <1>   0.1110 
  3 C        2.4800    -0.8590     1.1220 C.ar  1 <1>  -0.1500 
  4 C        1.6590    -2.1030    -0.8110 C.ar  1 <1>  -0.1500 
  5 C        3.7850    -1.0700     0.6710 C.ar  1 <1>   0.0000 
  6 C        2.9520    -2.3080    -1.2510 C.ar  1 <1>  -0.1500 
  7 C        3.9970    -1.7840    -0.4960 C.ar  1 <1>   0.1400 
  8 C        5.0730    -0.7270     1.1150 C.2   1 <1>  -0.1500 
  9 O        5.3000    -1.8720    -0.7520 O.3   1 <1>  -0.2800 
 10 C        5.9650    -1.2300     0.2220 C.2   1 <1>   0.0550 
 11 C        7.4130    -1.1640     0.1980 C.2   1 <1>   0.7150 
 12 O        8.0660    -2.1350    -0.1410 O.2   1 <1>  -0.5700 
 13 N        8.0850    -0.0150     0.5670 N.am  1 <1>  -0.6600 
 14 C        7.5010     1.3550     0.4500 C.3   1 <1>   0.1400 
 15 C        9.5590    -0.0050     0.8170 C.3   1 <1>   0.1400 
 16 C        8.3380     2.2220    -0.5060 C.3   1 <1>   0.1200 
 17 C       10.2690     0.9360    -0.1680 C.3   1 <1>   0.1200 
 18 O        9.6860     2.2090    -0.1360 O.3   1 <1>  -0.5600 
 19 H        2.2910    -0.3100     2.0250 H     1 <1>   0.1500 
 20 H        0.8150    -2.4870    -1.3560 H     1 <1>   0.1500 
 21 H        3.1690    -2.8570    -2.1490 H     1 <1>   0.1500 
 22 H        5.2770    -0.1710     2.0110 H     1 <1>   0.1500 
 23 H        7.4830     1.8170     1.4220 H     1 <1>   0.0800 
 24 H        6.4930     1.3130     0.0800 H     1 <1>   0.0800 
 25 H        9.9730    -0.9940     0.7250 H     1 <1>   0.0800 
 26 H        9.7440     0.3330     1.8210 H     1 <1>   0.0800 
 27 H        8.0000     3.2430    -0.4760 H     1 <1>   0.0800 
 28 H        8.2550     1.8610    -1.5170 H     1 <1>   0.0800 
 29 H       10.2080     0.5500    -1.1710 H     1 <1>   0.0800 
 30 H       11.3060     1.0410     0.0990 H     1 <1>   0.0800 
@<TRIPOS>BOND
  1   1   2  1   
  2   2   3  ar  
  3   2   4  ar  
  4   3   5  ar  
  5   3  19  1   
  6   4   6  ar  
  7   4  20  1   
  8   5   7  ar  
  9   5   8  1   
 10   6   7  ar  
 11   6  21  1   
 12   7   9  1   
 13   8  10  2   
 14   8  22  1   
 15   9  10  1   
 16  10  11  1   
 17  11  12  2   
 18  11  13  am  
 19  13  14  1   
 20  13  15  1   
 21  14  16  1   
 22  14  23  1   
 23  14  24  1   
 24  15  17  1   
 25  15  25  1   
 26  15  26  1   
 27  16  18  1   
 28  16  27  1   
 29  16  28  1   
 30  17  18  1   
 31  17  29  1   
 32  17  30  1   
@<TRIPOS>SUBSTRUCTURE
  1 ****  10 GROUP 4 **** **** 0

# MOE 2024.06 (io_trps.svl 2023.06)
