@<TRIPOS>MOLECULE
NONAME
24 24 1 0 0 
SMALL
USER_CHARGES


@<TRIPOS>ATOM
  1 O        0.0550    -0.1780    -0.0430 O.2   1 <1>  -0.5700 
  2 C        0.3460    -1.3620    -0.0230 C.2   1 <1>   0.7060 
  3 O        1.6440    -1.6970     0.0150 O.3   1 <1>  -0.4300 
  4 C       -0.6320    -2.4040    -0.0390 C.2   1 <1>  -0.1240 
  5 C        2.6540    -0.7140     0.0310 C.3   1 <1>   0.1200 
  6 C       -0.4890    -3.7470    -0.0320 C.2   1 <1>  -0.0380 
  7 C       -2.1020    -2.0320    -0.0820 C.3   1 <1>  -0.0220 
  8 C        4.0040    -1.4230     0.0740 C.3   1 <1>  -0.2400 
  9 N        0.6660    -4.4740    -0.0080 N.pl3 1 <1>  -0.9000 
 10 C       -1.8090    -4.4750    -0.0640 C.3   1 <1>  -0.0220 
 11 C       -2.8480    -3.3610     0.1180 C.3   1 <1>  -0.1600 
 12 H        2.5130    -0.0960     0.9020 H     1 <1>   0.0800 
 13 H        2.5590    -0.1130    -0.8580 H     1 <1>   0.0800 
 14 H       -2.3360    -1.6010    -1.0390 H     1 <1>   0.0800 
 15 H       -2.3480    -1.3300     0.6960 H     1 <1>   0.0800 
 16 H        4.0770    -2.0260     0.9610 H     1 <1>   0.0800 
 17 H        4.7940    -0.6950     0.0880 H     1 <1>   0.0800 
 18 H        4.1230    -2.0430    -0.7960 H     1 <1>   0.0800 
 19 H        1.5840    -4.0070     0.0130 H     1 <1>   0.4000 
 20 H        0.7070    -5.4980    -0.0070 H     1 <1>   0.4000 
 21 H       -1.8720    -5.1980     0.7290 H     1 <1>   0.0800 
 22 H       -1.9290    -4.9630    -1.0150 H     1 <1>   0.0800 
 23 H       -3.6640    -3.4640    -0.5770 H     1 <1>   0.0800 
 24 H       -3.2350    -3.4000     1.1210 H     1 <1>   0.0800 
@<TRIPOS>BOND
  1   1   2  2   
  2   2   3  1   
  3   2   4  1   
  4   3   5  1   
  5   4   6  2   
  6   4   7  1   
  7   5   8  1   
  8   5  12  1   
  9   5  13  1   
 10   6   9  1   
 11   6  10  1   
 12   7  11  1   
 13   7  14  1   
 14   7  15  1   
 15   8  16  1   
 16   8  17  1   
 17   8  18  1   
 18   9  19  1   
 19   9  20  1   
 20  10  11  1   
 21  10  21  1   
 22  10  22  1   
 23  11  23  1   
 24  11  24  1   
@<TRIPOS>SUBSTRUCTURE
  1 ****   4 GROUP 4 **** **** 0

# MOE 2024.06 (io_trps.svl 2023.06)
