@<TRIPOS>MOLECULE
NONAME
40 40 1 0 0 
SMALL
USER_CHARGES


@<TRIPOS>ATOM
  1 O       -0.1660    -0.2710     0.3740 O.3   1 <1>  -0.6800 
  2 C        0.0260    -1.6380     0.6190 C.3   1 <1>   0.2000 
  3 C        1.3390    -2.1620    -0.0330 C.3   1 <1>   0.3430 
  4 C       -1.2140    -2.4030     0.0860 C.3   1 <1>   0.3430 
  5 N        2.5570    -1.3000     0.1780 N.4   1 <1>  -0.9590 
  6 N       -2.4730    -1.6290     0.3190 N.4   1 <1>  -0.9060 
  7 C        2.6360    -0.1780    -0.8150 C.3   1 <1>   0.3430 
  8 C        3.8060    -2.1220     0.1160 C.3   1 <1>   0.3430 
  9 C       -3.6300    -2.0990    -0.4740 C.3   1 <1>   0.3430 
 10 C        3.8080     0.7380    -0.4630 C.3   1 <1>  -0.1600 
 11 C        5.0100    -1.2570     0.4910 C.3   1 <1>  -0.1600 
 12 C       -4.8120    -1.1950    -0.1620 C.3   1 <1>  -0.2400 
 13 C        5.1350    -0.0320    -0.4260 C.3   1 <1>  -0.0800 
 14 C        6.2760     0.8780     0.0400 C.3   1 <1>  -0.2400 
 15 H        0.2920     0.2950     1.0360 H     1 <1>   0.4000 
 16 H        0.0810    -1.7730     1.6860 H     1 <1>   0.0800 
 17 H        1.1800    -2.2860    -1.0920 H     1 <1>   0.0800 
 18 H        1.5340    -3.1440     0.3690 H     1 <1>   0.0800 
 19 H       -1.2800    -3.3750     0.5490 H     1 <1>   0.0800 
 20 H       -1.0900    -2.5530    -0.9740 H     1 <1>   0.0800 
 21 H        2.5450    -0.8770     1.1150 H     1 <1>   0.4500 
 22 H       -2.2650    -0.6460     0.0750 H     1 <1>   0.4500 
 23 H       -2.7290    -1.6160     1.3150 H     1 <1>   0.4500 
 24 H        1.7250     0.3970    -0.8150 H     1 <1>   0.0800 
 25 H        2.7810    -0.5760    -1.8070 H     1 <1>   0.0800 
 26 H        3.9430    -2.5120    -0.8810 H     1 <1>   0.0800 
 27 H        3.7420    -2.9530     0.8000 H     1 <1>   0.0800 
 28 H       -3.8740    -3.1190    -0.2170 H     1 <1>   0.0800 
 29 H       -3.4060    -2.0530    -1.5290 H     1 <1>   0.0800 
 30 H        3.6220     1.2110     0.4860 H     1 <1>   0.0800 
 31 H        3.8720     1.5190    -1.2020 H     1 <1>   0.0800 
 32 H        5.9040    -1.8530     0.4090 H     1 <1>   0.0800 
 33 H        4.9240    -0.9500     1.5180 H     1 <1>   0.0800 
 34 H       -5.0760    -1.2460     0.8790 H     1 <1>   0.0800 
 35 H       -5.6650    -1.5190    -0.7330 H     1 <1>   0.0800 
 36 H       -4.6030    -0.1760    -0.4350 H     1 <1>   0.0800 
 37 H        5.3650    -0.3710    -1.4240 H     1 <1>   0.0800 
 38 H        6.0980     1.2460     1.0360 H     1 <1>   0.0800 
 39 H        6.3780     1.7210    -0.6210 H     1 <1>   0.0800 
 40 H        7.2090     0.3410     0.0390 H     1 <1>   0.0800 
@<TRIPOS>BOND
  1   1   2  1   
  2   1  15  1   
  3   2   3  1   
  4   2   4  1   
  5   2  16  1   
  6   3   5  1   
  7   3  17  1   
  8   3  18  1   
  9   4   6  1   
 10   4  19  1   
 11   4  20  1   
 12   5   7  1   
 13   5   8  1   
 14   5  21  1   
 15   6   9  1   
 16   6  22  1   
 17   6  23  1   
 18   7  10  1   
 19   7  24  1   
 20   7  25  1   
 21   8  11  1   
 22   8  26  1   
 23   8  27  1   
 24   9  12  1   
 25   9  28  1   
 26   9  29  1   
 27  10  13  1   
 28  10  30  1   
 29  10  31  1   
 30  11  13  1   
 31  11  32  1   
 32  11  33  1   
 33  12  34  1   
 34  12  35  1   
 35  12  36  1   
 36  13  14  1   
 37  13  37  1   
 38  14  38  1   
 39  14  39  1   
 40  14  40  1   
@<TRIPOS>SUBSTRUCTURE
  1 ****   3 GROUP 4 **** **** 0

# MOE 2024.06 (io_trps.svl 2023.06)
