@<TRIPOS>MOLECULE
NONAME
51 53 1 0 0 
SMALL
USER_CHARGES


@<TRIPOS>ATOM
  1 O       -1.7850     0.6240     1.6090 O.3   1 <1>  -0.3630 
  2 C       -2.3250     0.9240     0.3920 C.ar  1 <1>   0.0830 
  3 C       -0.3960     0.6420     1.8560 C.3   1 <1>   0.0400 
  4 C       -1.7010     1.6160    -0.6610 C.ar  1 <1>   0.0830 
  5 C       -3.6260     0.4790     0.2380 C.ar  1 <1>  -0.1500 
  6 O       -0.4270     2.0840    -0.5180 O.3   1 <1>  -0.3630 
  7 C       -2.4150     1.8250    -1.8390 C.ar  1 <1>  -0.1500 
  8 C       -4.3350     0.7060    -0.9310 C.ar  1 <1>  -0.1430 
  9 C        0.2870     2.6880    -1.5760 C.3   1 <1>   0.0400 
 10 C       -3.7170     1.3760    -1.9740 C.ar  1 <1>  -0.1500 
 11 C       -5.7710     0.2350    -1.0520 C.3   1 <1>   0.4860 
 12 N       -6.6050     1.0260    -0.1090 N.4   1 <1>  -0.9590 
 13 C       -8.0230     0.5190    -0.0420 C.3   1 <1>   0.3430 
 14 C       -6.5690     2.5040    -0.4260 C.3   1 <1>   0.3430 
 15 C       -8.8910     1.3140     0.9550 C.3   1 <1>   0.2090 
 16 C       -7.4140     3.3460     0.5520 C.3   1 <1>   0.2090 
 17 N       -8.7860     2.7830     0.7270 N.pl3 1 <1>  -0.8380 
 18 C       -9.8410     3.4100     0.0660 C.ar  1 <1>   0.1000 
 19 C      -10.8060     4.1240     0.7770 C.ar  1 <1>  -0.1430 
 20 C       -9.9480     3.3280    -1.3190 C.ar  1 <1>  -0.1500 
 21 C      -11.8500     4.7340     0.1010 C.ar  1 <1>  -0.1500 
 22 C      -10.7270     4.2440     2.2930 C.3   1 <1>  -0.0970 
 23 C      -10.9910     3.9400    -1.9880 C.ar  1 <1>  -0.1500 
 24 C      -11.9450     4.6440    -1.2770 C.ar  1 <1>  -0.1500 
 25 H       -0.2180     0.1670     2.8040 H     1 <1>   0.0800 
 26 H       -0.0620     1.6630     1.8930 H     1 <1>   0.0800 
 27 H        0.1070     0.1010     1.0740 H     1 <1>   0.0800 
 28 H       -4.0670    -0.0550     1.0610 H     1 <1>   0.1500 
 29 H       -1.9740     2.3420    -2.6710 H     1 <1>   0.1500 
 30 H        1.2750     2.9190    -1.2210 H     1 <1>   0.0800 
 31 H       -0.2150     3.5940    -1.8650 H     1 <1>   0.0800 
 32 H        0.3480     1.9970    -2.3980 H     1 <1>   0.0800 
 33 H       -4.2350     1.5570    -2.9010 H     1 <1>   0.1500 
 34 H       -5.8220    -0.8130    -0.8080 H     1 <1>   0.0800 
 35 H       -6.1190     0.3700    -2.0630 H     1 <1>   0.0800 
 36 H       -6.1820     0.9240     0.8220 H     1 <1>   0.4500 
 37 H       -8.0300    -0.5200     0.2430 H     1 <1>   0.0800 
 38 H       -8.4790     0.5980    -1.0150 H     1 <1>   0.0800 
 39 H       -6.9470     2.6680    -1.4210 H     1 <1>   0.0800 
 40 H       -5.5520     2.8620    -0.3990 H     1 <1>   0.0800 
 41 H       -8.5870     1.0930     1.9630 H     1 <1>   0.0800 
 42 H       -9.9200     1.0110     0.8530 H     1 <1>   0.0800 
 43 H       -7.4860     4.3560     0.1840 H     1 <1>   0.0800 
 44 H       -6.9270     3.3860     1.5110 H     1 <1>   0.0800 
 45 H       -9.2160     2.7850    -1.8800 H     1 <1>   0.1500 
 46 H      -12.5980     5.2860     0.6420 H     1 <1>   0.1500 
 47 H      -10.8000     3.2690     2.7390 H     1 <1>   0.0800 
 48 H      -11.5200     4.8580     2.6770 H     1 <1>   0.0800 
 49 H       -9.7870     4.6840     2.5740 H     1 <1>   0.0800 
 50 H      -11.0670     3.8720    -3.0600 H     1 <1>   0.1500 
 51 H      -12.7600     5.1230    -1.7920 H     1 <1>   0.1500 
@<TRIPOS>BOND
  1   1   2  1   
  2   1   3  1   
  3   2   4  ar  
  4   2   5  ar  
  5   3  25  1   
  6   3  26  1   
  7   3  27  1   
  8   4   6  1   
  9   4   7  ar  
 10   5   8  ar  
 11   5  28  1   
 12   6   9  1   
 13   7  10  ar  
 14   7  29  1   
 15   8  10  ar  
 16   8  11  1   
 17   9  30  1   
 18   9  31  1   
 19   9  32  1   
 20  10  33  1   
 21  11  12  1   
 22  11  34  1   
 23  11  35  1   
 24  12  13  1   
 25  12  14  1   
 26  12  36  1   
 27  13  15  1   
 28  13  37  1   
 29  13  38  1   
 30  14  16  1   
 31  14  39  1   
 32  14  40  1   
 33  15  17  1   
 34  15  41  1   
 35  15  42  1   
 36  16  17  1   
 37  16  43  1   
 38  16  44  1   
 39  17  18  1   
 40  18  19  ar  
 41  18  20  ar  
 42  19  21  ar  
 43  19  22  1   
 44  20  23  ar  
 45  20  45  1   
 46  21  24  ar  
 47  21  46  1   
 48  22  47  1   
 49  22  48  1   
 50  22  49  1   
 51  23  24  ar  
 52  23  50  1   
 53  24  51  1   
@<TRIPOS>SUBSTRUCTURE
  1 ****  14 GROUP 4 **** **** 0

# MOE 2024.06 (io_trps.svl 2023.06)
