@<TRIPOS>MOLECULE
NONAME
43 45 1 0 0 
SMALL
USER_CHARGES


@<TRIPOS>ATOM
  1 S       -0.1660     0.1020    -0.0160 S.o2  1 <1>   1.4470 
  2 O       -0.0970    -0.5760     1.2590 O.2   1 <1>  -0.6500 
  3 O        0.0530    -0.6740    -1.2170 O.2   1 <1>  -0.6500 
  4 N       -1.7210     0.7620    -0.1520 N.am  1 <1>  -0.8490 
  5 C        0.9230     1.5470    -0.0970 C.ar  1 <1>  -0.0090 
  6 C       -2.6920    -0.2530    -0.6140 C.3   1 <1>   0.1960 
  7 C       -2.2070     1.3450     1.1180 C.3   1 <1>   0.1960 
  8 C        1.2980     2.2660     1.0320 C.ar  1 <1>   0.1900 
  9 C        1.4050     2.0060    -1.3200 C.ar  1 <1>  -0.1500 
 10 C       -4.1080     0.3250    -0.7960 C.3   1 <1>   0.2090 
 11 C       -3.6060     1.9730     0.9770 C.3   1 <1>   0.2090 
 12 F        0.8620     1.9030     2.2070 F     1 <1>  -0.1900 
 13 C        2.1210     3.3820     0.9920 C.ar  1 <1>  -0.1500 
 14 C        2.2240     3.1200    -1.3650 C.ar  1 <1>   0.1900 
 15 N       -4.5950     0.9870     0.4510 N.pl3 1 <1>  -0.8380 
 16 C        2.5960     3.8200    -0.2320 C.ar  1 <1>  -0.1500 
 17 F        2.6630     3.5280    -2.5240 F     1 <1>  -0.1900 
 18 C       -5.9130     1.4260     0.4170 C.ar  1 <1>   0.1000 
 19 C       -6.3200     2.4480    -0.4320 C.ar  1 <1>  -0.1500 
 20 C       -6.8530     0.8360     1.2510 C.ar  1 <1>  -0.1500 
 21 C       -7.6350     2.8760    -0.4540 C.ar  1 <1>   0.0820 
 22 C       -8.1710     1.2550     1.2390 C.ar  1 <1>  -0.1500 
 23 O       -7.9340     3.8800    -1.3180 O.3   1 <1>  -0.3630 
 24 C       -8.5670     2.2740     0.3890 C.ar  1 <1>  -0.1500 
 25 C       -9.2450     4.3890    -1.4170 C.3   1 <1>   0.0400 
 26 H       -2.7350    -1.0650     0.0930 H     1 <1>   0.0800 
 27 H       -2.3740    -0.6560    -1.5600 H     1 <1>   0.0800 
 28 H       -1.5300     2.1100     1.4490 H     1 <1>   0.0800 
 29 H       -2.2500     0.5860     1.8820 H     1 <1>   0.0800 
 30 H        1.1480     1.5000    -2.2350 H     1 <1>   0.1500 
 31 H       -4.7850    -0.4680    -1.0610 H     1 <1>   0.0800 
 32 H       -4.0950     1.0370    -1.6030 H     1 <1>   0.0800 
 33 H       -3.5500     2.8180     0.3140 H     1 <1>   0.0800 
 34 H       -3.9390     2.3230     1.9390 H     1 <1>   0.0800 
 35 H        2.3800     3.8940     1.9020 H     1 <1>   0.1500 
 36 H        3.2370     4.6810    -0.3110 H     1 <1>   0.1500 
 37 H       -5.6090     2.9160    -1.0830 H     1 <1>   0.1500 
 38 H       -6.5350     0.0470     1.9060 H     1 <1>   0.1500 
 39 H       -8.8870     0.7880     1.8910 H     1 <1>   0.1500 
 40 H       -9.5950     2.5820     0.3970 H     1 <1>   0.1500 
 41 H       -9.2440     5.1700    -2.1560 H     1 <1>   0.0800 
 42 H       -9.5360     4.7900    -0.4630 H     1 <1>   0.0800 
 43 H       -9.9040     3.5970    -1.7220 H     1 <1>   0.0800 
@<TRIPOS>BOND
  1   1   2  2   
  2   1   3  2   
  3   1   4  am  
  4   1   5  1   
  5   4   6  1   
  6   4   7  1   
  7   5   8  ar  
  8   5   9  ar  
  9   6  10  1   
 10   6  26  1   
 11   6  27  1   
 12   7  11  1   
 13   7  28  1   
 14   7  29  1   
 15   8  12  1   
 16   8  13  ar  
 17   9  14  ar  
 18   9  30  1   
 19  10  15  1   
 20  10  31  1   
 21  10  32  1   
 22  11  15  1   
 23  11  33  1   
 24  11  34  1   
 25  13  16  ar  
 26  13  35  1   
 27  14  16  ar  
 28  14  17  1   
 29  15  18  1   
 30  16  36  1   
 31  18  19  ar  
 32  18  20  ar  
 33  19  21  ar  
 34  19  37  1   
 35  20  22  ar  
 36  20  38  1   
 37  21  23  1   
 38  21  24  ar  
 39  22  24  ar  
 40  22  39  1   
 41  23  25  1   
 42  24  40  1   
 43  25  41  1   
 44  25  42  1   
 45  25  43  1   
@<TRIPOS>SUBSTRUCTURE
  1 ****   7 GROUP 4 **** **** 0

# MOE 2024.06 (io_trps.svl 2023.06)
