@<TRIPOS>MOLECULE
NONAME
46 49 1 0 0 
SMALL
USER_CHARGES


@<TRIPOS>ATOM
  1 O       -1.9990     3.2550    -0.6520 O.3   1 <1>  -0.6800 
  2 C       -2.6650     2.4180     0.2440 C.3   1 <1>   0.2800 
  3 C       -3.9300     3.1570     0.7550 C.3   1 <1>  -0.0800 
  4 C       -3.1160     1.1450    -0.5260 C.3   1 <1>  -0.0800 
  5 C       -1.6770     2.1200     1.4100 C.3   1 <1>   0.3430 
  6 C       -4.7230     2.2300     1.7070 C.3   1 <1>  -0.1600 
  7 C       -4.8620     3.5350    -0.4220 C.3   1 <1>  -0.1600 
  8 C       -3.9140     0.2130     0.4170 C.3   1 <1>  -0.1600 
  9 C       -4.0450     1.5210    -1.7060 C.3   1 <1>  -0.1600 
 10 N       -0.2490     2.2090     0.9750 N.4   1 <1>  -0.9060 
 11 C       -5.1540     0.9500     0.9620 C.3   1 <1>  -0.0800 
 12 C       -5.2900     2.2670    -1.1860 C.3   1 <1>  -0.0800 
 13 C        0.3120     0.9900     0.3710 C.3   1 <1>   0.4860 
 14 C       -6.0560     1.3430    -0.2220 C.3   1 <1>  -0.1600 
 15 C        1.7400     1.3130     0.0040 C.ar  1 <1>  -0.1440 
 16 C        2.7780     0.9720     0.8610 C.ar  1 <1>  -0.1500 
 17 C        2.0220     1.9630    -1.1890 C.ar  1 <1>  -0.1500 
 18 C        4.0840     1.2840     0.5280 C.ar  1 <1>  -0.1500 
 19 C        3.3300     2.2740    -1.5190 C.ar  1 <1>  -0.1500 
 20 C        4.3600     1.9360    -0.6610 C.ar  1 <1>  -0.1500 
 21 H       -2.6420     3.5370    -1.3380 H     1 <1>   0.4000 
 22 H       -3.6450     4.0490     1.2870 H     1 <1>   0.0800 
 23 H       -2.2650     0.6120    -0.9070 H     1 <1>   0.0800 
 24 H       -1.8870     1.1630     1.8530 H     1 <1>   0.0800 
 25 H       -1.8500     2.8650     2.1690 H     1 <1>   0.0800 
 26 H       -4.1430     1.9720     2.5740 H     1 <1>   0.0800 
 27 H       -5.6000     2.7460     2.0620 H     1 <1>   0.0800 
 28 H       -4.3800     4.2250    -1.0920 H     1 <1>   0.0800 
 29 H       -5.7370     4.0340    -0.0420 H     1 <1>   0.0800 
 30 H       -3.3100    -0.1370     1.2330 H     1 <1>   0.0800 
 31 H       -4.2350    -0.6600    -0.1270 H     1 <1>   0.0800 
 32 H       -4.3560     0.6280    -2.2210 H     1 <1>   0.0800 
 33 H       -3.5270     2.1280    -2.4270 H     1 <1>   0.0800 
 34 H        0.3780     2.5440     1.7130 H     1 <1>   0.4500 
 35 H       -0.2520     2.9340     0.2350 H     1 <1>   0.4500 
 36 H       -5.7010     0.3050     1.6300 H     1 <1>   0.0800 
 37 H       -5.9280     2.5350    -2.0110 H     1 <1>   0.0800 
 38 H       -0.2370     0.7170    -0.5140 H     1 <1>   0.0800 
 39 H        0.2860     0.1710     1.0720 H     1 <1>   0.0800 
 40 H       -6.9380     1.8440     0.1410 H     1 <1>   0.0800 
 41 H       -6.3820     0.4600    -0.7440 H     1 <1>   0.0800 
 42 H        2.5900     0.4610     1.7900 H     1 <1>   0.1500 
 43 H        1.2370     2.2340    -1.8750 H     1 <1>   0.1500 
 44 H        4.8920     1.0190     1.1910 H     1 <1>   0.1500 
 45 H        3.5500     2.7780    -2.4450 H     1 <1>   0.1500 
 46 H        5.3780     2.1770    -0.9190 H     1 <1>   0.1500 
@<TRIPOS>BOND
  1   1   2  1   
  2   1  21  1   
  3   2   3  1   
  4   2   4  1   
  5   2   5  1   
  6   3   6  1   
  7   3   7  1   
  8   3  22  1   
  9   4   8  1   
 10   4   9  1   
 11   4  23  1   
 12   5  10  1   
 13   5  24  1   
 14   5  25  1   
 15   6  11  1   
 16   6  26  1   
 17   6  27  1   
 18   7  12  1   
 19   7  28  1   
 20   7  29  1   
 21   8  11  1   
 22   8  30  1   
 23   8  31  1   
 24   9  12  1   
 25   9  32  1   
 26   9  33  1   
 27  10  13  1   
 28  10  34  1   
 29  10  35  1   
 30  11  14  1   
 31  11  36  1   
 32  12  14  1   
 33  12  37  1   
 34  13  15  1   
 35  13  38  1   
 36  13  39  1   
 37  14  40  1   
 38  14  41  1   
 39  15  16  ar  
 40  15  17  ar  
 41  16  18  ar  
 42  16  42  1   
 43  17  19  ar  
 44  17  43  1   
 45  18  20  ar  
 46  18  44  1   
 47  19  20  ar  
 48  19  45  1   
 49  20  46  1   
@<TRIPOS>SUBSTRUCTURE
  1 ****   2 GROUP 4 **** **** 0

# MOE 2024.06 (io_trps.svl 2023.06)
