@<TRIPOS>MOLECULE
NONAME
43 44 1 0 0 
SMALL
USER_CHARGES


@<TRIPOS>ATOM
  1 S       -0.7220    -0.7940     1.0030 S.o2  1 <1>   1.4470 
  2 O        0.4490    -1.5940     1.2930 O.2   1 <1>  -0.6500 
  3 O       -1.3580    -0.0460     2.0660 O.2   1 <1>  -0.6500 
  4 N       -0.2790     0.3180    -0.2030 N.am  1 <1>  -0.8490 
  5 C       -1.9910    -1.8090     0.1930 C.ar  1 <1>  -0.0090 
  6 C        0.4350     1.4710     0.3500 C.3   1 <1>   0.1160 
  7 C        0.5030    -0.2870    -1.2850 C.3   1 <1>   0.1160 
  8 C       -3.1350    -1.2220    -0.3280 C.ar  1 <1>  -0.1500 
  9 C       -1.8600    -3.1880     0.0850 C.ar  1 <1>  -0.1500 
 10 C       -4.1510    -1.9610    -0.9310 C.ar  1 <1>   0.0860 
 11 C       -2.8400    -3.9500    -0.5240 C.ar  1 <1>  -0.1500 
 12 C       -5.3530    -1.3120    -1.4210 C.2   1 <1>   0.5440 
 13 C       -3.9730    -3.3400    -1.0270 C.ar  1 <1>  -0.1500 
 14 O       -5.2940    -0.2260    -1.9630 O.2   1 <1>  -0.5700 
 15 N       -6.6010    -1.8580    -1.2220 N.am  1 <1>  -0.6600 
 16 C       -6.9970    -2.3240     0.1380 C.3   1 <1>   0.1400 
 17 C       -7.7520    -1.3580    -2.0290 C.3   1 <1>   0.1400 
 18 C       -7.7150    -1.1830     0.8930 C.3   1 <1>   0.3430 
 19 C       -8.4370    -0.1970    -1.2850 C.3   1 <1>   0.3430 
 20 N       -8.8650    -0.5970     0.1080 N.4   1 <1>  -0.9590 
 21 C       -9.4560     0.5720     0.8280 C.3   1 <1>   0.2630 
 22 H       -0.1830     1.9750     1.0740 H     1 <1>   0.0800 
 23 H        0.6740     2.1710    -0.4320 H     1 <1>   0.0800 
 24 H        1.3450     1.1530     0.8330 H     1 <1>   0.0800 
 25 H       -0.0430    -1.1050    -1.7250 H     1 <1>   0.0800 
 26 H        1.4440    -0.6580    -0.9110 H     1 <1>   0.0800 
 27 H        0.6940     0.4420    -2.0540 H     1 <1>   0.0800 
 28 H       -3.2410    -0.1510    -0.2610 H     1 <1>   0.1500 
 29 H       -0.9800    -3.6700     0.4810 H     1 <1>   0.1500 
 30 H       -2.7170    -5.0180    -0.6060 H     1 <1>   0.1500 
 31 H       -4.7310    -3.9380    -1.5040 H     1 <1>   0.1500 
 32 H       -6.1300    -2.6270     0.6990 H     1 <1>   0.0800 
 33 H       -7.6460    -3.1780     0.0520 H     1 <1>   0.0800 
 34 H       -8.4510    -2.1570    -2.2040 H     1 <1>   0.0800 
 35 H       -7.4040    -1.0130    -2.9890 H     1 <1>   0.0800 
 36 H       -6.9910    -0.4100     1.0940 H     1 <1>   0.0800 
 37 H       -8.0690    -1.5550     1.8410 H     1 <1>   0.0800 
 38 H       -9.2900     0.1350    -1.8540 H     1 <1>   0.0800 
 39 H       -7.7360     0.6210    -1.2310 H     1 <1>   0.0800 
 40 H       -9.5860    -1.3270     0.0130 H     1 <1>   0.4500 
 41 H       -8.7230     1.3560     0.9320 H     1 <1>   0.0800 
 42 H       -9.7890     0.2790     1.8110 H     1 <1>   0.0800 
 43 H      -10.3000     0.9610     0.2820 H     1 <1>   0.0800 
@<TRIPOS>BOND
  1   1   2  2   
  2   1   3  2   
  3   1   4  am  
  4   1   5  1   
  5   4   6  1   
  6   4   7  1   
  7   5   8  ar  
  8   5   9  ar  
  9   6  22  1   
 10   6  23  1   
 11   6  24  1   
 12   7  25  1   
 13   7  26  1   
 14   7  27  1   
 15   8  10  ar  
 16   8  28  1   
 17   9  11  ar  
 18   9  29  1   
 19  10  12  1   
 20  10  13  ar  
 21  11  13  ar  
 22  11  30  1   
 23  12  14  2   
 24  12  15  am  
 25  13  31  1   
 26  15  16  1   
 27  15  17  1   
 28  16  18  1   
 29  16  32  1   
 30  16  33  1   
 31  17  19  1   
 32  17  34  1   
 33  17  35  1   
 34  18  20  1   
 35  18  36  1   
 36  18  37  1   
 37  19  20  1   
 38  19  38  1   
 39  19  39  1   
 40  20  21  1   
 41  20  40  1   
 42  21  41  1   
 43  21  42  1   
 44  21  43  1   
@<TRIPOS>SUBSTRUCTURE
  1 ****   8 GROUP 4 **** **** 0

# MOE 2024.06 (io_trps.svl 2023.06)
