@<TRIPOS>MOLECULE
NONAME
38 38 1 0 0 
SMALL
USER_CHARGES


@<TRIPOS>ATOM
  1 O      -10.0060     4.2920     0.8710 O.3   1 <1>  -0.3630 
  2 C       -8.6590     4.1570     0.7890 C.ar  1 <1>   0.0830 
  3 C      -10.6810     4.9080    -0.2050 C.3   1 <1>   0.2000 
  4 C       -8.0260     3.3610    -0.1720 C.ar  1 <1>   0.0820 
  5 C       -7.8930     4.8470     1.7130 C.ar  1 <1>  -0.1500 
  6 C      -10.4830     6.4220    -0.1100 C.3   1 <1>  -0.2400 
  7 C      -12.1570     4.5340    -0.0900 C.3   1 <1>  -0.2400 
  8 O       -8.6980     2.6160    -1.0820 O.3   1 <1>  -0.3630 
  9 C       -6.6430     3.3120    -0.2200 C.ar  1 <1>  -0.1500 
 10 C       -6.5110     4.7850     1.6680 C.ar  1 <1>  -0.1500 
 11 C       -9.5020     1.5690    -0.5780 C.3   1 <1>   0.0400 
 12 C       -5.8790     4.0250     0.6930 C.ar  1 <1>  -0.1430 
 13 C       -4.3710     3.9740     0.6170 C.3   1 <1>   0.4860 
 14 N       -3.9700     4.9940    -0.3720 N.4   1 <1>  -0.9060 
 15 C       -2.5120     5.0690    -0.5950 C.3   1 <1>   0.3430 
 16 C       -2.2490     6.1490    -1.6330 C.3   1 <1>  -0.2400 
 17 H      -10.2820     4.5350    -1.1330 H     1 <1>   0.0800 
 18 H       -8.3930     5.4360     2.4630 H     1 <1>   0.1500 
 19 H      -10.8390     6.7870     0.8360 H     1 <1>   0.0800 
 20 H      -11.0300     6.9110    -0.8960 H     1 <1>   0.0800 
 21 H       -9.4430     6.6700    -0.2220 H     1 <1>   0.0800 
 22 H      -12.5590     4.8800     0.8460 H     1 <1>   0.0800 
 23 H      -12.2720     3.4680    -0.1550 H     1 <1>   0.0800 
 24 H      -12.7130     4.9840    -0.8920 H     1 <1>   0.0800 
 25 H       -6.1900     2.6980    -0.9780 H     1 <1>   0.1500 
 26 H       -5.9470     5.3360     2.4020 H     1 <1>   0.1500 
 27 H       -9.9020     1.0210    -1.4120 H     1 <1>   0.0800 
 28 H      -10.3050     1.9800     0.0060 H     1 <1>   0.0800 
 29 H       -8.8930     0.9240     0.0290 H     1 <1>   0.0800 
 30 H       -4.0510     2.9930     0.3030 H     1 <1>   0.0800 
 31 H       -3.9430     4.1910     1.5830 H     1 <1>   0.0800 
 32 H       -4.3350     5.9010    -0.0600 H     1 <1>   0.4500 
 33 H       -4.4580     4.7890    -1.2520 H     1 <1>   0.4500 
 34 H       -2.1390     4.1220    -0.9520 H     1 <1>   0.0800 
 35 H       -2.0050     5.3160     0.3250 H     1 <1>   0.0800 
 36 H       -2.7240     5.9110    -2.5680 H     1 <1>   0.0800 
 37 H       -1.1900     6.2200    -1.8100 H     1 <1>   0.0800 
 38 H       -2.5900     7.1090    -1.2870 H     1 <1>   0.0800 
@<TRIPOS>BOND
  1   1   2  1   
  2   1   3  1   
  3   2   4  ar  
  4   2   5  ar  
  5   3   6  1   
  6   3   7  1   
  7   3  17  1   
  8   4   8  1   
  9   4   9  ar  
 10   5  10  ar  
 11   5  18  1   
 12   6  19  1   
 13   6  20  1   
 14   6  21  1   
 15   7  22  1   
 16   7  23  1   
 17   7  24  1   
 18   8  11  1   
 19   9  12  ar  
 20   9  25  1   
 21  10  12  ar  
 22  10  26  1   
 23  11  27  1   
 24  11  28  1   
 25  11  29  1   
 26  12  13  1   
 27  13  14  1   
 28  13  30  1   
 29  13  31  1   
 30  14  15  1   
 31  14  32  1   
 32  14  33  1   
 33  15  16  1   
 34  15  34  1   
 35  15  35  1   
 36  16  36  1   
 37  16  37  1   
 38  16  38  1   
@<TRIPOS>SUBSTRUCTURE
  1 ****   4 GROUP 4 **** **** 0

# MOE 2024.06 (io_trps.svl 2023.06)
