@<TRIPOS>MOLECULE
NONAME
46 48 1 0 0 
SMALL
USER_CHARGES


@<TRIPOS>ATOM
  1 F        0.2420    -0.4760    -0.3850 F     1 <1>  -0.1900 
  2 C        1.4010    -1.0800    -0.3060 C.ar  1 <1>   0.1900 
  3 C        2.3460    -0.5940     0.5770 C.ar  1 <1>  -0.1500 
  4 C        1.6360    -2.1810    -1.1080 C.ar  1 <1>  -0.1500 
  5 C        3.5700    -1.2370     0.6570 C.ar  1 <1>  -0.1500 
  6 C        2.8640    -2.8130    -1.0170 C.ar  1 <1>  -0.1500 
  7 C        3.8390    -2.3500    -0.1390 C.ar  1 <1>   0.1000 
  8 N        5.0620    -3.0080    -0.0730 N.pl3 1 <1>  -0.8380 
  9 C        5.3310    -3.7780     1.1760 C.3   1 <1>   0.2090 
 10 C        6.2390    -2.2720    -0.6150 C.3   1 <1>   0.2090 
 11 C        6.5500    -4.7080     0.9930 C.3   1 <1>   0.3430 
 12 C        7.4490    -3.2170    -0.7780 C.3   1 <1>   0.3430 
 13 N        7.7750    -3.9770     0.4910 N.4   1 <1>  -0.9590 
 14 C        8.9140    -4.9200     0.3130 C.3   1 <1>   0.3430 
 15 C       10.2180    -4.1470     0.1250 C.3   1 <1>  -0.1600 
 16 C       11.4240    -5.0920     0.0690 C.3   1 <1>  -0.0170 
 17 C       12.6880    -4.2790    -0.1390 C.ar  1 <1>  -0.1430 
 18 C       13.1590    -4.0310    -1.4190 C.ar  1 <1>  -0.1500 
 19 C       13.3790    -3.7690     0.9510 C.ar  1 <1>  -0.1500 
 20 C       14.3040    -3.2760    -1.6090 C.ar  1 <1>  -0.1500 
 21 C       14.5230    -3.0140     0.7610 C.ar  1 <1>  -0.1500 
 22 C       14.9860    -2.7670    -0.5190 C.ar  1 <1>  -0.1500 
 23 H        2.1230     0.2650     1.1830 H     1 <1>   0.1500 
 24 H        0.8750    -2.5290    -1.7830 H     1 <1>   0.1500 
 25 H        4.3160    -0.8740     1.3370 H     1 <1>   0.1500 
 26 H        3.0750    -3.6710    -1.6290 H     1 <1>   0.1500 
 27 H        4.4640    -4.3690     1.4200 H     1 <1>   0.0800 
 28 H        5.5070    -3.0970     1.9920 H     1 <1>   0.0800 
 29 H        6.4950    -1.4590     0.0430 H     1 <1>   0.0800 
 30 H        5.9820    -1.8520    -1.5730 H     1 <1>   0.0800 
 31 H        6.2770    -5.4750     0.2870 H     1 <1>   0.0800 
 32 H        6.7680    -5.1870     1.9330 H     1 <1>   0.0800 
 33 H        8.3000    -2.6350    -1.0900 H     1 <1>   0.0800 
 34 H        7.2200    -3.9150    -1.5660 H     1 <1>   0.0800 
 35 H        8.0370    -3.2860     1.2060 H     1 <1>   0.4500 
 36 H        8.7380    -5.5590    -0.5390 H     1 <1>   0.0800 
 37 H        9.0050    -5.5440     1.1880 H     1 <1>   0.0800 
 38 H       10.3600    -3.4640     0.9440 H     1 <1>   0.0800 
 39 H       10.1930    -3.5860    -0.7920 H     1 <1>   0.0800 
 40 H       11.3160    -5.7950    -0.7390 H     1 <1>   0.0800 
 41 H       11.5080    -5.6530     0.9850 H     1 <1>   0.0800 
 42 H       12.6430    -4.4210    -2.2780 H     1 <1>   0.1500 
 43 H       13.0340    -3.9540     1.9520 H     1 <1>   0.1500 
 44 H       14.6670    -3.0870    -2.6040 H     1 <1>   0.1500 
 45 H       15.0570    -2.6200     1.6090 H     1 <1>   0.1500 
 46 H       15.8760    -2.1800    -0.6660 H     1 <1>   0.1500 
@<TRIPOS>BOND
  1   1   2  1   
  2   2   3  ar  
  3   2   4  ar  
  4   3   5  ar  
  5   3  23  1   
  6   4   6  ar  
  7   4  24  1   
  8   5   7  ar  
  9   5  25  1   
 10   6   7  ar  
 11   6  26  1   
 12   7   8  1   
 13   8   9  1   
 14   8  10  1   
 15   9  11  1   
 16   9  27  1   
 17   9  28  1   
 18  10  12  1   
 19  10  29  1   
 20  10  30  1   
 21  11  13  1   
 22  11  31  1   
 23  11  32  1   
 24  12  13  1   
 25  12  33  1   
 26  12  34  1   
 27  13  14  1   
 28  13  35  1   
 29  14  15  1   
 30  14  36  1   
 31  14  37  1   
 32  15  16  1   
 33  15  38  1   
 34  15  39  1   
 35  16  17  1   
 36  16  40  1   
 37  16  41  1   
 38  17  18  ar  
 39  17  19  ar  
 40  18  20  ar  
 41  18  42  1   
 42  19  21  ar  
 43  19  43  1   
 44  20  22  ar  
 45  20  44  1   
 46  21  22  ar  
 47  21  45  1   
 48  22  46  1   
@<TRIPOS>SUBSTRUCTURE
  1 ****  12 GROUP 4 **** **** 0

# MOE 2024.06 (io_trps.svl 2023.06)
