@<TRIPOS>MOLECULE
NONAME
36 37 1 0 0 
SMALL
USER_CHARGES


@<TRIPOS>ATOM
  1 S       -0.4790    -1.2200     0.7140 S.3   1 <1>  -0.4600 
  2 C        1.2990    -1.5410     0.5070 C.3   1 <1>   0.2500 
  3 C       -1.0100    -0.7390    -0.9770 C.3   1 <1>   0.1310 
  4 C        2.0350    -0.2420     0.2250 C.2   1 <1>  -0.0400 
  5 C       -2.4670    -0.2950    -1.0270 C.2   1 <1>   0.5690 
  6 O        3.2620    -0.3220    -0.2550 O.3   1 <1>  -0.2800 
  7 C        1.6750     1.0530     0.3750 C.2   1 <1>  -0.1500 
  8 O       -2.9200     0.0270    -2.0990 O.2   1 <1>  -0.5700 
  9 N       -3.1960    -0.2770     0.1220 N.am  1 <1>  -0.7300 
 10 C        3.7080     0.9070    -0.4240 C.2   1 <1>  -0.0100 
 11 C        2.7740     1.8080    -0.0530 C.2   1 <1>  -0.1500 
 12 C       -4.6060     0.1100     0.3270 C.3   1 <1>   0.2200 
 13 C       -5.5460    -0.8160    -0.4560 C.3   1 <1>  -0.1600 
 14 C       -4.8280     1.5820    -0.0390 C.3   1 <1>  -0.1600 
 15 C       -7.0140    -0.4140    -0.2440 C.3   1 <1>  -0.1600 
 16 C       -6.2950     1.9860     0.1730 C.3   1 <1>  -0.1600 
 17 C       -7.2410     1.0610    -0.6070 C.3   1 <1>  -0.1600 
 18 H        1.4060    -2.2290    -0.3130 H     1 <1>   0.0800 
 19 H        1.6570    -1.9940     1.4140 H     1 <1>   0.0800 
 20 H       -0.8670    -1.5920    -1.6130 H     1 <1>   0.0800 
 21 H       -0.3770     0.0650    -1.3010 H     1 <1>   0.0800 
 22 H        0.7500     1.4580     0.7460 H     1 <1>   0.1500 
 23 H       -2.7060    -0.5810     0.9690 H     1 <1>   0.3700 
 24 H        4.7010     1.0500    -0.8120 H     1 <1>   0.1500 
 25 H        2.8280     2.8820    -0.0680 H     1 <1>   0.1500 
 26 H       -4.8270    -0.0060     1.3750 H     1 <1>   0.0800 
 27 H       -5.4010    -1.8320    -0.1340 H     1 <1>   0.0800 
 28 H       -5.3200    -0.7550    -1.5060 H     1 <1>   0.0800 
 29 H       -4.5730     1.7400    -1.0720 H     1 <1>   0.0800 
 30 H       -4.1940     2.2040     0.5670 H     1 <1>   0.0800 
 31 H       -7.2850    -0.5750     0.7850 H     1 <1>   0.0800 
 32 H       -7.6470    -1.0360    -0.8540 H     1 <1>   0.0800 
 33 H       -6.4390     3.0020    -0.1510 H     1 <1>   0.0800 
 34 H       -6.5330     1.9370     1.2220 H     1 <1>   0.0800 
 35 H       -8.2620     1.3300    -0.4000 H     1 <1>   0.0800 
 36 H       -7.0740     1.1940    -1.6630 H     1 <1>   0.0800 
@<TRIPOS>BOND
  1   1   2  1   
  2   1   3  1   
  3   2   4  1   
  4   2  18  1   
  5   2  19  1   
  6   3   5  1   
  7   3  20  1   
  8   3  21  1   
  9   4   6  1   
 10   4   7  2   
 11   5   8  2   
 12   5   9  am  
 13   6  10  1   
 14   7  11  1   
 15   7  22  1   
 16   9  12  1   
 17   9  23  1   
 18  10  11  2   
 19  10  24  1   
 20  11  25  1   
 21  12  13  1   
 22  12  14  1   
 23  12  26  1   
 24  13  15  1   
 25  13  27  1   
 26  13  28  1   
 27  14  16  1   
 28  14  29  1   
 29  14  30  1   
 30  15  17  1   
 31  15  31  1   
 32  15  32  1   
 33  16  17  1   
 34  16  33  1   
 35  16  34  1   
 36  17  35  1   
 37  17  36  1   
@<TRIPOS>SUBSTRUCTURE
  1 ****   5 GROUP 4 **** **** 0

# MOE 2024.06 (io_trps.svl 2023.06)
