@<TRIPOS>MOLECULE
NONAME
45 46 1 0 0 
SMALL
USER_CHARGES


@<TRIPOS>ATOM
  1 O       -1.5470     0.6820     0.6140 O.2   1 <1>  -0.5700 
  2 C       -1.5100     1.5870    -0.1990 C.2   1 <1>   0.5440 
  3 N       -2.5200     1.6220    -1.1350 N.am  1 <1>  -0.6600 
  4 C       -0.4870     2.6150    -0.1320 C.ar  1 <1>   0.0860 
  5 C       -3.1870     0.3440    -1.5160 C.3   1 <1>   0.1400 
  6 C       -3.4390     2.7950    -1.1570 C.3   1 <1>   0.1400 
  7 C        0.1680     2.9040     1.0680 C.ar  1 <1>  -0.1500 
  8 C       -0.1150     3.3590    -1.2550 C.ar  1 <1>  -0.1500 
  9 C       -4.3730     0.0740    -0.5720 C.3   1 <1>   0.3430 
 10 C       -4.6510     2.5310    -0.2370 C.3   1 <1>   0.3430 
 11 C        1.1290     3.8940     1.1540 C.ar  1 <1>  -0.1500 
 12 C        0.8440     4.3510    -1.1770 C.ar  1 <1>  -0.1500 
 13 N       -5.3510     1.2260    -0.5530 N.4   1 <1>  -0.9590 
 14 C        1.4720     4.6310     0.0250 C.ar  1 <1>   0.0830 
 15 C       -6.5120     0.9290     0.3320 C.3   1 <1>   0.4230 
 16 O        2.3950     5.6180     0.0190 O.3   1 <1>  -0.3620 
 17 C       -7.6560     1.8980    -0.0060 C.3   1 <1>  -0.1600 
 18 C       -6.1210     0.9850     1.8140 C.3   1 <1>  -0.2400 
 19 C        3.1270     5.9580     1.1760 C.3   1 <1>   0.0400 
 20 C       -8.9950     1.4910     0.6290 C.3   1 <1>  -0.2400 
 21 H       -2.4820    -0.4680    -1.4440 H     1 <1>   0.0800 
 22 H       -3.5220     0.3970    -2.5370 H     1 <1>   0.0800 
 23 H       -3.7680     2.9770    -2.1650 H     1 <1>   0.0800 
 24 H       -2.9220     3.6760    -0.8160 H     1 <1>   0.0800 
 25 H       -0.0840     2.3360     1.9480 H     1 <1>   0.1500 
 26 H       -0.5770     3.1540    -2.2040 H     1 <1>   0.1500 
 27 H       -3.9740    -0.0870     0.4170 H     1 <1>   0.0800 
 28 H       -4.8720    -0.8310    -0.8790 H     1 <1>   0.0800 
 29 H       -5.3440     3.3510    -0.3240 H     1 <1>   0.0800 
 30 H       -4.2930     2.5080     0.7790 H     1 <1>   0.0800 
 31 H        1.6010     4.0770     2.1010 H     1 <1>   0.1500 
 32 H        1.1190     4.9170    -2.0490 H     1 <1>   0.1500 
 33 H       -5.7250     1.3080    -1.5050 H     1 <1>   0.4500 
 34 H       -6.8560    -0.0700     0.1130 H     1 <1>   0.0800 
 35 H       -7.8000     1.9190    -1.0730 H     1 <1>   0.0800 
 36 H       -7.4150     2.8940     0.3220 H     1 <1>   0.0800 
 37 H       -5.9250     1.9910     2.1360 H     1 <1>   0.0800 
 38 H       -5.2630     0.3710     2.0200 H     1 <1>   0.0800 
 39 H       -6.9290     0.6070     2.4120 H     1 <1>   0.0800 
 40 H        3.8040     6.7530     0.9210 H     1 <1>   0.0800 
 41 H        3.6820     5.0960     1.5040 H     1 <1>   0.0800 
 42 H        2.4440     6.2900     1.9370 H     1 <1>   0.0800 
 43 H       -9.2650     0.4880     0.3470 H     1 <1>   0.0800 
 44 H       -9.7750     2.1540     0.2930 H     1 <1>   0.0800 
 45 H       -8.9540     1.5510     1.7020 H     1 <1>   0.0800 
@<TRIPOS>BOND
  1   1   2  2   
  2   2   3  am  
  3   2   4  1   
  4   3   5  1   
  5   3   6  1   
  6   4   7  ar  
  7   4   8  ar  
  8   5   9  1   
  9   5  21  1   
 10   5  22  1   
 11   6  10  1   
 12   6  23  1   
 13   6  24  1   
 14   7  11  ar  
 15   7  25  1   
 16   8  12  ar  
 17   8  26  1   
 18   9  13  1   
 19   9  27  1   
 20   9  28  1   
 21  10  13  1   
 22  10  29  1   
 23  10  30  1   
 24  11  14  ar  
 25  11  31  1   
 26  12  14  ar  
 27  12  32  1   
 28  13  15  1   
 29  13  33  1   
 30  14  16  1   
 31  15  17  1   
 32  15  18  1   
 33  15  34  1   
 34  16  19  1   
 35  17  20  1   
 36  17  35  1   
 37  17  36  1   
 38  18  37  1   
 39  18  38  1   
 40  18  39  1   
 41  19  40  1   
 42  19  41  1   
 43  19  42  1   
 44  20  43  1   
 45  20  44  1   
 46  20  45  1   
@<TRIPOS>SUBSTRUCTURE
  1 ****   2 GROUP 4 **** **** 0

# MOE 2024.06 (io_trps.svl 2023.06)
