@<TRIPOS>MOLECULE
NONAME
30 30 1 0 0 
SMALL
USER_CHARGES


@<TRIPOS>ATOM
  1 S        0.2520    -0.1090    -0.1330 S.o2  1 <1>   1.3330 
  2 O        0.7370    -1.4170     0.2320 O.2   1 <1>  -0.6500 
  3 O        0.7150     1.0640     0.5690 O.2   1 <1>  -0.6500 
  4 N       -1.4330    -0.1380    -0.0130 N.am  1 <1>  -0.8490 
  5 C        0.5720     0.1200    -1.8730 C.3   1 <1>  -0.1350 
  6 C       -2.0650    -1.3500    -0.5370 C.3   1 <1>   0.3390 
  7 C       -2.1400     1.1480    -0.2780 C.3   1 <1>   0.2570 
  8 C       -3.5220    -1.4510    -0.1010 C.ar  1 <1>  -0.1440 
  9 C       -2.4370     1.9870     0.9750 C.2   1 <1>   0.5690 
 10 C       -3.8540    -1.3370     1.2450 C.ar  1 <1>  -0.1500 
 11 C       -4.5240    -1.6580    -1.0430 C.ar  1 <1>  -0.1500 
 12 O       -3.5260     2.4870     1.1090 O.2   1 <1>  -0.5700 
 13 N       -1.4860     2.1940     1.9070 N.am  1 <1>  -0.8000 
 14 C       -5.1750    -1.4240     1.6530 C.ar  1 <1>  -0.1500 
 15 C       -5.8480    -1.7490    -0.6480 C.ar  1 <1>  -0.1500 
 16 C       -6.1490    -1.6300     0.6950 C.ar  1 <1>   0.1900 
 17 F       -7.3960    -1.7170     1.0720 F     1 <1>  -0.1900 
 18 H        1.6310     0.1410    -2.0420 H     1 <1>   0.0800 
 19 H        0.1580     1.0450    -2.2180 H     1 <1>   0.0800 
 20 H        0.1560    -0.6880    -2.4420 H     1 <1>   0.0800 
 21 H       -1.5500    -2.2190    -0.1620 H     1 <1>   0.0800 
 22 H       -1.9990    -1.3600    -1.6110 H     1 <1>   0.0800 
 23 H       -3.0840     0.9610    -0.7590 H     1 <1>   0.0800 
 24 H       -1.5630     1.7570    -0.9490 H     1 <1>   0.0800 
 25 H       -3.0810    -1.1720     1.9780 H     1 <1>   0.1500 
 26 H       -4.2840    -1.7510    -2.0880 H     1 <1>   0.1500 
 27 H       -1.6790     2.7450     2.7420 H     1 <1>   0.3700 
 28 H       -0.5340     1.8150     1.7990 H     1 <1>   0.3700 
 29 H       -5.4450    -1.3320     2.6890 H     1 <1>   0.1500 
 30 H       -6.6370    -1.9080    -1.3610 H     1 <1>   0.1500 
@<TRIPOS>BOND
  1   1   2  2   
  2   1   3  2   
  3   1   4  am  
  4   1   5  1   
  5   4   6  1   
  6   4   7  1   
  7   5  18  1   
  8   5  19  1   
  9   5  20  1   
 10   6   8  1   
 11   6  21  1   
 12   6  22  1   
 13   7   9  1   
 14   7  23  1   
 15   7  24  1   
 16   8  10  ar  
 17   8  11  ar  
 18   9  12  2   
 19   9  13  am  
 20  10  14  ar  
 21  10  25  1   
 22  11  15  ar  
 23  11  26  1   
 24  13  27  1   
 25  13  28  1   
 26  14  16  ar  
 27  14  29  1   
 28  15  16  ar  
 29  15  30  1   
 30  16  17  1   
@<TRIPOS>SUBSTRUCTURE
  1 ****   4 GROUP 4 **** **** 0

# MOE 2024.06 (io_trps.svl 2023.06)
