@<TRIPOS>MOLECULE
NONAME
34 34 1 0 0 
SMALL
USER_CHARGES


@<TRIPOS>ATOM
  1 O       -0.6980    -1.4120     1.9250 O.2   1 <1>  -0.5700 
  2 C       -0.5160    -1.4620     0.7340 C.2   1 <1>   0.5690 
  3 N       -1.5280    -1.4350    -0.1800 N.am  1 <1>  -0.5470 
  4 C        0.9090    -1.5760     0.2220 C.3   1 <1>  -0.0990 
  5 C       -2.9080    -1.4570     0.0680 C.ar  1 <1>   0.1170 
  6 C        1.6180    -0.2200     0.0630 C.3   1 <1>  -0.1600 
  7 C       -3.5990    -0.2980     0.4370 C.ar  1 <1>  -0.1430 
  8 C       -3.6100    -2.6550    -0.0820 C.ar  1 <1>  -0.1430 
  9 C        1.0090     0.6460    -1.0450 C.3   1 <1>  -0.2400 
 10 C       -4.9680    -0.3510     0.6390 C.ar  1 <1>  -0.1500 
 11 C       -2.9020     1.0470     0.6240 C.3   1 <1>  -0.0170 
 12 C       -4.9790    -2.6870     0.1250 C.ar  1 <1>  -0.1500 
 13 C       -2.8940    -3.9460    -0.4610 C.3   1 <1>  -0.0970 
 14 C       -5.6580    -1.5380     0.4840 C.ar  1 <1>  -0.1500 
 15 C       -2.8810     1.8320    -0.6900 C.3   1 <1>  -0.2400 
 16 H       -1.2620    -1.4790    -1.1600 H     1 <1>   0.3700 
 17 H        0.9170    -2.1070    -0.7120 H     1 <1>   0.0800 
 18 H        1.4600    -2.1690     0.9300 H     1 <1>   0.0800 
 19 H        2.6560    -0.3950    -0.1650 H     1 <1>   0.0800 
 20 H        1.5750     0.3130     0.9990 H     1 <1>   0.0800 
 21 H        1.0240     0.1270    -1.9870 H     1 <1>   0.0800 
 22 H        1.5760     1.5550    -1.1490 H     1 <1>   0.0800 
 23 H       -0.0050     0.9120    -0.8060 H     1 <1>   0.0800 
 24 H       -5.5070     0.5360     0.9210 H     1 <1>   0.1500 
 25 H       -1.8990     0.9080     0.9860 H     1 <1>   0.0800 
 26 H       -3.4220     1.6190     1.3710 H     1 <1>   0.0800 
 27 H       -5.5270    -3.6050     0.0130 H     1 <1>   0.1500 
 28 H       -2.1260    -4.1590     0.2610 H     1 <1>   0.0800 
 29 H       -2.4460    -3.8480    -1.4330 H     1 <1>   0.0800 
 30 H       -3.5760    -4.7760    -0.4820 H     1 <1>   0.0800 
 31 H       -6.7220    -1.5680     0.6450 H     1 <1>   0.1500 
 32 H       -2.3730     1.2690    -1.4520 H     1 <1>   0.0800 
 33 H       -2.3740     2.7700    -0.5530 H     1 <1>   0.0800 
 34 H       -3.8860     2.0260    -1.0200 H     1 <1>   0.0800 
@<TRIPOS>BOND
  1   1   2  2   
  2   2   3  am  
  3   2   4  1   
  4   3   5  1   
  5   3  16  1   
  6   4   6  1   
  7   4  17  1   
  8   4  18  1   
  9   5   7  ar  
 10   5   8  ar  
 11   6   9  1   
 12   6  19  1   
 13   6  20  1   
 14   7  10  ar  
 15   7  11  1   
 16   8  12  ar  
 17   8  13  1   
 18   9  21  1   
 19   9  22  1   
 20   9  23  1   
 21  10  14  ar  
 22  10  24  1   
 23  11  15  1   
 24  11  25  1   
 25  11  26  1   
 26  12  14  ar  
 27  12  27  1   
 28  13  28  1   
 29  13  29  1   
 30  13  30  1   
 31  14  31  1   
 32  15  32  1   
 33  15  33  1   
 34  15  34  1   
@<TRIPOS>SUBSTRUCTURE
  1 ****   5 GROUP 4 **** **** 0

# MOE 2024.06 (io_trps.svl 2023.06)
