@<TRIPOS>MOLECULE
NONAME
40 41 1 0 0 
SMALL
USER_CHARGES


@<TRIPOS>ATOM
  1 S       -0.3280     0.1460    -0.4700 S.o2  1 <1>   1.3330 
  2 O       -0.6910     1.5160    -0.1860 O.2   1 <1>  -0.6500 
  3 O       -0.0700    -0.2580    -1.8350 O.2   1 <1>  -0.6500 
  4 N       -1.5610    -0.8530     0.1230 N.am  1 <1>  -0.8490 
  5 C        1.0700    -0.2980     0.5710 C.3   1 <1>  -0.0550 
  6 C       -2.8800    -0.1850     0.0860 C.3   1 <1>   0.1960 
  7 C       -1.5800    -2.1830    -0.4870 C.3   1 <1>   0.1960 
  8 C        2.3690     0.4640     0.2530 C.3   1 <1>  -0.2400 
  9 C       -4.0720    -1.1620     0.1620 C.3   1 <1>  -0.0190 
 10 C       -2.4810    -3.1240     0.3310 C.3   1 <1>  -0.1600 
 11 C       -5.2930    -0.4540     0.7300 C.2   1 <1>   0.5690 
 12 C       -3.7000    -2.4230     0.9600 C.3   1 <1>  -0.1600 
 13 O       -5.2620    -0.0200     1.8550 O.2   1 <1>  -0.5700 
 14 N       -6.3960    -0.3250    -0.0470 N.am  1 <1>  -0.7300 
 15 C       -7.6570     0.3140     0.3900 C.3   1 <1>   0.3200 
 16 C       -8.8510    -0.5030    -0.0750 C.2   1 <1>  -0.0400 
 17 O      -10.0440     0.0590    -0.0340 O.3   1 <1>  -0.2800 
 18 C       -8.9450    -1.7670    -0.5500 C.2   1 <1>  -0.1500 
 19 C      -10.9190    -0.8210    -0.4790 C.2   1 <1>  -0.0100 
 20 C      -10.3040    -1.9740    -0.8160 C.2   1 <1>  -0.1500 
 21 H        1.2580    -1.3490     0.4710 H     1 <1>   0.0800 
 22 H        0.8060    -0.1130     1.5940 H     1 <1>   0.0800 
 23 H       -2.9730     0.3970    -0.8170 H     1 <1>   0.0800 
 24 H       -2.9220     0.5010     0.9170 H     1 <1>   0.0800 
 25 H       -0.5840    -2.5910    -0.5260 H     1 <1>   0.0800 
 26 H       -1.9440    -2.1040    -1.4990 H     1 <1>   0.0800 
 27 H        2.6690     0.2760    -0.7640 H     1 <1>   0.0800 
 28 H        3.1570     0.1510     0.9130 H     1 <1>   0.0800 
 29 H        2.2140     1.5230     0.3750 H     1 <1>   0.0800 
 30 H       -4.3070    -1.4650    -0.8420 H     1 <1>   0.0800 
 31 H       -1.8980    -3.5780     1.1130 H     1 <1>   0.0800 
 32 H       -2.8120    -3.9160    -0.3170 H     1 <1>   0.0800 
 33 H       -4.5350    -3.1000     1.0140 H     1 <1>   0.0800 
 34 H       -3.4520    -2.1260     1.9660 H     1 <1>   0.0800 
 35 H       -6.4140    -0.6810    -1.0020 H     1 <1>   0.3700 
 36 H       -7.7150     1.2990    -0.0370 H     1 <1>   0.0800 
 37 H       -7.6830     0.4070     1.4630 H     1 <1>   0.0800 
 38 H       -8.1670    -2.4930    -0.7000 H     1 <1>   0.1500 
 39 H      -11.9580    -0.5450    -0.5210 H     1 <1>   0.1500 
 40 H      -10.7360    -2.8790    -1.2070 H     1 <1>   0.1500 
@<TRIPOS>BOND
  1   1   2  2   
  2   1   3  2   
  3   1   4  am  
  4   1   5  1   
  5   4   6  1   
  6   4   7  1   
  7   5   8  1   
  8   5  21  1   
  9   5  22  1   
 10   6   9  1   
 11   6  23  1   
 12   6  24  1   
 13   7  10  1   
 14   7  25  1   
 15   7  26  1   
 16   8  27  1   
 17   8  28  1   
 18   8  29  1   
 19   9  11  1   
 20   9  12  1   
 21   9  30  1   
 22  10  12  1   
 23  10  31  1   
 24  10  32  1   
 25  11  13  2   
 26  11  14  am  
 27  12  33  1   
 28  12  34  1   
 29  14  15  1   
 30  14  35  1   
 31  15  16  1   
 32  15  36  1   
 33  15  37  1   
 34  16  17  1   
 35  16  18  2   
 36  17  19  1   
 37  18  20  1   
 38  18  38  1   
 39  19  20  2   
 40  19  39  1   
 41  20  40  1   
@<TRIPOS>SUBSTRUCTURE
  1 ****   9 GROUP 4 **** **** 0

# MOE 2024.06 (io_trps.svl 2023.06)
