@<TRIPOS>MOLECULE
NONAME
47 49 1 0 0 
SMALL
USER_CHARGES


@<TRIPOS>ATOM
  1 O       -0.0590     0.4240     0.4070 O.3   1 <1>  -0.3630 
  2 C        0.0790     1.7610     0.2600 C.ar  1 <1>   0.0830 
  3 C       -1.2900    -0.2130     0.6830 C.3   1 <1>   0.0400 
  4 C        1.3700     2.2890    -0.0170 C.ar  1 <1>   0.0000 
  5 C       -1.0150     2.5970     0.3800 C.ar  1 <1>  -0.1500 
  6 C        1.4610     3.6920    -0.1550 C.ar  1 <1>   0.3610 
  7 C        2.5940     1.5520    -0.1750 C.ar  1 <1>  -0.1440 
  8 C       -0.8960     3.9710     0.2360 C.ar  1 <1>   0.0830 
  9 N        2.6890     4.2720    -0.4140 N.ar  1 <1>  -0.1790 
 10 C        0.3410     4.5140    -0.0300 C.ar  1 <1>  -0.1500 
 11 C        3.7620     2.2100    -0.4330 C.ar  1 <1>  -0.1500 
 12 C        2.6570     0.0290    -0.0780 C.3   1 <1>  -0.0970 
 13 O       -2.0280     4.6910     0.3720 O.3   1 <1>  -0.3620 
 14 C        3.8390     3.6160    -0.5500 C.ar  1 <1>   0.4610 
 15 C       -2.0670     6.0960     0.2510 C.3   1 <1>   0.0400 
 16 N        4.9770     4.3160    -0.7710 N.pl3 1 <1>  -0.8380 
 17 C        5.0560     5.7370    -1.2440 C.3   1 <1>   0.2090 
 18 C        6.3540     3.7610    -0.5510 C.3   1 <1>   0.2090 
 19 C        5.7110     6.5970    -0.1610 C.3   1 <1>  -0.1600 
 20 C        7.0630     4.5850     0.5290 C.3   1 <1>  -0.1600 
 21 C        7.1170     6.0790     0.1750 C.3   1 <1>  -0.0800 
 22 C        7.7320     6.8860     1.3240 C.3   1 <1>  -0.2400 
 23 H       -1.1120    -1.2710     0.7480 H     1 <1>   0.0800 
 24 H       -1.9790    -0.0090    -0.1180 H     1 <1>   0.0800 
 25 H       -1.6710     0.1500     1.6220 H     1 <1>   0.0800 
 26 H       -2.0000     2.2220     0.5880 H     1 <1>   0.1500 
 27 H        2.7520     5.2810    -0.4500 H     1 <1>   0.4570 
 28 H        0.4480     5.5750    -0.1430 H     1 <1>   0.1500 
 29 H        4.6620     1.6450    -0.5710 H     1 <1>   0.1500 
 30 H        2.3390    -0.2950     0.8980 H     1 <1>   0.0800 
 31 H        3.6530    -0.3410    -0.2370 H     1 <1>   0.0800 
 32 H        2.0190    -0.4180    -0.8200 H     1 <1>   0.0800 
 33 H       -3.0830     6.4150     0.4030 H     1 <1>   0.0800 
 34 H       -1.7450     6.3740    -0.7360 H     1 <1>   0.0800 
 35 H       -1.4360     6.5320     1.0060 H     1 <1>   0.0800 
 36 H        4.0890     6.1320    -1.4950 H     1 <1>   0.0800 
 37 H        5.6570     5.7760    -2.1390 H     1 <1>   0.0800 
 38 H        6.9130     3.8080    -1.4720 H     1 <1>   0.0800 
 39 H        6.3350     2.7370    -0.2300 H     1 <1>   0.0800 
 40 H        5.0950     6.5910     0.7210 H     1 <1>   0.0800 
 41 H        5.7790     7.6130    -0.5100 H     1 <1>   0.0800 
 42 H        8.0640     4.2100     0.6540 H     1 <1>   0.0800 
 43 H        6.5460     4.4460     1.4630 H     1 <1>   0.0800 
 44 H        7.7440     6.2010    -0.6940 H     1 <1>   0.0800 
 45 H        7.1400     6.7930     2.2180 H     1 <1>   0.0800 
 46 H        7.7920     7.9280     1.0600 H     1 <1>   0.0800 
 47 H        8.7270     6.5360     1.5350 H     1 <1>   0.0800 
@<TRIPOS>BOND
  1   1   2  1   
  2   1   3  1   
  3   2   4  ar  
  4   2   5  ar  
  5   3  23  1   
  6   3  24  1   
  7   3  25  1   
  8   4   6  ar  
  9   4   7  ar  
 10   5   8  ar  
 11   5  26  1   
 12   6   9  ar  
 13   6  10  ar  
 14   7  11  ar  
 15   7  12  1   
 16   8  10  ar  
 17   8  13  1   
 18   9  14  ar  
 19   9  27  1   
 20  10  28  1   
 21  11  14  ar  
 22  11  29  1   
 23  12  30  1   
 24  12  31  1   
 25  12  32  1   
 26  13  15  1   
 27  14  16  1   
 28  15  33  1   
 29  15  34  1   
 30  15  35  1   
 31  16  17  1   
 32  16  18  1   
 33  17  19  1   
 34  17  36  1   
 35  17  37  1   
 36  18  20  1   
 37  18  38  1   
 38  18  39  1   
 39  19  21  1   
 40  19  40  1   
 41  19  41  1   
 42  20  21  1   
 43  20  42  1   
 44  20  43  1   
 45  21  22  1   
 46  21  44  1   
 47  22  45  1   
 48  22  46  1   
 49  22  47  1   
@<TRIPOS>SUBSTRUCTURE
  1 ****   9 GROUP 4 **** **** 0

# MOE 2024.06 (io_trps.svl 2023.06)
