@<TRIPOS>MOLECULE
NONAME
35 35 1 0 0 
SMALL
USER_CHARGES


@<TRIPOS>ATOM
  1 S       -0.4850    -0.0910     0.1420 S.3   1 <1>  -0.4600 
  2 C        0.8610     1.0260    -0.3210 C.3   1 <1>   0.1500 
  3 C       -1.9820     0.8550    -0.2340 C.3   1 <1>   0.0700 
  4 C        2.1110     0.1660    -0.4890 C.3   1 <1>  -0.2400 
  5 C        1.0170     2.0600     0.7930 C.3   1 <1>  -0.2400 
  6 C       -3.1810    -0.0530     0.0430 C.3   1 <1>  -0.1600 
  7 C       -4.5020     0.6700    -0.2490 C.3   1 <1>  -0.1600 
  8 C       -5.7010    -0.2370     0.0280 C.3   1 <1>   0.1200 
  9 O       -6.8730     0.4890    -0.2610 O.3   1 <1>  -0.3630 
 10 C       -8.1090    -0.0620    -0.1080 C.ar  1 <1>   0.0820 
 11 C       -9.2280     0.7080    -0.4100 C.ar  1 <1>   0.1900 
 12 C       -8.3180    -1.3660     0.3390 C.ar  1 <1>  -0.1500 
 13 F       -9.0740     1.9390    -0.8330 F     1 <1>  -0.1900 
 14 C      -10.5170     0.2280    -0.2830 C.ar  1 <1>  -0.1500 
 15 C       -9.6080    -1.8600     0.4700 C.ar  1 <1>  -0.1500 
 16 C      -10.7050    -1.0700     0.1620 C.ar  1 <1>  -0.1500 
 17 H        0.5890     1.4900    -1.2530 H     1 <1>   0.0800 
 18 H       -1.9320     1.1440    -1.2690 H     1 <1>   0.0800 
 19 H       -1.9880     1.7230     0.4000 H     1 <1>   0.0800 
 20 H        2.3460    -0.3380     0.4310 H     1 <1>   0.0800 
 21 H        2.9480     0.7800    -0.7720 H     1 <1>   0.0800 
 22 H        1.9490    -0.5690    -1.2570 H     1 <1>   0.0800 
 23 H        1.2080     1.5710     1.7310 H     1 <1>   0.0800 
 24 H        0.1250     2.6510     0.8840 H     1 <1>   0.0800 
 25 H        1.8380     2.7170     0.5730 H     1 <1>   0.0800 
 26 H       -3.1560    -0.3590     1.0750 H     1 <1>   0.0800 
 27 H       -3.1040    -0.9320    -0.5740 H     1 <1>   0.0800 
 28 H       -4.5260     0.9730    -1.2820 H     1 <1>   0.0800 
 29 H       -4.5780     1.5470     0.3700 H     1 <1>   0.0800 
 30 H       -5.7270    -0.5270     1.0650 H     1 <1>   0.0800 
 31 H       -5.6750    -1.1070    -0.6050 H     1 <1>   0.0800 
 32 H       -7.4960    -2.0090     0.5880 H     1 <1>   0.1500 
 33 H      -11.3520     0.8580    -0.5280 H     1 <1>   0.1500 
 34 H       -9.7600    -2.8690     0.8160 H     1 <1>   0.1500 
 35 H      -11.7010    -1.4650     0.2680 H     1 <1>   0.1500 
@<TRIPOS>BOND
  1   1   2  1   
  2   1   3  1   
  3   2   4  1   
  4   2   5  1   
  5   2  17  1   
  6   3   6  1   
  7   3  18  1   
  8   3  19  1   
  9   4  20  1   
 10   4  21  1   
 11   4  22  1   
 12   5  23  1   
 13   5  24  1   
 14   5  25  1   
 15   6   7  1   
 16   6  26  1   
 17   6  27  1   
 18   7   8  1   
 19   7  28  1   
 20   7  29  1   
 21   8   9  1   
 22   8  30  1   
 23   8  31  1   
 24   9  10  1   
 25  10  11  ar  
 26  10  12  ar  
 27  11  13  1   
 28  11  14  ar  
 29  12  15  ar  
 30  12  32  1   
 31  14  16  ar  
 32  14  33  1   
 33  15  16  ar  
 34  15  34  1   
 35  16  35  1   
@<TRIPOS>SUBSTRUCTURE
  1 ****   8 GROUP 4 **** **** 0

# MOE 2024.06 (io_trps.svl 2023.06)
