@<TRIPOS>MOLECULE
NONAME
50 51 1 0 0 
SMALL
USER_CHARGES


@<TRIPOS>ATOM
  1 S        0.0450     0.0400     0.2860 S.o2  1 <1>   1.3330 
  2 O       -0.3810     0.8100    -0.8620 O.2   1 <1>  -0.6500 
  3 O       -0.2290     0.5270     1.6190 O.2   1 <1>  -0.6500 
  4 N        1.7180    -0.1940     0.1440 N.am  1 <1>  -0.8490 
  5 C       -0.6060    -1.6300     0.1640 C.3   1 <1>  -0.0550 
  6 C        2.4660     0.8840     0.8010 C.3   1 <1>   0.1960 
  7 C        2.1400    -0.3300    -1.2550 C.3   1 <1>   0.1960 
  8 C       -2.1380    -1.7080     0.2740 C.3   1 <1>  -0.1600 
  9 C        3.9610     0.5540     0.8320 C.3   1 <1>  -0.1600 
 10 C        3.6050    -0.7640    -1.3140 C.3   1 <1>  -0.1600 
 11 C       -2.6320    -3.1540     0.1610 C.3   1 <1>  -0.2400 
 12 C        4.5030     0.2470    -0.5760 C.3   1 <1>  -0.0190 
 13 C        6.0040    -0.0770    -0.5900 C.2   1 <1>   0.5690 
 14 O        6.7220     0.7960    -1.0180 O.2   1 <1>  -0.5700 
 15 N        6.5470    -1.2630    -0.1490 N.am  1 <1>  -0.6600 
 16 C        8.0340    -1.4540    -0.2010 C.3   1 <1>   0.1400 
 17 C        5.8150    -2.4270     0.4430 C.3   1 <1>   0.1400 
 18 C        8.4290    -2.9470    -0.2240 C.3   1 <1>   0.2000 
 19 C        6.7040    -3.1970     1.4400 C.3   1 <1>   0.2000 
 20 O        7.8730    -3.6760     0.8380 O.3   1 <1>  -0.5600 
 21 C        9.9410    -3.1410    -0.1490 C.3   1 <1>  -0.2400 
 22 C        5.9880    -4.4060     2.0360 C.3   1 <1>  -0.2400 
 23 H       -0.1730    -2.2240     0.9450 H     1 <1>   0.0800 
 24 H       -0.3080    -2.0550    -0.7740 H     1 <1>   0.0800 
 25 H        2.1280     1.0040     1.8180 H     1 <1>   0.0800 
 26 H        2.2970     1.8150     0.2830 H     1 <1>   0.0800 
 27 H        2.0100     0.6080    -1.7730 H     1 <1>   0.0800 
 28 H        1.5360    -1.0700    -1.7520 H     1 <1>   0.0800 
 29 H       -2.5830    -1.1140    -0.5070 H     1 <1>   0.0800 
 30 H       -2.4480    -1.2960     1.2200 H     1 <1>   0.0800 
 31 H        4.1080    -0.2710     1.4990 H     1 <1>   0.0800 
 32 H        4.4950     1.3940     1.2410 H     1 <1>   0.0800 
 33 H        3.9150    -0.8310    -2.3420 H     1 <1>   0.0800 
 34 H        3.6730    -1.7440    -0.8870 H     1 <1>   0.0800 
 35 H       -2.3530    -3.5770    -0.7880 H     1 <1>   0.0800 
 36 H       -3.7050    -3.1810     0.2430 H     1 <1>   0.0800 
 37 H       -2.2160    -3.7580     0.9480 H     1 <1>   0.0800 
 38 H        4.4080     1.1670    -1.1280 H     1 <1>   0.0800 
 39 H        8.4800    -0.9780     0.6540 H     1 <1>   0.0800 
 40 H        8.4280    -0.9780    -1.0830 H     1 <1>   0.0800 
 41 H        5.5170    -3.0970    -0.3450 H     1 <1>   0.0800 
 42 H        4.9330    -2.1010     0.9550 H     1 <1>   0.0800 
 43 H        8.0630    -3.3850    -1.1370 H     1 <1>   0.0800 
 44 H        6.9990    -2.5310     2.2330 H     1 <1>   0.0800 
 45 H       10.3230    -2.7380     0.7710 H     1 <1>   0.0800 
 46 H       10.4200    -2.6420    -0.9720 H     1 <1>   0.0800 
 47 H       10.1760    -4.1890    -0.2020 H     1 <1>   0.0800 
 48 H        5.7110    -5.0960     1.2600 H     1 <1>   0.0800 
 49 H        5.1010    -4.0930     2.5570 H     1 <1>   0.0800 
 50 H        6.6370    -4.9020     2.7360 H     1 <1>   0.0800 
@<TRIPOS>BOND
  1   1   2  2   
  2   1   3  2   
  3   1   4  am  
  4   1   5  1   
  5   4   6  1   
  6   4   7  1   
  7   5   8  1   
  8   5  23  1   
  9   5  24  1   
 10   6   9  1   
 11   6  25  1   
 12   6  26  1   
 13   7  10  1   
 14   7  27  1   
 15   7  28  1   
 16   8  11  1   
 17   8  29  1   
 18   8  30  1   
 19   9  12  1   
 20   9  31  1   
 21   9  32  1   
 22  10  12  1   
 23  10  33  1   
 24  10  34  1   
 25  11  35  1   
 26  11  36  1   
 27  11  37  1   
 28  12  13  1   
 29  12  38  1   
 30  13  14  2   
 31  13  15  am  
 32  15  16  1   
 33  15  17  1   
 34  16  18  1   
 35  16  39  1   
 36  16  40  1   
 37  17  19  1   
 38  17  41  1   
 39  17  42  1   
 40  18  20  1   
 41  18  21  1   
 42  18  43  1   
 43  19  20  1   
 44  19  22  1   
 45  19  44  1   
 46  21  45  1   
 47  21  46  1   
 48  21  47  1   
 49  22  48  1   
 50  22  49  1   
 51  22  50  1   
@<TRIPOS>SUBSTRUCTURE
  1 ****  10 GROUP 4 **** **** 0

# MOE 2024.06 (io_trps.svl 2023.06)
