@<TRIPOS>MOLECULE
NONAME
48 50 1 0 0 
SMALL
USER_CHARGES


@<TRIPOS>ATOM
  1 S       -0.1640     0.4180    -0.6860 S.3   1 <1>  -0.0800 
  2 C       -0.9080    -0.9920     0.0560 C.2   1 <1>  -0.1400 
  3 C       -0.1850     1.2920     0.8350 C.2   1 <1>  -0.1400 
  4 C       -1.1350    -0.7630     1.3640 C.2   1 <1>  -0.1500 
  5 C       -1.1740    -2.2100    -0.8250 C.3   1 <1>   0.3760 
  6 C       -0.7250     0.5350     1.8070 C.2   1 <1>  -0.1500 
  7 C        0.3780     2.6970     0.8290 C.3   1 <1>  -0.0600 
  8 C       -2.5220    -2.8140    -0.4240 C.2   1 <1>  -0.1240 
  9 C       -0.0020    -3.1800    -0.6410 C.2   1 <1>  -0.1240 
 10 C       -2.5640    -3.9910     0.2490 C.2   1 <1>  -0.0380 
 11 C       -3.6830    -2.0680    -0.7750 C.2   1 <1>   0.4950 
 12 C       -0.1880    -4.3440     0.0420 C.2   1 <1>  -0.0380 
 13 C        1.2100    -2.6950    -1.2190 C.2   1 <1>   0.7060 
 14 N       -1.4220    -4.6950     0.5420 N.pl3 1 <1>  -0.6000 
 15 C       -3.8760    -4.6080     0.7120 C.3   1 <1>  -0.0220 
 16 O       -3.6820    -1.0830    -1.4740 O.2   1 <1>  -0.5700 
 17 C       -5.0230    -2.5470    -0.2420 C.3   1 <1>  -0.0990 
 18 C        0.8870    -5.3850     0.3110 C.3   1 <1>  -0.1020 
 19 O        1.2610    -2.1720    -2.3160 O.2   1 <1>  -0.5700 
 20 O        2.3390    -2.8080    -0.5110 O.3   1 <1>  -0.4300 
 21 C       -5.0670    -4.0780    -0.1020 C.3   1 <1>  -0.1600 
 22 C        3.5590    -2.2750    -0.9860 C.3   1 <1>   0.1200 
 23 C        4.6230    -2.4680     0.0900 C.3   1 <1>   0.1200 
 24 O        5.8340    -1.9750    -0.3900 O.3   1 <1>  -0.5600 
 25 C        6.8830    -2.0770     0.5170 C.3   1 <1>   0.0400 
 26 H       -1.5780    -1.4640     2.0490 H     1 <1>   0.1500 
 27 H       -1.2360    -1.9070    -1.8570 H     1 <1>   0.0800 
 28 H       -0.8570     0.8320     2.8320 H     1 <1>   0.1500 
 29 H        1.4080     2.6760     0.5240 H     1 <1>   0.0800 
 30 H        0.3110     3.1270     1.8110 H     1 <1>   0.0800 
 31 H       -0.1780     3.3070     0.1400 H     1 <1>   0.0800 
 32 H       -1.5000    -5.5670     1.0780 H     1 <1>   0.4000 
 33 H       -4.0150    -4.3810     1.7540 H     1 <1>   0.0800 
 34 H       -3.8350    -5.6780     0.6050 H     1 <1>   0.0800 
 35 H       -5.8020    -2.2230    -0.9080 H     1 <1>   0.0800 
 36 H       -5.1890    -2.0840     0.7140 H     1 <1>   0.0800 
 37 H        0.5170    -6.3650     0.0700 H     1 <1>   0.0800 
 38 H        1.1640    -5.3620     1.3490 H     1 <1>   0.0800 
 39 H        1.7660    -5.2200    -0.2830 H     1 <1>   0.0800 
 40 H       -5.9910    -4.3800     0.3590 H     1 <1>   0.0800 
 41 H       -5.0310    -4.5130    -1.0870 H     1 <1>   0.0800 
 42 H        3.4170    -1.2270    -1.1900 H     1 <1>   0.0800 
 43 H        3.8290    -2.7960    -1.8880 H     1 <1>   0.0800 
 44 H        4.7430    -3.5150     0.3100 H     1 <1>   0.0800 
 45 H        4.3550    -1.9210     0.9770 H     1 <1>   0.0800 
 46 H        7.7650    -1.6720     0.0550 H     1 <1>   0.0800 
 47 H        7.0430    -3.1130     0.7600 H     1 <1>   0.0800 
 48 H        6.6450    -1.5110     1.4020 H     1 <1>   0.0800 
@<TRIPOS>BOND
  1   1   2  1   
  2   1   3  1   
  3   2   4  2   
  4   2   5  1   
  5   3   6  2   
  6   3   7  1   
  7   4   6  1   
  8   4  26  1   
  9   5   8  1   
 10   5   9  1   
 11   5  27  1   
 12   6  28  1   
 13   7  29  1   
 14   7  30  1   
 15   7  31  1   
 16   8  10  2   
 17   8  11  1   
 18   9  12  2   
 19   9  13  1   
 20  10  14  1   
 21  10  15  1   
 22  11  16  2   
 23  11  17  1   
 24  12  14  1   
 25  12  18  1   
 26  13  19  2   
 27  13  20  1   
 28  14  32  1   
 29  15  21  1   
 30  15  33  1   
 31  15  34  1   
 32  17  21  1   
 33  17  35  1   
 34  17  36  1   
 35  18  37  1   
 36  18  38  1   
 37  18  39  1   
 38  20  22  1   
 39  21  40  1   
 40  21  41  1   
 41  22  23  1   
 42  22  42  1   
 43  22  43  1   
 44  23  24  1   
 45  23  44  1   
 46  23  45  1   
 47  24  25  1   
 48  25  46  1   
 49  25  47  1   
 50  25  48  1   
@<TRIPOS>SUBSTRUCTURE
  1 ****   9 GROUP 4 **** **** 0

# MOE 2024.06 (io_trps.svl 2023.06)
