@<TRIPOS>MOLECULE
NONAME
41 42 1 0 0 
SMALL
USER_CHARGES


@<TRIPOS>ATOM
  1 O        6.3360    -0.9720     0.7490 O.3   1 <1>  -0.3630 
  2 C        5.1730    -1.4350     0.2370 C.ar  1 <1>   0.0830 
  3 C        7.4920    -1.2240    -0.0170 C.3   1 <1>   0.0400 
  4 C        4.4220    -0.6260    -0.6120 C.ar  1 <1>  -0.1440 
  5 C        4.7310    -2.7110     0.5750 C.ar  1 <1>  -0.1440 
  6 C        3.2400    -1.1150    -1.1390 C.ar  1 <1>  -0.1500 
  7 C        4.8720     0.7850    -0.9640 C.3   1 <1>  -0.0960 
  8 C        3.5460    -3.1800     0.0370 C.ar  1 <1>  -0.1500 
  9 C        5.5260    -3.5930     1.5280 C.3   1 <1>  -0.0970 
 10 C        2.7940    -2.3880    -0.8170 C.ar  1 <1>  -0.1430 
 11 C        1.4820    -2.9080    -1.3760 C.3   1 <1>  -0.0170 
 12 C        0.3830    -2.8470    -0.3060 C.3   1 <1>   0.4230 
 13 N       -0.8510    -3.5030    -0.8130 N.4   1 <1>  -0.9060 
 14 C        0.0460    -1.4060     0.1130 C.3   1 <1>  -0.1600 
 15 C       -1.9350    -3.5610     0.2050 C.3   1 <1>   0.3430 
 16 C       -1.1000    -1.3560     1.1330 C.3   1 <1>  -0.1600 
 17 C       -2.3170    -2.1400     0.6230 C.3   1 <1>  -0.1600 
 18 H        8.3360    -0.8080     0.5020 H     1 <1>   0.0800 
 19 H        7.3830    -0.7580    -0.9790 H     1 <1>   0.0800 
 20 H        7.6120    -2.2860    -0.1290 H     1 <1>   0.0800 
 21 H        2.6670    -0.4920    -1.8030 H     1 <1>   0.1500 
 22 H        5.6270     0.7480    -1.7290 H     1 <1>   0.0800 
 23 H        5.2810     1.2720    -0.0970 H     1 <1>   0.0800 
 24 H        4.0480     1.3750    -1.3210 H     1 <1>   0.0800 
 25 H        3.2150    -4.1720     0.2900 H     1 <1>   0.1500 
 26 H        5.8990    -3.0080     2.3500 H     1 <1>   0.0800 
 27 H        6.3590    -4.0330     1.0110 H     1 <1>   0.0800 
 28 H        4.9140    -4.3810     1.9280 H     1 <1>   0.0800 
 29 H        1.6330    -3.9250    -1.6910 H     1 <1>   0.0800 
 30 H        1.2000    -2.3270    -2.2370 H     1 <1>   0.0800 
 31 H        0.7320    -3.3800     0.5650 H     1 <1>   0.0800 
 32 H       -0.6290    -4.4510    -1.1370 H     1 <1>   0.4500 
 33 H       -1.1900    -2.9690    -1.6210 H     1 <1>   0.4500 
 34 H       -0.2120    -0.8230    -0.7540 H     1 <1>   0.0800 
 35 H        0.9150    -0.9500     0.5560 H     1 <1>   0.0800 
 36 H       -1.5960    -4.1100     1.0690 H     1 <1>   0.0800 
 37 H       -2.8000    -4.0630    -0.2000 H     1 <1>   0.0800 
 38 H       -1.3770    -0.3310     1.3220 H     1 <1>   0.0800 
 39 H       -0.7660    -1.7780     2.0670 H     1 <1>   0.0800 
 40 H       -3.0580    -2.1900     1.4020 H     1 <1>   0.0800 
 41 H       -2.7630    -1.6260    -0.2100 H     1 <1>   0.0800 
@<TRIPOS>BOND
  1   1   2  1   
  2   1   3  1   
  3   2   4  ar  
  4   2   5  ar  
  5   3  18  1   
  6   3  19  1   
  7   3  20  1   
  8   4   6  ar  
  9   4   7  1   
 10   5   8  ar  
 11   5   9  1   
 12   6  10  ar  
 13   6  21  1   
 14   7  22  1   
 15   7  23  1   
 16   7  24  1   
 17   8  10  ar  
 18   8  25  1   
 19   9  26  1   
 20   9  27  1   
 21   9  28  1   
 22  10  11  1   
 23  11  12  1   
 24  11  29  1   
 25  11  30  1   
 26  12  13  1   
 27  12  14  1   
 28  12  31  1   
 29  13  15  1   
 30  13  32  1   
 31  13  33  1   
 32  14  16  1   
 33  14  34  1   
 34  14  35  1   
 35  15  17  1   
 36  15  36  1   
 37  15  37  1   
 38  16  17  1   
 39  16  38  1   
 40  16  39  1   
 41  17  40  1   
 42  17  41  1   
@<TRIPOS>SUBSTRUCTURE
  1 ****  10 GROUP 4 **** **** 0

# MOE 2024.06 (io_trps.svl 2023.06)
