@<TRIPOS>MOLECULE
NONAME
41 42 1 0 0 
SMALL
USER_CHARGES


@<TRIPOS>ATOM
  1 S        0.6890     0.8340     0.3940 S.3   1 <1>  -0.2860 
  2 C       -1.0360     1.1440     0.7900 C.2   1 <1>   0.2420 
  3 C        1.4820     0.7750     2.0780 C.3   1 <1>   0.1310 
  4 N       -1.4780     1.2210     1.9930 N.2   1 <1>  -0.3380 
  5 N       -1.9760     1.3130    -0.1390 N.pl3 1 <1>   0.0480 
  6 C        2.9470     0.3820     1.9870 C.2   1 <1>   0.5690 
  7 N       -2.7890     1.4520     1.8800 N.2   1 <1>  -0.3380 
  8 C       -3.0700     1.5030     0.6170 C.2   1 <1>   0.0060 
  9 C       -1.8310     1.2990    -1.6110 C.3   1 <1>   0.0960 
 10 O        3.6870     0.7460     2.8670 O.2   1 <1>  -0.5700 
 11 N        3.3560    -0.3650     0.9150 N.am  1 <1>  -0.5470 
 12 C       -4.4590     1.7490     0.0340 C.3   1 <1>   0.0200 
 13 C       -1.9820    -0.1250    -2.1570 C.3   1 <1>  -0.2400 
 14 C        4.6070    -0.8930     0.5560 C.ar  1 <1>   0.1170 
 15 C       -5.5610     1.8110     1.0980 C.3   1 <1>  -0.2400 
 16 C        4.8540    -1.2230    -0.7830 C.ar  1 <1>  -0.1430 
 17 C        5.6070    -1.1150     1.4980 C.ar  1 <1>  -0.1500 
 18 C        6.0780    -1.7600    -1.1610 C.ar  1 <1>  -0.1500 
 19 C        3.7950    -0.9990    -1.8570 C.3   1 <1>  -0.0970 
 20 C        6.8110    -1.6480     1.0930 C.ar  1 <1>   0.1900 
 21 C        7.0710    -1.9770    -0.2220 C.ar  1 <1>  -0.1500 
 22 F        7.7440    -1.8540     1.9850 F     1 <1>  -0.1900 
 23 H        0.9390     0.0580     2.6650 H     1 <1>   0.0800 
 24 H        1.3790     1.7520     2.5120 H     1 <1>   0.0800 
 25 H       -0.8630     1.6920    -1.8690 H     1 <1>   0.0800 
 26 H       -2.5770     1.9410    -2.0430 H     1 <1>   0.0800 
 27 H        2.6310    -0.4970     0.2100 H     1 <1>   0.3700 
 28 H       -4.6930     0.9590    -0.6570 H     1 <1>   0.0800 
 29 H       -4.4480     2.6780    -0.5090 H     1 <1>   0.0800 
 30 H       -1.2220    -0.7660    -1.7460 H     1 <1>   0.0800 
 31 H       -1.8760    -0.1170    -3.2270 H     1 <1>   0.0800 
 32 H       -2.9510    -0.5220    -1.9130 H     1 <1>   0.0800 
 33 H       -5.5970     0.8870     1.6480 H     1 <1>   0.0800 
 34 H       -6.5180     1.9770     0.6360 H     1 <1>   0.0800 
 35 H       -5.3660     2.6130     1.7880 H     1 <1>   0.0800 
 36 H        5.4590    -0.8840     2.5350 H     1 <1>   0.1500 
 37 H        6.2700    -2.0130    -2.1900 H     1 <1>   0.1500 
 38 H        3.4910     0.0330    -1.8660 H     1 <1>   0.0800 
 39 H        2.9380    -1.6200    -1.6660 H     1 <1>   0.0800 
 40 H        4.1770    -1.2420    -2.8320 H     1 <1>   0.0800 
 41 H        8.0240    -2.3910    -0.4980 H     1 <1>   0.1500 
@<TRIPOS>BOND
  1   1   2  1   
  2   1   3  1   
  3   2   4  2   
  4   2   5  1   
  5   3   6  1   
  6   3  23  1   
  7   3  24  1   
  8   4   7  1   
  9   5   8  1   
 10   5   9  1   
 11   6  10  2   
 12   6  11  am  
 13   7   8  2   
 14   8  12  1   
 15   9  13  1   
 16   9  25  1   
 17   9  26  1   
 18  11  14  1   
 19  11  27  1   
 20  12  15  1   
 21  12  28  1   
 22  12  29  1   
 23  13  30  1   
 24  13  31  1   
 25  13  32  1   
 26  14  16  ar  
 27  14  17  ar  
 28  15  33  1   
 29  15  34  1   
 30  15  35  1   
 31  16  18  ar  
 32  16  19  1   
 33  17  20  ar  
 34  17  36  1   
 35  18  21  ar  
 36  18  37  1   
 37  19  38  1   
 38  19  39  1   
 39  19  40  1   
 40  20  21  ar  
 41  20  22  1   
 42  21  41  1   
@<TRIPOS>SUBSTRUCTURE
  1 ****   1 GROUP 4 **** **** 0

# MOE 2024.06 (io_trps.svl 2023.06)
