@<TRIPOS>MOLECULE
NONAME
30 32 1 0 0 
SMALL
USER_CHARGES


@<TRIPOS>ATOM
  1 O       -0.0720     0.2870    -0.0570 O.3   1 <1>  -0.2800 
  2 C       -1.1410     1.0950    -0.0220 C.ar  1 <1>   0.1400 
  3 C        0.9940     1.0700     0.0070 C.2   1 <1>  -0.0400 
  4 C       -0.7460     2.4220     0.0680 C.ar  1 <1>   0.0000 
  5 C       -2.4780     0.7310    -0.0700 C.ar  1 <1>  -0.1500 
  6 C        0.6630     2.3650     0.0760 C.2   1 <1>  -0.1810 
  7 C        2.3980     0.5210    -0.0050 C.3   1 <1>   0.0200 
  8 C       -1.7160     3.4230     0.1210 C.ar  1 <1>  -0.1500 
  9 C       -3.4290     1.7300    -0.0210 C.ar  1 <1>  -0.1500 
 10 C        1.6650     3.4900     0.1430 C.3   1 <1>   0.5240 
 11 C        3.3730     1.6630     0.3380 C.3   1 <1>   0.3430 
 12 C       -3.0550     3.0760     0.0790 C.ar  1 <1>   0.1000 
 13 N        2.9900     2.9620    -0.3350 N.4   1 <1>  -0.9590 
 14 N       -4.0330     4.0560     0.1310 N.pl3 1 <1>  -0.9000 
 15 C        4.0630     3.9920    -0.2000 C.3   1 <1>   0.2630 
 16 H       -2.7470    -0.3070    -0.1450 H     1 <1>   0.1500 
 17 H        2.6180     0.1140    -0.9760 H     1 <1>   0.0800 
 18 H        2.4920    -0.2680     0.7200 H     1 <1>   0.0800 
 19 H       -1.4330     4.4550     0.1860 H     1 <1>   0.1500 
 20 H       -4.4730     1.4790    -0.0640 H     1 <1>   0.1500 
 21 H        1.7400     3.8430     1.1590 H     1 <1>   0.0800 
 22 H        1.3400     4.3020    -0.4860 H     1 <1>   0.0800 
 23 H        4.3690     1.3720     0.0450 H     1 <1>   0.0800 
 24 H        3.3700     1.8080     1.4060 H     1 <1>   0.0800 
 25 H        2.8510     2.7480    -1.3330 H     1 <1>   0.4500 
 26 H       -4.9730     3.7230     0.3670 H     1 <1>   0.4000 
 27 H       -3.7980     4.8930     0.6710 H     1 <1>   0.4000 
 28 H        4.2170     4.2410     0.8380 H     1 <1>   0.0800 
 29 H        3.7930     4.8890    -0.7340 H     1 <1>   0.0800 
 30 H        4.9910     3.6210    -0.6060 H     1 <1>   0.0800 
@<TRIPOS>BOND
  1   1   2  1   
  2   1   3  1   
  3   2   4  ar  
  4   2   5  ar  
  5   3   6  2   
  6   3   7  1   
  7   4   6  1   
  8   4   8  ar  
  9   5   9  ar  
 10   5  16  1   
 11   6  10  1   
 12   7  11  1   
 13   7  17  1   
 14   7  18  1   
 15   8  12  ar  
 16   8  19  1   
 17   9  12  ar  
 18   9  20  1   
 19  10  13  1   
 20  10  21  1   
 21  10  22  1   
 22  11  13  1   
 23  11  23  1   
 24  11  24  1   
 25  12  14  1   
 26  13  15  1   
 27  13  25  1   
 28  14  26  1   
 29  14  27  1   
 30  15  28  1   
 31  15  29  1   
 32  15  30  1   
@<TRIPOS>SUBSTRUCTURE
  1 ****   6 GROUP 4 **** **** 0

# MOE 2024.06 (io_trps.svl 2023.06)
