@<TRIPOS>MOLECULE
NONAME
49 52 1 0 0 
SMALL
USER_CHARGES


@<TRIPOS>ATOM
  1 S       -0.4660    -0.2350     0.0690 S.3   1 <1>  -0.0800 
  2 C        0.3520     1.3290    -0.0300 C.2   1 <1>   0.4420 
  3 C        1.0720    -1.0160     0.3480 C.ar  1 <1>   0.0400 
  4 N        1.6250     1.2670     0.1380 N.2   1 <1>  -0.5650 
  5 N       -0.4510     2.4510    -0.2560 N.am  1 <1>  -0.0620 
  6 C        2.0500    -0.0390     0.3450 C.ar  1 <1>   0.2270 
  7 C        1.3300    -2.3600     0.5430 C.ar  1 <1>  -0.1500 
  8 N       -1.7080     2.6220     0.2740 N.2   1 <1>  -0.5120 
  9 C       -0.0570     3.6020    -0.8820 C.2   1 <1>   0.6160 
 10 C        3.3660    -0.4360     0.5480 C.ar  1 <1>  -0.1500 
 11 C        2.6470    -2.7350     0.7440 C.ar  1 <1>  -0.1500 
 12 C       -2.0380     3.8540     0.0640 C.2   1 <1>   0.3750 
 13 O        0.9140     3.6330    -1.6470 O.2   1 <1>  -0.5700 
 14 C       -1.0290     4.5990    -0.6260 C.2   1 <1>   0.0290 
 15 C        3.6580    -1.7770     0.7460 C.ar  1 <1>  -0.1500 
 16 C       -3.3670     4.4420     0.5950 C.3   1 <1>   1.0810 
 17 C       -0.9580     5.9610    -0.9400 C.2   1 <1>  -0.0380 
 18 F       -4.2400     4.7010    -0.3730 F     1 <1>  -0.3400 
 19 F       -3.1930     5.5820     1.2560 F     1 <1>  -0.3400 
 20 F       -4.0040     3.6380     1.4410 F     1 <1>  -0.3400 
 21 N        0.1620     6.7040    -0.9180 N.pl3 1 <1>  -0.5110 
 22 C       -2.1820     6.7650    -1.3560 C.3   1 <1>  -0.1020 
 23 N        1.4410     6.2000    -0.5160 N.3   1 <1>  -0.5290 
 24 C        2.0110     6.8560     0.6830 C.3   1 <1>   0.1100 
 25 C        2.4050     6.1880    -1.6460 C.3   1 <1>   0.1100 
 26 C        3.2400     6.0420     1.1370 C.3   1 <1>   0.3430 
 27 C        3.6010     5.3190    -1.2310 C.3   1 <1>   0.3430 
 28 N        4.2550     5.8380     0.0320 N.4   1 <1>  -0.9590 
 29 C        5.3290     4.8990     0.4720 C.3   1 <1>   0.2630 
 30 H        0.5320    -3.0810     0.5360 H     1 <1>   0.1500 
 31 H        4.1420     0.3050     0.5470 H     1 <1>   0.1500 
 32 H        2.8930    -3.7720     0.9000 H     1 <1>   0.1500 
 33 H        4.6780    -2.0850     0.9030 H     1 <1>   0.1500 
 34 H        0.1270     7.7000    -1.1890 H     1 <1>   0.4000 
 35 H       -1.9070     7.5040    -2.0880 H     1 <1>   0.0800 
 36 H       -2.6110     7.2800    -0.5150 H     1 <1>   0.0800 
 37 H       -2.9200     6.1390    -1.8200 H     1 <1>   0.0800 
 38 H        1.2720     6.8660     1.4660 H     1 <1>   0.0800 
 39 H        2.2880     7.8710     0.4590 H     1 <1>   0.0800 
 40 H        2.7210     7.1870    -1.8870 H     1 <1>   0.0800 
 41 H        1.9350     5.7600    -2.5140 H     1 <1>   0.0800 
 42 H        2.8890     5.0800     1.4750 H     1 <1>   0.0800 
 43 H        3.7040     6.5360     1.9750 H     1 <1>   0.0800 
 44 H        4.3170     5.2900    -2.0350 H     1 <1>   0.0800 
 45 H        3.2400     4.3150    -1.0720 H     1 <1>   0.0800 
 46 H        4.6720     6.7520    -0.1890 H     1 <1>   0.4500 
 47 H        4.9070     3.9320     0.6960 H     1 <1>   0.0800 
 48 H        5.8190     5.2760     1.3550 H     1 <1>   0.0800 
 49 H        6.0650     4.7810    -0.3070 H     1 <1>   0.0800 
@<TRIPOS>BOND
  1   1   2  1   
  2   1   3  1   
  3   2   4  2   
  4   2   5  1   
  5   3   6  ar  
  6   3   7  ar  
  7   4   6  1   
  8   5   8  1   
  9   5   9  am  
 10   6  10  ar  
 11   7  11  ar  
 12   7  30  1   
 13   8  12  2   
 14   9  13  2   
 15   9  14  1   
 16  10  15  ar  
 17  10  31  1   
 18  11  15  ar  
 19  11  32  1   
 20  12  14  1   
 21  12  16  1   
 22  14  17  2   
 23  15  33  1   
 24  16  18  1   
 25  16  19  1   
 26  16  20  1   
 27  17  21  1   
 28  17  22  1   
 29  21  23  1   
 30  21  34  1   
 31  22  35  1   
 32  22  36  1   
 33  22  37  1   
 34  23  24  1   
 35  23  25  1   
 36  24  26  1   
 37  24  38  1   
 38  24  39  1   
 39  25  27  1   
 40  25  40  1   
 41  25  41  1   
 42  26  28  1   
 43  26  42  1   
 44  26  43  1   
 45  27  28  1   
 46  27  44  1   
 47  27  45  1   
 48  28  29  1   
 49  28  46  1   
 50  29  47  1   
 51  29  48  1   
 52  29  49  1   
@<TRIPOS>SUBSTRUCTURE
  1 ****   9 GROUP 4 **** **** 0

# MOE 2024.06 (io_trps.svl 2023.06)
