@<TRIPOS>MOLECULE
NONAME
45 46 1 0 0 
SMALL
USER_CHARGES


@<TRIPOS>ATOM
  1 O       -0.2920    -0.1150     1.1390 O.2   1 <1>  -0.5700 
  2 C       -0.8130    -0.8020     0.2840 C.2   1 <1>   0.6900 
  3 N       -2.0900    -0.5920    -0.1390 N.am  1 <1>  -0.5470 
  4 N       -0.1410    -1.8310    -0.2830 N.am  1 <1>  -0.7300 
  5 C       -3.0550     0.3790     0.1590 C.ar  1 <1>   0.1170 
  6 C        1.2410    -2.2240     0.0320 C.3   1 <1>   0.2200 
  7 C       -4.4160     0.0960    -0.0650 C.ar  1 <1>   0.0860 
  8 C       -2.6920     1.6290     0.6570 C.ar  1 <1>  -0.1500 
  9 C        2.1030    -2.0460    -1.2220 C.3   1 <1>  -0.1600 
 10 C        1.2450    -3.6800     0.5090 C.3   1 <1>  -0.1600 
 11 C       -4.8600    -1.1950    -0.5610 C.2   1 <1>   0.5440 
 12 C       -5.3530     1.0960     0.2140 C.ar  1 <1>  -0.1500 
 13 C       -3.6380     2.5940     0.9340 C.ar  1 <1>  -0.1500 
 14 C        3.5360    -2.5440    -0.9850 C.3   1 <1>  -0.1600 
 15 C        2.6770    -4.1810     0.7490 C.3   1 <1>  -0.1600 
 16 O       -4.2040    -1.8340    -1.3660 O.2   1 <1>  -0.5700 
 17 N       -6.0300    -1.7390    -0.1200 N.am  1 <1>  -0.7300 
 18 C       -4.9760     2.3270     0.7090 C.ar  1 <1>  -0.1500 
 19 C        3.5450    -4.0020    -0.5040 C.3   1 <1>  -0.1600 
 20 C       -6.5830    -3.0270    -0.5570 C.3   1 <1>   0.2780 
 21 C       -8.0840    -2.9460    -0.3870 C.2   1 <1>  -0.2880 
 22 C       -8.8070    -3.6720     0.4700 C.2   1 <1>  -0.3000 
 23 H       -2.4540    -1.3420    -0.7360 H     1 <1>   0.3700 
 24 H       -0.5860    -2.3660    -1.0240 H     1 <1>   0.3700 
 25 H        1.6300    -1.5960     0.8180 H     1 <1>   0.0800 
 26 H       -1.6550     1.8570     0.8260 H     1 <1>   0.1500 
 27 H        2.1280    -1.0040    -1.4880 H     1 <1>   0.0800 
 28 H        1.6710    -2.5980    -2.0380 H     1 <1>   0.0800 
 29 H        0.7750    -4.3030    -0.2300 H     1 <1>   0.0800 
 30 H        0.6850    -3.7530     1.4250 H     1 <1>   0.0800 
 31 H       -6.3970     0.9080     0.0330 H     1 <1>   0.1500 
 32 H       -3.3340     3.5520     1.3200 H     1 <1>   0.1500 
 33 H        4.0100    -1.9220    -0.2450 H     1 <1>   0.0800 
 34 H        4.1020    -2.4610    -1.8970 H     1 <1>   0.0800 
 35 H        2.6540    -5.2210     1.0280 H     1 <1>   0.0800 
 36 H        3.1140    -3.6310     1.5660 H     1 <1>   0.0800 
 37 H       -6.5380    -1.3070     0.6520 H     1 <1>   0.3700 
 38 H       -5.7160     3.0820     0.9190 H     1 <1>   0.1500 
 39 H        4.5560    -4.3030    -0.2880 H     1 <1>   0.0800 
 40 H        3.1740    -4.6380    -1.2890 H     1 <1>   0.0800 
 41 H       -6.1740    -3.8150     0.0520 H     1 <1>   0.0800 
 42 H       -6.3290    -3.2140    -1.5870 H     1 <1>   0.0800 
 43 H       -8.5250    -2.2200    -1.0490 H     1 <1>   0.1500 
 44 H       -9.8770    -3.5940     0.5680 H     1 <1>   0.1500 
 45 H       -8.3980    -4.4050     1.1440 H     1 <1>   0.1500 
@<TRIPOS>BOND
  1   1   2  2   
  2   2   3  am  
  3   2   4  am  
  4   3   5  1   
  5   3  23  1   
  6   4   6  1   
  7   4  24  1   
  8   5   7  ar  
  9   5   8  ar  
 10   6   9  1   
 11   6  10  1   
 12   6  25  1   
 13   7  11  1   
 14   7  12  ar  
 15   8  13  ar  
 16   8  26  1   
 17   9  14  1   
 18   9  27  1   
 19   9  28  1   
 20  10  15  1   
 21  10  29  1   
 22  10  30  1   
 23  11  16  2   
 24  11  17  am  
 25  12  18  ar  
 26  12  31  1   
 27  13  18  ar  
 28  13  32  1   
 29  14  19  1   
 30  14  33  1   
 31  14  34  1   
 32  15  19  1   
 33  15  35  1   
 34  15  36  1   
 35  17  20  1   
 36  17  37  1   
 37  18  38  1   
 38  19  39  1   
 39  19  40  1   
 40  20  21  1   
 41  20  41  1   
 42  20  42  1   
 43  21  22  2   
 44  21  43  1   
 45  22  44  1   
 46  22  45  1   
@<TRIPOS>SUBSTRUCTURE
  1 ****   3 GROUP 4 **** **** 0

# MOE 2024.06 (io_trps.svl 2023.06)
