@<TRIPOS>MOLECULE
NONAME
44 45 1 0 0 
SMALL
USER_CHARGES


@<TRIPOS>ATOM
  1 O       -0.7640    -0.1500     0.0850 O.3   1 <1>  -0.3630 
  2 C       -1.9870    -0.7390     0.0800 C.ar  1 <1>   0.0830 
  3 C        0.3540    -0.7110    -0.5670 C.3   1 <1>   0.0400 
  4 C       -3.0060    -0.1140     0.8440 C.ar  1 <1>   0.0000 
  5 C       -2.2500    -1.8900    -0.6230 C.ar  1 <1>  -0.1500 
  6 C       -4.2930    -0.7020     0.8900 C.ar  1 <1>   0.0000 
  7 C       -2.7840     1.0770     1.5710 C.ar  1 <1>  -0.1500 
  8 C       -3.5300    -2.4440    -0.6120 C.ar  1 <1>  -0.1500 
  9 C       -4.5380    -1.8580     0.1080 C.ar  1 <1>  -0.1440 
 10 C       -5.2700    -0.1000     1.7220 C.ar  1 <1>  -0.1500 
 11 C       -3.7600     1.6490     2.3360 C.ar  1 <1>  -0.1500 
 12 C       -5.9330    -2.4480     0.0340 C.3   1 <1>   0.4860 
 13 C       -5.0160     1.0470     2.4200 C.ar  1 <1>  -0.1500 
 14 N       -6.7980    -1.5400    -0.7720 N.4   1 <1>  -0.9590 
 15 C       -8.2250    -1.9290    -0.7020 C.3   1 <1>   0.4810 
 16 C       -6.3050    -1.3740    -2.1650 C.3   1 <1>   0.3430 
 17 C       -8.7190    -1.6050     0.6960 C.2   1 <1>  -0.2760 
 18 C       -6.8860    -0.0990    -2.7650 C.3   1 <1>  -0.2400 
 19 C       -8.9020    -0.3540     1.1350 C.2   1 <1>  -0.3000 
 20 C       -9.0300    -2.8200     1.5620 C.3   1 <1>  -0.1020 
 21 H        1.2000    -0.0720    -0.3870 H     1 <1>   0.0800 
 22 H        0.1550    -0.7630    -1.6220 H     1 <1>   0.0800 
 23 H        0.5430    -1.6880    -0.1590 H     1 <1>   0.0800 
 24 H       -1.4920    -2.3870    -1.1990 H     1 <1>   0.1500 
 25 H       -1.8130     1.5380     1.5200 H     1 <1>   0.1500 
 26 H       -3.6920    -3.3380    -1.1920 H     1 <1>   0.1500 
 27 H       -6.2370    -0.5480     1.8340 H     1 <1>   0.1500 
 28 H       -3.5710     2.5560     2.8850 H     1 <1>   0.1500 
 29 H       -6.3230    -2.5500     1.0330 H     1 <1>   0.0800 
 30 H       -5.8960    -3.4250    -0.4190 H     1 <1>   0.0800 
 31 H       -5.7660     1.4990     3.0460 H     1 <1>   0.1500 
 32 H       -6.7260    -0.6230    -0.3140 H     1 <1>   0.4500 
 33 H       -8.3550    -2.9750    -0.9270 H     1 <1>   0.0800 
 34 H       -8.7990    -1.3540    -1.4090 H     1 <1>   0.0800 
 35 H       -6.5730    -2.2290    -2.7650 H     1 <1>   0.0800 
 36 H       -5.2300    -1.2850    -2.1660 H     1 <1>   0.0800 
 37 H       -7.9530    -0.1590    -2.8800 H     1 <1>   0.0800 
 38 H       -6.4630     0.0510    -3.7430 H     1 <1>   0.0800 
 39 H       -6.6310     0.7550    -2.1630 H     1 <1>   0.0800 
 40 H       -9.2650    -0.1080     2.1210 H     1 <1>   0.1500 
 41 H       -8.7180     0.5390     0.5600 H     1 <1>   0.1500 
 42 H       -9.8020    -3.4160     1.1060 H     1 <1>   0.0800 
 43 H       -9.3830    -2.5120     2.5310 H     1 <1>   0.0800 
 44 H       -8.1600    -3.4350     1.7070 H     1 <1>   0.0800 
@<TRIPOS>BOND
  1   1   2  1   
  2   1   3  1   
  3   2   4  ar  
  4   2   5  ar  
  5   3  21  1   
  6   3  22  1   
  7   3  23  1   
  8   4   6  ar  
  9   4   7  ar  
 10   5   8  ar  
 11   5  24  1   
 12   6   9  ar  
 13   6  10  ar  
 14   7  11  ar  
 15   7  25  1   
 16   8   9  ar  
 17   8  26  1   
 18   9  12  1   
 19  10  13  ar  
 20  10  27  1   
 21  11  13  ar  
 22  11  28  1   
 23  12  14  1   
 24  12  29  1   
 25  12  30  1   
 26  13  31  1   
 27  14  15  1   
 28  14  16  1   
 29  14  32  1   
 30  15  17  1   
 31  15  33  1   
 32  15  34  1   
 33  16  18  1   
 34  16  35  1   
 35  16  36  1   
 36  17  19  2   
 37  17  20  1   
 38  18  37  1   
 39  18  38  1   
 40  18  39  1   
 41  19  40  1   
 42  19  41  1   
 43  20  42  1   
 44  20  43  1   
 45  20  44  1   
@<TRIPOS>SUBSTRUCTURE
  1 ****   6 GROUP 4 **** **** 0

# MOE 2024.06 (io_trps.svl 2023.06)
