@<TRIPOS>MOLECULE
NONAME
36 38 1 0 0 
SMALL
USER_CHARGES


@<TRIPOS>ATOM
  1 BR      -0.3580     0.7820    -1.5040 Br    1 <1>  -0.1110 
  2 C       -2.1780     1.2740    -1.1180 C.ar  1 <1>   0.1110 
  3 C       -2.8760     0.5870    -0.1680 C.ar  1 <1>  -0.1500 
  4 C       -2.7320     2.3370    -1.8350 C.ar  1 <1>  -0.1500 
  5 C       -4.2090     0.9460     0.1160 C.ar  1 <1>   0.0000 
  6 C       -4.0250     2.6980    -1.5720 C.ar  1 <1>  -0.1500 
  7 C       -4.7920     2.0190    -0.5980 C.ar  1 <1>   0.0000 
  8 C       -4.9830     0.2790     1.0870 C.ar  1 <1>  -0.1500 
  9 C       -6.1240     2.3730    -0.3110 C.ar  1 <1>  -0.1500 
 10 C       -6.2750     0.6450     1.3450 C.ar  1 <1>  -0.1500 
 11 C       -6.8600     1.7100     0.6330 C.ar  1 <1>   0.0830 
 12 O       -8.1360     2.1230     0.8330 O.3   1 <1>  -0.3630 
 13 C       -9.0030     1.4580     1.7420 C.3   1 <1>   0.1810 
 14 C      -10.4040     2.0640     1.7400 C.2   1 <1>   0.5690 
 15 O      -10.8510     2.4500     2.7960 O.2   1 <1>  -0.5700 
 16 N      -11.1470     2.1290     0.5890 N.am  1 <1>  -0.6600 
 17 C      -12.5030     2.7160     0.5490 C.3   1 <1>   0.1400 
 18 C      -10.6940     1.7360    -0.7630 C.3   1 <1>   0.1400 
 19 C      -12.8050     2.8960    -0.9350 C.3   1 <1>  -0.1600 
 20 C      -11.9390     1.8510    -1.6350 C.3   1 <1>  -0.1600 
 21 H       -2.4190    -0.2260     0.3660 H     1 <1>   0.1500 
 22 H       -2.1360     2.8440    -2.5730 H     1 <1>   0.1500 
 23 H       -4.4810     3.5130    -2.1060 H     1 <1>   0.1500 
 24 H       -4.5310    -0.5330     1.6280 H     1 <1>   0.1500 
 25 H       -6.5700     3.1890    -0.8490 H     1 <1>   0.1500 
 26 H       -6.8310     0.1150     2.0950 H     1 <1>   0.1500 
 27 H       -8.5830     1.5450     2.7270 H     1 <1>   0.0800 
 28 H       -9.0660     0.4250     1.4600 H     1 <1>   0.0800 
 29 H      -12.5320     3.6520     1.0800 H     1 <1>   0.0800 
 30 H      -13.1960     2.0250     0.9980 H     1 <1>   0.0800 
 31 H      -10.2980     0.7350    -0.7680 H     1 <1>   0.0800 
 32 H       -9.9400     2.4290    -1.0960 H     1 <1>   0.0800 
 33 H      -12.4990     3.8830    -1.2340 H     1 <1>   0.0800 
 34 H      -13.8520     2.7730    -1.1470 H     1 <1>   0.0800 
 35 H      -12.4480     0.9020    -1.6440 H     1 <1>   0.0800 
 36 H      -11.6960     2.1280    -2.6450 H     1 <1>   0.0800 
@<TRIPOS>BOND
  1   1   2  1   
  2   2   3  ar  
  3   2   4  ar  
  4   3   5  ar  
  5   3  21  1   
  6   4   6  ar  
  7   4  22  1   
  8   5   7  ar  
  9   5   8  ar  
 10   6   7  ar  
 11   6  23  1   
 12   7   9  ar  
 13   8  10  ar  
 14   8  24  1   
 15   9  11  ar  
 16   9  25  1   
 17  10  11  ar  
 18  10  26  1   
 19  11  12  1   
 20  12  13  1   
 21  13  14  1   
 22  13  27  1   
 23  13  28  1   
 24  14  15  2   
 25  14  16  am  
 26  16  17  1   
 27  16  18  1   
 28  17  19  1   
 29  17  29  1   
 30  17  30  1   
 31  18  20  1   
 32  18  31  1   
 33  18  32  1   
 34  19  20  1   
 35  19  33  1   
 36  19  34  1   
 37  20  35  1   
 38  20  36  1   
@<TRIPOS>SUBSTRUCTURE
  1 ****  11 GROUP 4 **** **** 0

# MOE 2024.06 (io_trps.svl 2023.06)
