@<TRIPOS>MOLECULE
NONAME
39 40 1 0 0 
SMALL
USER_CHARGES


@<TRIPOS>ATOM
  1 CL       1.1060     0.5950     1.1330 Cl    1 <1>  -0.1770 
  2 C        0.8800    -1.0820     0.6830 C.ar  1 <1>   0.1770 
  3 C        1.9800    -1.8820     0.3930 C.ar  1 <1>   0.0820 
  4 C       -0.4080    -1.5790     0.6260 C.ar  1 <1>  -0.1500 
  5 O        3.2170    -1.3220     0.4710 O.3   1 <1>  -0.3630 
  6 C        1.7600    -3.2120     0.0380 C.ar  1 <1>  -0.1500 
  7 C       -0.6110    -2.9020     0.2720 C.ar  1 <1>  -0.1500 
  8 C        4.3830    -2.0390     0.1590 C.3   1 <1>   0.1200 
  9 C        0.4700    -3.7190    -0.0240 C.ar  1 <1>  -0.1440 
 10 C        5.5540    -1.0740     0.3470 C.3   1 <1>  -0.1600 
 11 C        0.2360    -5.1700    -0.4100 C.3   1 <1>  -0.0970 
 12 C        6.8810    -1.7400    -0.0120 C.3   1 <1>   0.3430 
 13 N        8.0180    -0.8300     0.2980 N.4   1 <1>  -0.9590 
 14 C        8.0600     0.4250    -0.5340 C.3   1 <1>   0.3430 
 15 C        9.3490    -1.5270     0.2520 C.3   1 <1>   0.3430 
 16 C        9.2880     1.2980    -0.1840 C.3   1 <1>   0.1200 
 17 C       10.5080    -0.5600     0.5930 C.3   1 <1>   0.1200 
 18 O       10.0310     0.7310     0.8620 O.3   1 <1>  -0.5600 
 19 H       -1.2380    -0.9370     0.8560 H     1 <1>   0.1500 
 20 H        2.5790    -3.8660    -0.1910 H     1 <1>   0.1500 
 21 H       -1.6130    -3.2920     0.2280 H     1 <1>   0.1500 
 22 H        4.3080    -2.3740    -0.8610 H     1 <1>   0.0800 
 23 H        4.4540    -2.8780     0.8300 H     1 <1>   0.0800 
 24 H        5.5720    -0.7600     1.3760 H     1 <1>   0.0800 
 25 H        5.3840    -0.2210    -0.2860 H     1 <1>   0.0800 
 26 H        1.0210    -5.5230    -1.0550 H     1 <1>   0.0800 
 27 H       -0.7000    -5.2740    -0.9300 H     1 <1>   0.0800 
 28 H        0.2100    -5.7820     0.4740 H     1 <1>   0.0800 
 29 H        6.8900    -2.0010    -1.0590 H     1 <1>   0.0800 
 30 H        6.9810    -2.6470     0.5630 H     1 <1>   0.0800 
 31 H        7.9300    -0.4950     1.2710 H     1 <1>   0.4500 
 32 H        7.1670     1.0060    -0.3710 H     1 <1>   0.0800 
 33 H        8.0960     0.1740    -1.5810 H     1 <1>   0.0800 
 34 H        9.5160    -1.9370    -0.7300 H     1 <1>   0.0800 
 35 H        9.3620    -2.3460     0.9520 H     1 <1>   0.0800 
 36 H        8.9690     2.2760     0.1330 H     1 <1>   0.0800 
 37 H        9.9300     1.4160    -1.0400 H     1 <1>   0.0800 
 38 H       11.2120    -0.5060    -0.2200 H     1 <1>   0.0800 
 39 H       11.0320    -0.9030     1.4680 H     1 <1>   0.0800 
@<TRIPOS>BOND
  1   1   2  1   
  2   2   3  ar  
  3   2   4  ar  
  4   3   5  1   
  5   3   6  ar  
  6   4   7  ar  
  7   4  19  1   
  8   5   8  1   
  9   6   9  ar  
 10   6  20  1   
 11   7   9  ar  
 12   7  21  1   
 13   8  10  1   
 14   8  22  1   
 15   8  23  1   
 16   9  11  1   
 17  10  12  1   
 18  10  24  1   
 19  10  25  1   
 20  11  26  1   
 21  11  27  1   
 22  11  28  1   
 23  12  13  1   
 24  12  29  1   
 25  12  30  1   
 26  13  14  1   
 27  13  15  1   
 28  13  31  1   
 29  14  16  1   
 30  14  32  1   
 31  14  33  1   
 32  15  17  1   
 33  15  34  1   
 34  15  35  1   
 35  16  18  1   
 36  16  36  1   
 37  16  37  1   
 38  17  18  1   
 39  17  38  1   
 40  17  39  1   
@<TRIPOS>SUBSTRUCTURE
  1 ****   8 GROUP 4 **** **** 0

# MOE 2024.06 (io_trps.svl 2023.06)
