@<TRIPOS>MOLECULE
NONAME
31 30 1 0 0 
SMALL
USER_CHARGES


@<TRIPOS>ATOM
  1 O       -0.4760    -0.7380     0.0840 O.2   1 <1>  -0.5700 
  2 C       -0.5890    -1.9490     0.0600 C.2   1 <1>   0.7060 
  3 O        0.5180    -2.6810    -0.1230 O.3   1 <1>  -0.4300 
  4 C       -1.8530    -2.6090     0.1830 C.2   1 <1>   0.0290 
  5 C        1.7970    -2.0910    -0.2440 C.3   1 <1>   0.0400 
  6 C       -1.7370    -4.0070     0.4240 C.2   1 <1>   0.7060 
  7 C       -3.0430    -1.9180     0.0670 C.2   1 <1>  -0.1500 
  8 O       -1.3320    -4.4710     1.4710 O.2   1 <1>  -0.5700 
  9 O       -2.1170    -4.8300    -0.5590 O.3   1 <1>  -0.4300 
 10 C       -4.4140    -2.2960     0.1790 C.2   1 <1>   0.0650 
 11 C       -2.1310    -6.2330    -0.3780 C.3   1 <1>   0.0400 
 12 C       -4.7480    -3.6270     0.5980 C.1   1 <1>   0.4920 
 13 C       -5.3930    -1.3710    -0.1040 C.2   1 <1>  -0.0500 
 14 N       -5.0150    -4.6870     0.9300 N.1   1 <1>  -0.5570 
 15 N       -6.7650    -1.4460    -0.0780 N.pl3 1 <1>  -0.8380 
 16 C       -7.5700    -2.6480     0.2970 C.3   1 <1>   0.1290 
 17 C       -7.5920    -0.2610    -0.4420 C.3   1 <1>   0.1290 
 18 H        1.8010    -1.4360    -1.0980 H     1 <1>   0.0800 
 19 H        2.5230    -2.8740    -0.3730 H     1 <1>   0.0800 
 20 H        2.0100    -1.5350     0.6530 H     1 <1>   0.0800 
 21 H       -2.9280    -0.8690    -0.1520 H     1 <1>   0.1500 
 22 H       -1.1340    -6.5670    -0.1500 H     1 <1>   0.0800 
 23 H       -2.4780    -6.6900    -1.2880 H     1 <1>   0.0800 
 24 H       -2.7990    -6.4720     0.4320 H     1 <1>   0.0800 
 25 H       -5.0340    -0.4000    -0.4060 H     1 <1>   0.1500 
 26 H       -8.6230    -2.4380     0.2320 H     1 <1>   0.0800 
 27 H       -7.3430    -2.9400     1.3080 H     1 <1>   0.0800 
 28 H       -7.3440    -3.4630    -0.3690 H     1 <1>   0.0800 
 29 H       -8.2130     0.0190     0.3920 H     1 <1>   0.0800 
 30 H       -8.2170    -0.4990    -1.2850 H     1 <1>   0.0800 
 31 H       -6.9670     0.5750    -0.7010 H     1 <1>   0.0800 
@<TRIPOS>BOND
  1   1   2  2   
  2   2   3  1   
  3   2   4  1   
  4   3   5  1   
  5   4   6  1   
  6   4   7  2   
  7   5  18  1   
  8   5  19  1   
  9   5  20  1   
 10   6   8  2   
 11   6   9  1   
 12   7  10  1   
 13   7  21  1   
 14   9  11  1   
 15  10  12  1   
 16  10  13  2   
 17  11  22  1   
 18  11  23  1   
 19  11  24  1   
 20  12  14  3   
 21  13  15  1   
 22  13  25  1   
 23  15  16  1   
 24  15  17  1   
 25  16  26  1   
 26  16  27  1   
 27  16  28  1   
 28  17  29  1   
 29  17  30  1   
 30  17  31  1   
@<TRIPOS>SUBSTRUCTURE
  1 ****   7 GROUP 4 **** **** 0

# MOE 2024.06 (io_trps.svl 2023.06)
