@<TRIPOS>MOLECULE
NONAME
43 45 1 0 0 
SMALL
USER_CHARGES


@<TRIPOS>ATOM
  1 S       -0.3740     0.4590    -0.6520 S.o2  1 <1>   1.4470 
  2 O       -0.8740     0.5820    -2.0050 O.2   1 <1>  -0.6500 
  3 O       -0.2000    -0.8560    -0.0750 O.2   1 <1>  -0.6500 
  4 N       -1.4610     1.2890     0.3480 N.am  1 <1>  -0.8490 
  5 C        1.1630     1.4060    -0.4620 C.ar  1 <1>  -0.0090 
  6 C       -2.6870     0.4960     0.5740 C.3   1 <1>   0.1960 
  7 C       -1.8220     2.6170    -0.1940 C.3   1 <1>   0.1960 
  8 C        1.7580     1.5550     0.7850 C.ar  1 <1>  -0.1500 
  9 C        1.7780     2.0150    -1.5490 C.ar  1 <1>  -0.1500 
 10 C       -3.6700     1.2050     1.5230 C.3   1 <1>   0.2090 
 11 C       -2.7840     3.3870     0.7310 C.3   1 <1>   0.2090 
 12 C        2.9230     2.2850     0.9440 C.ar  1 <1>  -0.1500 
 13 C        2.9420     2.7470    -1.3980 C.ar  1 <1>  -0.1500 
 14 N       -4.0060     2.5730     1.0150 N.pl3 1 <1>  -0.8380 
 15 C        3.5230     2.8870    -0.1490 C.ar  1 <1>  -0.1440 
 16 C       -5.2420     2.9000     0.5010 C.ar  1 <1>   0.7200 
 17 C        4.8020     3.6900     0.0200 C.3   1 <1>  -0.0160 
 18 N       -6.1130     1.9060     0.3260 N.ar  1 <1>  -0.6200 
 19 N       -5.4590     4.1840     0.2190 N.ar  1 <1>  -0.6200 
 20 C        4.4800     5.1570     0.3120 C.3   1 <1>  -0.2400 
 21 C       -7.2850     2.2360    -0.1590 C.ar  1 <1>   0.1600 
 22 C       -6.6400     4.4850    -0.2630 C.ar  1 <1>   0.1600 
 23 C       -7.6060     3.5330    -0.4750 C.ar  1 <1>  -0.1500 
 24 H       -2.4260    -0.4550     1.0060 H     1 <1>   0.0800 
 25 H       -3.1820     0.3090    -0.3650 H     1 <1>   0.0800 
 26 H       -2.2950     2.5070    -1.1570 H     1 <1>   0.0800 
 27 H       -0.9320     3.2070    -0.3280 H     1 <1>   0.0800 
 28 H        1.3000     1.0900     1.6420 H     1 <1>   0.1500 
 29 H        1.3410     1.9140    -2.5290 H     1 <1>   0.1500 
 30 H       -3.2130     1.2970     2.4930 H     1 <1>   0.0800 
 31 H       -4.5510     0.6010     1.6420 H     1 <1>   0.0800 
 32 H       -3.0360     4.3240     0.2680 H     1 <1>   0.0800 
 33 H       -2.2860     3.6080     1.6580 H     1 <1>   0.0800 
 34 H        3.3610     2.3830     1.9220 H     1 <1>   0.1500 
 35 H        3.3960     3.2090    -2.2580 H     1 <1>   0.1500 
 36 H        5.3960     3.6220    -0.8750 H     1 <1>   0.0800 
 37 H        5.3840     3.2810     0.8280 H     1 <1>   0.0800 
 38 H        3.9130     5.5810    -0.4980 H     1 <1>   0.0800 
 39 H        5.3890     5.7200     0.4300 H     1 <1>   0.0800 
 40 H        3.9030     5.2380     1.2160 H     1 <1>   0.0800 
 41 H       -8.0070     1.4520    -0.3090 H     1 <1>   0.1500 
 42 H       -6.8430     5.5170    -0.4940 H     1 <1>   0.1500 
 43 H       -8.5700     3.7910    -0.8700 H     1 <1>   0.1500 
@<TRIPOS>BOND
  1   1   2  2   
  2   1   3  2   
  3   1   4  am  
  4   1   5  1   
  5   4   6  1   
  6   4   7  1   
  7   5   8  ar  
  8   5   9  ar  
  9   6  10  1   
 10   6  24  1   
 11   6  25  1   
 12   7  11  1   
 13   7  26  1   
 14   7  27  1   
 15   8  12  ar  
 16   8  28  1   
 17   9  13  ar  
 18   9  29  1   
 19  10  14  1   
 20  10  30  1   
 21  10  31  1   
 22  11  14  1   
 23  11  32  1   
 24  11  33  1   
 25  12  15  ar  
 26  12  34  1   
 27  13  15  ar  
 28  13  35  1   
 29  14  16  1   
 30  15  17  1   
 31  16  18  ar  
 32  16  19  ar  
 33  17  20  1   
 34  17  36  1   
 35  17  37  1   
 36  18  21  ar  
 37  19  22  ar  
 38  20  38  1   
 39  20  39  1   
 40  20  40  1   
 41  21  23  ar  
 42  21  41  1   
 43  22  23  ar  
 44  22  42  1   
 45  23  43  1   
@<TRIPOS>SUBSTRUCTURE
  1 ****   7 GROUP 4 **** **** 0

# MOE 2024.06 (io_trps.svl 2023.06)
