@<TRIPOS>MOLECULE
NONAME
35 36 1 0 0 
SMALL
USER_CHARGES


@<TRIPOS>ATOM
  1 S       -0.7080     0.0460     0.7150 S.3   1 <1>  -0.0800 
  2 C       -2.0530     1.1480     0.4620 C.2   1 <1>  -0.1400 
  3 C        0.2070     0.7900    -0.5830 C.2   1 <1>  -0.1100 
  4 C       -1.7770     2.0010    -0.5440 C.2   1 <1>  -0.1500 
  5 C       -3.2570     0.9680     1.3740 C.3   1 <1>   0.0810 
  6 C       -0.4920     1.7960    -1.1390 C.2   1 <1>  -0.1500 
  7 C       -4.5130     1.6650     0.8650 C.2   1 <1>   0.5690 
  8 O       -5.0840     2.4310     1.6050 O.2   1 <1>  -0.5700 
  9 N       -5.0500     1.3980    -0.3700 N.am  1 <1>  -0.6600 
 10 C       -6.0870     2.3130    -0.9450 C.3   1 <1>   0.1400 
 11 C       -4.8000     0.1640    -1.1590 C.3   1 <1>   0.1400 
 12 C       -7.4830     2.0250    -0.3630 C.3   1 <1>   0.3430 
 13 C       -5.8740    -0.8870    -0.8400 C.3   1 <1>  -0.1600 
 14 N       -7.6280     0.6030     0.1010 N.4   1 <1>  -0.9590 
 15 C       -7.3280    -0.4040    -0.9580 C.3   1 <1>   0.3430 
 16 C       -8.9510     0.3770     0.7530 C.3   1 <1>   0.2630 
 17 H        1.1840     0.3910    -0.7930 H     1 <1>   0.1500 
 18 H       -2.4250     2.7820    -0.9030 H     1 <1>   0.1500 
 19 H       -3.0100     1.3540     2.3460 H     1 <1>   0.0800 
 20 H       -3.4690    -0.0780     1.4840 H     1 <1>   0.0800 
 21 H       -0.1540     2.4160    -1.9530 H     1 <1>   0.1500 
 22 H       -6.1130     2.2100    -2.0160 H     1 <1>   0.0800 
 23 H       -5.8230     3.3350    -0.7320 H     1 <1>   0.0800 
 24 H       -3.8250    -0.2390    -0.9370 H     1 <1>   0.0800 
 25 H       -4.8100     0.4010    -2.2090 H     1 <1>   0.0800 
 26 H       -8.2360     2.2650    -1.0950 H     1 <1>   0.0800 
 27 H       -7.6260     2.6820     0.4810 H     1 <1>   0.0800 
 28 H       -5.7070    -1.2870     0.1440 H     1 <1>   0.0800 
 29 H       -5.7400    -1.7040    -1.5280 H     1 <1>   0.0800 
 30 H       -6.8820     0.5090     0.8110 H     1 <1>   0.4500 
 31 H       -7.9780    -1.2550    -0.8380 H     1 <1>   0.0800 
 32 H       -7.5050     0.0150    -1.9360 H     1 <1>   0.0800 
 33 H       -9.7480     0.4980     0.0370 H     1 <1>   0.0800 
 34 H       -9.0970     1.0820     1.5560 H     1 <1>   0.0800 
 35 H       -9.0010    -0.6200     1.1610 H     1 <1>   0.0800 
@<TRIPOS>BOND
  1   1   2  1   
  2   1   3  1   
  3   2   4  2   
  4   2   5  1   
  5   3   6  2   
  6   3  17  1   
  7   4   6  1   
  8   4  18  1   
  9   5   7  1   
 10   5  19  1   
 11   5  20  1   
 12   6  21  1   
 13   7   8  2   
 14   7   9  am  
 15   9  10  1   
 16   9  11  1   
 17  10  12  1   
 18  10  22  1   
 19  10  23  1   
 20  11  13  1   
 21  11  24  1   
 22  11  25  1   
 23  12  14  1   
 24  12  26  1   
 25  12  27  1   
 26  13  15  1   
 27  13  28  1   
 28  13  29  1   
 29  14  15  1   
 30  14  16  1   
 31  14  30  1   
 32  15  31  1   
 33  15  32  1   
 34  16  33  1   
 35  16  34  1   
 36  16  35  1   
@<TRIPOS>SUBSTRUCTURE
  1 ****   9 GROUP 4 **** **** 0

# MOE 2024.06 (io_trps.svl 2023.06)
