@<TRIPOS>MOLECULE
NONAME
38 40 1 0 0 
SMALL
USER_CHARGES


@<TRIPOS>ATOM
  1 O        0.5320     0.5840     0.1350 O.co2 1 <1>  -0.9000 
  2 C        0.0440     1.5360    -0.4850 C.2   1 <1>   0.9060 
  3 O        0.0400     1.5710    -1.7160 O.co2 1 <1>  -0.9000 
  4 C       -0.6500     2.6120     0.3350 C.3   1 <1>  -0.1860 
  5 C       -2.2730     2.2800     0.7480 C.3   1 <1>  -0.0190 
  6 C       -0.6200     4.1180    -0.3480 C.3   1 <1>   0.0580 
  7 C       -2.8930     0.9370     0.3220 C.2   1 <1>   0.5690 
  8 C       -3.1520     3.6030     0.2740 C.3   1 <1>   0.0580 
  9 C       -1.6000     5.3920    -0.5830 C.2   1 <1>  -0.2880 
 10 C       -1.8790     3.8170    -0.0410 C.3   1 <1>  -0.1600 
 11 O       -4.0780     0.8780     0.0820 O.2   1 <1>  -0.5700 
 12 N       -2.1310    -0.1780     0.2860 N.am  1 <1>  -0.7300 
 13 C       -2.9300     5.1220    -0.2550 C.2   1 <1>  -0.2880 
 14 C       -2.5110    -1.4410    -0.3350 C.3   1 <1>   0.3640 
 15 C       -1.8720    -2.5900     0.4360 C.ar  1 <1>  -0.1440 
 16 C       -2.0340    -1.4160    -1.7840 C.3   1 <1>  -0.2400 
 17 C       -2.6260    -3.6260     0.9530 C.ar  1 <1>  -0.1500 
 18 C       -0.5110    -2.6630     0.6630 C.ar  1 <1>  -0.1500 
 19 C       -2.0010    -4.6520     1.6440 C.ar  1 <1>   0.1600 
 20 C        0.0140    -3.7330     1.3670 C.ar  1 <1>   0.1600 
 21 N       -0.6990    -4.7350     1.8620 N.ar  1 <1>  -0.6200 
 22 H       -0.0810     2.6570     1.2490 H     1 <1>   0.0800 
 23 H       -2.3150     2.2400     1.8250 H     1 <1>   0.0800 
 24 H       -0.2380     3.9540    -1.3460 H     1 <1>   0.0800 
 25 H       -3.8350     3.2220    -0.4730 H     1 <1>   0.0800 
 26 H       -1.1680     6.3020    -0.9620 H     1 <1>   0.1500 
 27 H       -2.0430     3.3560    -1.1000 H     1 <1>   0.0800 
 28 H       -1.6810     4.2240     1.0910 H     1 <1>   0.0800 
 29 H       -1.1000    -0.0720     0.3660 H     1 <1>   0.3700 
 30 H       -3.7860     5.7720    -0.3150 H     1 <1>   0.1500 
 31 H       -3.5830    -1.5400    -0.3150 H     1 <1>   0.0800 
 32 H       -0.9720    -1.2450    -1.8280 H     1 <1>   0.0800 
 33 H       -2.5300    -0.6260    -2.3170 H     1 <1>   0.0800 
 34 H       -2.2560    -2.3520    -2.2610 H     1 <1>   0.0800 
 35 H       -3.6920    -3.6400     0.8260 H     1 <1>   0.1500 
 36 H        0.1480    -1.8920     0.2980 H     1 <1>   0.1500 
 37 H       -2.6080    -5.4480     2.0380 H     1 <1>   0.1500 
 38 H        1.0770    -3.7600     1.5300 H     1 <1>   0.1500 
@<TRIPOS>BOND
  1   1   2  ar  
  2   2   3  ar  
  3   2   4  1   
  4   4   5  1   
  5   4   6  1   
  6   4  22  1   
  7   5   7  1   
  8   5   8  1   
  9   5  23  1   
 10   6   9  1   
 11   6  10  1   
 12   6  24  1   
 13   7  11  2   
 14   7  12  am  
 15   8  10  1   
 16   8  13  1   
 17   8  25  1   
 18   9  13  2   
 19   9  26  1   
 20  10  27  1   
 21  10  28  1   
 22  12  14  1   
 23  12  29  1   
 24  13  30  1   
 25  14  15  1   
 26  14  16  1   
 27  14  31  1   
 28  15  17  ar  
 29  15  18  ar  
 30  16  32  1   
 31  16  33  1   
 32  16  34  1   
 33  17  19  ar  
 34  17  35  1   
 35  18  20  ar  
 36  18  36  1   
 37  19  21  ar  
 38  19  37  1   
 39  20  21  ar  
 40  20  38  1   
@<TRIPOS>SUBSTRUCTURE
  1 ****  12 GROUP 4 **** **** 0

# MOE 2024.06 (io_trps.svl 2023.06)
