@<TRIPOS>MOLECULE
NONAME
46 48 1 0 0 
SMALL
USER_CHARGES


@<TRIPOS>ATOM
  1 N        0.0770     0.3180    -0.6590 N.3   1 <1>  -0.8100 
  2 C       -0.0350     1.7590    -1.0070 C.3   1 <1>   0.1100 
  3 C       -1.1800    -0.3950    -0.9800 C.3   1 <1>   0.1100 
  4 C        1.2460    -0.3190    -1.2990 C.3   1 <1>   0.2540 
  5 C       -1.2930     2.4230    -0.3970 C.3   1 <1>   0.3430 
  6 C       -2.4050     0.2290    -0.2650 C.3   1 <1>   0.3430 
  7 C        2.5370     0.3660    -0.8740 C.ar  1 <1>  -0.1440 
  8 N       -2.0270     1.4690     0.4960 N.4   1 <1>  -0.9590 
  9 C        3.3410     1.0040    -1.8070 C.ar  1 <1>  -0.1500 
 10 C        2.9260     0.3610     0.4560 C.ar  1 <1>  -0.1500 
 11 C       -3.1370     2.1100     1.2410 C.3   1 <1>   0.3430 
 12 C        4.5110     1.6260    -1.4120 C.ar  1 <1>  -0.1500 
 13 C        4.0970     0.9850     0.8460 C.ar  1 <1>  -0.1500 
 14 C       -3.5790     1.2070     2.3860 C.3   1 <1>  -0.2400 
 15 C        4.9120     1.6290    -0.0800 C.ar  1 <1>   0.0000 
 16 C        6.1380     2.2780     0.3290 C.ar  1 <1>   0.0000 
 17 C        6.3520     3.6310     0.0820 C.ar  1 <1>  -0.1500 
 18 C        7.1410     1.5660     0.9800 C.ar  1 <1>  -0.1500 
 19 C        7.5240     4.2530     0.4710 C.ar  1 <1>  -0.1500 
 20 C        8.3160     2.1820     1.3730 C.ar  1 <1>  -0.1500 
 21 C        8.5100     3.5290     1.1180 C.ar  1 <1>  -0.1500 
 22 H       -0.0530     1.8810    -2.0760 H     1 <1>   0.0800 
 23 H        0.8320     2.2840    -0.6390 H     1 <1>   0.0800 
 24 H       -1.0940    -1.4260    -0.6810 H     1 <1>   0.0800 
 25 H       -1.3470    -0.3800    -2.0440 H     1 <1>   0.0800 
 26 H        1.1450    -0.2840    -2.3710 H     1 <1>   0.0800 
 27 H        1.2970    -1.3540    -1.0030 H     1 <1>   0.0800 
 28 H       -1.9400     2.7520    -1.1940 H     1 <1>   0.0800 
 29 H       -0.9900     3.2940     0.1600 H     1 <1>   0.0800 
 30 H       -2.8160    -0.5030     0.4100 H     1 <1>   0.0800 
 31 H       -3.1620     0.4600    -0.9960 H     1 <1>   0.0800 
 32 H       -1.2990     1.1450     1.1540 H     1 <1>   0.4500 
 33 H        3.0640     1.0180    -2.8470 H     1 <1>   0.1500 
 34 H        2.3130    -0.1300     1.1910 H     1 <1>   0.1500 
 35 H       -3.9670     2.3050     0.5790 H     1 <1>   0.0800 
 36 H       -2.8020     3.0500     1.6490 H     1 <1>   0.0800 
 37 H        5.1320     2.1130    -2.1440 H     1 <1>   0.1500 
 38 H        4.3880     0.9770     1.8810 H     1 <1>   0.1500 
 39 H       -4.0180     0.2960     2.0220 H     1 <1>   0.0800 
 40 H       -4.3250     1.7180     2.9680 H     1 <1>   0.0800 
 41 H       -2.7520     0.9790     3.0340 H     1 <1>   0.0800 
 42 H        5.5880     4.2000    -0.4170 H     1 <1>   0.1500 
 43 H        6.9980     0.5190     1.1760 H     1 <1>   0.1500 
 44 H        7.6710     5.3000     0.2720 H     1 <1>   0.1500 
 45 H        9.0810     1.6150     1.8750 H     1 <1>   0.1500 
 46 H        9.4230     4.0100     1.4220 H     1 <1>   0.1500 
@<TRIPOS>BOND
  1   1   2  1   
  2   1   3  1   
  3   1   4  1   
  4   2   5  1   
  5   2  22  1   
  6   2  23  1   
  7   3   6  1   
  8   3  24  1   
  9   3  25  1   
 10   4   7  1   
 11   4  26  1   
 12   4  27  1   
 13   5   8  1   
 14   5  28  1   
 15   5  29  1   
 16   6   8  1   
 17   6  30  1   
 18   6  31  1   
 19   7   9  ar  
 20   7  10  ar  
 21   8  11  1   
 22   8  32  1   
 23   9  12  ar  
 24   9  33  1   
 25  10  13  ar  
 26  10  34  1   
 27  11  14  1   
 28  11  35  1   
 29  11  36  1   
 30  12  15  ar  
 31  12  37  1   
 32  13  15  ar  
 33  13  38  1   
 34  14  39  1   
 35  14  40  1   
 36  14  41  1   
 37  15  16  1   
 38  16  17  ar  
 39  16  18  ar  
 40  17  19  ar  
 41  17  42  1   
 42  18  20  ar  
 43  18  43  1   
 44  19  21  ar  
 45  19  44  1   
 46  20  21  ar  
 47  20  45  1   
 48  21  46  1   
@<TRIPOS>SUBSTRUCTURE
  1 ****  10 GROUP 4 **** **** 0

# MOE 2024.06 (io_trps.svl 2023.06)
