@<TRIPOS>MOLECULE
NONAME
42 43 1 0 0 
SMALL
USER_CHARGES


@<TRIPOS>ATOM
  1 BR      -1.0530     2.2780     2.2520 Br    1 <1>  -0.1110 
  2 C        0.3110     3.1110     1.1780 C.ar  1 <1>   0.1110 
  3 C        0.0730     3.3040    -0.1700 C.ar  1 <1>  -0.1500 
  4 C        1.4930     3.4960     1.7830 C.ar  1 <1>  -0.1500 
  5 C        1.0590     3.9010    -0.9360 C.ar  1 <1>  -0.1500 
  6 C        2.4700     4.0920     1.0040 C.ar  1 <1>  -0.1500 
  7 C        2.2630     4.2930    -0.3580 C.ar  1 <1>   0.1170 
  8 N        3.2500     4.8920    -1.1410 N.am  1 <1>  -0.5470 
  9 C        4.4880     4.4460    -1.4820 C.2   1 <1>   0.5690 
 10 O        5.2240     5.1980    -2.0710 O.2   1 <1>  -0.5700 
 11 C        4.9260     3.0150    -1.1370 C.3   1 <1>  -0.0190 
 12 C        6.4420     2.8840    -0.8370 C.3   1 <1>  -0.0190 
 13 C        4.4610     2.0080    -2.2090 C.3   1 <1>  -0.0220 
 14 C        6.8710     3.8280     0.2840 C.2   1 <1>   0.6590 
 15 C        7.3210     3.0220    -2.1020 C.3   1 <1>  -0.0220 
 16 C        5.4660     1.8370    -3.3330 C.2   1 <1>  -0.2880 
 17 O        6.1060     4.1530     1.1590 O.2   1 <1>  -0.5700 
 18 O        8.1350     4.2380     0.2680 O.3   1 <1>  -0.4300 
 19 C        6.7210     2.2890    -3.2890 C.2   1 <1>  -0.2880 
 20 C        8.6680     5.1080     1.2360 C.3   1 <1>   0.2000 
 21 C        9.8150     5.8660     0.5760 C.3   1 <1>  -0.2400 
 22 C        9.1530     4.2730     2.4210 C.3   1 <1>  -0.2400 
 23 H       -0.8610     2.9940    -0.6040 H     1 <1>   0.1500 
 24 H        1.6440     3.3330     2.8360 H     1 <1>   0.1500 
 25 H        0.9000     4.0630    -1.9880 H     1 <1>   0.1500 
 26 H        3.3990     4.4050     1.4520 H     1 <1>   0.1500 
 27 H        3.0660     5.8390    -1.4740 H     1 <1>   0.3700 
 28 H        4.4170     2.7420    -0.2320 H     1 <1>   0.0800 
 29 H        6.5990     1.8890    -0.4640 H     1 <1>   0.0800 
 30 H        3.5160     2.3260    -2.6150 H     1 <1>   0.0800 
 31 H        4.3080     1.0460    -1.7500 H     1 <1>   0.0800 
 32 H        8.2960     2.6190    -1.8950 H     1 <1>   0.0800 
 33 H        7.4490     4.0580    -2.3660 H     1 <1>   0.0800 
 34 H        5.0670     1.3100    -4.1840 H     1 <1>   0.1500 
 35 H        7.4120     2.1740    -4.1080 H     1 <1>   0.1500 
 36 H        7.9010     5.8020     1.5430 H     1 <1>   0.0800 
 37 H       10.5740     5.1830     0.2390 H     1 <1>   0.0800 
 38 H       10.2550     6.5510     1.2780 H     1 <1>   0.0800 
 39 H        9.4460     6.4300    -0.2620 H     1 <1>   0.0800 
 40 H        9.8900     3.5580     2.1020 H     1 <1>   0.0800 
 41 H        8.3250     3.7580     2.8730 H     1 <1>   0.0800 
 42 H        9.5940     4.9140     3.1620 H     1 <1>   0.0800 
@<TRIPOS>BOND
  1   1   2  1   
  2   2   3  ar  
  3   2   4  ar  
  4   3   5  ar  
  5   3  23  1   
  6   4   6  ar  
  7   4  24  1   
  8   5   7  ar  
  9   5  25  1   
 10   6   7  ar  
 11   6  26  1   
 12   7   8  1   
 13   8   9  am  
 14   8  27  1   
 15   9  10  2   
 16   9  11  1   
 17  11  12  1   
 18  11  13  1   
 19  11  28  1   
 20  12  14  1   
 21  12  15  1   
 22  12  29  1   
 23  13  16  1   
 24  13  30  1   
 25  13  31  1   
 26  14  17  2   
 27  14  18  1   
 28  15  19  1   
 29  15  32  1   
 30  15  33  1   
 31  16  19  2   
 32  16  34  1   
 33  18  20  1   
 34  19  35  1   
 35  20  21  1   
 36  20  22  1   
 37  20  36  1   
 38  21  37  1   
 39  21  38  1   
 40  21  39  1   
 41  22  40  1   
 42  22  41  1   
 43  22  42  1   
@<TRIPOS>SUBSTRUCTURE
  1 ****  11 GROUP 4 **** **** 0

# MOE 2024.06 (io_trps.svl 2023.06)
