@<TRIPOS>MOLECULE
NONAME
44 46 1 0 0 
SMALL
USER_CHARGES


@<TRIPOS>ATOM
  1 S        0.6030     0.2110    -0.3790 S.3   1 <1>  -0.2860 
  2 C       -1.0650    -0.3730    -0.6930 C.2   1 <1>   0.2420 
  3 C        1.2690     0.4760    -2.0960 C.3   1 <1>   0.1310 
  4 N       -1.5430    -0.5640    -1.8710 N.2   1 <1>  -0.3380 
  5 N       -1.9240    -0.6530     0.2850 N.pl3 1 <1>   0.0480 
  6 C        2.7280     0.9010    -2.0710 C.2   1 <1>   0.5690 
  7 N       -2.7920    -1.0020    -1.6850 N.2   1 <1>  -0.3380 
  8 C       -2.9990    -1.0510    -0.4090 C.2   1 <1>   0.1010 
  9 C       -1.7200    -0.5540     1.7440 C.3   1 <1>   0.0160 
 10 O        3.1320     1.5730    -2.9880 O.2   1 <1>  -0.5700 
 11 N        3.5100     0.4930    -1.0260 N.am  1 <1>  -0.5470 
 12 C       -4.3000    -1.5000     0.2370 C.3   1 <1>  -0.0150 
 13 C        4.8700     0.6660    -0.6990 C.ar  1 <1>   0.1170 
 14 C       -4.3520    -2.7810     1.0140 C.3   1 <1>  -0.2000 
 15 C       -5.0430    -2.6790    -0.3110 C.3   1 <1>  -0.2000 
 16 C        5.3240     0.1480     0.5190 C.ar  1 <1>   0.0830 
 17 C        5.7760     1.3200    -1.5270 C.ar  1 <1>  -0.1500 
 18 O        4.4070    -0.4930     1.3070 O.3   1 <1>  -0.3630 
 19 C        6.6580     0.2930     0.8840 C.ar  1 <1>  -0.1500 
 20 C        7.1020     1.4640    -1.1610 C.ar  1 <1>  -0.1500 
 21 C        4.7790    -1.0520     2.5480 C.3   1 <1>   0.0400 
 22 C        7.5490     0.9480     0.0510 C.ar  1 <1>   0.0830 
 23 O        8.8330     1.0440     0.4880 O.3   1 <1>  -0.3630 
 24 C        9.8140     1.6990    -0.2850 C.3   1 <1>   0.0400 
 25 H        0.6640     1.2350    -2.5570 H     1 <1>   0.0800 
 26 H        1.1590    -0.4490    -2.6290 H     1 <1>   0.0800 
 27 H       -1.1910     0.3540     1.9710 H     1 <1>   0.0800 
 28 H       -1.1430    -1.3970     2.0780 H     1 <1>   0.0800 
 29 H       -2.6690    -0.5460     2.2480 H     1 <1>   0.0800 
 30 H        3.0120    -0.0170    -0.2910 H     1 <1>   0.3700 
 31 H       -4.8940    -0.6710     0.5790 H     1 <1>   0.1000 
 32 H       -4.9550    -2.8280     1.9040 H     1 <1>   0.1000 
 33 H       -3.4720    -3.3970     1.0750 H     1 <1>   0.1000 
 34 H       -4.6260    -3.1920    -1.1610 H     1 <1>   0.1000 
 35 H       -6.1170    -2.6360    -0.3430 H     1 <1>   0.1000 
 36 H        5.4540     1.7260    -2.4680 H     1 <1>   0.1500 
 37 H        7.0400    -0.0900     1.8090 H     1 <1>   0.1500 
 38 H        7.7650     1.9770    -1.8310 H     1 <1>   0.1500 
 39 H        3.9070    -1.5020     2.9880 H     1 <1>   0.0800 
 40 H        5.1470    -0.2690     3.1880 H     1 <1>   0.0800 
 41 H        5.5330    -1.8010     2.3830 H     1 <1>   0.0800 
 42 H       10.7450     1.6560     0.2510 H     1 <1>   0.0800 
 43 H        9.5210     2.7240    -0.4280 H     1 <1>   0.0800 
 44 H        9.9130     1.1900    -1.2280 H     1 <1>   0.0800 
@<TRIPOS>BOND
  1   1   2  1   
  2   1   3  1   
  3   2   4  2   
  4   2   5  1   
  5   3   6  1   
  6   3  25  1   
  7   3  26  1   
  8   4   7  1   
  9   5   8  1   
 10   5   9  1   
 11   6  10  2   
 12   6  11  am  
 13   7   8  2   
 14   8  12  1   
 15   9  27  1   
 16   9  28  1   
 17   9  29  1   
 18  11  13  1   
 19  11  30  1   
 20  12  14  1   
 21  12  15  1   
 22  12  31  1   
 23  13  16  ar  
 24  13  17  ar  
 25  14  15  1   
 26  14  32  1   
 27  14  33  1   
 28  15  34  1   
 29  15  35  1   
 30  16  18  1   
 31  16  19  ar  
 32  17  20  ar  
 33  17  36  1   
 34  18  21  1   
 35  19  22  ar  
 36  19  37  1   
 37  20  22  ar  
 38  20  38  1   
 39  21  39  1   
 40  21  40  1   
 41  21  41  1   
 42  22  23  1   
 43  23  24  1   
 44  24  42  1   
 45  24  43  1   
 46  24  44  1   
@<TRIPOS>SUBSTRUCTURE
  1 ****   1 GROUP 4 **** **** 0

# MOE 2024.06 (io_trps.svl 2023.06)
