@<TRIPOS>MOLECULE
NONAME
49 51 1 0 0 
SMALL
USER_CHARGES


@<TRIPOS>ATOM
  1 S       -1.0500    -0.6860     1.9900 S.3   1 <1>  -0.4600 
  2 C       -2.1780     0.7230     2.0150 C.3   1 <1>   0.5940 
  3 C       -2.1050    -1.8200     1.0650 C.3   1 <1>   0.2110 
  4 N       -3.4100     0.2220     1.3760 N.am  1 <1>  -0.6600 
  5 C       -1.5420     1.8830     1.2610 C.ar  1 <1>  -0.1440 
  6 C       -3.4130    -1.0550     0.9100 C.2   1 <1>   0.5690 
  7 C       -2.2050    -3.1180     1.8730 C.3   1 <1>  -0.2400 
  8 C       -4.6060     1.0990     1.3430 C.3   1 <1>   0.2840 
  9 C       -1.2100     1.7730    -0.0810 C.ar  1 <1>  -0.1500 
 10 C       -1.3020     3.0840     1.9140 C.ar  1 <1>  -0.1500 
 11 O       -4.3810    -1.5770     0.4090 O.2   1 <1>  -0.5700 
 12 C       -4.6360     1.9450     0.0780 C.ar  1 <1>  -0.1430 
 13 C       -0.6530     2.8430    -0.7580 C.ar  1 <1>   0.0830 
 14 C       -0.7560     4.1730     1.2500 C.ar  1 <1>   0.0830 
 15 C       -5.0300     1.3780    -1.1250 C.ar  1 <1>  -0.1500 
 16 C       -4.2910     3.2880     0.1090 C.ar  1 <1>  -0.1500 
 17 O       -0.3540     2.6820    -2.0680 O.3   1 <1>  -0.3630 
 18 C       -0.4060     4.0500    -0.1020 C.ar  1 <1>   0.0830 
 19 O       -0.6090     5.2950     2.0100 O.3   1 <1>  -0.3630 
 20 C       -5.0880     2.1420    -2.2780 C.ar  1 <1>  -0.1500 
 21 C       -4.3420     4.0530    -1.0430 C.ar  1 <1>  -0.1500 
 22 C       -1.4230     2.9260    -2.9510 C.3   1 <1>   0.0400 
 23 O        0.1690     5.0780    -0.7870 O.3   1 <1>  -0.3630 
 24 C       -0.7170     6.5780     1.4350 C.3   1 <1>   0.0400 
 25 C       -4.7460     3.4820    -2.2360 C.ar  1 <1>  -0.1500 
 26 C        1.5510     4.9440    -1.0260 C.3   1 <1>   0.0400 
 27 H       -2.3550     0.9680     3.0480 H     1 <1>   0.0800 
 28 H       -1.6500    -1.9780     0.1050 H     1 <1>   0.0800 
 29 H       -2.8410    -3.8170     1.3590 H     1 <1>   0.0800 
 30 H       -2.6230    -2.9230     2.8440 H     1 <1>   0.0800 
 31 H       -1.2300    -3.5580     1.9880 H     1 <1>   0.0800 
 32 H       -4.6150     1.7330     2.2120 H     1 <1>   0.0800 
 33 H       -5.4940     0.4910     1.3760 H     1 <1>   0.0800 
 34 H       -1.3890     0.8580    -0.6150 H     1 <1>   0.1500 
 35 H       -1.5450     3.1990     2.9550 H     1 <1>   0.1500 
 36 H       -5.2970     0.3340    -1.1660 H     1 <1>   0.1500 
 37 H       -3.9760     3.7490     1.0290 H     1 <1>   0.1500 
 38 H       -5.4000     1.6920    -3.2040 H     1 <1>   0.1500 
 39 H       -4.0660     5.0930    -1.0080 H     1 <1>   0.1500 
 40 H       -1.0680     2.7900    -3.9570 H     1 <1>   0.0800 
 41 H       -1.7640     3.9360    -2.8100 H     1 <1>   0.0800 
 42 H       -2.2150     2.2300    -2.7390 H     1 <1>   0.0800 
 43 H       -0.9300     7.2810     2.2190 H     1 <1>   0.0800 
 44 H       -1.5150     6.5760     0.7130 H     1 <1>   0.0800 
 45 H        0.2180     6.8290     0.9670 H     1 <1>   0.0800 
 46 H       -4.7920     4.0790    -3.1310 H     1 <1>   0.1500 
 47 H        1.8960     5.8330    -1.5210 H     1 <1>   0.0800 
 48 H        1.7210     4.0860    -1.6520 H     1 <1>   0.0800 
 49 H        2.0560     4.8250    -0.0830 H     1 <1>   0.0800 
@<TRIPOS>BOND
  1   1   2  1   
  2   1   3  1   
  3   2   4  1   
  4   2   5  1   
  5   2  27  1   
  6   3   6  1   
  7   3   7  1   
  8   3  28  1   
  9   4   6  am  
 10   4   8  1   
 11   5   9  ar  
 12   5  10  ar  
 13   6  11  2   
 14   7  29  1   
 15   7  30  1   
 16   7  31  1   
 17   8  12  1   
 18   8  32  1   
 19   8  33  1   
 20   9  13  ar  
 21   9  34  1   
 22  10  14  ar  
 23  10  35  1   
 24  12  15  ar  
 25  12  16  ar  
 26  13  17  1   
 27  13  18  ar  
 28  14  18  ar  
 29  14  19  1   
 30  15  20  ar  
 31  15  36  1   
 32  16  21  ar  
 33  16  37  1   
 34  17  22  1   
 35  18  23  1   
 36  19  24  1   
 37  20  25  ar  
 38  20  38  1   
 39  21  25  ar  
 40  21  39  1   
 41  22  40  1   
 42  22  41  1   
 43  22  42  1   
 44  23  26  1   
 45  24  43  1   
 46  24  44  1   
 47  24  45  1   
 48  25  46  1   
 49  26  47  1   
 50  26  48  1   
 51  26  49  1   
@<TRIPOS>SUBSTRUCTURE
  1 ****   9 GROUP 4 **** **** 0

# MOE 2024.06 (io_trps.svl 2023.06)
