@<TRIPOS>MOLECULE
NONAME
51 53 1 0 0 
SMALL
USER_CHARGES


@<TRIPOS>ATOM
  1 CL      -1.7460     0.3200     1.6230 Cl    1 <1>  -0.1770 
  2 C       -1.6090     2.0570     1.5290 C.ar  1 <1>   0.1770 
  3 C       -1.4300     2.6550     0.2940 C.ar  1 <1>  -0.1500 
  4 C       -1.6810     2.8060     2.6890 C.ar  1 <1>  -0.1500 
  5 C       -1.3290     4.0340     0.2180 C.ar  1 <1>  -0.1500 
  6 C       -1.5800     4.1850     2.6120 C.ar  1 <1>  -0.1500 
  7 C       -1.4150     4.8000     1.3780 C.ar  1 <1>   0.0830 
  8 O       -1.3300     6.1520     1.3380 O.3   1 <1>  -0.1650 
  9 C       -2.0100     6.8760     0.4130 C.ar  1 <1>   0.0830 
 10 C       -3.2620     6.4880    -0.0480 C.ar  1 <1>  -0.1500 
 11 C       -1.4330     8.0430    -0.0590 C.ar  1 <1>  -0.1500 
 12 C       -3.9350     7.2640    -0.9820 C.ar  1 <1>  -0.1430 
 13 C       -2.0950     8.8120    -0.9980 C.ar  1 <1>  -0.1500 
 14 C       -3.3410     8.4230    -1.4610 C.ar  1 <1>  -0.1500 
 15 C       -5.3090     6.8450    -1.4610 C.3   1 <1>   0.4860 
 16 N       -6.2680     7.0630    -0.3310 N.4   1 <1>  -0.9590 
 17 C       -7.5190     6.2360    -0.4140 C.3   1 <1>   0.4230 
 18 C       -6.5040     8.5450    -0.2040 C.3   1 <1>   0.2630 
 19 C       -8.4710     6.5770     0.7450 C.3   1 <1>  -0.1600 
 20 C       -7.1710     4.7390    -0.3660 C.3   1 <1>  -0.1600 
 21 C       -9.7040     5.6710     0.7630 C.3   1 <1>   0.3430 
 22 C       -8.4220     3.8570    -0.3310 C.3   1 <1>   0.3430 
 23 N       -9.2870     4.2430     0.8170 N.4   1 <1>  -0.9590 
 24 C      -10.4940     3.3530     0.8790 C.3   1 <1>   0.2630 
 25 H       -1.3650     2.0450    -0.5890 H     1 <1>   0.1500 
 26 H       -1.8110     2.3130     3.6370 H     1 <1>   0.1500 
 27 H       -1.1730     4.5130    -0.7330 H     1 <1>   0.1500 
 28 H       -1.6250     4.7860     3.5030 H     1 <1>   0.1500 
 29 H       -3.6950     5.5810     0.3330 H     1 <1>   0.1500 
 30 H       -0.4660     8.3420     0.3070 H     1 <1>   0.1500 
 31 H       -1.6360     9.7140    -1.3690 H     1 <1>   0.1500 
 32 H       -3.8310     9.0390    -2.1980 H     1 <1>   0.1500 
 33 H       -5.2650     5.8070    -1.7430 H     1 <1>   0.0800 
 34 H       -5.5990     7.4210    -2.3250 H     1 <1>   0.0800 
 35 H       -5.7390     6.7860     0.5090 H     1 <1>   0.4500 
 36 H       -8.0220     6.4500    -1.3460 H     1 <1>   0.0800 
 37 H       -7.0520     8.9170    -1.0540 H     1 <1>   0.0800 
 38 H       -5.5630     9.0710    -0.1480 H     1 <1>   0.0800 
 39 H       -7.0590     8.7700     0.6930 H     1 <1>   0.0800 
 40 H       -8.8300     7.5850     0.6470 H     1 <1>   0.0800 
 41 H       -7.9630     6.4900     1.6890 H     1 <1>   0.0800 
 42 H       -6.5700     4.5190     0.4990 H     1 <1>   0.0800 
 43 H       -6.6180     4.4510    -1.2410 H     1 <1>   0.0800 
 44 H      -10.2970     5.8440    -0.1210 H     1 <1>   0.0800 
 45 H      -10.3120     5.9080     1.6230 H     1 <1>   0.0800 
 46 H       -8.1300     2.8220    -0.2380 H     1 <1>   0.0800 
 47 H       -8.9710     3.9660    -1.2530 H     1 <1>   0.0800 
 48 H       -8.7620     4.0870     1.6930 H     1 <1>   0.4500 
 49 H      -11.0940     3.4650    -0.0100 H     1 <1>   0.0800 
 50 H      -11.1010     3.6010     1.7350 H     1 <1>   0.0800 
 51 H      -10.1960     2.3200     0.9630 H     1 <1>   0.0800 
@<TRIPOS>BOND
  1   1   2  1   
  2   2   3  ar  
  3   2   4  ar  
  4   3   5  ar  
  5   3  25  1   
  6   4   6  ar  
  7   4  26  1   
  8   5   7  ar  
  9   5  27  1   
 10   6   7  ar  
 11   6  28  1   
 12   7   8  1   
 13   8   9  1   
 14   9  10  ar  
 15   9  11  ar  
 16  10  12  ar  
 17  10  29  1   
 18  11  13  ar  
 19  11  30  1   
 20  12  14  ar  
 21  12  15  1   
 22  13  14  ar  
 23  13  31  1   
 24  14  32  1   
 25  15  16  1   
 26  15  33  1   
 27  15  34  1   
 28  16  17  1   
 29  16  18  1   
 30  16  35  1   
 31  17  19  1   
 32  17  20  1   
 33  17  36  1   
 34  18  37  1   
 35  18  38  1   
 36  18  39  1   
 37  19  21  1   
 38  19  40  1   
 39  19  41  1   
 40  20  22  1   
 41  20  42  1   
 42  20  43  1   
 43  21  23  1   
 44  21  44  1   
 45  21  45  1   
 46  22  23  1   
 47  22  46  1   
 48  22  47  1   
 49  23  24  1   
 50  23  48  1   
 51  24  49  1   
 52  24  50  1   
 53  24  51  1   
@<TRIPOS>SUBSTRUCTURE
  1 ****  10 GROUP 4 **** **** 0

# MOE 2024.06 (io_trps.svl 2023.06)
