@<TRIPOS>MOLECULE
NONAME
52 53 1 0 0 
SMALL
USER_CHARGES


@<TRIPOS>ATOM
  1 O       -7.3880     2.3890    -1.3010 O.3   1 <1>  -0.5600 
  2 C       -7.1910     3.4680    -0.4130 C.3   1 <1>   0.7670 
  3 C       -7.6930     1.1360    -0.7530 C.3   1 <1>   0.0400 
  4 C       -5.8820     3.2390     0.2930 C.1   1 <1>  -0.2000 
  5 C       -8.4160     3.5820     0.5260 C.ar  1 <1>  -0.1440 
  6 C       -7.0170     4.7600    -1.2370 C.ar  1 <1>  -0.1440 
  7 C       -4.8090     3.1090     0.7900 C.1   1 <1>  -0.2000 
  8 C       -8.3420     3.3870     1.9030 C.ar  1 <1>  -0.1500 
  9 C       -9.6540     3.8890    -0.0290 C.ar  1 <1>  -0.1500 
 10 C       -6.7260     4.7360    -2.5990 C.ar  1 <1>  -0.1500 
 11 C       -7.1320     6.0000    -0.6130 C.ar  1 <1>  -0.1500 
 12 C       -3.4220     3.0180     1.3150 C.3   1 <1>   0.0400 
 13 C       -9.4710     3.5010     2.6970 C.ar  1 <1>  -0.1500 
 14 C      -10.7830     4.0030     0.7620 C.ar  1 <1>  -0.1500 
 15 C       -6.5600     5.9110    -3.3120 C.ar  1 <1>  -0.1500 
 16 C       -6.9670     7.1750    -1.3240 C.ar  1 <1>  -0.1500 
 17 C       -2.5360     3.9240     0.4540 C.3   1 <1>   0.3430 
 18 C      -10.6920     3.8100     2.1270 C.ar  1 <1>  -0.1500 
 19 C       -6.6800     7.1320    -2.6760 C.ar  1 <1>  -0.1500 
 20 N       -1.0820     3.8350     0.8210 N.4   1 <1>  -0.9590 
 21 C       -0.8070     4.4920     2.1300 C.3   1 <1>   0.3430 
 22 C       -0.2330     4.4170    -0.2570 C.3   1 <1>   0.3430 
 23 C        0.5020     3.9610     2.7020 C.3   1 <1>  -0.2400 
 24 C       -0.1460     3.4380    -1.4230 C.3   1 <1>  -0.2400 
 25 H       -7.7140     0.4200    -1.5560 H     1 <1>   0.0800 
 26 H       -8.6620     1.1680    -0.2860 H     1 <1>   0.0800 
 27 H       -6.9400     0.8510    -0.0400 H     1 <1>   0.0800 
 28 H       -7.4110     3.1430     2.3820 H     1 <1>   0.1500 
 29 H       -9.7390     4.0400    -1.0930 H     1 <1>   0.1500 
 30 H       -6.6270     3.7990    -3.1190 H     1 <1>   0.1500 
 31 H       -7.3580     6.0580     0.4390 H     1 <1>   0.1500 
 32 H       -3.0930     1.9970     1.2480 H     1 <1>   0.0800 
 33 H       -3.4210     3.3320     2.3420 H     1 <1>   0.0800 
 34 H       -9.3990     3.3490     3.7600 H     1 <1>   0.1500 
 35 H      -11.7310     4.2440     0.3130 H     1 <1>   0.1500 
 36 H       -6.3410     5.8730    -4.3650 H     1 <1>   0.1500 
 37 H       -7.0660     8.1240    -0.8260 H     1 <1>   0.1500 
 38 H       -2.8770     4.9430     0.5420 H     1 <1>   0.0800 
 39 H       -2.6680     3.6280    -0.5730 H     1 <1>   0.0800 
 40 H      -11.5690     3.8990     2.7450 H     1 <1>   0.1500 
 41 H       -6.5550     8.0450    -3.2310 H     1 <1>   0.1500 
 42 H       -0.8270     2.8420     0.9060 H     1 <1>   0.4500 
 43 H       -1.5980     4.2730     2.8280 H     1 <1>   0.0800 
 44 H       -0.7560     5.5630     2.0080 H     1 <1>   0.0800 
 45 H        0.7630     4.5960     0.1130 H     1 <1>   0.0800 
 46 H       -0.6420     5.3590    -0.5890 H     1 <1>   0.0800 
 47 H        0.4610     2.8940     2.8270 H     1 <1>   0.0800 
 48 H        0.6660     4.4000     3.6700 H     1 <1>   0.0800 
 49 H        1.3420     4.2210     2.0830 H     1 <1>   0.0800 
 50 H        0.2540     2.4940    -1.1020 H     1 <1>   0.0800 
 51 H        0.5180     3.8400    -2.1680 H     1 <1>   0.0800 
 52 H       -1.1030     3.2880    -1.8900 H     1 <1>   0.0800 
@<TRIPOS>BOND
  1   1   2  1   
  2   1   3  1   
  3   2   4  1   
  4   2   5  1   
  5   2   6  1   
  6   3  25  1   
  7   3  26  1   
  8   3  27  1   
  9   4   7  3   
 10   5   8  ar  
 11   5   9  ar  
 12   6  10  ar  
 13   6  11  ar  
 14   7  12  1   
 15   8  13  ar  
 16   8  28  1   
 17   9  14  ar  
 18   9  29  1   
 19  10  15  ar  
 20  10  30  1   
 21  11  16  ar  
 22  11  31  1   
 23  12  17  1   
 24  12  32  1   
 25  12  33  1   
 26  13  18  ar  
 27  13  34  1   
 28  14  18  ar  
 29  14  35  1   
 30  15  19  ar  
 31  15  36  1   
 32  16  19  ar  
 33  16  37  1   
 34  17  20  1   
 35  17  38  1   
 36  17  39  1   
 37  18  40  1   
 38  19  41  1   
 39  20  21  1   
 40  20  22  1   
 41  20  42  1   
 42  21  23  1   
 43  21  43  1   
 44  21  44  1   
 45  22  24  1   
 46  22  45  1   
 47  22  46  1   
 48  23  47  1   
 49  23  48  1   
 50  23  49  1   
 51  24  50  1   
 52  24  51  1   
 53  24  52  1   
@<TRIPOS>SUBSTRUCTURE
  1 ****   4 GROUP 4 **** **** 0

# MOE 2024.06 (io_trps.svl 2023.06)
