@<TRIPOS>MOLECULE
NONAME
45 47 1 0 0 
SMALL
USER_CHARGES


@<TRIPOS>ATOM
  1 CL       0.4670    -0.9410    -0.7070 Cl    1 <1>  -0.1770 
  2 C        1.6620     0.3330    -0.5620 C.ar  1 <1>   0.1770 
  3 C        3.0100     0.0350    -0.3470 C.ar  1 <1>   0.1000 
  4 C        1.2040     1.6330    -0.6750 C.ar  1 <1>  -0.1500 
  5 N        3.5170    -1.2830    -0.2170 N.pl3 1 <1>  -0.8380 
  6 C        3.9070     1.1130    -0.2550 C.ar  1 <1>   0.1170 
  7 C        2.0990     2.6820    -0.5740 C.ar  1 <1>  -0.1500 
  8 C        3.7390    -2.0960    -1.4560 C.3   1 <1>   0.2090 
  9 C        3.2300    -2.0590     1.0330 C.3   1 <1>   0.2090 
 10 N        5.2560     0.7810    -0.0470 N.am  1 <1>  -0.5470 
 11 C        3.4410     2.4180    -0.3650 C.ar  1 <1>  -0.1500 
 12 C        2.8720    -3.3680    -1.5050 C.3   1 <1>   0.1200 
 13 C        2.4240    -3.3490     0.7810 C.3   1 <1>   0.1200 
 14 C        6.4330     1.4820     0.0280 C.2   1 <1>   0.5440 
 15 O        2.9430    -4.0710    -0.2980 O.3   1 <1>  -0.5600 
 16 O        6.4400     2.6850    -0.1420 O.2   1 <1>  -0.5700 
 17 C        7.6720     0.7670     0.2910 C.ar  1 <1>   0.0860 
 18 C        8.8990     1.2900    -0.1180 C.ar  1 <1>  -0.1500 
 19 C        7.6960    -0.4630     0.9530 C.ar  1 <1>  -0.1500 
 20 C       10.0870     0.6200     0.1090 C.ar  1 <1>  -0.1500 
 21 C        8.8820    -1.1390     1.1810 C.ar  1 <1>  -0.1500 
 22 C       10.0870    -0.6020     0.7600 C.ar  1 <1>  -0.1430 
 23 C       11.3910    -1.3420     1.0100 C.3   1 <1>  -0.0170 
 24 C       11.7200    -2.2630    -0.1660 C.3   1 <1>  -0.2400 
 25 H        0.1580     1.8190    -0.8390 H     1 <1>   0.1500 
 26 H        1.7570     3.7000    -0.6580 H     1 <1>   0.1500 
 27 H        4.7740    -2.3860    -1.4980 H     1 <1>   0.0800 
 28 H        3.5340    -1.4940    -2.3250 H     1 <1>   0.0800 
 29 H        2.6940    -1.4380     1.7290 H     1 <1>   0.0800 
 30 H        4.1650    -2.3280     1.4910 H     1 <1>   0.0800 
 31 H        5.3380    -0.2380     0.0030 H     1 <1>   0.3700 
 32 H        4.1250     3.2430    -0.2890 H     1 <1>   0.1500 
 33 H        3.2210    -4.0190    -2.2860 H     1 <1>   0.0800 
 34 H        1.8450    -3.1200    -1.7020 H     1 <1>   0.0800 
 35 H        1.3930    -3.1210     0.5790 H     1 <1>   0.0800 
 36 H        2.4660    -3.9810     1.6490 H     1 <1>   0.0800 
 37 H        8.9170     2.2410    -0.6240 H     1 <1>   0.1500 
 38 H        6.7800    -0.9020     1.3040 H     1 <1>   0.1500 
 39 H       11.0140     1.0540    -0.2240 H     1 <1>   0.1500 
 40 H        8.8660    -2.0870     1.6900 H     1 <1>   0.1500 
 41 H       11.3140    -1.9220     1.9130 H     1 <1>   0.0800 
 42 H       12.1890    -0.6330     1.1470 H     1 <1>   0.0800 
 43 H       10.9380    -2.9890    -0.3000 H     1 <1>   0.0800 
 44 H       12.6450    -2.7810     0.0150 H     1 <1>   0.0800 
 45 H       11.8160    -1.6900    -1.0720 H     1 <1>   0.0800 
@<TRIPOS>BOND
  1   1   2  1   
  2   2   3  ar  
  3   2   4  ar  
  4   3   5  1   
  5   3   6  ar  
  6   4   7  ar  
  7   4  25  1   
  8   5   8  1   
  9   5   9  1   
 10   6  10  1   
 11   6  11  ar  
 12   7  11  ar  
 13   7  26  1   
 14   8  12  1   
 15   8  27  1   
 16   8  28  1   
 17   9  13  1   
 18   9  29  1   
 19   9  30  1   
 20  10  14  am  
 21  10  31  1   
 22  11  32  1   
 23  12  15  1   
 24  12  33  1   
 25  12  34  1   
 26  13  15  1   
 27  13  35  1   
 28  13  36  1   
 29  14  16  2   
 30  14  17  1   
 31  17  18  ar  
 32  17  19  ar  
 33  18  20  ar  
 34  18  37  1   
 35  19  21  ar  
 36  19  38  1   
 37  20  22  ar  
 38  20  39  1   
 39  21  22  ar  
 40  21  40  1   
 41  22  23  1   
 42  23  24  1   
 43  23  41  1   
 44  23  42  1   
 45  24  43  1   
 46  24  44  1   
 47  24  45  1   
@<TRIPOS>SUBSTRUCTURE
  1 ****  10 GROUP 4 **** **** 0

# MOE 2024.06 (io_trps.svl 2023.06)
