@<TRIPOS>MOLECULE
NONAME
46 47 1 0 0 
SMALL
USER_CHARGES


@<TRIPOS>ATOM
  1 N       -0.1540    -0.2710     0.0840 N.4   1 <1>  -0.9590 
  2 C       -1.0490     0.8550    -0.3130 C.3   1 <1>   0.3430 
  3 C       -0.8880    -1.4020     0.7320 C.3   1 <1>   0.3430 
  4 C        0.9350     0.2440     0.9660 C.3   1 <1>   0.3430 
  5 C       -2.1450     0.3490    -1.2530 C.3   1 <1>  -0.1600 
  6 C       -1.9850    -1.9210    -0.2000 C.3   1 <1>  -0.1600 
  7 C        2.0790    -0.7630     1.0150 C.3   1 <1>  -0.2400 
  8 C       -2.9310    -0.7910    -0.6050 C.3   1 <1>   0.4230 
  9 N       -3.9430    -1.3050    -1.5610 N.4   1 <1>  -0.9060 
 10 C       -5.3640    -1.2020    -1.1260 C.3   1 <1>   0.4230 
 11 C       -5.7650     0.2770    -1.0250 C.3   1 <1>  -0.1600 
 12 C       -5.5790    -2.0290     0.1510 C.3   1 <1>  -0.1600 
 13 C       -7.2320     0.5110    -0.6300 C.3   1 <1>  -0.1600 
 14 C       -7.0650    -2.3440     0.3760 C.3   1 <1>  -0.1600 
 15 C       -7.5000     0.1980     0.8480 C.3   1 <1>  -0.1600 
 16 C       -7.8410    -1.2690     1.1510 C.3   1 <1>  -0.1600 
 17 H        0.3210    -0.6270    -0.7590 H     1 <1>   0.4500 
 18 H       -0.4740     1.6220    -0.8100 H     1 <1>   0.0800 
 19 H       -1.4950     1.2920     0.5660 H     1 <1>   0.0800 
 20 H       -1.3240    -1.0670     1.6610 H     1 <1>   0.0800 
 21 H       -0.2030    -2.2050     0.9590 H     1 <1>   0.0800 
 22 H        0.5620     0.4310     1.9610 H     1 <1>   0.0800 
 23 H        1.3150     1.1740     0.5710 H     1 <1>   0.0800 
 24 H       -1.6920     0.0290    -2.1750 H     1 <1>   0.0800 
 25 H       -2.8060     1.1710    -1.4690 H     1 <1>   0.0800 
 26 H       -2.5320    -2.6850     0.3230 H     1 <1>   0.0800 
 27 H       -1.5240    -2.3660    -1.0640 H     1 <1>   0.0800 
 28 H        1.7860    -1.6780     1.4960 H     1 <1>   0.0800 
 29 H        2.8870    -0.3440     1.5890 H     1 <1>   0.0800 
 30 H        2.4540    -0.9720     0.0290 H     1 <1>   0.0800 
 31 H       -3.4250    -0.4160     0.2790 H     1 <1>   0.0800 
 32 H       -3.7600    -2.2940    -1.7660 H     1 <1>   0.4500 
 33 H       -3.8630    -0.8120    -2.4580 H     1 <1>   0.4500 
 34 H       -5.9780    -1.6450    -1.8960 H     1 <1>   0.0800 
 35 H       -5.6200     0.7340    -1.9880 H     1 <1>   0.0800 
 36 H       -5.1450     0.7960    -0.3160 H     1 <1>   0.0800 
 37 H       -5.1790    -1.5360     1.0190 H     1 <1>   0.0800 
 38 H       -5.0790    -2.9740     0.0370 H     1 <1>   0.0800 
 39 H       -7.9030    -0.0450    -1.2630 H     1 <1>   0.0800 
 40 H       -7.4500     1.5550    -0.7850 H     1 <1>   0.0800 
 41 H       -7.1460    -3.2630     0.9340 H     1 <1>   0.0800 
 42 H       -7.5500    -2.5200    -0.5690 H     1 <1>   0.0800 
 43 H       -8.3360     0.7940     1.1750 H     1 <1>   0.0800 
 44 H       -6.6610     0.5060     1.4480 H     1 <1>   0.0800 
 45 H       -7.6990    -1.4290     2.2070 H     1 <1>   0.0800 
 46 H       -8.8910    -1.4220     0.9610 H     1 <1>   0.0800 
@<TRIPOS>BOND
  1   1   2  1   
  2   1   3  1   
  3   1   4  1   
  4   1  17  1   
  5   2   5  1   
  6   2  18  1   
  7   2  19  1   
  8   3   6  1   
  9   3  20  1   
 10   3  21  1   
 11   4   7  1   
 12   4  22  1   
 13   4  23  1   
 14   5   8  1   
 15   5  24  1   
 16   5  25  1   
 17   6   8  1   
 18   6  26  1   
 19   6  27  1   
 20   7  28  1   
 21   7  29  1   
 22   7  30  1   
 23   8   9  1   
 24   8  31  1   
 25   9  10  1   
 26   9  32  1   
 27   9  33  1   
 28  10  11  1   
 29  10  12  1   
 30  10  34  1   
 31  11  13  1   
 32  11  35  1   
 33  11  36  1   
 34  12  14  1   
 35  12  37  1   
 36  12  38  1   
 37  13  15  1   
 38  13  39  1   
 39  13  40  1   
 40  14  16  1   
 41  14  41  1   
 42  14  42  1   
 43  15  16  1   
 44  15  43  1   
 45  15  44  1   
 46  16  45  1   
 47  16  46  1   
@<TRIPOS>SUBSTRUCTURE
  1 ****   8 GROUP 4 **** **** 0

# MOE 2024.06 (io_trps.svl 2023.06)
