@<TRIPOS>MOLECULE
NONAME
33 36 1 0 0 
SMALL
USER_CHARGES


@<TRIPOS>ATOM
  1 O        0.1500     0.6550     0.9550 O.2   1 <1>  -0.5700 
  2 C        0.3810     1.7750     0.5790 C.2   1 <1>   0.5690 
  3 N        1.5070     2.2620    -0.0700 N.am  1 <1>  -0.2370 
  4 C       -0.5400     2.9360     0.7770 C.3   1 <1>  -0.0190 
  5 C        2.7440     1.5890    -0.2050 C.ar  1 <1>   0.1170 
  6 C        1.2090     3.5240    -0.5670 C.2   1 <1>   0.5690 
  7 C       -1.9870     3.3310     1.0470 C.3   1 <1>   0.3380 
  8 C       -0.2810     3.6740    -0.5310 C.3   1 <1>  -0.0190 
  9 C        3.9450     2.2600     0.0030 C.ar  1 <1>  -0.1500 
 10 C        2.7870     0.2410    -0.5490 C.ar  1 <1>  -0.1500 
 11 O        1.9620     4.3650    -0.9870 O.2   1 <1>  -0.5700 
 12 O       -1.7580     4.7010     0.8880 O.3   1 <1>  -0.5600 
 13 C       -2.9430     3.1620    -0.1210 C.2   1 <1>  -0.2880 
 14 C       -1.3690     4.7640    -0.4500 C.3   1 <1>   0.3380 
 15 C        5.1620     1.6030    -0.1360 C.ar  1 <1>   0.0820 
 16 C        3.9940    -0.4210    -0.6810 C.ar  1 <1>  -0.1500 
 17 C       -2.6010     4.0850    -1.0160 C.2   1 <1>  -0.2880 
 18 O        6.3660     2.2030     0.0400 O.3   1 <1>  -0.3630 
 19 C        5.1790     0.2610    -0.4750 C.ar  1 <1>  -0.1500 
 20 C        6.4670     3.5960     0.2390 C.3   1 <1>   0.0400 
 21 H       -0.0300     3.4430     1.5840 H     1 <1>   0.0800 
 22 H       -2.3790     3.1320     2.0300 H     1 <1>   0.0800 
 23 H       -0.5660     3.0590    -1.3710 H     1 <1>   0.0800 
 24 H        3.9140     3.2980     0.2710 H     1 <1>   0.1500 
 25 H        1.8720    -0.3020    -0.7120 H     1 <1>   0.1500 
 26 H       -3.7180     2.4160    -0.1030 H     1 <1>   0.1500 
 27 H       -1.1470     5.7680    -0.7700 H     1 <1>   0.0800 
 28 H        4.0120    -1.4640    -0.9440 H     1 <1>   0.1500 
 29 H       -3.0010     4.3540    -1.9780 H     1 <1>   0.1500 
 30 H        6.1240    -0.2430    -0.5770 H     1 <1>   0.1500 
 31 H        7.5100     3.8530     0.2850 H     1 <1>   0.0800 
 32 H        5.9870     3.8520     1.1670 H     1 <1>   0.0800 
 33 H        6.0010     4.1020    -0.5880 H     1 <1>   0.0800 
@<TRIPOS>BOND
  1   1   2  2   
  2   2   3  am  
  3   2   4  1   
  4   3   5  1   
  5   3   6  am  
  6   4   7  1   
  7   4   8  1   
  8   4  21  1   
  9   5   9  ar  
 10   5  10  ar  
 11   6   8  1   
 12   6  11  2   
 13   7  12  1   
 14   7  13  1   
 15   7  22  1   
 16   8  14  1   
 17   8  23  1   
 18   9  15  ar  
 19   9  24  1   
 20  10  16  ar  
 21  10  25  1   
 22  12  14  1   
 23  13  17  2   
 24  13  26  1   
 25  14  17  1   
 26  14  27  1   
 27  15  18  1   
 28  15  19  ar  
 29  16  19  ar  
 30  16  28  1   
 31  17  29  1   
 32  18  20  1   
 33  19  30  1   
 34  20  31  1   
 35  20  32  1   
 36  20  33  1   
@<TRIPOS>SUBSTRUCTURE
  1 ****   3 GROUP 4 **** **** 0

# MOE 2024.06 (io_trps.svl 2023.06)
