@<TRIPOS>MOLECULE
NONAME
38 38 1 0 0 
SMALL
USER_CHARGES


@<TRIPOS>ATOM
  1 CL      -0.2500    -3.0570    -1.3650 Cl    1 <1>  -0.1770 
  2 C        1.3410    -2.6260    -0.7980 C.ar  1 <1>   0.1770 
  3 C        2.0860    -1.7000    -1.5010 C.ar  1 <1>  -0.1500 
  4 C        1.8380    -3.2160     0.3480 C.ar  1 <1>  -0.1500 
  5 C        3.3500    -1.3620    -1.0440 C.ar  1 <1>  -0.1500 
  6 C        3.1030    -2.8680     0.7930 C.ar  1 <1>  -0.1500 
  7 C        3.8790    -1.9340     0.1100 C.ar  1 <1>  -0.0090 
  8 S        5.5470    -1.5030     0.6910 S.o2  1 <1>   1.4970 
  9 O        5.6180    -1.6950     2.1250 O.2   1 <1>  -0.6500 
 10 O        5.9350    -0.2240     0.1320 O.2   1 <1>  -0.6500 
 11 N        6.4940    -2.6780    -0.0270 N.2   1 <1>  -0.6380 
 12 C        7.7200    -2.5940     0.2380 C.2   1 <1>   0.4400 
 13 N        8.6710    -3.4610    -0.2460 N.pl3 1 <1>  -0.7880 
 14 C       10.1110    -3.1890    -0.0120 C.3   1 <1>   0.2090 
 15 C        8.3230    -4.5660    -1.1810 C.3   1 <1>   0.2090 
 16 C       10.6670    -4.1550     1.0370 C.3   1 <1>  -0.1600 
 17 C        7.7810    -5.7680    -0.4010 C.3   1 <1>  -0.1600 
 18 C       12.1180    -3.8170     1.4010 C.3   1 <1>  -0.2400 
 19 C        7.4320    -6.9340    -1.3330 C.3   1 <1>  -0.2400 
 20 H        1.6810    -1.2530    -2.3910 H     1 <1>   0.1500 
 21 H        1.2430    -3.9370     0.8800 H     1 <1>   0.1500 
 22 H        3.9350    -0.6410    -1.5920 H     1 <1>   0.1500 
 23 H        3.4960    -3.3280     1.6850 H     1 <1>   0.1500 
 24 H        8.0910    -1.8090     0.8790 H     1 <1>   0.0600 
 25 H       10.6560    -3.2880    -0.9350 H     1 <1>   0.0800 
 26 H       10.2330    -2.1770     0.3350 H     1 <1>   0.0800 
 27 H        7.5770    -4.2220    -1.8780 H     1 <1>   0.0800 
 28 H        9.1930    -4.8580    -1.7440 H     1 <1>   0.0800 
 29 H       10.0590    -4.1010     1.9240 H     1 <1>   0.0800 
 30 H       10.6300    -5.1590     0.6550 H     1 <1>   0.0800 
 31 H        8.5130    -6.0970     0.3140 H     1 <1>   0.0800 
 32 H        6.8970    -5.4700     0.1350 H     1 <1>   0.0800 
 33 H       12.1830    -2.8240     1.8100 H     1 <1>   0.0800 
 34 H       12.7490    -3.8780     0.5320 H     1 <1>   0.0800 
 35 H       12.4820    -4.5120     2.1370 H     1 <1>   0.0800 
 36 H        8.3040    -7.2650    -1.8680 H     1 <1>   0.0800 
 37 H        6.6800    -6.6340    -2.0430 H     1 <1>   0.0800 
 38 H        7.0480    -7.7590    -0.7600 H     1 <1>   0.0800 
@<TRIPOS>BOND
  1   1   2  1   
  2   2   3  ar  
  3   2   4  ar  
  4   3   5  ar  
  5   3  20  1   
  6   4   6  ar  
  7   4  21  1   
  8   5   7  ar  
  9   5  22  1   
 10   6   7  ar  
 11   6  23  1   
 12   7   8  1   
 13   8   9  2   
 14   8  10  2   
 15   8  11  1   
 16  11  12  2   
 17  12  13  1   
 18  12  24  1   
 19  13  14  1   
 20  13  15  1   
 21  14  16  1   
 22  14  25  1   
 23  14  26  1   
 24  15  17  1   
 25  15  27  1   
 26  15  28  1   
 27  16  18  1   
 28  16  29  1   
 29  16  30  1   
 30  17  19  1   
 31  17  31  1   
 32  17  32  1   
 33  18  33  1   
 34  18  34  1   
 35  18  35  1   
 36  19  36  1   
 37  19  37  1   
 38  19  38  1   
@<TRIPOS>SUBSTRUCTURE
  1 ****  11 GROUP 4 **** **** 0

# MOE 2024.06 (io_trps.svl 2023.06)
