@<TRIPOS>MOLECULE
NONAME
47 49 1 0 0 
SMALL
USER_CHARGES


@<TRIPOS>ATOM
  1 S        0.2330     1.1440    -2.7470 S.3   1 <1>  -0.3320 
  2 C        1.5310     1.7490    -1.7410 C.ar  1 <1>   0.7720 
  3 C        0.8580    -0.5680    -2.7510 C.3   1 <1>   0.1310 
  4 N        1.5340     3.0050    -1.4170 N.ar  1 <1>  -0.6200 
  5 N        2.4210     0.8110    -1.3900 N.ar  1 <1>  -0.1150 
  6 C        2.1470    -0.4540    -1.9550 C.2   1 <1>   0.9020 
  7 C        2.5320     3.4210    -0.6430 C.ar  1 <1>   0.3100 
  8 C        3.4530     1.1940    -0.5840 C.ar  1 <1>   0.2170 
  9 O        2.8700    -1.4040    -1.8670 O.2   1 <1>  -0.5700 
 10 C        3.5480     2.5290    -0.2350 C.ar  1 <1>  -0.1440 
 11 C        2.4560     4.8080    -0.2650 C.ar  1 <1>   0.0000 
 12 C        4.4490     0.1350    -0.0840 C.3   1 <1>  -0.0960 
 13 C        4.7380     3.0220     0.5940 C.3   1 <1>   0.6240 
 14 C        2.1180     5.2030     1.0360 C.ar  1 <1>   0.0820 
 15 C        2.7230     5.8020    -1.2060 C.ar  1 <1>  -0.1500 
 16 O        4.3700     3.0380     1.9050 O.3   1 <1>  -0.6800 
 17 O        5.0990     4.3080     0.2580 O.3   1 <1>  -0.5600 
 18 O        1.8550     4.2250     1.9350 O.3   1 <1>  -0.3630 
 19 C        2.0660     6.5560     1.3650 C.ar  1 <1>  -0.1500 
 20 C        2.6760     7.1420    -0.8820 C.ar  1 <1>   0.0820 
 21 C        6.2770     4.7880     0.8210 C.3   1 <1>   0.1200 
 22 C        1.3770     4.5040     3.2350 C.3   1 <1>   0.0400 
 23 C        2.3440     7.5210     0.4160 C.ar  1 <1>  -0.1500 
 24 O        2.9660     8.0200    -1.8750 O.3   1 <1>  -0.3620 
 25 C        6.4630     6.2130     0.3150 C.3   1 <1>  -0.2400 
 26 C        2.9420     9.4120    -1.6500 C.3   1 <1>   0.0400 
 27 H        1.0320    -0.8690    -3.7680 H     1 <1>   0.0800 
 28 H        0.1350    -1.2000    -2.2670 H     1 <1>   0.0800 
 29 H        5.0940    -0.1830    -0.8850 H     1 <1>   0.0800 
 30 H        3.9250    -0.7240     0.2980 H     1 <1>   0.0800 
 31 H        5.0640     0.4710     0.7290 H     1 <1>   0.0800 
 32 H        5.6100     2.4020     0.4800 H     1 <1>   0.0800 
 33 H        2.9770     5.5270    -2.2130 H     1 <1>   0.1500 
 34 H        3.6270     3.6780     1.9840 H     1 <1>   0.4000 
 35 H        1.8130     6.8800     2.3570 H     1 <1>   0.1500 
 36 H        7.0980     4.1630     0.5130 H     1 <1>   0.0800 
 37 H        6.1900     4.7810     1.8960 H     1 <1>   0.0800 
 38 H        1.1940     3.5700     3.7350 H     1 <1>   0.0800 
 39 H        0.4590     5.0610     3.1580 H     1 <1>   0.0800 
 40 H        2.1220     5.0640     3.7720 H     1 <1>   0.0800 
 41 H        2.2980     8.5550     0.6990 H     1 <1>   0.1500 
 42 H        6.5400     6.2190    -0.7570 H     1 <1>   0.0800 
 43 H        7.3620     6.6330     0.7280 H     1 <1>   0.0800 
 44 H        5.6290     6.8220     0.6150 H     1 <1>   0.0800 
 45 H        3.2000     9.9030    -2.5710 H     1 <1>   0.0800 
 46 H        3.6640     9.6560    -0.8910 H     1 <1>   0.0800 
 47 H        1.9500     9.6990    -1.3490 H     1 <1>   0.0800 
@<TRIPOS>BOND
  1   1   2  1   
  2   1   3  1   
  3   2   4  ar  
  4   2   5  ar  
  5   3   6  1   
  6   3  27  1   
  7   3  28  1   
  8   4   7  ar  
  9   5   6  1   
 10   5   8  ar  
 11   6   9  2   
 12   7  10  ar  
 13   7  11  1   
 14   8  10  ar  
 15   8  12  1   
 16  10  13  1   
 17  11  14  ar  
 18  11  15  ar  
 19  12  29  1   
 20  12  30  1   
 21  12  31  1   
 22  13  16  1   
 23  13  17  1   
 24  13  32  1   
 25  14  18  1   
 26  14  19  ar  
 27  15  20  ar  
 28  15  33  1   
 29  16  34  1   
 30  17  21  1   
 31  18  22  1   
 32  19  23  ar  
 33  19  35  1   
 34  20  23  ar  
 35  20  24  1   
 36  21  25  1   
 37  21  36  1   
 38  21  37  1   
 39  22  38  1   
 40  22  39  1   
 41  22  40  1   
 42  23  41  1   
 43  24  26  1   
 44  25  42  1   
 45  25  43  1   
 46  25  44  1   
 47  26  45  1   
 48  26  46  1   
 49  26  47  1   
@<TRIPOS>SUBSTRUCTURE
  1 ****   7 GROUP 4 **** **** 0

# MOE 2024.06 (io_trps.svl 2023.06)
