@<TRIPOS>MOLECULE
NONAME
32 32 1 0 0 
SMALL
USER_CHARGES


@<TRIPOS>ATOM
  1 S        6.2830    -2.1790    -1.2000 S.3   1 <1>  -0.3320 
  2 C        4.5930    -2.1460    -0.5840 C.ar  1 <1>   0.1020 
  3 C        7.2920    -3.1110     0.0350 C.3   1 <1>  -0.0100 
  4 C        4.2200    -2.7830     0.5890 C.ar  1 <1>  -0.1500 
  5 C        3.6660    -1.4510    -1.3370 C.ar  1 <1>  -0.1500 
  6 C        2.9000    -2.7230     1.0030 C.ar  1 <1>  -0.1500 
  7 C        2.3480    -1.3920    -0.9200 C.ar  1 <1>  -0.1500 
  8 C        1.9590    -2.0330     0.2490 C.ar  1 <1>  -0.1430 
  9 C        0.5140    -1.9890     0.6890 C.3   1 <1>   0.4860 
 10 N       -0.1490    -3.1350     0.0340 N.4   1 <1>  -0.9060 
 11 C       -1.6010    -3.2320     0.3590 C.3   1 <1>   0.3430 
 12 C       -2.2610    -4.4260    -0.3360 C.3   1 <1>   0.1200 
 13 O       -3.5950    -4.4140     0.0330 O.3   1 <1>  -0.5600 
 14 C       -4.3570    -5.4460    -0.5150 C.3   1 <1>   0.0400 
 15 H        8.3090    -3.1150    -0.3150 H     1 <1>   0.0800 
 16 H        6.9060    -4.1120     0.0940 H     1 <1>   0.0800 
 17 H        7.2170    -2.6010     0.9790 H     1 <1>   0.0800 
 18 H        4.9380    -3.3190     1.1790 H     1 <1>   0.1500 
 19 H        3.9840    -0.9600    -2.2410 H     1 <1>   0.1500 
 20 H        2.6250    -3.2180     1.9200 H     1 <1>   0.1500 
 21 H        1.6440    -0.8380    -1.5190 H     1 <1>   0.1500 
 22 H        0.0610    -1.0600     0.3820 H     1 <1>   0.0800 
 23 H        0.4500    -2.0740     1.7620 H     1 <1>   0.0800 
 24 H        0.3510    -3.9860     0.3150 H     1 <1>   0.4500 
 25 H       -0.0020    -3.0390    -0.9780 H     1 <1>   0.4500 
 26 H       -2.1060    -2.3330     0.0450 H     1 <1>   0.0800 
 27 H       -1.7300    -3.3430     1.4240 H     1 <1>   0.0800 
 28 H       -1.8260    -5.3550    -0.0080 H     1 <1>   0.0800 
 29 H       -2.2040    -4.3320    -1.4070 H     1 <1>   0.0800 
 30 H       -5.3690    -5.3400    -0.1640 H     1 <1>   0.0800 
 31 H       -3.9630    -6.3950    -0.1920 H     1 <1>   0.0800 
 32 H       -4.3410    -5.3740    -1.5890 H     1 <1>   0.0800 
@<TRIPOS>BOND
  1   1   2  1   
  2   1   3  1   
  3   2   4  ar  
  4   2   5  ar  
  5   3  15  1   
  6   3  16  1   
  7   3  17  1   
  8   4   6  ar  
  9   4  18  1   
 10   5   7  ar  
 11   5  19  1   
 12   6   8  ar  
 13   6  20  1   
 14   7   8  ar  
 15   7  21  1   
 16   8   9  1   
 17   9  10  1   
 18   9  22  1   
 19   9  23  1   
 20  10  11  1   
 21  10  24  1   
 22  10  25  1   
 23  11  12  1   
 24  11  26  1   
 25  11  27  1   
 26  12  13  1   
 27  12  28  1   
 28  12  29  1   
 29  13  14  1   
 30  14  30  1   
 31  14  31  1   
 32  14  32  1   
@<TRIPOS>SUBSTRUCTURE
  1 ****   8 GROUP 4 **** **** 0

# MOE 2024.06 (io_trps.svl 2023.06)
