@<TRIPOS>MOLECULE
NONAME
43 44 1 0 0 
SMALL
USER_CHARGES


@<TRIPOS>ATOM
  1 O        1.6810    -2.0460    -0.3960 O.2   1 <1>  -0.5700 
  2 C        1.5800    -0.8490    -0.4470 C.2   1 <1>   0.5690 
  3 N        0.3870    -0.2810    -0.6940 N.am  1 <1>  -0.8000 
  4 C        2.8160     0.0140    -0.2420 C.3   1 <1>  -0.0190 
  5 C        4.0370    -0.9000    -0.0600 C.3   1 <1>   0.3430 
  6 C        2.6670     0.9770     0.9580 C.3   1 <1>  -0.1600 
  7 N        5.3220    -0.1380     0.1340 N.4   1 <1>  -0.9590 
  8 C        4.0220     1.4610     1.5110 C.3   1 <1>  -0.1600 
  9 C        5.1610     1.3060     0.5010 C.3   1 <1>   0.3430 
 10 C        6.2380    -0.3080    -1.0270 C.3   1 <1>   0.4860 
 11 C        7.5970     0.2470    -0.6500 C.ar  1 <1>  -0.1430 
 12 C        8.3670    -0.3970     0.3050 C.ar  1 <1>  -0.1500 
 13 C        8.0830     1.4020    -1.2390 C.ar  1 <1>  -0.1500 
 14 C        9.5990     0.0980     0.6970 C.ar  1 <1>   0.0830 
 15 C        9.3140     1.9120    -0.8630 C.ar  1 <1>  -0.1500 
 16 O       10.2120    -0.6560     1.6530 O.3   1 <1>  -0.3630 
 17 C       10.0860     1.2800     0.1110 C.ar  1 <1>   0.0830 
 18 C       11.5880    -0.5520     1.9480 C.3   1 <1>   0.0400 
 19 O       11.2860     1.7980     0.5020 O.3   1 <1>  -0.3630 
 20 C       11.8460     2.9550    -0.0830 C.3   1 <1>   0.0400 
 21 H       -0.4300    -0.8830    -0.8270 H     1 <1>   0.3700 
 22 H        0.2060     0.7220    -0.7430 H     1 <1>   0.3700 
 23 H        2.9570     0.5810    -1.1440 H     1 <1>   0.0800 
 24 H        4.1150    -1.5620    -0.9080 H     1 <1>   0.0800 
 25 H        3.8580    -1.5170     0.8060 H     1 <1>   0.0800 
 26 H        2.1290     0.4870     1.7540 H     1 <1>   0.0800 
 27 H        2.0770     1.8250     0.6520 H     1 <1>   0.0800 
 28 H        5.8120    -0.5740     0.9270 H     1 <1>   0.4500 
 29 H        4.2730     0.9090     2.4000 H     1 <1>   0.0800 
 30 H        3.9410     2.4960     1.7970 H     1 <1>   0.0800 
 31 H        4.9310     1.8840    -0.3790 H     1 <1>   0.0800 
 32 H        6.0800     1.6840     0.9210 H     1 <1>   0.0800 
 33 H        5.8510     0.2120    -1.8890 H     1 <1>   0.0800 
 34 H        6.3380    -1.3530    -1.2730 H     1 <1>   0.0800 
 35 H        8.0300    -1.3080     0.7690 H     1 <1>   0.1500 
 36 H        7.5170     1.9200    -1.9950 H     1 <1>   0.1500 
 37 H        9.6530     2.8100    -1.3430 H     1 <1>   0.1500 
 38 H       11.8610    -1.3800     2.5760 H     1 <1>   0.0800 
 39 H       11.7640     0.3720     2.4680 H     1 <1>   0.0800 
 40 H       12.1470    -0.5880     1.0300 H     1 <1>   0.0800 
 41 H       12.7970     3.1370     0.3840 H     1 <1>   0.0800 
 42 H       11.1900     3.7890     0.0920 H     1 <1>   0.0800 
 43 H       11.9850     2.7830    -1.1360 H     1 <1>   0.0800 
@<TRIPOS>BOND
  1   1   2  2   
  2   2   3  am  
  3   2   4  1   
  4   3  21  1   
  5   3  22  1   
  6   4   5  1   
  7   4   6  1   
  8   4  23  1   
  9   5   7  1   
 10   5  24  1   
 11   5  25  1   
 12   6   8  1   
 13   6  26  1   
 14   6  27  1   
 15   7   9  1   
 16   7  10  1   
 17   7  28  1   
 18   8   9  1   
 19   8  29  1   
 20   8  30  1   
 21   9  31  1   
 22   9  32  1   
 23  10  11  1   
 24  10  33  1   
 25  10  34  1   
 26  11  12  ar  
 27  11  13  ar  
 28  12  14  ar  
 29  12  35  1   
 30  13  15  ar  
 31  13  36  1   
 32  14  16  1   
 33  14  17  ar  
 34  15  17  ar  
 35  15  37  1   
 36  16  18  1   
 37  17  19  1   
 38  18  38  1   
 39  18  39  1   
 40  18  40  1   
 41  19  20  1   
 42  20  41  1   
 43  20  42  1   
 44  20  43  1   
@<TRIPOS>SUBSTRUCTURE
  1 ****  11 GROUP 4 **** **** 0

# MOE 2024.06 (io_trps.svl 2023.06)
