@<TRIPOS>MOLECULE
NONAME
49 52 1 0 0 
SMALL
USER_CHARGES


@<TRIPOS>ATOM
  1 S        0.1220     0.1380     0.5820 S.o2  1 <1>   1.4470 
  2 O       -0.1080    -0.9740    -0.3150 O.2   1 <1>  -0.6500 
  3 O        0.4520    -0.1230     1.9670 O.2   1 <1>  -0.6500 
  4 N        1.4090     1.0280    -0.0660 N.am  1 <1>  -0.8490 
  5 C       -1.2710     1.2930     0.4700 C.ar  1 <1>  -0.0090 
  6 C        1.8360     2.1300     0.8210 C.3   1 <1>   0.1960 
  7 C        2.5640     0.1560    -0.3630 C.3   1 <1>   0.1960 
  8 C       -1.8780     1.8110     1.6090 C.ar  1 <1>  -0.1500 
  9 C       -1.7580     1.7100    -0.7630 C.ar  1 <1>  -0.1500 
 10 C        2.9950     2.9500     0.2210 C.3   1 <1>   0.2090 
 11 C        3.7430     0.9310    -0.9810 C.3   1 <1>   0.2090 
 12 C       -2.9280     2.7080     1.5170 C.ar  1 <1>  -0.1500 
 13 C       -2.8080     2.6060    -0.8590 C.ar  1 <1>  -0.1500 
 14 N        4.1550     2.0760    -0.1130 N.pl3 1 <1>  -0.8380 
 15 C       -3.4140     3.1190     0.2820 C.ar  1 <1>   0.1170 
 16 C        5.3330     2.7250    -0.4230 C.ar  1 <1>   0.4100 
 17 N       -4.4880     4.0230     0.1940 N.am  1 <1>  -0.4770 
 18 N        5.6470     2.8400    -1.7090 N.ar  1 <1>  -0.6200 
 19 C        6.1220     3.2340     0.6050 C.ar  1 <1>  -0.1500 
 20 C       -4.7170     5.1180     0.9760 C.2   1 <1>   0.5690 
 21 C       -5.6240     3.7770    -0.7180 C.3   1 <1>   0.1400 
 22 C        6.7740     3.4800    -1.9710 C.ar  1 <1>   0.1600 
 23 C        7.2910     3.8980     0.3170 C.ar  1 <1>  -0.1500 
 24 O       -3.9890     5.5570     1.8330 O.2   1 <1>  -0.5700 
 25 C       -6.0400     5.7580     0.6560 C.3   1 <1>  -0.0990 
 26 C       -6.4990     5.0320    -0.6150 C.3   1 <1>  -0.1600 
 27 C        7.6180     4.0210    -1.0180 C.ar  1 <1>  -0.1500 
 28 H        2.1570     1.7360     1.7710 H     1 <1>   0.0800 
 29 H        1.0060     2.7920     0.9990 H     1 <1>   0.0800 
 30 H        2.2650    -0.6130    -1.0560 H     1 <1>   0.0800 
 31 H        2.8990    -0.3260     0.5410 H     1 <1>   0.0800 
 32 H       -1.5250     1.5110     2.5820 H     1 <1>   0.1500 
 33 H       -1.3000     1.3260    -1.6600 H     1 <1>   0.1500 
 34 H        3.3020     3.7030     0.9250 H     1 <1>   0.0800 
 35 H        2.6560     3.4470    -0.6720 H     1 <1>   0.0800 
 36 H        3.4540     1.3000    -1.9500 H     1 <1>   0.0800 
 37 H        4.5800     0.2680    -1.1130 H     1 <1>   0.0800 
 38 H       -3.3760     3.0960     2.4160 H     1 <1>   0.1500 
 39 H       -3.1490     2.9140    -1.8290 H     1 <1>   0.1500 
 40 H        5.8010     3.0910     1.6180 H     1 <1>   0.1500 
 41 H       -6.1610     2.9070    -0.3810 H     1 <1>   0.0800 
 42 H       -5.2860     3.6260    -1.7280 H     1 <1>   0.0800 
 43 H        7.0410     3.5810    -3.0090 H     1 <1>   0.1500 
 44 H        7.9200     4.3010     1.0920 H     1 <1>   0.1500 
 45 H       -5.9220     6.8140     0.4960 H     1 <1>   0.0800 
 46 H       -6.7180     5.5830     1.4710 H     1 <1>   0.0800 
 47 H       -7.5460     4.7830    -0.5840 H     1 <1>   0.0800 
 48 H       -6.3180     5.6560    -1.4730 H     1 <1>   0.0800 
 49 H        8.5180     4.5280    -1.3150 H     1 <1>   0.1500 
@<TRIPOS>BOND
  1   1   2  2   
  2   1   3  2   
  3   1   4  am  
  4   1   5  1   
  5   4   6  1   
  6   4   7  1   
  7   5   8  ar  
  8   5   9  ar  
  9   6  10  1   
 10   6  28  1   
 11   6  29  1   
 12   7  11  1   
 13   7  30  1   
 14   7  31  1   
 15   8  12  ar  
 16   8  32  1   
 17   9  13  ar  
 18   9  33  1   
 19  10  14  1   
 20  10  34  1   
 21  10  35  1   
 22  11  14  1   
 23  11  36  1   
 24  11  37  1   
 25  12  15  ar  
 26  12  38  1   
 27  13  15  ar  
 28  13  39  1   
 29  14  16  1   
 30  15  17  1   
 31  16  18  ar  
 32  16  19  ar  
 33  17  20  am  
 34  17  21  1   
 35  18  22  ar  
 36  19  23  ar  
 37  19  40  1   
 38  20  24  2   
 39  20  25  1   
 40  21  26  1   
 41  21  41  1   
 42  21  42  1   
 43  22  27  ar  
 44  22  43  1   
 45  23  27  ar  
 46  23  44  1   
 47  25  26  1   
 48  25  45  1   
 49  25  46  1   
 50  26  47  1   
 51  26  48  1   
 52  27  49  1   
@<TRIPOS>SUBSTRUCTURE
  1 ****   6 GROUP 4 **** **** 0

# MOE 2024.06 (io_trps.svl 2023.06)
