@<TRIPOS>MOLECULE
NONAME
34 35 1 0 0 
SMALL
USER_CHARGES


@<TRIPOS>ATOM
  1 O        0.6160    -0.1280    -1.6870 O.2   1 <1>  -0.5700 
  2 C        1.3720     0.6430    -1.1460 C.2   1 <1>   0.5690 
  3 N        2.4740     0.1890    -0.4980 N.am  1 <1>  -0.5470 
  4 C        1.0950     2.1630    -1.1650 C.3   1 <1>   0.3500 
  5 C        3.4440     1.0350     0.0610 C.ar  1 <1>   0.1170 
  6 N        2.3270     3.0080    -0.8960 N.pl3 1 <1>  -0.8690 
  7 C        0.0220     2.4950    -0.1250 C.3   1 <1>  -0.0990 
  8 C        3.3620     2.4230    -0.1490 C.ar  1 <1>   0.1000 
  9 C        4.4900     0.5100     0.8040 C.ar  1 <1>  -0.1500 
 10 C       -0.4470     3.9270    -0.2230 C.2   1 <1>   0.5690 
 11 C        4.3430     3.2420     0.3870 C.ar  1 <1>  -0.1500 
 12 C        5.4590     1.3440     1.3370 C.ar  1 <1>  -0.1500 
 13 O       -1.5900     4.1200    -0.5820 O.2   1 <1>  -0.5700 
 14 N        0.4330     4.9090     0.1020 N.am  1 <1>  -0.4210 
 15 C        5.3850     2.7100     1.1270 C.ar  1 <1>  -0.1500 
 16 N        0.2000     6.3610     0.1060 N.3   1 <1>  -0.5490 
 17 C        1.1380     6.9470    -0.8810 C.3   1 <1>   0.0300 
 18 C        0.5320     6.8420     1.4680 C.3   1 <1>   0.0300 
 19 H        2.6070    -0.8220    -0.4840 H     1 <1>   0.3700 
 20 H        0.7130     2.4090    -2.1410 H     1 <1>   0.0800 
 21 H        2.6800     3.3930    -1.7820 H     1 <1>   0.4000 
 22 H        0.3990     2.3070     0.8630 H     1 <1>   0.0800 
 23 H       -0.8250     1.8520    -0.2790 H     1 <1>   0.0800 
 24 H        4.5540    -0.5500     0.9680 H     1 <1>   0.1500 
 25 H        4.2910     4.3030     0.2260 H     1 <1>   0.1500 
 26 H        6.2690     0.9310     1.9140 H     1 <1>   0.1500 
 27 H        1.4000     4.5960     0.2670 H     1 <1>   0.3700 
 28 H        6.1390     3.3580     1.5400 H     1 <1>   0.1500 
 29 H        0.9050     6.5670    -1.8600 H     1 <1>   0.0800 
 30 H        2.1560     6.6970    -0.6350 H     1 <1>   0.0800 
 31 H        1.0260     8.0170    -0.8940 H     1 <1>   0.0800 
 32 H       -0.1330     6.3810     2.1780 H     1 <1>   0.0800 
 33 H        0.3980     7.9080     1.5170 H     1 <1>   0.0800 
 34 H        1.5480     6.5970     1.7230 H     1 <1>   0.0800 
@<TRIPOS>BOND
  1   1   2  2   
  2   2   3  am  
  3   2   4  1   
  4   3   5  1   
  5   3  19  1   
  6   4   6  1   
  7   4   7  1   
  8   4  20  1   
  9   5   8  ar  
 10   5   9  ar  
 11   6   8  1   
 12   6  21  1   
 13   7  10  1   
 14   7  22  1   
 15   7  23  1   
 16   8  11  ar  
 17   9  12  ar  
 18   9  24  1   
 19  10  13  2   
 20  10  14  am  
 21  11  15  ar  
 22  11  25  1   
 23  12  15  ar  
 24  12  26  1   
 25  14  16  1   
 26  14  27  1   
 27  15  28  1   
 28  16  17  1   
 29  16  18  1   
 30  17  29  1   
 31  17  30  1   
 32  17  31  1   
 33  18  32  1   
 34  18  33  1   
 35  18  34  1   
@<TRIPOS>SUBSTRUCTURE
  1 ****   6 GROUP 4 **** **** 0

# MOE 2024.06 (io_trps.svl 2023.06)
