@<TRIPOS>MOLECULE
NONAME
31 32 1 0 0 
SMALL
USER_CHARGES


@<TRIPOS>ATOM
  1 S        0.7110     0.0310    -1.6560 S.3   1 <1>  -0.0800 
  2 C        1.7370     0.7680    -0.4150 C.2   1 <1>  -0.0450 
  3 C        0.2100     1.5860    -2.2790 C.2   1 <1>  -0.1100 
  4 C        2.4930    -0.0340     0.5110 C.2   1 <1>   0.5940 
  5 C        1.6450     2.1190    -0.5390 C.2   1 <1>  -0.1500 
  6 C        0.7910     2.5790    -1.5820 C.2   1 <1>  -0.1500 
  7 O        3.1810     0.4680     1.3670 O.2   1 <1>  -0.5700 
  8 C        2.4390    -1.5530     0.4860 C.3   1 <1>  -0.0990 
  9 C        3.6330    -2.1790    -0.2530 C.3   1 <1>   0.5400 
 10 N        4.8310    -1.7930     0.4860 N.3   1 <1>  -0.9000 
 11 N        3.8280    -1.4420    -1.5030 N.3   1 <1>  -0.9000 
 12 C        3.4500    -3.7590    -0.4170 C.3   1 <1>   0.6800 
 13 C        5.9270    -1.6950    -0.4640 C.3   1 <1>   0.1100 
 14 C        5.2550    -1.4160    -1.7950 C.3   1 <1>   0.1100 
 15 F        4.5380    -4.3190    -0.9660 F     1 <1>  -0.3400 
 16 F        3.3700    -4.3340     0.7890 F     1 <1>  -0.3400 
 17 C        2.1940    -4.1640    -1.2280 C.3   1 <1>   0.6000 
 18 F        2.1200    -5.4770    -1.4430 F     1 <1>  -0.3400 
 19 F        2.2010    -3.6280    -2.4500 F     1 <1>  -0.3400 
 20 H       -0.4720     1.5980    -3.1110 H     1 <1>   0.1500 
 21 H        2.1720     2.8150     0.0920 H     1 <1>   0.1500 
 22 H        0.6510     3.6310    -1.7620 H     1 <1>   0.1500 
 23 H        1.5120    -1.8680     0.0580 H     1 <1>   0.0800 
 24 H        2.4410    -1.9060     1.5010 H     1 <1>   0.0800 
 25 H        4.6400    -0.8310     0.8090 H     1 <1>   0.3600 
 26 H        3.3390    -1.9150    -2.2770 H     1 <1>   0.3600 
 27 H        6.4690    -2.6240    -0.5050 H     1 <1>   0.0800 
 28 H        6.6030    -0.9040    -0.1870 H     1 <1>   0.0800 
 29 H        5.5420    -0.4540    -2.1830 H     1 <1>   0.0800 
 30 H        5.5150    -2.1820    -2.5080 H     1 <1>   0.0800 
 31 H        1.2810    -3.8630    -0.7530 H     1 <1>   0.0800 
@<TRIPOS>BOND
  1   1   2  1   
  2   1   3  1   
  3   2   4  1   
  4   2   5  2   
  5   3   6  2   
  6   3  20  1   
  7   4   7  2   
  8   4   8  1   
  9   5   6  1   
 10   5  21  1   
 11   6  22  1   
 12   8   9  1   
 13   8  23  1   
 14   8  24  1   
 15   9  10  1   
 16   9  11  1   
 17   9  12  1   
 18  10  13  1   
 19  10  25  1   
 20  11  14  1   
 21  11  26  1   
 22  12  15  1   
 23  12  16  1   
 24  12  17  1   
 25  13  14  1   
 26  13  27  1   
 27  13  28  1   
 28  14  29  1   
 29  14  30  1   
 30  17  18  1   
 31  17  19  1   
 32  17  31  1   
@<TRIPOS>SUBSTRUCTURE
  1 ****   9 GROUP 4 **** **** 0

# MOE 2024.06 (io_trps.svl 2023.06)
