@<TRIPOS>MOLECULE
NONAME
60 62 1 0 0 
SMALL
USER_CHARGES


@<TRIPOS>ATOM
  1 O       -2.0650    -1.4330     0.6910 O.3   1 <1>  -0.3630 
  2 C       -2.5090    -0.2610     0.1720 C.ar  1 <1>   0.0830 
  3 C       -0.9770    -2.0510     0.0370 C.3   1 <1>   0.0400 
  4 C       -1.7120     0.8840     0.0560 C.ar  1 <1>   0.0830 
  5 C       -3.8230    -0.2260    -0.2590 C.ar  1 <1>  -0.1500 
  6 O       -0.4360     0.9450     0.5040 O.3   1 <1>  -0.3630 
  7 C       -2.2350     2.0210    -0.5370 C.ar  1 <1>  -0.1500 
  8 C       -4.3530     0.9230    -0.8280 C.ar  1 <1>  -0.1430 
  9 C       -0.2620     0.8920     1.9030 C.3   1 <1>   0.0400 
 10 C       -3.5470     2.0430    -0.9760 C.ar  1 <1>  -0.1500 
 11 C       -5.8050     0.9410    -1.2800 C.3   1 <1>  -0.0170 
 12 C       -6.7670     0.8940    -0.0710 C.3   1 <1>   0.4230 
 13 N       -8.2030     0.7780    -0.4970 N.4   1 <1>  -0.9590 
 14 C       -6.5990     2.1520     0.7920 C.3   1 <1>  -0.2400 
 15 C       -9.1500     0.6980     0.6860 C.3   1 <1>   0.3430 
 16 C       -8.4630    -0.4030    -1.4140 C.3   1 <1>   0.3430 
 17 C      -10.6370     0.6100     0.2820 C.3   1 <1>   0.2090 
 18 C       -9.9300    -0.5110    -1.8760 C.3   1 <1>   0.2090 
 19 N      -10.8750    -0.4560    -0.7290 N.pl3 1 <1>  -0.8380 
 20 C      -11.4110    -1.6640    -0.2820 C.ar  1 <1>   0.1000 
 21 C      -12.7230    -2.0180    -0.5930 C.ar  1 <1>  -0.1430 
 22 C      -10.6390    -2.5370     0.4790 C.ar  1 <1>  -0.1500 
 23 C      -13.2330    -3.2240    -0.1440 C.ar  1 <1>  -0.1500 
 24 C      -13.6060    -1.0940    -1.4210 C.3   1 <1>  -0.0970 
 25 C      -11.1500    -3.7410     0.9290 C.ar  1 <1>  -0.1430 
 26 C      -12.4530    -4.0820     0.6120 C.ar  1 <1>  -0.1500 
 27 C      -10.3070    -4.6930     1.7590 C.3   1 <1>  -0.0970 
 28 H       -0.8700    -3.0460     0.4290 H     1 <1>   0.0800 
 29 H       -0.0800    -1.4900     0.2240 H     1 <1>   0.0800 
 30 H       -1.1790    -2.0900    -1.0190 H     1 <1>   0.0800 
 31 H       -4.4120    -1.1170    -0.1450 H     1 <1>   0.1500 
 32 H       -1.6080     2.8880    -0.6450 H     1 <1>   0.1500 
 33 H        0.7850     1.0060     2.1160 H     1 <1>   0.0800 
 34 H       -0.6110    -0.0560     2.2710 H     1 <1>   0.0800 
 35 H       -0.8190     1.6950     2.3520 H     1 <1>   0.0800 
 36 H       -3.9270     2.9420    -1.4300 H     1 <1>   0.1500 
 37 H       -5.9320     0.0840    -1.9130 H     1 <1>   0.0800 
 38 H       -5.9920     1.8240    -1.8650 H     1 <1>   0.0800 
 39 H       -6.5070     0.0330     0.5250 H     1 <1>   0.0800 
 40 H       -8.4460     1.6300    -1.0170 H     1 <1>   0.4500 
 41 H       -6.9170     3.0320     0.2620 H     1 <1>   0.0800 
 42 H       -5.5640     2.2840     1.0560 H     1 <1>   0.0800 
 43 H       -7.1300     2.0740     1.7220 H     1 <1>   0.0800 
 44 H       -9.0320     1.5620     1.3160 H     1 <1>   0.0800 
 45 H       -8.9140    -0.1710     1.2760 H     1 <1>   0.0800 
 46 H       -8.2070    -1.3160    -0.9040 H     1 <1>   0.0800 
 47 H       -7.8470    -0.3350    -2.2940 H     1 <1>   0.0800 
 48 H      -10.9630     1.5540    -0.1200 H     1 <1>   0.0800 
 49 H      -11.2330     0.4090     1.1580 H     1 <1>   0.0800 
 50 H      -10.0690    -1.4400    -2.4060 H     1 <1>   0.0800 
 51 H      -10.1600     0.2880    -2.5590 H     1 <1>   0.0800 
 52 H       -9.6310    -2.2730     0.7220 H     1 <1>   0.1500 
 53 H      -14.2440    -3.5080    -0.3790 H     1 <1>   0.1500 
 54 H      -13.1650    -0.9420    -2.3900 H     1 <1>   0.0800 
 55 H      -13.6980    -0.1430    -0.9300 H     1 <1>   0.0800 
 56 H      -14.5880    -1.5090    -1.5530 H     1 <1>   0.0800 
 57 H      -12.8670    -5.0150     0.9520 H     1 <1>   0.1500 
 58 H       -9.3930    -4.2250     2.0760 H     1 <1>   0.0800 
 59 H      -10.0670    -5.5660     1.1800 H     1 <1>   0.0800 
 60 H      -10.8540    -4.9980     2.6340 H     1 <1>   0.0800 
@<TRIPOS>BOND
  1   1   2  1   
  2   1   3  1   
  3   2   4  ar  
  4   2   5  ar  
  5   3  28  1   
  6   3  29  1   
  7   3  30  1   
  8   4   6  1   
  9   4   7  ar  
 10   5   8  ar  
 11   5  31  1   
 12   6   9  1   
 13   7  10  ar  
 14   7  32  1   
 15   8  10  ar  
 16   8  11  1   
 17   9  33  1   
 18   9  34  1   
 19   9  35  1   
 20  10  36  1   
 21  11  12  1   
 22  11  37  1   
 23  11  38  1   
 24  12  13  1   
 25  12  14  1   
 26  12  39  1   
 27  13  15  1   
 28  13  16  1   
 29  13  40  1   
 30  14  41  1   
 31  14  42  1   
 32  14  43  1   
 33  15  17  1   
 34  15  44  1   
 35  15  45  1   
 36  16  18  1   
 37  16  46  1   
 38  16  47  1   
 39  17  19  1   
 40  17  48  1   
 41  17  49  1   
 42  18  19  1   
 43  18  50  1   
 44  18  51  1   
 45  19  20  1   
 46  20  21  ar  
 47  20  22  ar  
 48  21  23  ar  
 49  21  24  1   
 50  22  25  ar  
 51  22  52  1   
 52  23  26  ar  
 53  23  53  1   
 54  24  54  1   
 55  24  55  1   
 56  24  56  1   
 57  25  26  ar  
 58  25  27  1   
 59  26  57  1   
 60  27  58  1   
 61  27  59  1   
 62  27  60  1   
@<TRIPOS>SUBSTRUCTURE
  1 ****  12 GROUP 4 **** **** 0

# MOE 2024.06 (io_trps.svl 2023.06)
