@<TRIPOS>MOLECULE
NONAME
40 42 1 0 0 
SMALL
USER_CHARGES


@<TRIPOS>ATOM
  1 O        0.0000     0.3590    -1.2060 O.2   1 <1>  -0.5700 
  2 C       -0.0930     1.2170    -0.3520 C.2   1 <1>   0.6900 
  3 N       -1.2970     1.6990     0.0650 N.am  1 <1>  -0.5470 
  4 N        1.0160     1.7450     0.2200 N.am  1 <1>  -0.7300 
  5 C       -2.6050     1.3010    -0.2540 C.ar  1 <1>   0.1170 
  6 C        2.4010     1.3670    -0.1130 C.3   1 <1>   0.2200 
  7 C       -3.6280     2.2410    -0.1420 C.ar  1 <1>  -0.1500 
  8 C       -2.9200    -0.0020    -0.6580 C.ar  1 <1>  -0.1500 
  9 C        2.9930     0.6330     1.0990 C.3   1 <1>  -0.1600 
 10 C        3.1610     2.6600    -0.4420 C.3   1 <1>  -0.1600 
 11 C       -4.9180     1.8540    -0.4390 C.ar  1 <1>   0.0830 
 12 C       -4.2240    -0.3760    -0.9540 C.ar  1 <1>  -0.1500 
 13 C        4.1270    -0.3500     0.7630 C.3   1 <1>  -0.1600 
 14 C        4.5400     2.4570    -1.0850 C.3   1 <1>  -0.1600 
 15 O       -6.0340     2.5910    -0.3990 O.3   1 <1>  -0.3620 
 16 C       -5.2100     0.5820    -0.8340 C.ar  1 <1>   0.0830 
 17 C        5.1210     0.0910    -0.3220 C.3   1 <1>  -0.1600 
 18 C        5.5080     1.5760    -0.2810 C.3   1 <1>  -0.1600 
 19 C       -7.1030     1.7350    -0.8000 C.3   1 <1>   0.4000 
 20 O       -6.5250     0.4580    -1.0620 O.3   1 <1>  -0.3620 
 21 H       -1.2290     2.5530     0.6050 H     1 <1>   0.3700 
 22 H        0.9240     2.3520     1.0290 H     1 <1>   0.3700 
 23 H        2.3940     0.7150    -0.9720 H     1 <1>   0.0800 
 24 H       -3.4330     3.2510     0.1630 H     1 <1>   0.1500 
 25 H       -2.1380    -0.7360    -0.7400 H     1 <1>   0.1500 
 26 H        2.2170     0.0640     1.5810 H     1 <1>   0.0800 
 27 H        3.3530     1.3530     1.8120 H     1 <1>   0.0800 
 28 H        3.2760     3.2470     0.4510 H     1 <1>   0.0800 
 29 H        2.5680     3.2320    -1.1350 H     1 <1>   0.0800 
 30 H       -4.4680    -1.3740    -1.2670 H     1 <1>   0.1500 
 31 H        3.6900    -1.2830     0.4490 H     1 <1>   0.0800 
 32 H        4.6710    -0.5510     1.6700 H     1 <1>   0.0800 
 33 H        4.9920     3.4260    -1.2140 H     1 <1>   0.0800 
 34 H        4.4130     2.0400    -2.0700 H     1 <1>   0.0800 
 35 H        4.7200    -0.1490    -1.2920 H     1 <1>   0.0800 
 36 H        6.0140    -0.5000    -0.2060 H     1 <1>   0.0800 
 37 H        5.5920     1.9230     0.7350 H     1 <1>   0.0800 
 38 H        6.4820     1.6740    -0.7300 H     1 <1>   0.0800 
 39 H       -7.5530     2.1180    -1.6980 H     1 <1>   0.0800 
 40 H       -7.8170     1.6500     0.0000 H     1 <1>   0.0800 
@<TRIPOS>BOND
  1   1   2  2   
  2   2   3  am  
  3   2   4  am  
  4   3   5  1   
  5   3  21  1   
  6   4   6  1   
  7   4  22  1   
  8   5   7  ar  
  9   5   8  ar  
 10   6   9  1   
 11   6  10  1   
 12   6  23  1   
 13   7  11  ar  
 14   7  24  1   
 15   8  12  ar  
 16   8  25  1   
 17   9  13  1   
 18   9  26  1   
 19   9  27  1   
 20  10  14  1   
 21  10  28  1   
 22  10  29  1   
 23  11  15  1   
 24  11  16  ar  
 25  12  16  ar  
 26  12  30  1   
 27  13  17  1   
 28  13  31  1   
 29  13  32  1   
 30  14  18  1   
 31  14  33  1   
 32  14  34  1   
 33  15  19  1   
 34  16  20  1   
 35  17  18  1   
 36  17  35  1   
 37  17  36  1   
 38  18  37  1   
 39  18  38  1   
 40  19  20  1   
 41  19  39  1   
 42  19  40  1   
@<TRIPOS>SUBSTRUCTURE
  1 ****   2 GROUP 4 **** **** 0

# MOE 2024.06 (io_trps.svl 2023.06)
