@<TRIPOS>MOLECULE
NONAME
34 35 1 0 0 
SMALL
USER_CHARGES


@<TRIPOS>ATOM
  1 O       -0.1970    -0.2480     0.0800 O.3   1 <1>  -0.2800 
  2 C       -0.4320    -1.5560    -0.0180 C.2   1 <1>   0.0550 
  3 C        1.0980    -0.0320     0.0060 C.2   1 <1>  -0.0400 
  4 C       -1.7850    -2.0580     0.0340 C.2   1 <1>   0.4740 
  5 C        0.7730    -2.1840    -0.1630 C.2   1 <1>  -0.1500 
  6 C        1.7580    -1.1960    -0.1460 C.2   1 <1>  -0.1500 
  7 C        1.5960     1.3930     0.0950 C.3   1 <1>  -0.0600 
  8 N       -2.8210    -1.2980     0.0020 N.2   1 <1>  -0.4920 
  9 C       -1.9420    -3.5760     0.1180 C.3   1 <1>  -0.1790 
 10 N       -4.1150    -1.8110     0.0190 N.pl3 1 <1>  -0.4580 
 11 C       -5.3280    -1.1580     0.0040 C.ar  1 <1>   0.7200 
 12 N       -5.3570     0.1720    -0.0230 N.ar  1 <1>  -0.6200 
 13 N       -6.3750    -1.9780     0.0180 N.ar  1 <1>  -0.6200 
 14 C       -6.5430     0.7230    -0.0360 C.ar  1 <1>   0.1670 
 15 C       -7.5520    -1.4030     0.0050 C.ar  1 <1>   0.1670 
 16 C       -7.6900    -0.0350    -0.0230 C.ar  1 <1>  -0.1500 
 17 C       -6.5920     2.2350    -0.0660 C.3   1 <1>  -0.0970 
 18 C       -8.7620    -2.3130     0.0210 C.3   1 <1>  -0.0970 
 19 H        0.9740    -3.2330    -0.2780 H     1 <1>   0.1500 
 20 H        2.8170    -1.3600    -0.2370 H     1 <1>   0.1500 
 21 H        2.6670     1.4210     0.0200 H     1 <1>   0.0800 
 22 H        1.2970     1.8210     1.0350 H     1 <1>   0.0800 
 23 H        1.1700     1.9740    -0.7030 H     1 <1>   0.0800 
 24 H       -1.0330    -4.0460     0.4400 H     1 <1>   0.0800 
 25 H       -2.2110    -3.9620    -0.8480 H     1 <1>   0.0800 
 26 H       -2.7000    -3.8370     0.8320 H     1 <1>   0.0800 
 27 H       -4.2620    -2.8180     0.0330 H     1 <1>   0.4000 
 28 H       -8.6580     0.4270    -0.0330 H     1 <1>   0.1500 
 29 H       -7.6050     2.5910    -0.0740 H     1 <1>   0.0800 
 30 H       -6.0870     2.5910    -0.9450 H     1 <1>   0.0800 
 31 H       -6.0890     2.6250     0.8000 H     1 <1>   0.0800 
 32 H       -9.6740    -1.7450     0.0080 H     1 <1>   0.0800 
 33 H       -8.7420    -2.9210     0.9070 H     1 <1>   0.0800 
 34 H       -8.7390    -2.9550    -0.8410 H     1 <1>   0.0800 
@<TRIPOS>BOND
  1   1   2  1   
  2   1   3  1   
  3   2   4  1   
  4   2   5  2   
  5   3   6  2   
  6   3   7  1   
  7   4   8  2   
  8   4   9  1   
  9   5   6  1   
 10   5  19  1   
 11   6  20  1   
 12   7  21  1   
 13   7  22  1   
 14   7  23  1   
 15   8  10  1   
 16   9  24  1   
 17   9  25  1   
 18   9  26  1   
 19  10  11  1   
 20  10  27  1   
 21  11  12  ar  
 22  11  13  ar  
 23  12  14  ar  
 24  13  15  ar  
 25  14  16  ar  
 26  14  17  1   
 27  15  16  ar  
 28  15  18  1   
 29  16  28  1   
 30  17  29  1   
 31  17  30  1   
 32  17  31  1   
 33  18  32  1   
 34  18  33  1   
 35  18  34  1   
@<TRIPOS>SUBSTRUCTURE
  1 ****   8 GROUP 4 **** **** 0

# MOE 2024.06 (io_trps.svl 2023.06)
