@<TRIPOS>MOLECULE
NONAME
43 44 1 0 0 
SMALL
USER_CHARGES


@<TRIPOS>ATOM
  1 CL       1.0720    -3.0730     2.2840 Cl    1 <1>  -0.1770 
  2 C       -0.4470    -2.4840     1.6310 C.ar  1 <1>   0.1770 
  3 C       -1.3440    -1.8520     2.4740 C.ar  1 <1>   0.1770 
  4 C       -0.7400    -2.6410     0.2730 C.ar  1 <1>   0.1990 
  5 CL      -0.9900    -1.6520     4.1750 Cl    1 <1>  -0.1770 
  6 C       -2.5440    -1.3580     1.9920 C.ar  1 <1>  -0.1500 
  7 N        0.1160    -3.2770    -0.6290 N.am  1 <1>  -0.6930 
  8 C       -1.9480    -2.1340    -0.1990 C.ar  1 <1>  -0.1500 
  9 C       -2.8430    -1.5000     0.6470 C.ar  1 <1>  -0.1500 
 10 S        0.3000    -4.9980    -0.6510 S.o2  1 <1>   1.3330 
 11 C        1.0790    -2.4500    -1.4240 C.3   1 <1>   0.2570 
 12 O        1.6340    -5.2770    -1.1270 O.2   1 <1>  -0.6500 
 13 O       -0.1840    -5.5190     0.6010 O.2   1 <1>  -0.6500 
 14 C       -0.8560    -5.4560    -1.9230 C.3   1 <1>  -0.1350 
 15 C        2.3830    -2.1070    -0.6970 C.2   1 <1>   0.5690 
 16 O        2.6040    -0.9500    -0.4260 O.2   1 <1>  -0.5700 
 17 N        3.2650    -3.0980    -0.4080 N.am  1 <1>  -0.7300 
 18 C        4.5320    -2.9430     0.3170 C.3   1 <1>   0.2200 
 19 C        5.6880    -3.0770    -0.6780 C.3   1 <1>  -0.1600 
 20 C        4.6100    -4.0170     1.4070 C.3   1 <1>  -0.1600 
 21 C        7.0470    -3.0390     0.0380 C.3   1 <1>  -0.1600 
 22 C        5.9660    -3.9830     2.1270 C.3   1 <1>  -0.1600 
 23 C        7.1270    -4.1140     1.1310 C.3   1 <1>  -0.1600 
 24 H       -3.2280    -0.8690     2.6630 H     1 <1>   0.1500 
 25 H       -2.1880    -2.2380    -1.2410 H     1 <1>   0.1500 
 26 H       -3.7730    -1.1160     0.2620 H     1 <1>   0.1500 
 27 H        0.6020    -1.5250    -1.6930 H     1 <1>   0.0800 
 28 H        1.3270    -2.9640    -2.3350 H     1 <1>   0.0800 
 29 H       -1.8470    -5.1540    -1.6480 H     1 <1>   0.0800 
 30 H       -0.8480    -6.5200    -2.0570 H     1 <1>   0.0800 
 31 H       -0.5940    -4.9910    -2.8520 H     1 <1>   0.0800 
 32 H        2.9970    -4.0720    -0.6100 H     1 <1>   0.3700 
 33 H        4.5680    -1.9680     0.7770 H     1 <1>   0.0800 
 34 H        5.6380    -2.2710    -1.3880 H     1 <1>   0.0800 
 35 H        5.5970    -4.0080    -1.2090 H     1 <1>   0.0800 
 36 H        4.4710    -4.9890     0.9660 H     1 <1>   0.0800 
 37 H        3.8260    -3.8550     2.1250 H     1 <1>   0.0800 
 38 H        7.1870    -2.0680     0.4820 H     1 <1>   0.0800 
 39 H        7.8360    -3.1920    -0.6780 H     1 <1>   0.0800 
 40 H        6.0130    -4.7840     2.8440 H     1 <1>   0.0800 
 41 H        6.0590    -3.0540     2.6630 H     1 <1>   0.0800 
 42 H        8.0630    -4.0270     1.6550 H     1 <1>   0.0800 
 43 H        7.0950    -5.0890     0.6740 H     1 <1>   0.0800 
@<TRIPOS>BOND
  1   1   2  1   
  2   2   3  ar  
  3   2   4  ar  
  4   3   5  1   
  5   3   6  ar  
  6   4   7  1   
  7   4   8  ar  
  8   6   9  ar  
  9   6  24  1   
 10   7  10  am  
 11   7  11  1   
 12   8   9  ar  
 13   8  25  1   
 14   9  26  1   
 15  10  12  2   
 16  10  13  2   
 17  10  14  1   
 18  11  15  1   
 19  11  27  1   
 20  11  28  1   
 21  14  29  1   
 22  14  30  1   
 23  14  31  1   
 24  15  16  2   
 25  15  17  am  
 26  17  18  1   
 27  17  32  1   
 28  18  19  1   
 29  18  20  1   
 30  18  33  1   
 31  19  21  1   
 32  19  34  1   
 33  19  35  1   
 34  20  22  1   
 35  20  36  1   
 36  20  37  1   
 37  21  23  1   
 38  21  38  1   
 39  21  39  1   
 40  22  23  1   
 41  22  40  1   
 42  22  41  1   
 43  23  42  1   
 44  23  43  1   
@<TRIPOS>SUBSTRUCTURE
  1 ****  15 GROUP 4 **** **** 0

# MOE 2024.06 (io_trps.svl 2023.06)
