@<TRIPOS>MOLECULE
NONAME
36 37 1 0 0 
SMALL
USER_CHARGES


@<TRIPOS>ATOM
  1 O       -1.7080     2.2420    -0.1890 O.3   1 <1>  -0.3630 
  2 C       -2.9230     2.8460    -0.1320 C.ar  1 <1>   0.0830 
  3 C       -0.5890     3.0250     0.1660 C.3   1 <1>   0.2000 
  4 C       -3.0310     4.2370    -0.0480 C.ar  1 <1>   0.0830 
  5 C       -4.0650     2.0650    -0.1520 C.ar  1 <1>  -0.1500 
  6 C       -0.7180     4.4220    -0.4690 C.3   1 <1>   0.1200 
  7 C        0.6550     2.2540    -0.2970 C.3   1 <1>   0.3430 
  8 O       -1.9240     5.0230    -0.0520 O.3   1 <1>  -0.3630 
  9 C       -4.2780     4.8310     0.0340 C.ar  1 <1>  -0.1500 
 10 C       -5.3120     2.6640    -0.0750 C.ar  1 <1>  -0.1500 
 11 N        1.9430     2.8540     0.1810 N.4   1 <1>  -0.9060 
 12 C       -5.4180     4.0430     0.0210 C.ar  1 <1>  -0.1500 
 13 C        3.1210     2.0580    -0.2520 C.3   1 <1>   0.3430 
 14 C        4.4190     2.7190     0.2380 C.3   1 <1>  -0.0800 
 15 C        4.5840     4.1600    -0.2760 C.3   1 <1>  -0.2400 
 16 C        5.6220     1.8810    -0.2130 C.3   1 <1>  -0.2400 
 17 H       -0.5920     3.1080     1.2390 H     1 <1>   0.0800 
 18 H       -3.9810     0.9950    -0.2240 H     1 <1>   0.1500 
 19 H       -0.7380     4.3560    -1.5430 H     1 <1>   0.0800 
 20 H        0.0830     5.0710    -0.1660 H     1 <1>   0.0800 
 21 H        0.6520     2.2140    -1.3750 H     1 <1>   0.0800 
 22 H        0.5760     1.2450     0.0750 H     1 <1>   0.0800 
 23 H       -4.3530     5.9010     0.1050 H     1 <1>   0.1500 
 24 H       -6.2020     2.0580    -0.0890 H     1 <1>   0.1500 
 25 H        1.9530     2.9120     1.2090 H     1 <1>   0.4500 
 26 H        2.0650     3.8100    -0.1750 H     1 <1>   0.4500 
 27 H       -6.3890     4.5040     0.0830 H     1 <1>   0.1500 
 28 H        3.1440     1.9920    -1.3290 H     1 <1>   0.0800 
 29 H        3.0580     1.0580     0.1450 H     1 <1>   0.0800 
 30 H        4.4190     2.7300     1.3150 H     1 <1>   0.0800 
 31 H        4.5450     4.1930    -1.3520 H     1 <1>   0.0800 
 32 H        5.5400     4.5500     0.0300 H     1 <1>   0.0800 
 33 H        3.8320     4.8160     0.1230 H     1 <1>   0.0800 
 34 H        5.6890     1.8430    -1.2880 H     1 <1>   0.0800 
 35 H        5.5490     0.8740     0.1610 H     1 <1>   0.0800 
 36 H        6.5360     2.3050     0.1650 H     1 <1>   0.0800 
@<TRIPOS>BOND
  1   1   2  1   
  2   1   3  1   
  3   2   4  ar  
  4   2   5  ar  
  5   3   6  1   
  6   3   7  1   
  7   3  17  1   
  8   4   8  1   
  9   4   9  ar  
 10   5  10  ar  
 11   5  18  1   
 12   6   8  1   
 13   6  19  1   
 14   6  20  1   
 15   7  11  1   
 16   7  21  1   
 17   7  22  1   
 18   9  12  ar  
 19   9  23  1   
 20  10  12  ar  
 21  10  24  1   
 22  11  13  1   
 23  11  25  1   
 24  11  26  1   
 25  12  27  1   
 26  13  14  1   
 27  13  28  1   
 28  13  29  1   
 29  14  15  1   
 30  14  16  1   
 31  14  30  1   
 32  15  31  1   
 33  15  32  1   
 34  15  33  1   
 35  16  34  1   
 36  16  35  1   
 37  16  36  1   
@<TRIPOS>SUBSTRUCTURE
  1 ****   3 GROUP 4 **** **** 0

# MOE 2024.06 (io_trps.svl 2023.06)
