@<TRIPOS>MOLECULE
NONAME
41 43 1 0 0 
SMALL
USER_CHARGES


@<TRIPOS>ATOM
  1 O       -1.2050    -1.6140     1.5500 O.3   1 <1>  -0.5320 
  2 C       -2.3590    -0.9520     1.3510 C.ar  1 <1>   0.0830 
  3 C       -3.4930    -1.5510     0.7950 C.ar  1 <1>  -0.1430 
  4 C       -2.3650     0.3710     1.7480 C.ar  1 <1>  -0.1500 
  5 C       -4.6730    -0.7850     0.7110 C.ar  1 <1>   0.1000 
  6 C       -3.4750    -3.0230     0.2970 C.3   1 <1>   0.1440 
  7 C       -3.5130     1.1190     1.6300 C.ar  1 <1>  -0.1500 
  8 N       -5.8560    -1.3560     0.2060 N.pl3 1 <1>  -0.8380 
  9 C       -4.6790     0.5560     1.1360 C.ar  1 <1>  -0.1430 
 10 C       -4.7370    -3.3560    -0.5220 C.3   1 <1>  -0.1600 
 11 C       -3.4030    -3.9700     1.5090 C.3   1 <1>  -0.2400 
 12 C       -2.2920    -3.3240    -0.6490 C.3   1 <1>  -0.2400 
 13 C       -5.9960    -2.8190     0.1270 C.3   1 <1>   0.2090 
 14 C       -7.0740    -0.5620    -0.0600 C.3   1 <1>   0.2090 
 15 C       -5.9510     1.4210     1.0490 C.3   1 <1>   0.1440 
 16 C       -7.1990     0.5270     0.9910 C.3   1 <1>  -0.1600 
 17 C       -6.1230     2.3350     2.2780 C.3   1 <1>  -0.2400 
 18 C       -5.8580     2.3030    -0.2070 C.3   1 <1>  -0.2400 
 19 H       -0.5220    -1.0560     1.9560 H     1 <1>   0.4500 
 20 H       -1.4800     0.8270     2.1510 H     1 <1>   0.1500 
 21 H       -3.4780     2.1480     1.9330 H     1 <1>   0.1500 
 22 H       -4.8300    -4.4170    -0.6570 H     1 <1>   0.0800 
 23 H       -4.6630    -2.9080    -1.4970 H     1 <1>   0.0800 
 24 H       -4.2040    -3.7610     2.1940 H     1 <1>   0.0800 
 25 H       -2.4780    -3.8340     2.0370 H     1 <1>   0.0800 
 26 H       -3.4640    -4.9970     1.2000 H     1 <1>   0.0800 
 27 H       -2.2210    -2.5550    -1.3970 H     1 <1>   0.0800 
 28 H       -1.3590    -3.3750    -0.1230 H     1 <1>   0.0800 
 29 H       -2.4290    -4.2700    -1.1400 H     1 <1>   0.0800 
 30 H       -6.8480    -3.0810    -0.4760 H     1 <1>   0.0800 
 31 H       -6.1300    -3.2210     1.1160 H     1 <1>   0.0800 
 32 H       -7.9450    -1.1920    -0.0180 H     1 <1>   0.0800 
 33 H       -7.0090    -0.1390    -1.0470 H     1 <1>   0.0800 
 34 H       -7.3400     0.0470     1.9430 H     1 <1>   0.0800 
 35 H       -8.0740     1.1170     0.7870 H     1 <1>   0.0800 
 36 H       -6.0420     1.7560     3.1800 H     1 <1>   0.0800 
 37 H       -7.0870     2.8100     2.2620 H     1 <1>   0.0800 
 38 H       -5.3820     3.1120     2.3020 H     1 <1>   0.0800 
 39 H       -5.6940     1.6980    -1.0790 H     1 <1>   0.0800 
 40 H       -5.0290     2.9830    -0.1210 H     1 <1>   0.0800 
 41 H       -6.7580     2.8750    -0.3420 H     1 <1>   0.0800 
@<TRIPOS>BOND
  1   1   2  1   
  2   1  19  1   
  3   2   3  ar  
  4   2   4  ar  
  5   3   5  ar  
  6   3   6  1   
  7   4   7  ar  
  8   4  20  1   
  9   5   8  1   
 10   5   9  ar  
 11   6  10  1   
 12   6  11  1   
 13   6  12  1   
 14   7   9  ar  
 15   7  21  1   
 16   8  13  1   
 17   8  14  1   
 18   9  15  1   
 19  10  13  1   
 20  10  22  1   
 21  10  23  1   
 22  11  24  1   
 23  11  25  1   
 24  11  26  1   
 25  12  27  1   
 26  12  28  1   
 27  12  29  1   
 28  13  30  1   
 29  13  31  1   
 30  14  16  1   
 31  14  32  1   
 32  14  33  1   
 33  15  16  1   
 34  15  17  1   
 35  15  18  1   
 36  16  34  1   
 37  16  35  1   
 38  17  36  1   
 39  17  37  1   
 40  17  38  1   
 41  18  39  1   
 42  18  40  1   
 43  18  41  1   
@<TRIPOS>SUBSTRUCTURE
  1 ****   5 GROUP 4 **** **** 0

# MOE 2024.06 (io_trps.svl 2023.06)
