@<TRIPOS>MOLECULE
NONAME
48 49 1 0 0 
SMALL
USER_CHARGES


@<TRIPOS>ATOM
  1 CL       0.1640     0.1900    -2.0260 Cl    1 <1>  -0.1770 
  2 C        1.7790     0.4320    -1.4090 C.ar  1 <1>   0.1770 
  3 C        1.9830     0.4850    -0.0440 C.ar  1 <1>  -0.1500 
  4 C        2.8290     0.5680    -2.2970 C.ar  1 <1>  -0.1500 
  5 C        3.2630     0.6770     0.4530 C.ar  1 <1>  -0.1440 
  6 C        4.1090     0.7600    -1.8080 C.ar  1 <1>  -0.1500 
  7 C        4.3330     0.8160    -0.4310 C.ar  1 <1>   0.0830 
  8 C        3.4800     0.7330     1.9590 C.3   1 <1>  -0.0960 
  9 O        5.5680     1.0020     0.1060 O.3   1 <1>  -0.3630 
 10 C        6.7240     1.1050    -0.6980 C.3   1 <1>   0.1200 
 11 C        7.9370     1.2930     0.2210 C.3   1 <1>   0.2000 
 12 O        7.6720     2.3360     1.1140 O.3   1 <1>  -0.6800 
 13 C        9.2350     1.6010    -0.5610 C.3   1 <1>   0.3430 
 14 N       10.1640     2.4370     0.2680 N.4   1 <1>  -0.9590 
 15 C       10.5830     3.6640    -0.4600 C.3   1 <1>   0.4230 
 16 C       11.3020     1.7080     0.8880 C.3   1 <1>   0.4230 
 17 C       12.0440     3.5940    -0.9490 C.3   1 <1>  -0.1600 
 18 C       10.3660     4.8500     0.4700 C.3   1 <1>  -0.2400 
 19 C       12.2590     1.1870    -0.1980 C.3   1 <1>  -0.1600 
 20 C       10.8110     0.5950     1.8090 C.3   1 <1>  -0.2400 
 21 C       12.4510     2.1730    -1.3670 C.3   1 <1>  -0.1600 
 22 H        1.1400     0.3750     0.6140 H     1 <1>   0.1500 
 23 H        2.6390     0.5230    -3.3540 H     1 <1>   0.1500 
 24 H        4.9080     0.8640    -2.5160 H     1 <1>   0.1500 
 25 H        2.5600     0.5690     2.4900 H     1 <1>   0.0800 
 26 H        3.8680     1.6960     2.2370 H     1 <1>   0.0800 
 27 H        4.1830    -0.0250     2.2570 H     1 <1>   0.0800 
 28 H        6.6080     1.9500    -1.3530 H     1 <1>   0.0800 
 29 H        6.8180     0.2000    -1.2750 H     1 <1>   0.0800 
 30 H        8.0710     0.3960     0.8020 H     1 <1>   0.0800 
 31 H        6.7400     2.2450     1.4240 H     1 <1>   0.4000 
 32 H        8.9680     2.1410    -1.4530 H     1 <1>   0.0800 
 33 H        9.7110     0.6840    -0.8660 H     1 <1>   0.0800 
 34 H        9.5420     2.7610     1.0330 H     1 <1>   0.4500 
 35 H        9.9450     3.7940    -1.3200 H     1 <1>   0.0800 
 36 H       11.8490     2.4150     1.4930 H     1 <1>   0.0800 
 37 H       12.7090     3.9350    -0.1740 H     1 <1>   0.0800 
 38 H       12.1650     4.2670    -1.7800 H     1 <1>   0.0800 
 39 H       10.9680     4.7650     1.3570 H     1 <1>   0.0800 
 40 H        9.3290     4.9250     0.7470 H     1 <1>   0.0800 
 41 H       10.6380     5.7600    -0.0350 H     1 <1>   0.0800 
 42 H       11.9200     0.2400    -0.5820 H     1 <1>   0.0800 
 43 H       13.2120     1.0070     0.2680 H     1 <1>   0.0800 
 44 H       10.3510    -0.2050     1.2590 H     1 <1>   0.0800 
 45 H       10.1170     0.9840     2.5330 H     1 <1>   0.0800 
 46 H       11.6490     0.1840     2.3430 H     1 <1>   0.0800 
 47 H       13.4780     2.1610    -1.6930 H     1 <1>   0.0800 
 48 H       11.8440     1.8660    -2.2010 H     1 <1>   0.0800 
@<TRIPOS>BOND
  1   1   2  1   
  2   2   3  ar  
  3   2   4  ar  
  4   3   5  ar  
  5   3  22  1   
  6   4   6  ar  
  7   4  23  1   
  8   5   7  ar  
  9   5   8  1   
 10   6   7  ar  
 11   6  24  1   
 12   7   9  1   
 13   8  25  1   
 14   8  26  1   
 15   8  27  1   
 16   9  10  1   
 17  10  11  1   
 18  10  28  1   
 19  10  29  1   
 20  11  12  1   
 21  11  13  1   
 22  11  30  1   
 23  12  31  1   
 24  13  14  1   
 25  13  32  1   
 26  13  33  1   
 27  14  15  1   
 28  14  16  1   
 29  14  34  1   
 30  15  17  1   
 31  15  18  1   
 32  15  35  1   
 33  16  19  1   
 34  16  20  1   
 35  16  36  1   
 36  17  21  1   
 37  17  37  1   
 38  17  38  1   
 39  18  39  1   
 40  18  40  1   
 41  18  41  1   
 42  19  21  1   
 43  19  42  1   
 44  19  43  1   
 45  20  44  1   
 46  20  45  1   
 47  20  46  1   
 48  21  47  1   
 49  21  48  1   
@<TRIPOS>SUBSTRUCTURE
  1 ****  10 GROUP 4 **** **** 0

# MOE 2024.06 (io_trps.svl 2023.06)
