@<TRIPOS>MOLECULE
NONAME
40 42 1 0 0 
SMALL
USER_CHARGES


@<TRIPOS>ATOM
  1 CL      -0.5910    -2.1470     2.6470 Cl    1 <1>  -0.1770 
  2 C       -1.5740    -1.8750     1.2190 C.ar  1 <1>   0.1770 
  3 C       -1.1400    -2.3080    -0.0410 C.ar  1 <1>   0.1000 
  4 C       -2.7800    -1.2230     1.3880 C.ar  1 <1>  -0.1500 
  5 N        0.0700    -2.9740    -0.2800 N.pl3 1 <1>  -0.8380 
  6 C       -1.9720    -2.0570    -1.1260 C.ar  1 <1>  -0.1500 
  7 C       -3.5900    -0.9860     0.2900 C.ar  1 <1>  -0.1500 
  8 C        0.1710    -4.3660     0.2520 C.3   1 <1>   0.2090 
  9 C        1.3120    -2.1580    -0.1190 C.3   1 <1>   0.2090 
 10 C       -3.1820    -1.4050    -0.9660 C.ar  1 <1>  -0.1500 
 11 C        1.4050    -5.0890    -0.3280 C.3   1 <1>   0.3430 
 12 C        2.5360    -2.9000    -0.6940 C.3   1 <1>   0.3430 
 13 N        2.6750    -4.2990    -0.1400 N.4   1 <1>  -0.9590 
 14 C        3.8590    -5.0100    -0.6910 C.3   1 <1>   0.4860 
 15 C        5.1160    -4.2500    -0.3210 C.ar  1 <1>  -0.1430 
 16 C        5.5370    -4.1860     1.0000 C.ar  1 <1>   0.1770 
 17 C        5.8690    -3.6040    -1.2920 C.ar  1 <1>  -0.1500 
 18 CL       4.6020    -4.9790     2.2460 Cl    1 <1>  -0.1770 
 19 C        6.6770    -3.4960     1.3630 C.ar  1 <1>  -0.1500 
 20 C        7.0130    -2.9090    -0.9360 C.ar  1 <1>  -0.1500 
 21 C        7.4180    -2.8530     0.3880 C.ar  1 <1>  -0.1500 
 22 H       -3.0840    -0.9030     2.3690 H     1 <1>   0.1500 
 23 H       -1.6630    -2.3790    -2.1030 H     1 <1>   0.1500 
 24 H       -4.5320    -0.4780     0.4110 H     1 <1>   0.1500 
 25 H       -0.7200    -4.9110    -0.0130 H     1 <1>   0.0800 
 26 H        0.2370    -4.3470     1.3260 H     1 <1>   0.0800 
 27 H        1.4790    -1.9420     0.9220 H     1 <1>   0.0800 
 28 H        1.1880    -1.2200    -0.6340 H     1 <1>   0.0800 
 29 H       -3.8100    -1.2210    -1.8210 H     1 <1>   0.1500 
 30 H        1.2320    -5.2500    -1.3790 H     1 <1>   0.0800 
 31 H        1.4980    -6.0530     0.1450 H     1 <1>   0.0800 
 32 H        3.4220    -2.3270    -0.4760 H     1 <1>   0.0800 
 33 H        2.4260    -2.9450    -1.7640 H     1 <1>   0.0800 
 34 H        2.8370    -4.2070     0.8740 H     1 <1>   0.4500 
 35 H        3.7790    -5.0890    -1.7630 H     1 <1>   0.0800 
 36 H        3.9150    -6.0050    -0.2790 H     1 <1>   0.0800 
 37 H        5.5840    -3.6360    -2.3310 H     1 <1>   0.1500 
 38 H        6.9830    -3.4620     2.3950 H     1 <1>   0.1500 
 39 H        7.5990    -2.4100    -1.6910 H     1 <1>   0.1500 
 40 H        8.3110    -2.3120     0.6560 H     1 <1>   0.1500 
@<TRIPOS>BOND
  1   1   2  1   
  2   2   3  ar  
  3   2   4  ar  
  4   3   5  1   
  5   3   6  ar  
  6   4   7  ar  
  7   4  22  1   
  8   5   8  1   
  9   5   9  1   
 10   6  10  ar  
 11   6  23  1   
 12   7  10  ar  
 13   7  24  1   
 14   8  11  1   
 15   8  25  1   
 16   8  26  1   
 17   9  12  1   
 18   9  27  1   
 19   9  28  1   
 20  10  29  1   
 21  11  13  1   
 22  11  30  1   
 23  11  31  1   
 24  12  13  1   
 25  12  32  1   
 26  12  33  1   
 27  13  14  1   
 28  13  34  1   
 29  14  15  1   
 30  14  35  1   
 31  14  36  1   
 32  15  16  ar  
 33  15  17  ar  
 34  16  18  1   
 35  16  19  ar  
 36  17  20  ar  
 37  17  37  1   
 38  19  21  ar  
 39  19  38  1   
 40  20  21  ar  
 41  20  39  1   
 42  21  40  1   
@<TRIPOS>SUBSTRUCTURE
  1 ****  12 GROUP 4 **** **** 0

# MOE 2024.06 (io_trps.svl 2023.06)
