@<TRIPOS>MOLECULE
NONAME
40 40 1 0 0 
SMALL
USER_CHARGES


@<TRIPOS>ATOM
  1 O       -9.3660     0.6990     0.6110 O.3   1 <1>  -0.3630 
  2 C       -8.1800     1.3450     0.4790 C.ar  1 <1>   0.0830 
  3 C      -10.5420     1.2050     0.0330 C.3   1 <1>   0.1200 
  4 C       -8.0170     2.5340    -0.2270 C.ar  1 <1>  -0.1500 
  5 C       -7.0830     0.7650     1.0920 C.ar  1 <1>  -0.1500 
  6 C      -11.6670     0.2320     0.3890 C.3   1 <1>   0.3430 
  7 C       -6.7670     3.1230    -0.3090 C.ar  1 <1>  -0.1500 
  8 C       -5.8370     1.3580     1.0060 C.ar  1 <1>  -0.1500 
  9 N      -12.9810     0.6670    -0.1760 N.4   1 <1>  -0.9060 
 10 C       -5.6660     2.5440     0.3050 C.ar  1 <1>  -0.1430 
 11 C      -14.0700    -0.2730     0.1680 C.3   1 <1>   0.3430 
 12 C       -4.2950     3.2110     0.2020 C.3   1 <1>   0.0630 
 13 C      -15.3590     0.2500    -0.4460 C.3   1 <1>  -0.2400 
 14 C       -3.3160     2.2980    -0.5600 C.3   1 <1>  -0.1600 
 15 C       -3.7830     3.5890     1.5990 C.3   1 <1>  -0.2400 
 16 C       -1.9740     2.9710    -0.8840 C.3   1 <1>  -0.2400 
 17 H      -10.3930     1.2570    -1.0320 H     1 <1>   0.0800 
 18 H      -10.7240     2.1800     0.4490 H     1 <1>   0.0800 
 19 H       -8.8360     3.0200    -0.7180 H     1 <1>   0.1500 
 20 H       -7.2040    -0.1530     1.6370 H     1 <1>   0.1500 
 21 H      -11.7380     0.1670     1.4630 H     1 <1>   0.0800 
 22 H      -11.4130    -0.7430     0.0040 H     1 <1>   0.0800 
 23 H       -6.6540     4.0420    -0.8570 H     1 <1>   0.1500 
 24 H       -4.9980     0.8900     1.4900 H     1 <1>   0.1500 
 25 H      -12.9200     0.7400    -1.2000 H     1 <1>   0.4500 
 26 H      -13.2270     1.6000     0.1790 H     1 <1>   0.4500 
 27 H      -14.1780    -0.3450     1.2390 H     1 <1>   0.0800 
 28 H      -13.8520    -1.2560    -0.2220 H     1 <1>   0.0800 
 29 H       -4.4030     4.1220    -0.3620 H     1 <1>   0.0800 
 30 H      -15.6110     1.2180    -0.0510 H     1 <1>   0.0800 
 31 H      -16.1630    -0.4230    -0.2060 H     1 <1>   0.0800 
 32 H      -15.2830     0.3030    -1.5180 H     1 <1>   0.0800 
 33 H       -3.7800     2.0020    -1.4860 H     1 <1>   0.0800 
 34 H       -3.1330     1.4030     0.0080 H     1 <1>   0.0800 
 35 H       -3.5500     2.7100     2.1720 H     1 <1>   0.0800 
 36 H       -4.5370     4.1490     2.1220 H     1 <1>   0.0800 
 37 H       -2.9010     4.1980     1.5280 H     1 <1>   0.0800 
 38 H       -2.1320     3.8840    -1.4300 H     1 <1>   0.0800 
 39 H       -1.3740     2.3130    -1.4880 H     1 <1>   0.0800 
 40 H       -1.4270     3.1910     0.0150 H     1 <1>   0.0800 
@<TRIPOS>BOND
  1   1   2  1   
  2   1   3  1   
  3   2   4  ar  
  4   2   5  ar  
  5   3   6  1   
  6   3  17  1   
  7   3  18  1   
  8   4   7  ar  
  9   4  19  1   
 10   5   8  ar  
 11   5  20  1   
 12   6   9  1   
 13   6  21  1   
 14   6  22  1   
 15   7  10  ar  
 16   7  23  1   
 17   8  10  ar  
 18   8  24  1   
 19   9  11  1   
 20   9  25  1   
 21   9  26  1   
 22  10  12  1   
 23  11  13  1   
 24  11  27  1   
 25  11  28  1   
 26  12  14  1   
 27  12  15  1   
 28  12  29  1   
 29  13  30  1   
 30  13  31  1   
 31  13  32  1   
 32  14  16  1   
 33  14  33  1   
 34  14  34  1   
 35  15  35  1   
 36  15  36  1   
 37  15  37  1   
 38  16  38  1   
 39  16  39  1   
 40  16  40  1   
@<TRIPOS>SUBSTRUCTURE
  1 ****   2 GROUP 4 **** **** 0

# MOE 2024.06 (io_trps.svl 2023.06)
