@<TRIPOS>MOLECULE
NONAME
34 34 1 0 0 
SMALL
USER_CHARGES


@<TRIPOS>ATOM
  1 I       -0.0450     0.3570     0.2120 I     1 <1>  -0.0810 
  2 C        1.7010    -0.7670    -0.2530 C.ar  1 <1>   0.0810 
  3 C        2.9200    -0.3220     0.2210 C.ar  1 <1>  -0.1500 
  4 C        1.5670    -1.9100    -1.0170 C.ar  1 <1>  -0.1500 
  5 C        4.0690    -1.0460    -0.0770 C.ar  1 <1>   0.1170 
  6 C        2.7090    -2.6330    -1.3120 C.ar  1 <1>  -0.1500 
  7 N        5.2980    -0.5880     0.4250 N.am  1 <1>  -0.5470 
  8 C        3.9420    -2.2050    -0.8440 C.ar  1 <1>  -0.1500 
  9 C        6.5690    -0.7930    -0.0510 C.2   1 <1>   0.5690 
 10 O        6.8180    -1.4120    -1.0600 O.2   1 <1>  -0.5700 
 11 C        7.7790    -0.2200     0.7080 C.3   1 <1>   0.4040 
 12 N        9.0820    -0.8180     0.2220 N.4   1 <1>  -0.9590 
 13 C        9.6570    -1.8300     1.1510 C.3   1 <1>   0.3430 
 14 C       10.0540     0.2310    -0.1790 C.3   1 <1>   0.3430 
 15 C        8.7380    -3.0440     1.2440 C.3   1 <1>  -0.2400 
 16 C       11.0810    -0.3600    -1.1370 C.3   1 <1>  -0.2400 
 17 H        2.9660     0.5750     0.8090 H     1 <1>   0.1500 
 18 H        0.6030    -2.2280    -1.3720 H     1 <1>   0.1500 
 19 H        2.6400    -3.5300    -1.9050 H     1 <1>   0.1500 
 20 H        5.1900     0.0240     1.2340 H     1 <1>   0.3700 
 21 H        4.8090    -2.7920    -1.0850 H     1 <1>   0.1500 
 22 H        7.6570    -0.4110     1.7600 H     1 <1>   0.0800 
 23 H        7.7880     0.8450     0.5560 H     1 <1>   0.0800 
 24 H        8.8000    -1.3230    -0.6440 H     1 <1>   0.4500 
 25 H        9.8040    -1.4000     2.1290 H     1 <1>   0.0800 
 26 H       10.6160    -2.1580     0.7830 H     1 <1>   0.0800 
 27 H       10.5450     0.6400     0.6900 H     1 <1>   0.0800 
 28 H        9.5360     1.0310    -0.6840 H     1 <1>   0.0800 
 29 H        7.8070    -2.8040     1.7240 H     1 <1>   0.0800 
 30 H        9.2200    -3.8050     1.8310 H     1 <1>   0.0800 
 31 H        8.5470    -3.4530     0.2670 H     1 <1>   0.0800 
 32 H       11.6940    -1.1000    -0.6560 H     1 <1>   0.0800 
 33 H       11.7300     0.4240    -1.4840 H     1 <1>   0.0800 
 34 H       10.5970    -0.7920    -1.9960 H     1 <1>   0.0800 
@<TRIPOS>BOND
  1   1   2  1   
  2   2   3  ar  
  3   2   4  ar  
  4   3   5  ar  
  5   3  17  1   
  6   4   6  ar  
  7   4  18  1   
  8   5   7  1   
  9   5   8  ar  
 10   6   8  ar  
 11   6  19  1   
 12   7   9  am  
 13   7  20  1   
 14   8  21  1   
 15   9  10  2   
 16   9  11  1   
 17  11  12  1   
 18  11  22  1   
 19  11  23  1   
 20  12  13  1   
 21  12  14  1   
 22  12  24  1   
 23  13  15  1   
 24  13  25  1   
 25  13  26  1   
 26  14  16  1   
 27  14  27  1   
 28  14  28  1   
 29  15  29  1   
 30  15  30  1   
 31  15  31  1   
 32  16  32  1   
 33  16  33  1   
 34  16  34  1   
@<TRIPOS>SUBSTRUCTURE
  1 ****   7 GROUP 4 **** **** 0

# MOE 2024.06 (io_trps.svl 2023.06)
