@<TRIPOS>MOLECULE
NONAME
32 32 1 0 0 
SMALL
USER_CHARGES


@<TRIPOS>ATOM
  1 CL      -0.0760     1.0000    -0.0780 Cl    1 <1>  -0.2900 
  2 C       -1.7180     1.6120    -0.0040 C.3   1 <1>   0.1300 
  3 C       -2.6740     0.4380    -0.1930 C.3   1 <1>   0.1200 
  4 O       -3.9970     0.9310    -0.1610 O.3   1 <1>  -0.4300 
  5 C       -5.0500     0.1280    -0.0870 C.2   1 <1>   0.6590 
  6 O       -4.9350    -1.0700    -0.1010 O.2   1 <1>  -0.5700 
  7 C       -6.4000     0.8290     0.0290 C.3   1 <1>   0.2110 
  8 S       -6.6470     1.3770     1.7890 S.3   1 <1>  -0.2660 
  9 C       -7.5860    -0.0560    -0.3840 C.3   1 <1>  -0.0160 
 10 C       -5.3140     2.5660     2.0240 C.1   1 <1>   0.5930 
 11 C       -8.8600     0.7630    -0.5240 C.ar  1 <1>  -0.1440 
 12 N       -4.4480     3.2960     2.1340 N.1   1 <1>  -0.5570 
 13 C       -9.7750     0.8260     0.5150 C.ar  1 <1>  -0.1500 
 14 C       -9.1140     1.4590    -1.6960 C.ar  1 <1>  -0.1500 
 15 C      -10.9320     1.5790     0.3950 C.ar  1 <1>  -0.1430 
 16 C      -10.2660     2.2140    -1.8220 C.ar  1 <1>  -0.1500 
 17 C      -11.1720     2.2750    -0.7780 C.ar  1 <1>  -0.1500 
 18 C      -11.9220     1.6430     1.5440 C.3   1 <1>  -0.0970 
 19 H       -1.8270     2.3380    -0.7890 H     1 <1>   0.0800 
 20 H       -1.8490     2.0730     0.9590 H     1 <1>   0.0800 
 21 H       -2.5540    -0.2750     0.6050 H     1 <1>   0.0800 
 22 H       -2.5150    -0.0410    -1.1440 H     1 <1>   0.0800 
 23 H       -6.3840     1.7200    -0.5700 H     1 <1>   0.0800 
 24 H       -7.7220    -0.8460     0.3350 H     1 <1>   0.0800 
 25 H       -7.3700    -0.5210    -1.3300 H     1 <1>   0.0800 
 26 H       -9.5880     0.2880     1.4280 H     1 <1>   0.1500 
 27 H       -8.4210     1.4190    -2.5180 H     1 <1>   0.1500 
 28 H      -10.4600     2.7530    -2.7320 H     1 <1>   0.1500 
 29 H      -12.0650     2.8660    -0.8840 H     1 <1>   0.1500 
 30 H      -11.9680     0.6950     2.0500 H     1 <1>   0.0800 
 31 H      -12.9060     1.8820     1.1830 H     1 <1>   0.0800 
 32 H      -11.6160     2.3980     2.2450 H     1 <1>   0.0800 
@<TRIPOS>BOND
  1   1   2  1   
  2   2   3  1   
  3   2  19  1   
  4   2  20  1   
  5   3   4  1   
  6   3  21  1   
  7   3  22  1   
  8   4   5  1   
  9   5   6  2   
 10   5   7  1   
 11   7   8  1   
 12   7   9  1   
 13   7  23  1   
 14   8  10  1   
 15   9  11  1   
 16   9  24  1   
 17   9  25  1   
 18  10  12  3   
 19  11  13  ar  
 20  11  14  ar  
 21  13  15  ar  
 22  13  26  1   
 23  14  16  ar  
 24  14  27  1   
 25  15  17  ar  
 26  15  18  1   
 27  16  17  ar  
 28  16  28  1   
 29  17  29  1   
 30  18  30  1   
 31  18  31  1   
 32  18  32  1   
@<TRIPOS>SUBSTRUCTURE
  1 ****   7 GROUP 4 **** **** 0

# MOE 2024.06 (io_trps.svl 2023.06)
