@<TRIPOS>MOLECULE
NONAME
39 41 1 0 0 
SMALL
USER_CHARGES


@<TRIPOS>ATOM
  1 F        0.7250     1.4890     1.1700 F     1 <1>  -0.1900 
  2 C        0.7020     2.7640     0.8870 C.ar  1 <1>   0.1900 
  3 C        1.3780     3.2100    -0.2330 C.ar  1 <1>  -0.1500 
  4 C        0.0030     3.6190     1.7170 C.ar  1 <1>  -0.1500 
  5 C        1.3490     4.5620    -0.5290 C.ar  1 <1>  -0.1500 
  6 C       -0.0180     4.9690     1.4090 C.ar  1 <1>  -0.1500 
  7 C        0.6520     5.4430     0.2880 C.ar  1 <1>  -0.1440 
  8 C        0.6170     6.9280    -0.0460 C.3   1 <1>  -0.0160 
  9 C       -0.6880     7.2810    -0.7610 C.3   1 <1>   0.1400 
 10 N       -0.6740     8.7140    -1.0990 N.am  1 <1>  -0.7300 
 11 C       -1.2670     9.6940    -0.3730 C.2   1 <1>   0.5690 
 12 O       -2.1340     9.4290     0.4290 O.2   1 <1>  -0.5700 
 13 C       -0.8860    11.1640    -0.6210 C.3   1 <1>  -0.0190 
 14 C        0.7540    11.5350    -0.9920 C.3   1 <1>  -0.1860 
 15 C       -1.3170    12.1950     0.6120 C.3   1 <1>   0.0580 
 16 C        1.6960    10.3410    -1.0020 C.2   1 <1>   0.9060 
 17 C        1.2070    12.7650     0.0230 C.3   1 <1>   0.0580 
 18 C       -0.7650    13.4970     1.3950 C.2   1 <1>  -0.2880 
 19 C       -0.0490    12.3780     0.2460 C.3   1 <1>  -0.1600 
 20 O        1.7430     9.6730    -2.0420 O.co2 1 <1>  -0.9000 
 21 O        2.3090    10.0030     0.0120 O.co2 1 <1>  -0.9000 
 22 C        0.5570    13.7940     1.0880 C.2   1 <1>  -0.2880 
 23 H        1.9130     2.5160    -0.8550 H     1 <1>   0.1500 
 24 H       -0.5100     3.2370     2.5800 H     1 <1>   0.1500 
 25 H        1.8710     4.9340    -1.3950 H     1 <1>   0.1500 
 26 H       -0.5550     5.6560     2.0420 H     1 <1>   0.1500 
 27 H        1.4530     7.1880    -0.6740 H     1 <1>   0.0800 
 28 H        0.6990     7.5080     0.8570 H     1 <1>   0.0800 
 29 H       -1.5290     7.0590    -0.1260 H     1 <1>   0.0800 
 30 H       -0.7770     6.7060    -1.6660 H     1 <1>   0.0800 
 31 H        0.1600     8.9820    -1.6630 H     1 <1>   0.3700 
 32 H       -1.4740    11.4310    -1.4870 H     1 <1>   0.0800 
 33 H        0.7900    11.9090    -2.0040 H     1 <1>   0.0800 
 34 H       -1.5530    11.5400     1.4380 H     1 <1>   0.0800 
 35 H        2.0270    12.3490     0.5930 H     1 <1>   0.0800 
 36 H       -1.4310    14.0070     2.0690 H     1 <1>   0.1500 
 37 H        0.3120    11.6600     1.0920 H     1 <1>   0.0800 
 38 H       -0.4240    13.1710    -0.5990 H     1 <1>   0.0800 
 39 H        1.1740    14.5920     1.4630 H     1 <1>   0.1500 
@<TRIPOS>BOND
  1   1   2  1   
  2   2   3  ar  
  3   2   4  ar  
  4   3   5  ar  
  5   3  23  1   
  6   4   6  ar  
  7   4  24  1   
  8   5   7  ar  
  9   5  25  1   
 10   6   7  ar  
 11   6  26  1   
 12   7   8  1   
 13   8   9  1   
 14   8  27  1   
 15   8  28  1   
 16   9  10  1   
 17   9  29  1   
 18   9  30  1   
 19  10  11  am  
 20  10  31  1   
 21  11  12  2   
 22  11  13  1   
 23  13  14  1   
 24  13  15  1   
 25  13  32  1   
 26  14  16  1   
 27  14  17  1   
 28  14  33  1   
 29  15  18  1   
 30  15  19  1   
 31  15  34  1   
 32  16  20  ar  
 33  16  21  ar  
 34  17  19  1   
 35  17  22  1   
 36  17  35  1   
 37  18  22  2   
 38  18  36  1   
 39  19  37  1   
 40  19  38  1   
 41  22  39  1   
@<TRIPOS>SUBSTRUCTURE
  1 ****  10 GROUP 4 **** **** 0

# MOE 2024.06 (io_trps.svl 2023.06)
