@<TRIPOS>MOLECULE
NONAME
38 39 1 0 0 
SMALL
USER_CHARGES


@<TRIPOS>ATOM
  1 BR       2.5720     3.4890     2.2850 Br    1 <1>  -0.1110 
  2 C        2.9160     2.4080     0.7300 C.ar  1 <1>   0.1110 
  3 C        4.0740     1.6590     0.6900 C.ar  1 <1>  -0.1500 
  4 C        1.9950     2.4110    -0.3000 C.ar  1 <1>  -0.1500 
  5 C        4.3320     0.8760    -0.4280 C.ar  1 <1>   0.1990 
  6 C        2.2510     1.6280    -1.4140 C.ar  1 <1>  -0.1500 
  7 N        5.4920     0.1160    -0.4860 N.am  1 <1>  -0.6930 
  8 C        3.4090     0.8700    -1.4730 C.ar  1 <1>  -0.1500 
  9 S        5.3750    -1.6100    -0.4080 S.o2  1 <1>   1.3330 
 10 C        6.5230     0.6030    -1.4630 C.3   1 <1>   0.2570 
 11 O        6.6530    -2.1180     0.0190 O.2   1 <1>  -0.6500 
 12 O        4.7730    -2.0320    -1.6480 O.2   1 <1>  -0.6500 
 13 C        4.2220    -1.8720     0.9240 C.3   1 <1>  -0.1350 
 14 C        7.9890     0.2590    -1.1570 C.2   1 <1>   0.5690 
 15 O        8.6360    -0.2120    -2.0650 O.2   1 <1>  -0.5700 
 16 N        8.5630     0.5110     0.0670 N.am  1 <1>  -0.6600 
 17 C        9.8790    -0.0900     0.4360 C.3   1 <1>   0.1400 
 18 C        7.9040     1.2210     1.2000 C.3   1 <1>   0.1400 
 19 C       10.7540     0.9210     1.1950 C.3   1 <1>   0.1200 
 20 C        8.8960     2.1560     1.9150 C.3   1 <1>   0.1200 
 21 O       10.0560     1.4670     2.2800 O.3   1 <1>  -0.5600 
 22 H        4.7620     1.6800     1.5120 H     1 <1>   0.1500 
 23 H        1.1030     3.0090    -0.2320 H     1 <1>   0.1500 
 24 H        1.5500     1.6090    -2.2320 H     1 <1>   0.1500 
 25 H        3.6000     0.2600    -2.3400 H     1 <1>   0.1500 
 26 H        6.4540     1.6720    -1.5440 H     1 <1>   0.0800 
 27 H        6.2900     0.1940    -2.4310 H     1 <1>   0.0800 
 28 H        3.2690    -1.4420     0.6860 H     1 <1>   0.0800 
 29 H        4.5920    -1.4270     1.8260 H     1 <1>   0.0800 
 30 H        4.0900    -2.9230     1.0890 H     1 <1>   0.0800 
 31 H       10.4030    -0.4220    -0.4430 H     1 <1>   0.0800 
 32 H        9.7070    -0.9500     1.0590 H     1 <1>   0.0800 
 33 H        7.5310     0.4940     1.9010 H     1 <1>   0.0800 
 34 H        7.0760     1.8070     0.8460 H     1 <1>   0.0800 
 35 H       11.0590     1.7190     0.5420 H     1 <1>   0.0800 
 36 H       11.6320     0.4330     1.5800 H     1 <1>   0.0800 
 37 H        8.4540     2.5510     2.8120 H     1 <1>   0.0800 
 38 H        9.1710     2.9760     1.2750 H     1 <1>   0.0800 
@<TRIPOS>BOND
  1   1   2  1   
  2   2   3  ar  
  3   2   4  ar  
  4   3   5  ar  
  5   3  22  1   
  6   4   6  ar  
  7   4  23  1   
  8   5   7  1   
  9   5   8  ar  
 10   6   8  ar  
 11   6  24  1   
 12   7   9  am  
 13   7  10  1   
 14   8  25  1   
 15   9  11  2   
 16   9  12  2   
 17   9  13  1   
 18  10  14  1   
 19  10  26  1   
 20  10  27  1   
 21  13  28  1   
 22  13  29  1   
 23  13  30  1   
 24  14  15  2   
 25  14  16  am  
 26  16  17  1   
 27  16  18  1   
 28  17  19  1   
 29  17  31  1   
 30  17  32  1   
 31  18  20  1   
 32  18  33  1   
 33  18  34  1   
 34  19  21  1   
 35  19  35  1   
 36  19  36  1   
 37  20  21  1   
 38  20  37  1   
 39  20  38  1   
@<TRIPOS>SUBSTRUCTURE
  1 ****   7 GROUP 4 **** **** 0

# MOE 2024.06 (io_trps.svl 2023.06)
