@<TRIPOS>MOLECULE
NONAME
30 30 1 0 0 
SMALL
USER_CHARGES


@<TRIPOS>ATOM
  1 O       -0.0790    -0.3960     0.0180 O.2   1 <1>  -0.5700 
  2 C       -0.0470    -1.6200     0.0110 C.2   1 <1>   0.4230 
  3 C        1.1880    -2.3500     0.0060 C.ar  1 <1>   0.0860 
  4 C       -1.4090    -2.3200     0.0060 C.3   1 <1>  -0.0990 
  5 C        1.3020    -3.7740     0.0020 C.ar  1 <1>  -0.1710 
  6 C        2.4010    -1.6330     0.0070 C.ar  1 <1>  -0.1500 
  7 C       -2.6370    -1.3880     0.0060 C.3   1 <1>  -0.1600 
  8 O        0.3130    -4.5380     0.0020 O.3   1 <1>  -0.8290 
  9 C        2.5710    -4.3780    -0.0030 C.ar  1 <1>  -0.1500 
 10 C        3.6360    -2.2370     0.0020 C.ar  1 <1>  -0.1500 
 11 C       -3.9450    -2.1890     0.0010 C.3   1 <1>  -0.1600 
 12 C        3.7160    -3.6300    -0.0020 C.ar  1 <1>   0.0820 
 13 C       -5.1640    -1.2590     0.0010 C.3   1 <1>  -0.1600 
 14 O        4.9250    -4.2160    -0.0070 O.3   1 <1>  -0.5320 
 15 C       -6.4690    -2.0610    -0.0050 C.3   1 <1>  -0.2400 
 16 H       -1.4500    -2.9570     0.8710 H     1 <1>   0.0800 
 17 H       -1.4460    -2.9520    -0.8620 H     1 <1>   0.0800 
 18 H        2.3510    -0.5590     0.0100 H     1 <1>   0.1500 
 19 H       -2.5940    -0.7540    -0.8630 H     1 <1>   0.0800 
 20 H       -2.5980    -0.7590     0.8800 H     1 <1>   0.0800 
 21 H        2.6080    -5.4500    -0.0060 H     1 <1>   0.1500 
 22 H        4.5300    -1.6450     0.0030 H     1 <1>   0.1500 
 23 H       -3.9740    -2.8240     0.8700 H     1 <1>   0.0800 
 24 H       -3.9700    -2.8190    -0.8720 H     1 <1>   0.0800 
 25 H       -5.1320    -0.6250    -0.8690 H     1 <1>   0.0800 
 26 H       -5.1360    -0.6300     0.8740 H     1 <1>   0.0800 
 27 H        5.6480    -3.5690    -0.0060 H     1 <1>   0.4500 
 28 H       -6.5220    -2.6820    -0.8810 H     1 <1>   0.0800 
 29 H       -7.3110    -1.3930    -0.0050 H     1 <1>   0.0800 
 30 H       -6.5260    -2.6870     0.8680 H     1 <1>   0.0800 
@<TRIPOS>BOND
  1   1   2  2   
  2   2   3  1   
  3   2   4  1   
  4   3   5  ar  
  5   3   6  ar  
  6   4   7  1   
  7   4  16  1   
  8   4  17  1   
  9   5   8  1   
 10   5   9  ar  
 11   6  10  ar  
 12   6  18  1   
 13   7  11  1   
 14   7  19  1   
 15   7  20  1   
 16   9  12  ar  
 17   9  21  1   
 18  10  12  ar  
 19  10  22  1   
 20  11  13  1   
 21  11  23  1   
 22  11  24  1   
 23  12  14  1   
 24  13  15  1   
 25  13  25  1   
 26  13  26  1   
 27  14  27  1   
 28  15  28  1   
 29  15  29  1   
 30  15  30  1   
@<TRIPOS>SUBSTRUCTURE
  1 ****   2 GROUP 4 **** **** 0

# MOE 2024.06 (io_trps.svl 2023.06)
