@<TRIPOS>MOLECULE
NONAME
48 49 1 0 0 
SMALL
USER_CHARGES


@<TRIPOS>ATOM
  1 O       -1.3850     6.1420    -0.2990 O.3   1 <1>  -0.5600 
  2 C       -1.5340     5.5390    -1.5580 C.3   1 <1>   0.1200 
  3 C       -0.4240     5.5430     0.5220 C.3   1 <1>   0.1200 
  4 C       -1.7020     4.0040    -1.4550 C.3   1 <1>   0.3430 
  5 C       -0.8280     4.0930     0.8740 C.3   1 <1>   0.3430 
  6 N       -1.9030     3.5710    -0.0350 N.4   1 <1>  -0.9590 
  7 C       -2.2270     2.1220     0.1430 C.3   1 <1>   0.3430 
  8 C       -3.6700     1.8260    -0.3170 C.3   1 <1>   0.2000 
  9 O       -4.4790     2.9190    -0.0110 O.3   1 <1>  -0.6800 
 10 C       -4.2760     0.5790     0.3440 C.3   1 <1>   0.1200 
 11 O       -5.6420     0.5740     0.0720 O.3   1 <1>  -0.5600 
 12 C       -6.3580    -0.4690     0.6590 C.3   1 <1>   0.2630 
 13 C       -7.8310    -0.2430     0.3710 C.ar  1 <1>  -0.1440 
 14 C       -8.6070     0.4970     1.2480 C.ar  1 <1>  -0.1500 
 15 C       -8.4180    -0.7680    -0.7670 C.ar  1 <1>  -0.1500 
 16 C       -9.9530     0.7170     1.0100 C.ar  1 <1>   0.0830 
 17 C       -9.7650    -0.5680    -1.0180 C.ar  1 <1>  -0.1500 
 18 O      -10.5840     1.4740     1.9510 O.3   1 <1>  -0.3630 
 19 C      -10.5540     0.1660    -0.1340 C.ar  1 <1>   0.0830 
 20 C      -11.6210     2.3600     1.5910 C.3   1 <1>   0.0400 
 21 O      -11.8920     0.3390    -0.3530 O.3   1 <1>  -0.3630 
 22 C      -12.5720    -0.3190    -1.3980 C.3   1 <1>   0.0400 
 23 H       -0.6770     5.7860    -2.1610 H     1 <1>   0.0800 
 24 H       -2.4030     5.9720    -2.0210 H     1 <1>   0.0800 
 25 H       -0.3370     6.1320     1.4190 H     1 <1>   0.0800 
 26 H        0.5240     5.5630     0.0120 H     1 <1>   0.0800 
 27 H       -0.8240     3.5290    -1.8610 H     1 <1>   0.0800 
 28 H       -2.5450     3.7050    -2.0570 H     1 <1>   0.0800 
 29 H       -1.1780     4.0690     1.8930 H     1 <1>   0.0800 
 30 H        0.0460     3.4660     0.8150 H     1 <1>   0.0800 
 31 H       -2.7820     4.0570     0.2430 H     1 <1>   0.4500 
 32 H       -2.1550     1.8710     1.1880 H     1 <1>   0.0800 
 33 H       -1.5280     1.5040    -0.3960 H     1 <1>   0.0800 
 34 H       -3.6930     1.6950    -1.3850 H     1 <1>   0.0800 
 35 H       -5.4160     2.5990    -0.0400 H     1 <1>   0.4000 
 36 H       -4.1370     0.6130     1.4120 H     1 <1>   0.0800 
 37 H       -3.8370    -0.3200    -0.0530 H     1 <1>   0.0800 
 38 H       -6.1810    -0.4650     1.7210 H     1 <1>   0.0800 
 39 H       -6.0260    -1.4020     0.2380 H     1 <1>   0.0800 
 40 H       -8.1700     0.9210     2.1340 H     1 <1>   0.1500 
 41 H       -7.8280    -1.3350    -1.4660 H     1 <1>   0.1500 
 42 H      -10.1760    -0.9950    -1.9110 H     1 <1>   0.1500 
 43 H      -11.7070     3.1050     2.3610 H     1 <1>   0.0800 
 44 H      -12.5390     1.8070     1.5160 H     1 <1>   0.0800 
 45 H      -11.3760     2.8250     0.6520 H     1 <1>   0.0800 
 46 H      -13.6160    -0.0750    -1.3220 H     1 <1>   0.0800 
 47 H      -12.4370    -1.3810    -1.2880 H     1 <1>   0.0800 
 48 H      -12.1850     0.0260    -2.3390 H     1 <1>   0.0800 
@<TRIPOS>BOND
  1   1   2  1   
  2   1   3  1   
  3   2   4  1   
  4   2  23  1   
  5   2  24  1   
  6   3   5  1   
  7   3  25  1   
  8   3  26  1   
  9   4   6  1   
 10   4  27  1   
 11   4  28  1   
 12   5   6  1   
 13   5  29  1   
 14   5  30  1   
 15   6   7  1   
 16   6  31  1   
 17   7   8  1   
 18   7  32  1   
 19   7  33  1   
 20   8   9  1   
 21   8  10  1   
 22   8  34  1   
 23   9  35  1   
 24  10  11  1   
 25  10  36  1   
 26  10  37  1   
 27  11  12  1   
 28  12  13  1   
 29  12  38  1   
 30  12  39  1   
 31  13  14  ar  
 32  13  15  ar  
 33  14  16  ar  
 34  14  40  1   
 35  15  17  ar  
 36  15  41  1   
 37  16  18  1   
 38  16  19  ar  
 39  17  19  ar  
 40  17  42  1   
 41  18  20  1   
 42  19  21  1   
 43  20  43  1   
 44  20  44  1   
 45  20  45  1   
 46  21  22  1   
 47  22  46  1   
 48  22  47  1   
 49  22  48  1   
@<TRIPOS>SUBSTRUCTURE
  1 ****  11 GROUP 4 **** **** 0

# MOE 2024.06 (io_trps.svl 2023.06)
