@<TRIPOS>MOLECULE
NONAME
49 50 1 0 0 
SMALL
USER_CHARGES


@<TRIPOS>ATOM
  1 O        0.0090    -3.7290     0.9700 O.3   1 <1>  -0.5600 
  2 C        0.0190    -2.8940    -0.1550 C.3   1 <1>   0.2000 
  3 C       -0.4990    -5.0320     0.8250 C.3   1 <1>   0.2000 
  4 C       -1.4200    -2.6910    -0.7010 C.3   1 <1>   0.3430 
  5 C        1.0020    -3.4460    -1.1960 C.3   1 <1>  -0.2400 
  6 C       -1.7060    -5.0880    -0.1490 C.3   1 <1>   0.3430 
  7 C       -0.8910    -5.4860     2.2300 C.3   1 <1>  -0.2400 
  8 N       -2.3790    -3.7570    -0.2460 N.4   1 <1>  -0.9590 
  9 C       -3.6930    -3.7580    -0.9590 C.3   1 <1>   0.3430 
 10 C       -4.5860    -2.6090    -0.4460 C.3   1 <1>   0.2000 
 11 O       -4.3750    -2.4490     0.9240 O.3   1 <1>  -0.6800 
 12 C       -6.0770    -2.8640    -0.6940 C.3   1 <1>   0.1200 
 13 O       -6.8140    -1.8470    -0.0500 O.3   1 <1>  -0.3630 
 14 C       -8.1700    -1.8230    -0.0990 C.ar  1 <1>   0.0820 
 15 C       -8.7990    -0.7640     0.5340 C.ar  1 <1>  -0.1500 
 16 C       -8.9400    -2.7870    -0.7400 C.ar  1 <1>  -0.1500 
 17 C      -10.1800    -0.6510     0.5390 C.ar  1 <1>  -0.1430 
 18 C      -10.3190    -2.6790    -0.7370 C.ar  1 <1>  -0.1500 
 19 C      -10.9480    -1.6180    -0.1020 C.ar  1 <1>  -0.1430 
 20 C      -10.8230     0.5320     1.2500 C.3   1 <1>  -0.0970 
 21 C      -12.4670    -1.5400    -0.1250 C.3   1 <1>  -0.0970 
 22 H        0.3930    -1.9390     0.1760 H     1 <1>   0.0800 
 23 H        0.2940    -5.6630     0.4600 H     1 <1>   0.0800 
 24 H       -1.3760    -2.6660    -1.7770 H     1 <1>   0.0800 
 25 H       -1.7790    -1.7300    -0.3710 H     1 <1>   0.0800 
 26 H        0.6610    -4.3690    -1.6270 H     1 <1>   0.0800 
 27 H        1.9640    -3.6010    -0.7390 H     1 <1>   0.0800 
 28 H        1.1270    -2.7330    -1.9910 H     1 <1>   0.0800 
 29 H       -2.3990    -5.8380     0.1930 H     1 <1>   0.0800 
 30 H       -1.3540    -5.3860    -1.1220 H     1 <1>   0.0800 
 31 H       -1.6620    -4.8540     2.6340 H     1 <1>   0.0800 
 32 H       -0.0320    -5.4460     2.8770 H     1 <1>   0.0800 
 33 H       -1.2480    -6.5000     2.2120 H     1 <1>   0.0800 
 34 H       -2.6240    -3.4830     0.7280 H     1 <1>   0.4500 
 35 H       -4.2010    -4.6870    -0.7580 H     1 <1>   0.0800 
 36 H       -3.5530    -3.6810    -2.0240 H     1 <1>   0.0800 
 37 H       -4.3060    -1.6890    -0.9300 H     1 <1>   0.0800 
 38 H       -5.1090    -1.8980     1.2880 H     1 <1>   0.4000 
 39 H       -6.3760    -3.8120    -0.2810 H     1 <1>   0.0800 
 40 H       -6.3030    -2.8320    -1.7460 H     1 <1>   0.0800 
 41 H       -8.1930    -0.0250     1.0250 H     1 <1>   0.1500 
 42 H       -8.4980    -3.6240    -1.2430 H     1 <1>   0.1500 
 43 H      -10.9040    -3.4310    -1.2360 H     1 <1>   0.1500 
 44 H      -10.0770     1.1730     1.6840 H     1 <1>   0.0800 
 45 H      -11.4660     0.1830     2.0370 H     1 <1>   0.0800 
 46 H      -11.4000     1.1110     0.5530 H     1 <1>   0.0800 
 47 H      -12.8510    -1.5580     0.8790 H     1 <1>   0.0800 
 48 H      -12.8900    -2.3690    -0.6620 H     1 <1>   0.0800 
 49 H      -12.7820    -0.6310    -0.6050 H     1 <1>   0.0800 
@<TRIPOS>BOND
  1   1   2  1   
  2   1   3  1   
  3   2   4  1   
  4   2   5  1   
  5   2  22  1   
  6   3   6  1   
  7   3   7  1   
  8   3  23  1   
  9   4   8  1   
 10   4  24  1   
 11   4  25  1   
 12   5  26  1   
 13   5  27  1   
 14   5  28  1   
 15   6   8  1   
 16   6  29  1   
 17   6  30  1   
 18   7  31  1   
 19   7  32  1   
 20   7  33  1   
 21   8   9  1   
 22   8  34  1   
 23   9  10  1   
 24   9  35  1   
 25   9  36  1   
 26  10  11  1   
 27  10  12  1   
 28  10  37  1   
 29  11  38  1   
 30  12  13  1   
 31  12  39  1   
 32  12  40  1   
 33  13  14  1   
 34  14  15  ar  
 35  14  16  ar  
 36  15  17  ar  
 37  15  41  1   
 38  16  18  ar  
 39  16  42  1   
 40  17  19  ar  
 41  17  20  1   
 42  18  19  ar  
 43  18  43  1   
 44  19  21  1   
 45  20  44  1   
 46  20  45  1   
 47  20  46  1   
 48  21  47  1   
 49  21  48  1   
 50  21  49  1   
@<TRIPOS>SUBSTRUCTURE
  1 ****  10 GROUP 4 **** **** 0

# MOE 2024.06 (io_trps.svl 2023.06)
