@<TRIPOS>MOLECULE
NONAME
51 53 1 0 0 
SMALL
USER_CHARGES


@<TRIPOS>ATOM
  1 F       -3.8680    -0.8230    -2.8330 F     1 <1>  -0.1900 
  2 C       -3.7950    -0.1370    -1.7250 C.ar  1 <1>   0.1900 
  3 C       -4.9020    -0.0950    -0.8990 C.ar  1 <1>  -0.1500 
  4 C       -2.6190     0.5200    -1.4230 C.ar  1 <1>  -0.1500 
  5 C       -4.8320     0.6390     0.2780 C.ar  1 <1>  -0.1440 
  6 C       -2.5520     1.2450    -0.2460 C.ar  1 <1>  -0.1500 
  7 C       -3.6520     1.3020     0.5980 C.ar  1 <1>  -0.1500 
  8 C       -6.0330     0.7240     1.2020 C.3   1 <1>   0.4870 
  9 N       -7.0920     1.5340     0.5490 N.4   1 <1>  -0.9590 
 10 C       -6.6590     2.9110     0.1340 C.3   1 <1>   0.3430 
 11 C       -8.3860     1.5820     1.3030 C.3   1 <1>   0.3430 
 12 C       -7.7680     3.6150    -0.6880 C.3   1 <1>   0.1100 
 13 C       -9.4800     2.3110     0.4830 C.3   1 <1>   0.1100 
 14 N       -8.9750     2.7690    -0.8360 N.3   1 <1>  -0.8100 
 15 C      -10.0130     3.4020    -1.7060 C.3   1 <1>   0.1710 
 16 C      -11.2470     2.5310    -1.9760 C.2   1 <1>   0.5690 
 17 O      -11.2080     1.7340    -2.8810 O.2   1 <1>  -0.5700 
 18 N      -12.3260     2.6920    -1.1500 N.am  1 <1>  -0.5470 
 19 C      -13.5460     2.0050    -1.0210 C.ar  1 <1>   0.1170 
 20 C      -14.2960     2.2240     0.1410 C.ar  1 <1>   0.0830 
 21 C      -14.0400     1.1360    -1.9870 C.ar  1 <1>  -0.1500 
 22 O      -13.7770     3.0900     1.0650 O.3   1 <1>  -0.3630 
 23 C      -15.5120     1.5710     0.3170 C.ar  1 <1>  -0.1500 
 24 C      -15.2500     0.4900    -1.8060 C.ar  1 <1>  -0.1500 
 25 C      -14.5380     3.4950     2.1840 C.3   1 <1>   0.0400 
 26 C      -15.9860     0.7070    -0.6560 C.ar  1 <1>  -0.1500 
 27 H       -5.7860    -0.6340    -1.1900 H     1 <1>   0.1500 
 28 H       -1.7790     0.4610    -2.0920 H     1 <1>   0.1500 
 29 H       -1.6420     1.7610     0.0130 H     1 <1>   0.1500 
 30 H       -3.5690     1.8700     1.5110 H     1 <1>   0.1500 
 31 H       -5.7440     1.1760     2.1370 H     1 <1>   0.0800 
 32 H       -6.3990    -0.2700     1.4020 H     1 <1>   0.0800 
 33 H       -7.3430     1.0920    -0.3500 H     1 <1>   0.4500 
 34 H       -5.7670     2.8520    -0.4690 H     1 <1>   0.0800 
 35 H       -6.4270     3.5050     1.0030 H     1 <1>   0.0800 
 36 H       -8.2490     2.0900     2.2430 H     1 <1>   0.0800 
 37 H       -8.7240     0.5810     1.5160 H     1 <1>   0.0800 
 38 H       -7.3750     3.8470    -1.6650 H     1 <1>   0.0800 
 39 H       -8.0260     4.5470    -0.2140 H     1 <1>   0.0800 
 40 H       -9.8520     3.1480     1.0480 H     1 <1>   0.0800 
 41 H      -10.2980     1.6250     0.3410 H     1 <1>   0.0800 
 42 H       -9.5720     3.6270    -2.6610 H     1 <1>   0.0800 
 43 H      -10.3340     4.3320    -1.2700 H     1 <1>   0.0800 
 44 H      -12.2340     3.3960    -0.4180 H     1 <1>   0.3700 
 45 H      -13.4870     0.9570    -2.8900 H     1 <1>   0.1500 
 46 H      -16.1070     1.7150     1.1980 H     1 <1>   0.1500 
 47 H      -15.6170    -0.1800    -2.5640 H     1 <1>   0.1500 
 48 H      -13.9700     4.2230     2.7330 H     1 <1>   0.0800 
 49 H      -14.7310     2.6390     2.8050 H     1 <1>   0.0800 
 50 H      -15.4580     3.9360     1.8400 H     1 <1>   0.0800 
 51 H      -16.9260     0.2020    -0.5180 H     1 <1>   0.1500 
@<TRIPOS>BOND
  1   1   2  1   
  2   2   3  ar  
  3   2   4  ar  
  4   3   5  ar  
  5   3  27  1   
  6   4   6  ar  
  7   4  28  1   
  8   5   7  ar  
  9   5   8  1   
 10   6   7  ar  
 11   6  29  1   
 12   7  30  1   
 13   8   9  1   
 14   8  31  1   
 15   8  32  1   
 16   9  10  1   
 17   9  11  1   
 18   9  33  1   
 19  10  12  1   
 20  10  34  1   
 21  10  35  1   
 22  11  13  1   
 23  11  36  1   
 24  11  37  1   
 25  12  14  1   
 26  12  38  1   
 27  12  39  1   
 28  13  14  1   
 29  13  40  1   
 30  13  41  1   
 31  14  15  1   
 32  15  16  1   
 33  15  42  1   
 34  15  43  1   
 35  16  17  2   
 36  16  18  am  
 37  18  19  1   
 38  18  44  1   
 39  19  20  ar  
 40  19  21  ar  
 41  20  22  1   
 42  20  23  ar  
 43  21  24  ar  
 44  21  45  1   
 45  22  25  1   
 46  23  26  ar  
 47  23  46  1   
 48  24  26  ar  
 49  24  47  1   
 50  25  48  1   
 51  25  49  1   
 52  25  50  1   
 53  26  51  1   
@<TRIPOS>SUBSTRUCTURE
  1 ****  14 GROUP 4 **** **** 0

# MOE 2024.06 (io_trps.svl 2023.06)
