@<TRIPOS>MOLECULE
NONAME
30 31 1 0 0 
SMALL
USER_CHARGES


@<TRIPOS>ATOM
  1 S       -0.0270     0.0890    -1.1880 S.o2  1 <1>   1.0900 
  2 O        1.3180     0.4700    -1.5450 O.2   1 <1>  -0.6500 
  3 O       -0.9490    -0.3380    -2.2160 O.2   1 <1>  -0.6500 
  4 C       -0.7560     1.4740    -0.3200 C.3   1 <1>  -0.0550 
  5 C        0.1140    -1.2200     0.0420 C.3   1 <1>  -0.0550 
  6 C       -2.2830     1.4770    -0.3980 C.3   1 <1>   0.0700 
  7 C       -1.2030    -1.6920     0.6850 C.3   1 <1>  -0.2400 
  8 S       -2.8990     2.8500     0.6670 S.3   1 <1>  -0.2860 
  9 C       -4.6740     2.7580     0.5010 C.2   1 <1>   0.5340 
 10 O       -5.1630     1.8120    -0.2790 O.3   1 <1>  -0.2800 
 11 N       -5.5060     3.5340     1.0810 N.2   1 <1>  -0.5650 
 12 C       -6.4690     1.9880    -0.2060 C.ar  1 <1>   0.1400 
 13 C       -6.6980     3.0540     0.6350 C.ar  1 <1>   0.2270 
 14 C       -7.4990     1.2890    -0.8190 C.ar  1 <1>  -0.1500 
 15 C       -8.0020     3.4600     0.8930 C.ar  1 <1>  -0.1500 
 16 C       -8.7950     1.6960    -0.5600 C.ar  1 <1>  -0.1500 
 17 C       -9.0440     2.7770     0.2930 C.ar  1 <1>  -0.1500 
 18 H       -0.4070     2.3840    -0.7680 H     1 <1>   0.0800 
 19 H       -0.4410     1.4730     0.7060 H     1 <1>   0.0800 
 20 H        0.7820    -0.9040     0.8200 H     1 <1>   0.0800 
 21 H        0.5700    -2.0690    -0.4320 H     1 <1>   0.0800 
 22 H       -2.7190     0.5670    -0.0280 H     1 <1>   0.0800 
 23 H       -2.6250     1.6630    -1.4020 H     1 <1>   0.0800 
 24 H       -1.6270    -0.9220     1.3040 H     1 <1>   0.0800 
 25 H       -1.0180    -2.5530     1.3020 H     1 <1>   0.0800 
 26 H       -1.9130    -1.9660    -0.0770 H     1 <1>   0.0800 
 27 H       -7.2790     0.4630    -1.4700 H     1 <1>   0.1500 
 28 H       -8.1720     4.2930     1.5510 H     1 <1>   0.1500 
 29 H       -9.6230     1.1800    -1.0160 H     1 <1>   0.1500 
 30 H      -10.0620     3.0760     0.4800 H     1 <1>   0.1500 
@<TRIPOS>BOND
  1   1   2  2   
  2   1   3  2   
  3   1   4  1   
  4   1   5  1   
  5   4   6  1   
  6   4  18  1   
  7   4  19  1   
  8   5   7  1   
  9   5  20  1   
 10   5  21  1   
 11   6   8  1   
 12   6  22  1   
 13   6  23  1   
 14   7  24  1   
 15   7  25  1   
 16   7  26  1   
 17   8   9  1   
 18   9  10  1   
 19   9  11  2   
 20  10  12  1   
 21  11  13  1   
 22  12  13  ar  
 23  12  14  ar  
 24  13  15  ar  
 25  14  16  ar  
 26  14  27  1   
 27  15  17  ar  
 28  15  28  1   
 29  16  17  ar  
 30  16  29  1   
 31  17  30  1   
@<TRIPOS>SUBSTRUCTURE
  1 ****  10 GROUP 4 **** **** 0

# MOE 2024.06 (io_trps.svl 2023.06)
