@<TRIPOS>MOLECULE
NONAME
39 40 1 0 0 
SMALL
USER_CHARGES


@<TRIPOS>ATOM
  1 CL       1.8370     1.4200     2.0630 Cl    1 <1>  -0.1770 
  2 C        1.0450     2.2580     0.7390 C.ar  1 <1>   0.1770 
  3 C        1.4950     3.5220     0.3640 C.ar  1 <1>   0.0820 
  4 C       -0.0080     1.6400     0.0800 C.ar  1 <1>  -0.1440 
  5 O        2.5390     4.0930     1.0150 O.3   1 <1>  -0.3630 
  6 C        0.8560     4.2020    -0.6710 C.ar  1 <1>  -0.1440 
  7 C       -0.6180     2.3140    -0.9660 C.ar  1 <1>  -0.1500 
  8 C       -0.5010     0.2580     0.4870 C.3   1 <1>  -0.0960 
  9 C        3.8060     4.0140     0.4030 C.3   1 <1>   0.1200 
 10 C       -0.1920     3.5800    -1.3330 C.ar  1 <1>  -0.1500 
 11 C        1.2550     5.6120    -1.0870 C.3   1 <1>  -0.0970 
 12 C        4.4270     2.6500     0.7340 C.3   1 <1>   0.3430 
 13 N        5.7990     2.4670     0.1580 N.4   1 <1>  -0.9590 
 14 C        6.2340     1.0340     0.3190 C.3   1 <1>   0.3430 
 15 C        6.8170     3.3840     0.7890 C.3   1 <1>   0.3430 
 16 C        7.6850     0.8240    -0.1540 C.3   1 <1>   0.1200 
 17 C        8.2430     3.0720     0.2960 C.3   1 <1>   0.1200 
 18 O        8.5400     1.7200     0.4950 O.3   1 <1>  -0.5600 
 19 H       -1.4370     1.8620    -1.4990 H     1 <1>   0.1500 
 20 H        0.2920    -0.4620     0.3900 H     1 <1>   0.0800 
 21 H       -1.3230    -0.0560    -0.1300 H     1 <1>   0.0800 
 22 H       -0.8330     0.2740     1.5100 H     1 <1>   0.0800 
 23 H        4.3970     4.8150     0.8070 H     1 <1>   0.0800 
 24 H        3.6860     4.1440    -0.6580 H     1 <1>   0.0800 
 25 H       -0.6940     4.0840    -2.1410 H     1 <1>   0.1500 
 26 H        2.0480     5.5770    -1.8100 H     1 <1>   0.0800 
 27 H        1.5790     6.1800    -0.2330 H     1 <1>   0.0800 
 28 H        0.4170     6.1260    -1.5230 H     1 <1>   0.0800 
 29 H        3.7760     1.8860     0.3410 H     1 <1>   0.0800 
 30 H        4.4660     2.5380     1.8050 H     1 <1>   0.0800 
 31 H        5.7700     2.6640    -0.8510 H     1 <1>   0.4500 
 32 H        5.5800     0.3840    -0.2400 H     1 <1>   0.0800 
 33 H        6.1730     0.7490     1.3570 H     1 <1>   0.0800 
 34 H        6.7980     3.2660     1.8600 H     1 <1>   0.0800 
 35 H        6.5830     4.4110     0.5640 H     1 <1>   0.0800 
 36 H        7.7750     0.9650    -1.2170 H     1 <1>   0.0800 
 37 H        8.0130    -0.1720     0.0870 H     1 <1>   0.0800 
 38 H        8.9620     3.6480     0.8520 H     1 <1>   0.0800 
 39 H        8.3550     3.3020    -0.7500 H     1 <1>   0.0800 
@<TRIPOS>BOND
  1   1   2  1   
  2   2   3  ar  
  3   2   4  ar  
  4   3   5  1   
  5   3   6  ar  
  6   4   7  ar  
  7   4   8  1   
  8   5   9  1   
  9   6  10  ar  
 10   6  11  1   
 11   7  10  ar  
 12   7  19  1   
 13   8  20  1   
 14   8  21  1   
 15   8  22  1   
 16   9  12  1   
 17   9  23  1   
 18   9  24  1   
 19  10  25  1   
 20  11  26  1   
 21  11  27  1   
 22  11  28  1   
 23  12  13  1   
 24  12  29  1   
 25  12  30  1   
 26  13  14  1   
 27  13  15  1   
 28  13  31  1   
 29  14  16  1   
 30  14  32  1   
 31  14  33  1   
 32  15  17  1   
 33  15  34  1   
 34  15  35  1   
 35  16  18  1   
 36  16  36  1   
 37  16  37  1   
 38  17  18  1   
 39  17  38  1   
 40  17  39  1   
@<TRIPOS>SUBSTRUCTURE
  1 ****  12 GROUP 4 **** **** 0

# MOE 2024.06 (io_trps.svl 2023.06)
