@<TRIPOS>MOLECULE
NONAME
38 40 1 0 0 
SMALL
USER_CHARGES


@<TRIPOS>ATOM
  1 O       -0.5920     0.3600    -1.9000 O.2   1 <1>  -0.5700 
  2 C       -0.8940     1.4290    -1.4000 C.2   1 <1>   0.7160 
  3 N       -2.0310     1.5110    -0.6280 N.am  1 <1>  -0.6600 
  4 C       -0.0450     2.5750    -1.6200 C.2   1 <1>  -0.0860 
  5 C       -3.0390     0.4080    -0.5750 C.3   1 <1>   0.1400 
  6 C       -2.2120     2.5250     0.4550 C.3   1 <1>   0.1400 
  7 C        1.3140     2.6470    -1.5850 C.2   1 <1>  -0.0400 
  8 C       -0.4530     3.8900    -1.9300 C.2   1 <1>  -0.1500 
  9 C       -3.1470    -0.1570     0.8500 C.3   1 <1>   0.1200 
 10 C       -2.3800     1.8350     1.8200 C.3   1 <1>   0.1200 
 11 O        1.7300     3.8670    -1.8370 O.3   1 <1>  -0.2800 
 12 C        2.3300     1.5530    -1.3070 C.3   1 <1>   0.3000 
 13 C        0.6730     4.6210    -2.0470 C.2   1 <1>  -0.0100 
 14 O       -3.3930     0.8710     1.7680 O.3   1 <1>  -0.5600 
 15 O        2.8610     1.7370    -0.0110 O.3   1 <1>  -0.3630 
 16 C        3.7970     0.8940     0.4890 C.ar  1 <1>   0.0820 
 17 C        4.3230     1.2150     1.7300 C.ar  1 <1>  -0.1500 
 18 C        4.2450    -0.2500    -0.1690 C.ar  1 <1>  -0.1500 
 19 C        5.2840     0.4110     2.3160 C.ar  1 <1>  -0.1500 
 20 C        5.2080    -1.0530     0.4180 C.ar  1 <1>  -0.1500 
 21 C        5.7270    -0.7250     1.6590 C.ar  1 <1>  -0.1500 
 22 H       -2.7770    -0.3840    -1.2540 H     1 <1>   0.0800 
 23 H       -3.9980     0.7920    -0.8750 H     1 <1>   0.0800 
 24 H       -3.0870     3.1150     0.2470 H     1 <1>   0.0800 
 25 H       -1.3660     3.1860     0.5080 H     1 <1>   0.0800 
 26 H       -1.4740     4.2050    -2.0490 H     1 <1>   0.1500 
 27 H       -2.2380    -0.6620     1.1270 H     1 <1>   0.0800 
 28 H       -3.9630    -0.8550     0.9120 H     1 <1>   0.0800 
 29 H       -2.6510     2.5560     2.5710 H     1 <1>   0.0800 
 30 H       -1.4620     1.3560     2.1180 H     1 <1>   0.0800 
 31 H        3.1350     1.6040    -2.0190 H     1 <1>   0.0800 
 32 H        1.8640     0.5850    -1.3440 H     1 <1>   0.0800 
 33 H        0.8170     5.6630    -2.2740 H     1 <1>   0.1500 
 34 H        3.9740     2.0990     2.2330 H     1 <1>   0.1500 
 35 H        3.8610    -0.5330    -1.1300 H     1 <1>   0.1500 
 36 H        5.6870     0.6680     3.2800 H     1 <1>   0.1500 
 37 H        5.5530    -1.9370    -0.0900 H     1 <1>   0.1500 
 38 H        6.4760    -1.3510     2.1130 H     1 <1>   0.1500 
@<TRIPOS>BOND
  1   1   2  2   
  2   2   3  am  
  3   2   4  1   
  4   3   5  1   
  5   3   6  1   
  6   4   7  2   
  7   4   8  1   
  8   5   9  1   
  9   5  22  1   
 10   5  23  1   
 11   6  10  1   
 12   6  24  1   
 13   6  25  1   
 14   7  11  1   
 15   7  12  1   
 16   8  13  2   
 17   8  26  1   
 18   9  14  1   
 19   9  27  1   
 20   9  28  1   
 21  10  14  1   
 22  10  29  1   
 23  10  30  1   
 24  11  13  1   
 25  12  15  1   
 26  12  31  1   
 27  12  32  1   
 28  13  33  1   
 29  15  16  1   
 30  16  17  ar  
 31  16  18  ar  
 32  17  19  ar  
 33  17  34  1   
 34  18  20  ar  
 35  18  35  1   
 36  19  21  ar  
 37  19  36  1   
 38  20  21  ar  
 39  20  37  1   
 40  21  38  1   
@<TRIPOS>SUBSTRUCTURE
  1 ****  12 GROUP 4 **** **** 0

# MOE 2024.06 (io_trps.svl 2023.06)
