@<TRIPOS>MOLECULE
NONAME
32 34 1 0 0 
SMALL
USER_CHARGES


@<TRIPOS>ATOM
  1 S       -0.1900     0.0950     0.5900 S.o2  1 <1>   1.4240 
  2 O       -0.3370    -1.0840    -0.2430 O.2   1 <1>  -0.6500 
  3 O        0.0170    -0.1230     2.0090 O.2   1 <1>  -0.6500 
  4 N        1.1940     0.9190     0.0250 N.am  1 <1>  -0.8490 
  5 N       -1.6010     1.1720     0.3230 N.pl3 1 <1>   0.5840 
  6 C        1.6540     1.9450     0.9730 C.3   1 <1>   0.1960 
  7 C        2.2850    -0.0110    -0.2950 C.3   1 <1>   0.1960 
  8 N       -1.6100     2.5280     0.4830 N.2   1 <1>  -0.4180 
  9 C       -2.8740     0.7730     0.0420 C.ar  1 <1>  -0.1520 
 10 C        2.7850     2.7710     0.3540 C.3   1 <1>  -0.1600 
 11 C        3.4530     0.7380    -0.9470 C.3   1 <1>  -0.1600 
 12 N       -2.7920     2.9760     0.3090 N.2   1 <1>  -0.2270 
 13 C       -3.6050     1.9310     0.0370 C.ar  1 <1>   0.2270 
 14 C       -3.4830    -0.4640    -0.2080 C.ar  1 <1>  -0.1500 
 15 C        3.9610     1.8790    -0.0580 C.3   1 <1>  -0.1600 
 16 C       -4.9770     1.9010    -0.2210 C.ar  1 <1>  -0.1500 
 17 C       -4.8360    -0.4930    -0.4600 C.ar  1 <1>  -0.1500 
 18 C       -5.5850     0.6910    -0.4670 C.ar  1 <1>  -0.1500 
 19 H        2.0020     1.4790     1.8810 H     1 <1>   0.0800 
 20 H        0.8460     2.6080     1.2290 H     1 <1>   0.0800 
 21 H        1.9400    -0.7610    -0.9880 H     1 <1>   0.0800 
 22 H        2.6150    -0.5100     0.6020 H     1 <1>   0.0800 
 23 H        3.1200     3.5060     1.0640 H     1 <1>   0.0800 
 24 H        2.4020     3.2940    -0.5050 H     1 <1>   0.0800 
 25 H        3.1230     1.1330    -1.8920 H     1 <1>   0.0800 
 26 H        4.2540     0.0470    -1.1420 H     1 <1>   0.0800 
 27 H       -2.9070    -1.3760    -0.2050 H     1 <1>   0.1500 
 28 H        4.4250     1.4680     0.8220 H     1 <1>   0.0800 
 29 H        4.6970     2.4590    -0.5870 H     1 <1>   0.0800 
 30 H       -5.5280     2.8230    -0.2200 H     1 <1>   0.1500 
 31 H       -5.3320    -1.4280    -0.6570 H     1 <1>   0.1500 
 32 H       -6.6420     0.6420    -0.6680 H     1 <1>   0.1500 
@<TRIPOS>BOND
  1   1   2  2   
  2   1   3  2   
  3   1   4  am  
  4   1   5  1   
  5   4   6  1   
  6   4   7  1   
  7   5   8  1   
  8   5   9  1   
  9   6  10  1   
 10   6  19  1   
 11   6  20  1   
 12   7  11  1   
 13   7  21  1   
 14   7  22  1   
 15   8  12  2   
 16   9  13  ar  
 17   9  14  ar  
 18  10  15  1   
 19  10  23  1   
 20  10  24  1   
 21  11  15  1   
 22  11  25  1   
 23  11  26  1   
 24  12  13  1   
 25  13  16  ar  
 26  14  17  ar  
 27  14  27  1   
 28  15  28  1   
 29  15  29  1   
 30  16  18  ar  
 31  16  30  1   
 32  17  18  ar  
 33  17  31  1   
 34  18  32  1   
@<TRIPOS>SUBSTRUCTURE
  1 ****   5 GROUP 4 **** **** 0

# MOE 2024.06 (io_trps.svl 2023.06)
