@<TRIPOS>MOLECULE
NONAME
50 52 1 0 0 
SMALL
USER_CHARGES


@<TRIPOS>ATOM
  1 S        0.5810     0.8960    -1.4970 S.o2  1 <1>   1.4470 
  2 O        0.3080     2.3090    -1.3510 O.2   1 <1>  -0.6500 
  3 O        0.9290     0.3480    -2.7890 O.2   1 <1>  -0.6500 
  4 N        1.8970     0.5400    -0.4180 N.am  1 <1>  -0.6930 
  5 C       -0.7610    -0.0670    -0.7470 C.ar  1 <1>  -0.0090 
  6 C        2.3100    -0.7670    -0.2230 C.ar  1 <1>   0.1990 
  7 C        2.2810     1.5930     0.5540 C.3   1 <1>   0.1160 
  8 C       -0.9140    -1.4190    -1.0330 C.ar  1 <1>  -0.1500 
  9 C       -1.6460     0.5060     0.1590 C.ar  1 <1>  -0.1500 
 10 C        2.8950    -1.4940    -1.2540 C.ar  1 <1>  -0.1500 
 11 C        2.1270    -1.4010     1.0030 C.ar  1 <1>  -0.1500 
 12 C       -1.9120    -2.1720    -0.4390 C.ar  1 <1>  -0.1500 
 13 C       -2.6460    -0.2420     0.7570 C.ar  1 <1>  -0.1500 
 14 C        3.2600    -2.8140    -1.0730 C.ar  1 <1>  -0.1500 
 15 C        2.4950    -2.7190     1.1810 C.ar  1 <1>  -0.1500 
 16 C       -2.7850    -1.5860     0.4600 C.ar  1 <1>  -0.1430 
 17 C        3.0550    -3.4650     0.1430 C.ar  1 <1>   0.0860 
 18 C       -3.8830    -2.4070     1.1120 C.3   1 <1>  -0.0970 
 19 C        3.4070    -4.8590     0.3140 C.2   1 <1>   0.5440 
 20 O        4.5470    -5.2130     0.0740 O.2   1 <1>  -0.5700 
 21 N        2.4840    -5.7980     0.7340 N.am  1 <1>  -0.6600 
 22 C        1.0090    -5.5790     0.7130 C.3   1 <1>   0.1400 
 23 C        2.8890    -7.1880     1.0910 C.3   1 <1>   0.1400 
 24 C        0.3530    -6.5630    -0.2620 C.3   1 <1>  -0.1600 
 25 C        2.2500    -8.1810     0.1140 C.3   1 <1>  -0.1600 
 26 C        0.7240    -8.0170     0.0600 C.3   1 <1>  -0.1600 
 27 H        1.4530     1.8110     1.2050 H     1 <1>   0.0800 
 28 H        2.5550     2.4890     0.0240 H     1 <1>   0.0800 
 29 H        3.1230     1.2690     1.1410 H     1 <1>   0.0800 
 30 H       -0.2400    -1.8890    -1.7300 H     1 <1>   0.1500 
 31 H       -1.5520     1.5510     0.4000 H     1 <1>   0.1500 
 32 H        3.0600    -1.0150    -2.2030 H     1 <1>   0.1500 
 33 H        1.6820    -0.8560     1.8150 H     1 <1>   0.1500 
 34 H       -2.0060    -3.2160    -0.6830 H     1 <1>   0.1500 
 35 H       -3.3180     0.2300     1.4540 H     1 <1>   0.1500 
 36 H        3.7140    -3.3630    -1.8810 H     1 <1>   0.1500 
 37 H        2.3470    -3.1940     2.1360 H     1 <1>   0.1500 
 38 H       -3.5190    -2.8410     2.0260 H     1 <1>   0.0800 
 39 H       -4.2030    -3.1970     0.4560 H     1 <1>   0.0800 
 40 H       -4.7330    -1.7890     1.3360 H     1 <1>   0.0800 
 41 H        0.7680    -4.5760     0.4090 H     1 <1>   0.0800 
 42 H        0.6190    -5.7330     1.7050 H     1 <1>   0.0800 
 43 H        2.5610    -7.3990     2.0940 H     1 <1>   0.0800 
 44 H        3.9600    -7.2940     1.0650 H     1 <1>   0.0800 
 45 H        0.6710    -6.3220    -1.2620 H     1 <1>   0.0800 
 46 H       -0.7150    -6.4460    -0.2210 H     1 <1>   0.0800 
 47 H        2.4980    -9.1830     0.4140 H     1 <1>   0.0800 
 48 H        2.6700    -8.0170    -0.8630 H     1 <1>   0.0800 
 49 H        0.3150    -8.6730    -0.6890 H     1 <1>   0.0800 
 50 H        0.3020    -8.2930     1.0110 H     1 <1>   0.0800 
@<TRIPOS>BOND
  1   1   2  2   
  2   1   3  2   
  3   1   4  am  
  4   1   5  1   
  5   4   6  1   
  6   4   7  1   
  7   5   8  ar  
  8   5   9  ar  
  9   6  10  ar  
 10   6  11  ar  
 11   7  27  1   
 12   7  28  1   
 13   7  29  1   
 14   8  12  ar  
 15   8  30  1   
 16   9  13  ar  
 17   9  31  1   
 18  10  14  ar  
 19  10  32  1   
 20  11  15  ar  
 21  11  33  1   
 22  12  16  ar  
 23  12  34  1   
 24  13  16  ar  
 25  13  35  1   
 26  14  17  ar  
 27  14  36  1   
 28  15  17  ar  
 29  15  37  1   
 30  16  18  1   
 31  17  19  1   
 32  18  38  1   
 33  18  39  1   
 34  18  40  1   
 35  19  20  2   
 36  19  21  am  
 37  21  22  1   
 38  21  23  1   
 39  22  24  1   
 40  22  41  1   
 41  22  42  1   
 42  23  25  1   
 43  23  43  1   
 44  23  44  1   
 45  24  26  1   
 46  24  45  1   
 47  24  46  1   
 48  25  26  1   
 49  25  47  1   
 50  25  48  1   
 51  26  49  1   
 52  26  50  1   
@<TRIPOS>SUBSTRUCTURE
  1 ****  11 GROUP 4 **** **** 0

# MOE 2024.06 (io_trps.svl 2023.06)
