@<TRIPOS>MOLECULE
NONAME
49 51 1 0 0 
SMALL
USER_CHARGES


@<TRIPOS>ATOM
  1 S        0.2540    -0.4840     1.3620 S.o2  1 <1>   1.4470 
  2 O        0.7360    -1.0340     2.6110 O.2   1 <1>  -0.6500 
  3 O        0.1790     0.9520     1.2040 O.2   1 <1>  -0.6500 
  4 N        1.3040    -1.0430     0.1550 N.am  1 <1>  -0.8490 
  5 C       -1.3350    -1.2320     0.9070 C.ar  1 <1>  -0.0090 
  6 C        1.5460    -2.4960     0.2540 C.3   1 <1>   0.1960 
  7 C        2.5860    -0.3200     0.1950 C.3   1 <1>   0.1960 
  8 C       -1.9370    -0.9380    -0.3090 C.ar  1 <1>  -0.1500 
  9 C       -1.9810    -2.1270     1.7490 C.ar  1 <1>  -0.1500 
 10 C        2.4340    -2.9940    -0.8980 C.3   1 <1>   0.1400 
 11 C        3.5310    -0.7580    -0.9400 C.3   1 <1>   0.1400 
 12 C       -3.1410    -1.5120    -0.6880 C.ar  1 <1>  -0.1440 
 13 C       -3.1820    -2.7080     1.3860 C.ar  1 <1>  -0.1500 
 14 N        3.7230    -2.2400    -0.9340 N.am  1 <1>  -0.6600 
 15 C       -3.7700    -2.4070     0.1690 C.ar  1 <1>  -0.1440 
 16 C       -3.7450    -1.1410    -2.0350 C.3   1 <1>  -0.0970 
 17 C        4.8870    -2.8310    -0.5190 C.2   1 <1>   0.6900 
 18 C       -5.0930    -3.0650    -0.1970 C.3   1 <1>  -0.0970 
 19 O        4.8520    -3.8610     0.1270 O.2   1 <1>  -0.5700 
 20 N        6.0690    -2.2480    -0.8710 N.am  1 <1>  -0.5470 
 21 C        7.3860    -2.5120    -0.4700 C.ar  1 <1>   0.1170 
 22 C        8.4330    -2.1370    -1.3060 C.ar  1 <1>  -0.1500 
 23 C        7.6960    -3.1160     0.7450 C.ar  1 <1>  -0.1500 
 24 C        9.7490    -2.3620    -0.9430 C.ar  1 <1>  -0.1500 
 25 C        9.0100    -3.3430     1.1120 C.ar  1 <1>  -0.1500 
 26 C       10.0400    -2.9660     0.2680 C.ar  1 <1>  -0.1500 
 27 H        0.6090    -3.0250     0.2170 H     1 <1>   0.0800 
 28 H        2.0260    -2.7330     1.1900 H     1 <1>   0.0800 
 29 H        3.0700    -0.4870     1.1440 H     1 <1>   0.0800 
 30 H        2.4070     0.7370     0.0990 H     1 <1>   0.0800 
 31 H       -1.4440    -0.2430    -0.9660 H     1 <1>   0.1500 
 32 H       -1.5410    -2.3730     2.7020 H     1 <1>   0.1500 
 33 H        1.9160    -2.8550    -1.8300 H     1 <1>   0.0800 
 34 H        2.6170    -4.0480    -0.7790 H     1 <1>   0.0800 
 35 H        4.4710    -0.2510    -0.8200 H     1 <1>   0.0800 
 36 H        3.1070    -0.4610    -1.8840 H     1 <1>   0.0800 
 37 H       -3.6570    -3.3970     2.0620 H     1 <1>   0.1500 
 38 H       -3.1240    -0.4350    -2.5570 H     1 <1>   0.0800 
 39 H       -4.7130    -0.6970    -1.8940 H     1 <1>   0.0800 
 40 H       -3.8470    -2.0180    -2.6480 H     1 <1>   0.0800 
 41 H       -5.8490    -2.3140    -0.3460 H     1 <1>   0.0800 
 42 H       -5.4250    -3.7260     0.5820 H     1 <1>   0.0800 
 43 H       -4.9840    -3.6360    -1.1010 H     1 <1>   0.0800 
 44 H        5.9680    -1.6110    -1.6520 H     1 <1>   0.3700 
 45 H        8.2200    -1.6710    -2.2490 H     1 <1>   0.1500 
 46 H        6.9060    -3.4120     1.4120 H     1 <1>   0.1500 
 47 H       10.5490    -2.0690    -1.6010 H     1 <1>   0.1500 
 48 H        9.2290    -3.8140     2.0540 H     1 <1>   0.1500 
 49 H       11.0630    -3.1430     0.5520 H     1 <1>   0.1500 
@<TRIPOS>BOND
  1   1   2  2   
  2   1   3  2   
  3   1   4  am  
  4   1   5  1   
  5   4   6  1   
  6   4   7  1   
  7   5   8  ar  
  8   5   9  ar  
  9   6  10  1   
 10   6  27  1   
 11   6  28  1   
 12   7  11  1   
 13   7  29  1   
 14   7  30  1   
 15   8  12  ar  
 16   8  31  1   
 17   9  13  ar  
 18   9  32  1   
 19  10  14  1   
 20  10  33  1   
 21  10  34  1   
 22  11  14  1   
 23  11  35  1   
 24  11  36  1   
 25  12  15  ar  
 26  12  16  1   
 27  13  15  ar  
 28  13  37  1   
 29  14  17  am  
 30  15  18  1   
 31  16  38  1   
 32  16  39  1   
 33  16  40  1   
 34  17  19  2   
 35  17  20  am  
 36  18  41  1   
 37  18  42  1   
 38  18  43  1   
 39  20  21  1   
 40  20  44  1   
 41  21  22  ar  
 42  21  23  ar  
 43  22  24  ar  
 44  22  45  1   
 45  23  25  ar  
 46  23  46  1   
 47  24  26  ar  
 48  24  47  1   
 49  25  26  ar  
 50  25  48  1   
 51  26  49  1   
@<TRIPOS>SUBSTRUCTURE
  1 ****   6 GROUP 4 **** **** 0

# MOE 2024.06 (io_trps.svl 2023.06)
