@<TRIPOS>MOLECULE
NONAME
44 46 1 0 0 
SMALL
USER_CHARGES


@<TRIPOS>ATOM
  1 O       -3.2560    -1.9840     2.0750 O.2   1 <1>  -0.5700 
  2 C       -2.6130    -1.7640     1.0810 C.2   1 <1>   0.6590 
  3 O       -3.1410    -1.1760     0.0140 O.3   1 <1>  -0.4300 
  4 C       -1.1430    -2.1230     0.9880 C.3   1 <1>  -0.0990 
  5 C       -4.4980    -0.7850    -0.0200 C.3   1 <1>   0.0400 
  6 C       -0.8520    -3.5290     0.4160 C.3   1 <1>   0.0000 
  7 C       -1.4860    -4.6340     1.2930 C.3   1 <1>  -0.1600 
  8 C       -1.3930    -3.6780    -1.0250 C.3   1 <1>  -0.1600 
  9 C        0.6780    -3.7490     0.3900 C.3   1 <1>  -0.1600 
 10 C       -1.1620    -6.0470     0.7540 C.3   1 <1>   0.0000 
 11 C       -1.0580    -5.0700    -1.5880 C.3   1 <1>  -0.0800 
 12 C        1.0210    -5.1410    -0.1670 C.3   1 <1>  -0.0800 
 13 C       -1.6980    -6.1480    -0.6930 C.3   1 <1>  -0.1600 
 14 C        0.3740    -6.2170     0.7230 C.3   1 <1>  -0.1600 
 15 C       -1.8220    -7.0950     1.6790 C.3   1 <1>  -0.0990 
 16 C        0.4680    -5.2630    -1.5980 C.3   1 <1>  -0.1600 
 17 C       -1.5700    -8.5390     1.2880 C.2   1 <1>   0.6590 
 18 O       -0.6610    -9.1720     1.7600 O.2   1 <1>  -0.5700 
 19 O       -2.4220    -9.0690     0.4180 O.3   1 <1>  -0.4300 
 20 C       -2.2980   -10.4060    -0.0180 C.3   1 <1>   0.0400 
 21 H       -0.7300    -2.0520     1.9780 H     1 <1>   0.0800 
 22 H       -0.6570    -1.3800     0.3830 H     1 <1>   0.0800 
 23 H       -4.6750    -0.0750     0.7690 H     1 <1>   0.0800 
 24 H       -5.1130    -1.6570     0.1190 H     1 <1>   0.0800 
 25 H       -4.7000    -0.3360    -0.9760 H     1 <1>   0.0800 
 26 H       -2.5540    -4.5060     1.3230 H     1 <1>   0.0800 
 27 H       -1.1230    -4.5400     2.3020 H     1 <1>   0.0800 
 28 H       -0.9640    -2.9220    -1.6590 H     1 <1>   0.0800 
 29 H       -2.4600    -3.5470    -1.0400 H     1 <1>   0.0800 
 30 H        1.0800    -3.6570     1.3840 H     1 <1>   0.0800 
 31 H        1.1470    -2.9980    -0.2210 H     1 <1>   0.0800 
 32 H       -1.4410    -5.1580    -2.5900 H     1 <1>   0.0800 
 33 H        2.0900    -5.2750    -0.1780 H     1 <1>   0.0800 
 34 H       -2.7680    -6.0310    -0.6980 H     1 <1>   0.0800 
 35 H       -1.4750    -7.1150    -1.1070 H     1 <1>   0.0800 
 36 H        0.6350    -7.1890     0.3400 H     1 <1>   0.0800 
 37 H        0.7720    -6.1470     1.7200 H     1 <1>   0.0800 
 38 H       -2.8840    -6.9370     1.7030 H     1 <1>   0.0800 
 39 H       -1.4550    -6.9630     2.6800 H     1 <1>   0.0800 
 40 H        0.9260    -4.5230    -2.2310 H     1 <1>   0.0800 
 41 H        0.7110    -6.2320    -2.0000 H     1 <1>   0.0800 
 42 H       -3.0890   -10.6120    -0.7160 H     1 <1>   0.0800 
 43 H       -2.3740   -11.0580     0.8350 H     1 <1>   0.0800 
 44 H       -1.3400   -10.5280    -0.4930 H     1 <1>   0.0800 
@<TRIPOS>BOND
  1   1   2  2   
  2   2   3  1   
  3   2   4  1   
  4   3   5  1   
  5   4   6  1   
  6   4  21  1   
  7   4  22  1   
  8   5  23  1   
  9   5  24  1   
 10   5  25  1   
 11   6   7  1   
 12   6   8  1   
 13   6   9  1   
 14   7  10  1   
 15   7  26  1   
 16   7  27  1   
 17   8  11  1   
 18   8  28  1   
 19   8  29  1   
 20   9  12  1   
 21   9  30  1   
 22   9  31  1   
 23  10  13  1   
 24  10  14  1   
 25  10  15  1   
 26  11  13  1   
 27  11  16  1   
 28  11  32  1   
 29  12  14  1   
 30  12  16  1   
 31  12  33  1   
 32  13  34  1   
 33  13  35  1   
 34  14  36  1   
 35  14  37  1   
 36  15  17  1   
 37  15  38  1   
 38  15  39  1   
 39  16  40  1   
 40  16  41  1   
 41  17  18  2   
 42  17  19  1   
 43  19  20  1   
 44  20  42  1   
 45  20  43  1   
 46  20  44  1   
@<TRIPOS>SUBSTRUCTURE
  1 ****   7 GROUP 4 **** **** 0

# MOE 2024.06 (io_trps.svl 2023.06)
