@<TRIPOS>MOLECULE
NONAME
46 49 1 0 0 
SMALL
USER_CHARGES


@<TRIPOS>ATOM
  1 O       -1.0430     1.8390    -1.1840 O.3   1 <1>  -0.3630 
  2 C       -1.9510     1.1290    -0.4790 C.ar  1 <1>   0.0830 
  3 C        0.1510     2.1510    -0.5080 C.3   1 <1>   0.1200 
  4 C       -1.8510    -0.2480    -0.3440 C.ar  1 <1>   0.0280 
  5 C       -2.9970     1.8490     0.1000 C.ar  1 <1>  -0.1500 
  6 C        1.0400     2.9470    -1.4580 C.3   1 <1>  -0.2400 
  7 C       -2.8710    -0.9350     0.3780 C.ar  1 <1>   0.0000 
  8 C       -0.7450    -0.9460    -0.9460 C.2   1 <1>  -0.1780 
  9 C       -3.9520     1.2000     0.8280 C.ar  1 <1>  -0.1500 
 10 C       -3.9140    -0.1970     0.9880 C.ar  1 <1>   0.0000 
 11 C       -2.9170    -2.3410     0.4980 C.ar  1 <1>  -0.1500 
 12 C        0.2480    -1.6430    -0.3430 C.2   1 <1>  -0.0380 
 13 C       -4.9030    -0.8780     1.7260 C.ar  1 <1>  -0.1500 
 14 C       -3.8940    -2.9810     1.2100 C.ar  1 <1>  -0.1500 
 15 N        0.3860    -1.8100     1.0360 N.pl3 1 <1>  -0.8380 
 16 C        1.3910    -2.2870    -1.1480 C.3   1 <1>   0.3380 
 17 C       -4.8970    -2.2400     1.8390 C.ar  1 <1>  -0.1500 
 18 C        0.4660    -3.2480     1.4400 C.3   1 <1>   0.2090 
 19 C        1.6160    -1.1270     1.5370 C.3   1 <1>   0.2090 
 20 O        0.8600    -3.3030    -1.9180 O.3   1 <1>  -0.6800 
 21 C        2.4170    -2.8660    -0.1410 C.3   1 <1>  -0.0800 
 22 C        1.7050    -3.8940     0.7750 C.3   1 <1>  -0.1600 
 23 C        2.8450    -1.6970     0.7820 C.3   1 <1>  -0.1600 
 24 H       -0.0960     2.7270     0.3670 H     1 <1>   0.0800 
 25 H        0.6290     1.2340    -0.2150 H     1 <1>   0.0800 
 26 H       -3.0270     2.9140    -0.0390 H     1 <1>   0.1500 
 27 H        0.5450     3.8540    -1.7530 H     1 <1>   0.0800 
 28 H        1.2640     2.3590    -2.3300 H     1 <1>   0.0800 
 29 H        1.9610     3.2020    -0.9670 H     1 <1>   0.0800 
 30 H       -0.7240    -0.8490    -2.0170 H     1 <1>   0.1500 
 31 H       -4.7540     1.7510     1.2850 H     1 <1>   0.1500 
 32 H       -2.1560    -2.9150     0.0100 H     1 <1>   0.1500 
 33 H       -5.6740    -0.3010     2.2020 H     1 <1>   0.1500 
 34 H       -3.9040    -4.0540     1.2940 H     1 <1>   0.1500 
 35 H        1.8520    -1.5720    -1.8070 H     1 <1>   0.0800 
 36 H       -5.6560    -2.7540     2.4030 H     1 <1>   0.1500 
 37 H        0.5290    -3.3210     2.5130 H     1 <1>   0.0800 
 38 H       -0.4280    -3.7570     1.1270 H     1 <1>   0.0800 
 39 H        1.5290    -0.0670     1.3700 H     1 <1>   0.0800 
 40 H        1.7140    -1.2900     2.5960 H     1 <1>   0.0800 
 41 H        0.0740    -3.6300    -1.4430 H     1 <1>   0.4000 
 42 H        3.2620    -3.2910    -0.6520 H     1 <1>   0.0800 
 43 H        2.3800    -4.2380     1.5390 H     1 <1>   0.0800 
 44 H        1.4010    -4.7570     0.2100 H     1 <1>   0.0800 
 45 H        3.2960    -0.9140     0.1990 H     1 <1>   0.0800 
 46 H        3.5780    -2.0300     1.4950 H     1 <1>   0.0800 
@<TRIPOS>BOND
  1   1   2  1   
  2   1   3  1   
  3   2   4  ar  
  4   2   5  ar  
  5   3   6  1   
  6   3  24  1   
  7   3  25  1   
  8   4   7  ar  
  9   4   8  1   
 10   5   9  ar  
 11   5  26  1   
 12   6  27  1   
 13   6  28  1   
 14   6  29  1   
 15   7  10  ar  
 16   7  11  ar  
 17   8  12  2   
 18   8  30  1   
 19   9  10  ar  
 20   9  31  1   
 21  10  13  ar  
 22  11  14  ar  
 23  11  32  1   
 24  12  15  1   
 25  12  16  1   
 26  13  17  ar  
 27  13  33  1   
 28  14  17  ar  
 29  14  34  1   
 30  15  18  1   
 31  15  19  1   
 32  16  20  1   
 33  16  21  1   
 34  16  35  1   
 35  17  36  1   
 36  18  22  1   
 37  18  37  1   
 38  18  38  1   
 39  19  23  1   
 40  19  39  1   
 41  19  40  1   
 42  20  41  1   
 43  21  22  1   
 44  21  23  1   
 45  21  42  1   
 46  22  43  1   
 47  22  44  1   
 48  23  45  1   
 49  23  46  1   
@<TRIPOS>SUBSTRUCTURE
  1 ****   8 GROUP 4 **** **** 0

# MOE 2024.06 (io_trps.svl 2023.06)
