@<TRIPOS>MOLECULE
NONAME
34 34 1 0 0 
SMALL
USER_CHARGES


@<TRIPOS>ATOM
  1 CL      -2.3960     0.9570     2.0930 Cl    1 <1>  -0.1770 
  2 C       -1.2880     2.0330     1.2750 C.ar  1 <1>   0.1770 
  3 C       -1.6000     2.4910     0.0060 C.ar  1 <1>  -0.1440 
  4 C       -0.1250     2.4130     1.9210 C.ar  1 <1>  -0.1500 
  5 C       -0.7070     3.3570    -0.6030 C.ar  1 <1>   0.1770 
  6 C       -2.8700     2.0480    -0.6890 C.3   1 <1>   0.4870 
  7 C        0.7560     3.2770     1.2900 C.ar  1 <1>  -0.1500 
  8 CL      -1.0650     3.9830    -2.1930 Cl    1 <1>  -0.1770 
  9 C        0.4630     3.7520     0.0210 C.ar  1 <1>  -0.1500 
 10 N       -4.0420     2.7230    -0.0580 N.4   1 <1>  -0.9590 
 11 C       -5.3300     2.0520    -0.4380 C.3   1 <1>   0.3430 
 12 C       -4.0590     4.1760    -0.3950 C.3   1 <1>   0.3430 
 13 C       -5.5090     0.6840     0.2380 C.3   1 <1>   0.1200 
 14 C       -4.9320     4.9420     0.6010 C.3   1 <1>  -0.1600 
 15 O       -6.6950     0.1440    -0.2210 O.3   1 <1>  -0.6800 
 16 C       -4.8650     6.4500     0.3340 C.3   1 <1>  -0.2400 
 17 H        0.0920     2.0380     2.9070 H     1 <1>   0.1500 
 18 H       -2.9590     0.9790    -0.5870 H     1 <1>   0.0800 
 19 H       -2.8280     2.2800    -1.7410 H     1 <1>   0.0800 
 20 H        1.6670     3.5780     1.7830 H     1 <1>   0.1500 
 21 H        1.1390     4.4240    -0.4800 H     1 <1>   0.1500 
 22 H       -3.9210     2.6430     0.9610 H     1 <1>   0.4500 
 23 H       -5.3720     1.9230    -1.5080 H     1 <1>   0.0800 
 24 H       -6.1620     2.6710    -0.1450 H     1 <1>   0.0800 
 25 H       -4.4250     4.3250    -1.3990 H     1 <1>   0.0800 
 26 H       -3.0590     4.5760    -0.3430 H     1 <1>   0.0800 
 27 H       -5.5810     0.7890     1.3080 H     1 <1>   0.0800 
 28 H       -4.7170     0.0030    -0.0190 H     1 <1>   0.0800 
 29 H       -4.5870     4.7580     1.6040 H     1 <1>   0.0800 
 30 H       -5.9580     4.6310     0.5240 H     1 <1>   0.0800 
 31 H       -6.8900    -0.7200     0.2020 H     1 <1>   0.4000 
 32 H       -3.8560     6.8130     0.4310 H     1 <1>   0.0800 
 33 H       -5.4790     6.9770     1.0450 H     1 <1>   0.0800 
 34 H       -5.2230     6.6810    -0.6540 H     1 <1>   0.0800 
@<TRIPOS>BOND
  1   1   2  1   
  2   2   3  ar  
  3   2   4  ar  
  4   3   5  ar  
  5   3   6  1   
  6   4   7  ar  
  7   4  17  1   
  8   5   8  1   
  9   5   9  ar  
 10   6  10  1   
 11   6  18  1   
 12   6  19  1   
 13   7   9  ar  
 14   7  20  1   
 15   9  21  1   
 16  10  11  1   
 17  10  12  1   
 18  10  22  1   
 19  11  13  1   
 20  11  23  1   
 21  11  24  1   
 22  12  14  1   
 23  12  25  1   
 24  12  26  1   
 25  13  15  1   
 26  13  27  1   
 27  13  28  1   
 28  14  16  1   
 29  14  29  1   
 30  14  30  1   
 31  15  31  1   
 32  16  32  1   
 33  16  33  1   
 34  16  34  1   
@<TRIPOS>SUBSTRUCTURE
  1 ****   6 GROUP 4 **** **** 0

# MOE 2024.06 (io_trps.svl 2023.06)
