@<TRIPOS>MOLECULE
NONAME
46 48 1 0 0 
SMALL
USER_CHARGES


@<TRIPOS>ATOM
  1 F        0.5320    -0.5450    -0.5130 F     1 <1>  -0.1900 
  2 C        1.6660    -1.1190    -0.2040 C.ar  1 <1>   0.1900 
  3 C        1.7100    -1.9660     0.8860 C.ar  1 <1>  -0.1500 
  4 C        2.7790    -0.8570    -0.9800 C.ar  1 <1>  -0.1500 
  5 C        2.9150    -2.5690     1.2040 C.ar  1 <1>  -0.1500 
  6 C        3.9760    -1.4690    -0.6500 C.ar  1 <1>  -0.1500 
  7 C        4.0570    -2.3310     0.4440 C.ar  1 <1>   0.1000 
  8 N        5.2500    -2.9630     0.7870 N.pl3 1 <1>  -0.8380 
  9 C        5.3450    -4.4470     0.6430 C.3   1 <1>   0.2090 
 10 C        6.5300    -2.1970     0.8650 C.3   1 <1>   0.2090 
 11 C        6.3700    -4.8420    -0.4410 C.3   1 <1>   0.3430 
 12 C        7.5290    -2.6540    -0.2190 C.3   1 <1>   0.3430 
 13 N        7.7000    -4.1550    -0.2580 N.4   1 <1>  -0.9590 
 14 C        8.6910    -4.5750    -1.2860 C.3   1 <1>   0.4860 
 15 C       10.0360    -3.9680    -0.9310 C.ar  1 <1>  -0.1430 
 16 C       10.7850    -4.4750     0.1210 C.ar  1 <1>  -0.1500 
 17 C       10.5300    -2.8910    -1.6500 C.ar  1 <1>  -0.1500 
 18 C       11.9960    -3.8980     0.4560 C.ar  1 <1>  -0.1500 
 19 C       11.7410    -2.3200    -1.3060 C.ar  1 <1>  -0.1500 
 20 C       12.5060    -2.8010    -0.2420 C.ar  1 <1>   0.0860 
 21 C       13.7690    -2.1760     0.1110 C.2   1 <1>   0.6340 
 22 O       14.2050    -1.1990    -0.4610 O.2   1 <1>  -0.5700 
 23 O       14.4710    -2.7030     1.1190 O.3   1 <1>  -0.4300 
 24 C       15.7110    -2.1580     1.5280 C.3   1 <1>   0.0400 
 25 H        0.8240    -2.1430     1.4680 H     1 <1>   0.1500 
 26 H        2.7010    -0.1900    -1.8200 H     1 <1>   0.1500 
 27 H        2.9770    -3.2250     2.0540 H     1 <1>   0.1500 
 28 H        4.8450    -1.2760    -1.2480 H     1 <1>   0.1500 
 29 H        4.3800    -4.8470     0.3800 H     1 <1>   0.0800 
 30 H        5.6280    -4.8750     1.5890 H     1 <1>   0.0800 
 31 H        6.9650    -2.3410     1.8390 H     1 <1>   0.0800 
 32 H        6.3330    -1.1440     0.7550 H     1 <1>   0.0800 
 33 H        5.9570    -4.5760    -1.4000 H     1 <1>   0.0800 
 34 H        6.5000    -5.9110    -0.4230 H     1 <1>   0.0800 
 35 H        8.4780    -2.1780    -0.0350 H     1 <1>   0.0800 
 36 H        7.1680    -2.3080    -1.1740 H     1 <1>   0.0800 
 37 H        8.0790    -4.4280     0.6570 H     1 <1>   0.4500 
 38 H        8.3820    -4.2410    -2.2630 H     1 <1>   0.0800 
 39 H        8.7790    -5.6500    -1.3030 H     1 <1>   0.0800 
 40 H       10.4420    -5.3230     0.6890 H     1 <1>   0.1500 
 41 H        9.9850    -2.4820    -2.4850 H     1 <1>   0.1500 
 42 H       12.5630    -4.3070     1.2770 H     1 <1>   0.1500 
 43 H       12.1130    -1.4820    -1.8740 H     1 <1>   0.1500 
 44 H       16.0880    -2.7430     2.3470 H     1 <1>   0.0800 
 45 H       15.5570    -1.1390     1.8400 H     1 <1>   0.0800 
 46 H       16.3970    -2.1930     0.7000 H     1 <1>   0.0800 
@<TRIPOS>BOND
  1   1   2  1   
  2   2   3  ar  
  3   2   4  ar  
  4   3   5  ar  
  5   3  25  1   
  6   4   6  ar  
  7   4  26  1   
  8   5   7  ar  
  9   5  27  1   
 10   6   7  ar  
 11   6  28  1   
 12   7   8  1   
 13   8   9  1   
 14   8  10  1   
 15   9  11  1   
 16   9  29  1   
 17   9  30  1   
 18  10  12  1   
 19  10  31  1   
 20  10  32  1   
 21  11  13  1   
 22  11  33  1   
 23  11  34  1   
 24  12  13  1   
 25  12  35  1   
 26  12  36  1   
 27  13  14  1   
 28  13  37  1   
 29  14  15  1   
 30  14  38  1   
 31  14  39  1   
 32  15  16  ar  
 33  15  17  ar  
 34  16  18  ar  
 35  16  40  1   
 36  17  19  ar  
 37  17  41  1   
 38  18  20  ar  
 39  18  42  1   
 40  19  20  ar  
 41  19  43  1   
 42  20  21  1   
 43  21  22  2   
 44  21  23  1   
 45  23  24  1   
 46  24  44  1   
 47  24  45  1   
 48  24  46  1   
@<TRIPOS>SUBSTRUCTURE
  1 ****  12 GROUP 4 **** **** 0

# MOE 2024.06 (io_trps.svl 2023.06)
