@<TRIPOS>MOLECULE
NONAME
43 45 1 0 0 
SMALL
USER_CHARGES


@<TRIPOS>ATOM
  1 O       -7.7870    -0.2110    -0.7210 O.2   1 <1>  -0.5700 
  2 C       -7.1230     0.0350     0.2560 C.2   1 <1>   0.5690 
  3 N       -6.3680    -0.9140     0.8980 N.am  1 <1>  -0.5470 
  4 C       -7.1460     1.4880     0.7710 C.3   1 <1>   0.4040 
  5 C       -6.2090    -2.2560     0.5340 C.ar  1 <1>   0.1170 
  6 N       -8.2700     2.3170     0.1870 N.4   1 <1>  -0.9590 
  7 C       -7.2840    -3.1790     0.4560 C.ar  1 <1>   0.0000 
  8 C       -4.9560    -2.7280     0.2520 C.ar  1 <1>  -0.1500 
  9 C       -8.0530     3.7840     0.3430 C.3   1 <1>   0.3430 
 10 C       -9.6050     1.8740     0.6880 C.3   1 <1>   0.3430 
 11 C       -6.9790    -4.5030     0.0650 C.ar  1 <1>   0.3100 
 12 C       -8.6290    -2.8730     0.7630 C.ar  1 <1>  -0.1500 
 13 C       -4.7610    -4.0590    -0.1180 C.ar  1 <1>   0.1670 
 14 C       -9.1350     4.5480    -0.4220 C.3   1 <1>  -0.1600 
 15 C      -10.7090     2.6110    -0.0720 C.3   1 <1>  -0.1600 
 16 N       -5.7210    -4.9230    -0.2140 N.ar  1 <1>  -0.6200 
 17 C       -8.0190    -5.4410    -0.0290 C.ar  1 <1>  -0.1500 
 18 C       -9.6210    -3.8120     0.6670 C.ar  1 <1>  -0.1500 
 19 C       -3.3670    -4.5570    -0.4350 C.3   1 <1>  -0.0970 
 20 C      -10.5450     4.1340     0.0170 C.3   1 <1>  -0.1600 
 21 C       -9.3150    -5.1120     0.2620 C.ar  1 <1>  -0.1500 
 22 H       -5.7340    -0.6110     1.6390 H     1 <1>   0.3700 
 23 H       -6.2040     1.9370     0.5080 H     1 <1>   0.0800 
 24 H       -7.2250     1.4770     1.8440 H     1 <1>   0.0800 
 25 H       -8.2780     2.0930    -0.8230 H     1 <1>   0.4500 
 26 H       -4.1040    -2.0770     0.3020 H     1 <1>   0.1500 
 27 H       -7.0830     4.0600    -0.0400 H     1 <1>   0.0800 
 28 H       -8.0970     4.0520     1.3870 H     1 <1>   0.0800 
 29 H       -9.6920     2.0840     1.7420 H     1 <1>   0.0800 
 30 H       -9.7230     0.8120     0.5380 H     1 <1>   0.0800 
 31 H       -8.8810    -1.8810     1.0780 H     1 <1>   0.1500 
 32 H       -9.0150     4.3750    -1.4780 H     1 <1>   0.0800 
 33 H       -9.0060     5.6030    -0.2550 H     1 <1>   0.0800 
 34 H      -11.6650     2.3310     0.3370 H     1 <1>   0.0800 
 35 H      -10.6990     2.3000    -1.1020 H     1 <1>   0.0800 
 36 H       -7.7590    -6.4360    -0.3400 H     1 <1>   0.1500 
 37 H      -10.6440    -3.5660     0.8990 H     1 <1>   0.1500 
 38 H       -2.6350    -3.7790    -0.3230 H     1 <1>   0.0800 
 39 H       -3.3380    -4.9180    -1.4470 H     1 <1>   0.0800 
 40 H       -3.1170    -5.3670     0.2260 H     1 <1>   0.0800 
 41 H      -11.2790     4.6170    -0.6070 H     1 <1>   0.0800 
 42 H      -10.7160     4.4570     1.0310 H     1 <1>   0.0800 
 43 H      -10.1020    -5.8430     0.1860 H     1 <1>   0.1500 
@<TRIPOS>BOND
  1   1   2  2   
  2   2   3  am  
  3   2   4  1   
  4   3   5  1   
  5   3  22  1   
  6   4   6  1   
  7   4  23  1   
  8   4  24  1   
  9   5   7  ar  
 10   5   8  ar  
 11   6   9  1   
 12   6  10  1   
 13   6  25  1   
 14   7  11  ar  
 15   7  12  ar  
 16   8  13  ar  
 17   8  26  1   
 18   9  14  1   
 19   9  27  1   
 20   9  28  1   
 21  10  15  1   
 22  10  29  1   
 23  10  30  1   
 24  11  16  ar  
 25  11  17  ar  
 26  12  18  ar  
 27  12  31  1   
 28  13  16  ar  
 29  13  19  1   
 30  14  20  1   
 31  14  32  1   
 32  14  33  1   
 33  15  20  1   
 34  15  34  1   
 35  15  35  1   
 36  17  21  ar  
 37  17  36  1   
 38  18  21  ar  
 39  18  37  1   
 40  19  38  1   
 41  19  39  1   
 42  19  40  1   
 43  20  41  1   
 44  20  42  1   
 45  21  43  1   
@<TRIPOS>SUBSTRUCTURE
  1 ****   2 GROUP 4 **** **** 0

# MOE 2024.06 (io_trps.svl 2023.06)
