@<TRIPOS>MOLECULE
NONAME
44 46 1 0 0 
SMALL
USER_CHARGES


@<TRIPOS>ATOM
  1 CL       0.2270    -0.5970    -1.9260 Cl    1 <1>  -0.1770 
  2 C        0.5930    -2.1120    -1.1380 C.ar  1 <1>   0.1770 
  3 C        1.7950    -2.7380    -1.3980 C.ar  1 <1>  -0.1500 
  4 C       -0.3300    -2.6570    -0.2650 C.ar  1 <1>  -0.1500 
  5 C        2.1000    -3.9420    -0.7770 C.ar  1 <1>   0.1000 
  6 C       -0.0360    -3.8580     0.3590 C.ar  1 <1>  -0.1500 
  7 N        3.3210    -4.5570    -1.0460 N.pl3 1 <1>  -0.8380 
  8 C        1.1700    -4.4900     0.1030 C.ar  1 <1>  -0.1500 
  9 C        3.4250    -6.0390    -1.2100 C.3   1 <1>   0.2090 
 10 C        4.5720    -3.9090    -0.5540 C.3   1 <1>   0.2090 
 11 C        4.0680    -6.7140     0.0200 C.3   1 <1>   0.1100 
 12 C        5.1530    -4.6550     0.6620 C.3   1 <1>   0.1100 
 13 N        5.3640    -6.1020     0.3910 N.3   1 <1>  -0.8100 
 14 C        5.9480    -6.7840     1.5860 C.3   1 <1>   0.1710 
 15 C        7.4430    -6.5160     1.7630 C.2   1 <1>   0.5690 
 16 O        7.9400    -6.6360     2.8530 O.2   1 <1>  -0.5700 
 17 N        8.1200    -6.1490     0.6390 N.am  1 <1>  -0.4940 
 18 C        9.4480    -5.8490     0.4430 C.2   1 <1>   0.4420 
 19 S        9.9130    -5.3860    -1.1610 S.3   1 <1>  -0.0800 
 20 N       10.4410    -5.8480     1.2550 N.2   1 <1>  -0.3380 
 21 C       11.5300    -5.2160    -0.5670 C.2   1 <1>   0.1980 
 22 N       11.6250    -5.4850     0.6720 N.2   1 <1>  -0.3380 
 23 C       12.5960    -4.7820    -1.5610 C.3   1 <1>   0.0200 
 24 C       13.9870    -4.6460    -0.9270 C.3   1 <1>  -0.2400 
 25 H        2.4930    -2.3010    -2.0860 H     1 <1>   0.1500 
 26 H       -1.2590    -2.1490    -0.0810 H     1 <1>   0.1500 
 27 H       -0.7430    -4.2960     1.0410 H     1 <1>   0.1500 
 28 H        1.3930    -5.4160     0.5970 H     1 <1>   0.1500 
 29 H        4.0260    -6.2480    -2.0780 H     1 <1>   0.0800 
 30 H        2.4480    -6.4550    -1.3850 H     1 <1>   0.0800 
 31 H        4.3680    -2.8890    -0.2800 H     1 <1>   0.0800 
 32 H        5.2970    -3.9010    -1.3480 H     1 <1>   0.0800 
 33 H        4.2160    -7.7560    -0.2050 H     1 <1>   0.0800 
 34 H        3.3840    -6.6480     0.8480 H     1 <1>   0.0800 
 35 H        4.4750    -4.5330     1.4890 H     1 <1>   0.0800 
 36 H        6.0870    -4.1930     0.9320 H     1 <1>   0.0800 
 37 H        5.8330    -7.8480     1.4830 H     1 <1>   0.0800 
 38 H        5.4290    -6.4820     2.4790 H     1 <1>   0.0800 
 39 H        7.4980    -6.0560    -0.1670 H     1 <1>   0.3700 
 40 H       12.3070    -3.8370    -1.9850 H     1 <1>   0.0800 
 41 H       12.6400    -5.5060    -2.3550 H     1 <1>   0.0800 
 42 H       13.9640    -3.9140    -0.1370 H     1 <1>   0.0800 
 43 H       14.7060    -4.3370    -1.6650 H     1 <1>   0.0800 
 44 H       14.2990    -5.5880    -0.5110 H     1 <1>   0.0800 
@<TRIPOS>BOND
  1   1   2  1   
  2   2   3  ar  
  3   2   4  ar  
  4   3   5  ar  
  5   3  25  1   
  6   4   6  ar  
  7   4  26  1   
  8   5   7  1   
  9   5   8  ar  
 10   6   8  ar  
 11   6  27  1   
 12   7   9  1   
 13   7  10  1   
 14   8  28  1   
 15   9  11  1   
 16   9  29  1   
 17   9  30  1   
 18  10  12  1   
 19  10  31  1   
 20  10  32  1   
 21  11  13  1   
 22  11  33  1   
 23  11  34  1   
 24  12  13  1   
 25  12  35  1   
 26  12  36  1   
 27  13  14  1   
 28  14  15  1   
 29  14  37  1   
 30  14  38  1   
 31  15  16  2   
 32  15  17  am  
 33  17  18  1   
 34  17  39  1   
 35  18  19  1   
 36  18  20  2   
 37  19  21  1   
 38  20  22  1   
 39  21  22  2   
 40  21  23  1   
 41  23  24  1   
 42  23  40  1   
 43  23  41  1   
 44  24  42  1   
 45  24  43  1   
 46  24  44  1   
@<TRIPOS>SUBSTRUCTURE
  1 ****  12 GROUP 4 **** **** 0

# MOE 2024.06 (io_trps.svl 2023.06)
