@<TRIPOS>MOLECULE
NONAME
43 45 1 0 0 
SMALL
USER_CHARGES


@<TRIPOS>ATOM
  1 F       -1.7320     1.1070    -1.1840 F     1 <1>  -0.1900 
  2 C       -1.0330     2.0970    -0.6940 C.ar  1 <1>   0.1900 
  3 C       -1.4830     2.7190     0.4640 C.ar  1 <1>  -0.1440 
  4 C        0.1150     2.4850    -1.3650 C.ar  1 <1>  -0.1500 
  5 C       -0.7390     3.7790     0.9670 C.ar  1 <1>  -0.1500 
  6 C       -2.7460     2.2430     1.1550 C.3   1 <1>   0.4870 
  7 C        0.8510     3.5460    -0.8610 C.ar  1 <1>  -0.1500 
  8 C        0.4070     4.1690     0.2930 C.ar  1 <1>   0.1900 
  9 N       -3.9140     2.5000     0.2700 N.4   1 <1>  -0.9590 
 10 F        1.0940     5.1710     0.7680 F     1 <1>  -0.1900 
 11 C       -4.1190     3.9730     0.0000 C.3   1 <1>   0.3430 
 12 C       -5.1740     1.8680     0.8070 C.3   1 <1>   0.3430 
 13 C       -5.3180     4.2480    -0.9330 C.3   1 <1>   0.2090 
 14 C       -6.3900     2.0880    -0.1190 C.3   1 <1>   0.2090 
 15 N       -6.5450     3.5300    -0.4730 N.pl3 1 <1>  -0.8380 
 16 C       -7.6380     4.2320     0.0300 C.ar  1 <1>   0.1000 
 17 C       -8.9180     3.9000    -0.3930 C.ar  1 <1>  -0.1500 
 18 C       -7.4890     5.2590     0.9550 C.ar  1 <1>  -0.1500 
 19 C      -10.0420     4.5620     0.0880 C.ar  1 <1>  -0.1430 
 20 C       -8.5930     5.9320     1.4420 C.ar  1 <1>  -0.1500 
 21 C       -9.8630     5.5870     1.0120 C.ar  1 <1>  -0.1500 
 22 C      -11.4460     4.1740    -0.4040 C.3   1 <1>   1.1630 
 23 F      -11.7720     4.8020    -1.5250 F     1 <1>  -0.3400 
 24 F      -12.4000     4.4580     0.4750 F     1 <1>  -0.3400 
 25 F      -11.5550     2.8750    -0.6580 F     1 <1>  -0.3400 
 26 H        0.4260     1.9710    -2.2580 H     1 <1>   0.1500 
 27 H       -1.0190     4.3050     1.8630 H     1 <1>   0.1500 
 28 H       -2.8700     2.7560     2.0940 H     1 <1>   0.0800 
 29 H       -2.6610     1.1860     1.3530 H     1 <1>   0.0800 
 30 H        1.7500     3.8840    -1.3460 H     1 <1>   0.1500 
 31 H       -3.6990     2.0510    -0.6320 H     1 <1>   0.4500 
 32 H       -3.2310     4.3930    -0.4450 H     1 <1>   0.0800 
 33 H       -4.2950     4.4870     0.9290 H     1 <1>   0.0800 
 34 H       -5.4090     2.2930     1.7690 H     1 <1>   0.0800 
 35 H       -5.0270     0.8080     0.9400 H     1 <1>   0.0800 
 36 H       -5.0800     3.9260    -1.9320 H     1 <1>   0.0800 
 37 H       -5.5090     5.3070    -0.9750 H     1 <1>   0.0800 
 38 H       -7.2800     1.7390     0.3780 H     1 <1>   0.0800 
 39 H       -6.2730     1.5130    -1.0210 H     1 <1>   0.0800 
 40 H       -9.0230     3.1130    -1.1200 H     1 <1>   0.1500 
 41 H       -6.5130     5.5350     1.3010 H     1 <1>   0.1500 
 42 H       -8.4700     6.7280     2.1570 H     1 <1>   0.1500 
 43 H      -10.7100     6.1270     1.4030 H     1 <1>   0.1500 
@<TRIPOS>BOND
  1   1   2  1   
  2   2   3  ar  
  3   2   4  ar  
  4   3   5  ar  
  5   3   6  1   
  6   4   7  ar  
  7   4  26  1   
  8   5   8  ar  
  9   5  27  1   
 10   6   9  1   
 11   6  28  1   
 12   6  29  1   
 13   7   8  ar  
 14   7  30  1   
 15   8  10  1   
 16   9  11  1   
 17   9  12  1   
 18   9  31  1   
 19  11  13  1   
 20  11  32  1   
 21  11  33  1   
 22  12  14  1   
 23  12  34  1   
 24  12  35  1   
 25  13  15  1   
 26  13  36  1   
 27  13  37  1   
 28  14  15  1   
 29  14  38  1   
 30  14  39  1   
 31  15  16  1   
 32  16  17  ar  
 33  16  18  ar  
 34  17  19  ar  
 35  17  40  1   
 36  18  20  ar  
 37  18  41  1   
 38  19  21  ar  
 39  19  22  1   
 40  20  21  ar  
 41  20  42  1   
 42  21  43  1   
 43  22  23  1   
 44  22  24  1   
 45  22  25  1   
@<TRIPOS>SUBSTRUCTURE
  1 ****  13 GROUP 4 **** **** 0

# MOE 2024.06 (io_trps.svl 2023.06)
