@<TRIPOS>MOLECULE
NONAME
34 34 1 0 0 
SMALL
USER_CHARGES


@<TRIPOS>ATOM
  1 F       -2.2160    -1.3600     2.3550 F     1 <1>  -0.1900 
  2 C       -3.0260    -1.5330     1.3450 C.ar  1 <1>   0.1900 
  3 C       -3.7520    -2.7050     1.2660 C.ar  1 <1>  -0.1500 
  4 C       -3.1260    -0.5360     0.3940 C.ar  1 <1>  -0.1500 
  5 C       -4.6090    -2.8810     0.1920 C.ar  1 <1>  -0.1500 
  6 C       -3.9870    -0.7230    -0.6760 C.ar  1 <1>  -0.1500 
  7 C       -4.7290    -1.8940    -0.7800 C.ar  1 <1>  -0.1430 
  8 C       -5.6800    -2.1050    -1.9440 C.3   1 <1>   0.2840 
  9 N       -7.0500    -1.8850    -1.4520 N.am  1 <1>  -0.7300 
 10 C       -8.0640    -2.7740    -1.5720 C.2   1 <1>   0.5690 
 11 O       -7.9510    -3.7840    -2.2230 O.2   1 <1>  -0.5700 
 12 C       -9.3820    -2.4760    -0.8820 C.3   1 <1>  -0.0990 
 13 C       -9.4670    -2.9150     0.6000 C.3   1 <1>   0.0000 
 14 C      -10.8760    -2.5970     1.1240 C.3   1 <1>  -0.2400 
 15 C       -8.4470    -2.1640     1.4700 C.3   1 <1>  -0.2400 
 16 C       -9.2250    -4.4260     0.7360 C.3   1 <1>  -0.2400 
 17 H       -3.6470    -3.4580     2.0250 H     1 <1>   0.1500 
 18 H       -2.5440     0.3620     0.4920 H     1 <1>   0.1500 
 19 H       -5.1880    -3.7860     0.1120 H     1 <1>   0.1500 
 20 H       -4.0750     0.0460    -1.4240 H     1 <1>   0.1500 
 21 H       -5.5750    -3.1050    -2.3300 H     1 <1>   0.0800 
 22 H       -5.4700    -1.4110    -2.7390 H     1 <1>   0.0800 
 23 H       -7.1500    -1.0940    -0.8170 H     1 <1>   0.3700 
 24 H      -10.1540    -2.9750    -1.4390 H     1 <1>   0.0800 
 25 H       -9.5730    -1.4220    -0.9570 H     1 <1>   0.0800 
 26 H      -11.0770    -1.5430     1.0580 H     1 <1>   0.0800 
 27 H      -10.9740    -2.8950     2.1530 H     1 <1>   0.0800 
 28 H      -11.6200    -3.1220     0.5510 H     1 <1>   0.0800 
 29 H       -8.5690    -1.1010     1.3700 H     1 <1>   0.0800 
 30 H       -7.4400    -2.4240     1.1960 H     1 <1>   0.0800 
 31 H       -8.5780    -2.4210     2.5070 H     1 <1>   0.0800 
 32 H       -8.2290    -4.6850     0.4230 H     1 <1>   0.0800 
 33 H       -9.3470    -4.7400     1.7570 H     1 <1>   0.0800 
 34 H       -9.9200    -4.9750     0.1250 H     1 <1>   0.0800 
@<TRIPOS>BOND
  1   1   2  1   
  2   2   3  ar  
  3   2   4  ar  
  4   3   5  ar  
  5   3  17  1   
  6   4   6  ar  
  7   4  18  1   
  8   5   7  ar  
  9   5  19  1   
 10   6   7  ar  
 11   6  20  1   
 12   7   8  1   
 13   8   9  1   
 14   8  21  1   
 15   8  22  1   
 16   9  10  am  
 17   9  23  1   
 18  10  11  2   
 19  10  12  1   
 20  12  13  1   
 21  12  24  1   
 22  12  25  1   
 23  13  14  1   
 24  13  15  1   
 25  13  16  1   
 26  14  26  1   
 27  14  27  1   
 28  14  28  1   
 29  15  29  1   
 30  15  30  1   
 31  15  31  1   
 32  16  32  1   
 33  16  33  1   
 34  16  34  1   
@<TRIPOS>SUBSTRUCTURE
  1 ****   9 GROUP 4 **** **** 0

# MOE 2024.06 (io_trps.svl 2023.06)
