@<TRIPOS>MOLECULE
NONAME
47 49 1 0 0 
SMALL
USER_CHARGES


@<TRIPOS>ATOM
  1 O        2.2750    -7.0220     0.0730 O.3   1 <1>  -0.3630 
  2 C        3.5120    -7.5020    -0.2210 C.ar  1 <1>   0.0830 
  3 C        1.1070    -7.7720    -0.1440 C.3   1 <1>   0.1200 
  4 C        4.6130    -6.6520     0.0610 C.ar  1 <1>   0.0000 
  5 C        3.7140    -8.7510    -0.7670 C.ar  1 <1>  -0.1500 
  6 C       -0.0760    -6.9020     0.2970 C.3   1 <1>   0.3430 
  7 C        5.9170    -7.1140    -0.2280 C.ar  1 <1>   0.0000 
  8 C        4.4790    -5.3610     0.6200 C.ar  1 <1>  -0.1500 
  9 C        5.0070    -9.1980    -1.0500 C.ar  1 <1>  -0.1500 
 10 N       -1.4210    -7.5300     0.0220 N.4   1 <1>  -0.9590 
 11 C        6.0810    -8.3960    -0.7850 C.ar  1 <1>  -0.1500 
 12 C        7.0190    -6.2790     0.0480 C.ar  1 <1>  -0.1500 
 13 C        5.5650    -4.5710     0.8780 C.ar  1 <1>  -0.1500 
 14 C       -2.5540    -6.5680     0.2500 C.3   1 <1>   0.4230 
 15 C       -1.5730    -8.7890     0.8300 C.3   1 <1>   0.2630 
 16 C        6.8510    -5.0350     0.5890 C.ar  1 <1>  -0.1500 
 17 C       -3.9050    -7.2550    -0.0370 C.3   1 <1>  -0.1600 
 18 C       -2.3930    -5.3260    -0.6510 C.3   1 <1>  -0.1600 
 19 C       -5.0900    -6.2860     0.0750 C.3   1 <1>  -0.1600 
 20 C       -3.5840    -4.3630    -0.5380 C.3   1 <1>  -0.1600 
 21 C       -4.9050    -5.0730    -0.8400 C.3   1 <1>  -0.1600 
 22 H        1.1790    -8.6690     0.4440 H     1 <1>   0.0800 
 23 H        1.0470    -7.9970    -1.1940 H     1 <1>   0.0800 
 24 H        2.9080    -9.4210    -0.9960 H     1 <1>   0.1500 
 25 H        0.0070    -5.9720    -0.2380 H     1 <1>   0.0800 
 26 H        0.0180    -6.6930     1.3500 H     1 <1>   0.0800 
 27 H        3.4940    -4.9960     0.8450 H     1 <1>   0.1500 
 28 H        5.1460   -10.1770    -1.4770 H     1 <1>   0.1500 
 29 H       -1.4600    -7.7740    -0.9770 H     1 <1>   0.4500 
 30 H        7.0770    -8.7370    -1.0010 H     1 <1>   0.1500 
 31 H        8.0060    -6.6410    -0.1770 H     1 <1>   0.1500 
 32 H        5.4480    -3.5890     1.3040 H     1 <1>   0.1500 
 33 H       -2.5500    -6.2450     1.2790 H     1 <1>   0.0800 
 34 H       -1.6130    -8.5560     1.8820 H     1 <1>   0.0800 
 35 H       -0.7450    -9.4560     0.6560 H     1 <1>   0.0800 
 36 H       -2.4770    -9.3090     0.5570 H     1 <1>   0.0800 
 37 H        7.6970    -4.4020     0.7970 H     1 <1>   0.1500 
 38 H       -4.0870    -8.0480     0.6650 H     1 <1>   0.0800 
 39 H       -3.8980    -7.6680    -1.0310 H     1 <1>   0.0800 
 40 H       -2.3000    -5.6330    -1.6790 H     1 <1>   0.0800 
 41 H       -1.5190    -4.7650    -0.3790 H     1 <1>   0.0800 
 42 H       -5.1910    -5.9500     1.0940 H     1 <1>   0.0800 
 43 H       -6.0020    -6.7950    -0.1900 H     1 <1>   0.0800 
 44 H       -3.4550    -3.5450    -1.2280 H     1 <1>   0.0800 
 45 H       -3.6230    -3.9470     0.4550 H     1 <1>   0.0800 
 46 H       -5.7230    -4.3870    -0.6980 H     1 <1>   0.0800 
 47 H       -4.9220    -5.3890    -1.8700 H     1 <1>   0.0800 
@<TRIPOS>BOND
  1   1   2  1   
  2   1   3  1   
  3   2   4  ar  
  4   2   5  ar  
  5   3   6  1   
  6   3  22  1   
  7   3  23  1   
  8   4   7  ar  
  9   4   8  ar  
 10   5   9  ar  
 11   5  24  1   
 12   6  10  1   
 13   6  25  1   
 14   6  26  1   
 15   7  11  ar  
 16   7  12  ar  
 17   8  13  ar  
 18   8  27  1   
 19   9  11  ar  
 20   9  28  1   
 21  10  14  1   
 22  10  15  1   
 23  10  29  1   
 24  11  30  1   
 25  12  16  ar  
 26  12  31  1   
 27  13  16  ar  
 28  13  32  1   
 29  14  17  1   
 30  14  18  1   
 31  14  33  1   
 32  15  34  1   
 33  15  35  1   
 34  15  36  1   
 35  16  37  1   
 36  17  19  1   
 37  17  38  1   
 38  17  39  1   
 39  18  20  1   
 40  18  40  1   
 41  18  41  1   
 42  19  21  1   
 43  19  42  1   
 44  19  43  1   
 45  20  21  1   
 46  20  44  1   
 47  20  45  1   
 48  21  46  1   
 49  21  47  1   
@<TRIPOS>SUBSTRUCTURE
  1 ****   1 GROUP 4 **** **** 0

# MOE 2024.06 (io_trps.svl 2023.06)
