@<TRIPOS>MOLECULE
NONAME
49 49 1 0 0 
SMALL
USER_CHARGES


@<TRIPOS>ATOM
  1 O        0.5720    -1.4460     0.4640 O.3   1 <1>  -0.3630 
  2 C       -0.6730    -1.5360    -0.0800 C.ar  1 <1>   0.0830 
  3 C        1.6800    -0.9970    -0.2750 C.3   1 <1>   0.1200 
  4 C       -1.7000    -2.0440     0.7180 C.ar  1 <1>  -0.1440 
  5 C       -0.9390    -1.1470    -1.3900 C.ar  1 <1>  -0.1500 
  6 C        2.9020    -1.0660     0.6410 C.3   1 <1>  -0.1600 
  7 C       -2.9790    -2.1770     0.1830 C.ar  1 <1>  -0.1440 
  8 C       -1.4000    -2.4560     2.1600 C.3   1 <1>  -0.0960 
  9 C       -2.2130    -1.2670    -1.9140 C.ar  1 <1>  -0.1430 
 10 C        4.1770    -0.5930    -0.0710 C.3   1 <1>  -0.1600 
 11 C       -3.2230    -1.7840    -1.1240 C.ar  1 <1>  -0.1500 
 12 C       -4.1400    -2.7490     0.9870 C.3   1 <1>  -0.0970 
 13 C       -2.5040    -0.8430    -3.3420 C.3   1 <1>  -0.0970 
 14 C        5.3800    -0.6820     0.8710 C.3   1 <1>   0.3430 
 15 N        6.6440    -0.3290     0.1610 N.4   1 <1>  -0.9590 
 16 C        7.8160    -0.7730     0.9640 C.3   1 <1>   0.3430 
 17 C        6.7160     1.1220    -0.1690 C.3   1 <1>   0.3430 
 18 C        9.0620    -0.8090     0.0880 C.3   1 <1>  -0.2400 
 19 C        6.7340     1.2710    -1.6840 C.3   1 <1>  -0.2400 
 20 H        1.4870     0.0150    -0.5900 H     1 <1>   0.0800 
 21 H        1.7980    -1.6410    -1.1290 H     1 <1>   0.0800 
 22 H       -0.1680    -0.7500    -2.0190 H     1 <1>   0.1500 
 23 H        3.0240    -2.0850     0.9690 H     1 <1>   0.0800 
 24 H        2.7160    -0.4490     1.5040 H     1 <1>   0.0800 
 25 H       -0.6350    -1.8330     2.5850 H     1 <1>   0.0800 
 26 H       -1.0610    -3.4760     2.1780 H     1 <1>   0.0800 
 27 H       -2.2640    -2.3630     2.7890 H     1 <1>   0.0800 
 28 H        4.0320     0.4230    -0.3950 H     1 <1>   0.0800 
 29 H        4.3460    -1.2160    -0.9330 H     1 <1>   0.0800 
 30 H       -4.2110    -1.8830    -1.5360 H     1 <1>   0.1500 
 31 H       -3.8550    -3.6850     1.4330 H     1 <1>   0.0800 
 32 H       -4.9950    -2.9270     0.3600 H     1 <1>   0.0800 
 33 H       -4.4240    -2.0590     1.7610 H     1 <1>   0.0800 
 34 H       -1.8150    -0.0830    -3.6610 H     1 <1>   0.0800 
 35 H       -3.5010    -0.4480    -3.4180 H     1 <1>   0.0800 
 36 H       -2.4150    -1.6910    -3.9970 H     1 <1>   0.0800 
 37 H        5.4480    -1.6930     1.2420 H     1 <1>   0.0800 
 38 H        5.2340    -0.0270     1.7160 H     1 <1>   0.0800 
 39 H        6.6650    -0.8500    -0.7250 H     1 <1>   0.4500 
 40 H        7.6360    -1.7650     1.3490 H     1 <1>   0.0800 
 41 H        7.9680    -0.1110     1.8020 H     1 <1>   0.0800 
 42 H        7.6110     1.5580     0.2470 H     1 <1>   0.0800 
 43 H        5.8670     1.6450     0.2410 H     1 <1>   0.0800 
 44 H        9.8850    -1.1950     0.6640 H     1 <1>   0.0800 
 45 H        8.9180    -1.4580    -0.7570 H     1 <1>   0.0800 
 46 H        9.3360     0.1740    -0.2510 H     1 <1>   0.0800 
 47 H        6.7870     2.3160    -1.9350 H     1 <1>   0.0800 
 48 H        7.5950     0.7860    -2.1080 H     1 <1>   0.0800 
 49 H        5.8380     0.8710    -2.1240 H     1 <1>   0.0800 
@<TRIPOS>BOND
  1   1   2  1   
  2   1   3  1   
  3   2   4  ar  
  4   2   5  ar  
  5   3   6  1   
  6   3  20  1   
  7   3  21  1   
  8   4   7  ar  
  9   4   8  1   
 10   5   9  ar  
 11   5  22  1   
 12   6  10  1   
 13   6  23  1   
 14   6  24  1   
 15   7  11  ar  
 16   7  12  1   
 17   8  25  1   
 18   8  26  1   
 19   8  27  1   
 20   9  11  ar  
 21   9  13  1   
 22  10  14  1   
 23  10  28  1   
 24  10  29  1   
 25  11  30  1   
 26  12  31  1   
 27  12  32  1   
 28  12  33  1   
 29  13  34  1   
 30  13  35  1   
 31  13  36  1   
 32  14  15  1   
 33  14  37  1   
 34  14  38  1   
 35  15  16  1   
 36  15  17  1   
 37  15  39  1   
 38  16  18  1   
 39  16  40  1   
 40  16  41  1   
 41  17  19  1   
 42  17  42  1   
 43  17  43  1   
 44  18  44  1   
 45  18  45  1   
 46  18  46  1   
 47  19  47  1   
 48  19  48  1   
 49  19  49  1   
@<TRIPOS>SUBSTRUCTURE
  1 ****   3 GROUP 4 **** **** 0

# MOE 2024.06 (io_trps.svl 2023.06)
