@<TRIPOS>MOLECULE
Structure2282
34 35 1 0 0 
SMALL
USER_CHARGES


@<TRIPOS>ATOM
  1 N       -0.1340    -0.2400    -0.1820 N.4   1 <1>  -0.9060 
  2 C       -0.2680    -1.6950    -0.4650 C.3   1 <1>   0.3430 
  3 C       -1.3370     0.5370    -0.5860 C.3   1 <1>   0.3430 
  4 C       -1.4730    -2.2570     0.2930 C.3   1 <1>  -0.1600 
  5 C       -2.5590     0.0150     0.1690 C.3   1 <1>  -0.1600 
  6 C       -2.7660    -1.4960    -0.0480 C.3   1 <1>  -0.0800 
  7 C       -3.9540    -2.0380     0.7710 C.3   1 <1>  -0.0170 
  8 C       -5.2470    -1.3190     0.4190 C.ar  1 <1>  -0.1430 
  9 C       -5.8950    -1.5920    -0.7750 C.ar  1 <1>  -0.1500 
 10 C       -5.7880    -0.3790     1.2830 C.ar  1 <1>  -0.1500 
 11 C       -7.0630    -0.9280    -1.1050 C.ar  1 <1>  -0.1500 
 12 C       -6.9570     0.2850     0.9510 C.ar  1 <1>  -0.1500 
 13 C       -7.6000     0.0150    -0.2450 C.ar  1 <1>  -0.1430 
 14 C       -8.8800     0.7440    -0.6090 C.3   1 <1>  -0.0970 
 15 H        0.6960     0.1330    -0.6590 H     1 <1>   0.4500 
 16 H        0.0140    -0.1130     0.8270 H     1 <1>   0.4500 
 17 H        0.6260    -2.2170    -0.1620 H     1 <1>   0.0800 
 18 H       -0.4080    -1.8490    -1.5240 H     1 <1>   0.0800 
 19 H       -1.5010     0.4330    -1.6470 H     1 <1>   0.0800 
 20 H       -1.1960     1.5840    -0.3660 H     1 <1>   0.0800 
 21 H       -1.2810    -2.2110     1.3510 H     1 <1>   0.0800 
 22 H       -1.5910    -3.2950     0.0320 H     1 <1>   0.0800 
 23 H       -3.4230     0.5520    -0.1850 H     1 <1>   0.0800 
 24 H       -2.4560     0.2320     1.2180 H     1 <1>   0.0800 
 25 H       -2.9880    -1.6580    -1.0910 H     1 <1>   0.0800 
 26 H       -3.7570    -1.9330     1.8240 H     1 <1>   0.0800 
 27 H       -4.0820    -3.0890     0.5740 H     1 <1>   0.0800 
 28 H       -5.4990    -2.3250    -1.4550 H     1 <1>   0.1500 
 29 H       -5.3090    -0.1570     2.2190 H     1 <1>   0.1500 
 30 H       -7.5550    -1.1490    -2.0360 H     1 <1>   0.1500 
 31 H       -7.3650     1.0130     1.6300 H     1 <1>   0.1500 
 32 H       -9.5080     0.1200    -1.2180 H     1 <1>   0.0800 
 33 H       -8.6460     1.6400    -1.1550 H     1 <1>   0.0800 
 34 H       -9.4270     1.0100     0.2780 H     1 <1>   0.0800 
@<TRIPOS>BOND
  1   1   2  1   
  2   1   3  1   
  3   1  15  1   
  4   1  16  1   
  5   2   4  1   
  6   2  17  1   
  7   2  18  1   
  8   3   5  1   
  9   3  19  1   
 10   3  20  1   
 11   4   6  1   
 12   4  21  1   
 13   4  22  1   
 14   5   6  1   
 15   5  23  1   
 16   5  24  1   
 17   6   7  1   
 18   6  25  1   
 19   7   8  1   
 20   7  26  1   
 21   7  27  1   
 22   8   9  ar  
 23   8  10  ar  
 24   9  11  ar  
 25   9  28  1   
 26  10  12  ar  
 27  10  29  1   
 28  11  13  ar  
 29  11  30  1   
 30  12  13  ar  
 31  12  31  1   
 32  13  14  1   
 33  14  32  1   
 34  14  33  1   
 35  14  34  1   
@<TRIPOS>SUBSTRUCTURE
  1 ****   8 GROUP 4 **** **** 0

# MOE 2024.06 (io_trps.svl 2023.06)
