@<TRIPOS>MOLECULE
NONAME
46 48 1 0 0 
SMALL
USER_CHARGES


@<TRIPOS>ATOM
  1 O        0.4220     0.7790    -0.9360 O.2   1 <1>  -0.5700 
  2 C        0.0950     1.8160    -0.4090 C.2   1 <1>   0.5690 
  3 N       -1.1620     2.0960     0.0270 N.am  1 <1>  -0.4200 
  4 C        1.0210     3.0330    -0.2150 C.3   1 <1>   0.2510 
  5 C       -1.2590     3.3830     0.4440 C.2   1 <1>   0.5690 
  6 C       -2.2860     1.1370     0.0140 C.3   1 <1>   0.1400 
  7 N        2.1400     2.8880     0.7650 N.3   1 <1>  -0.8100 
  8 C        0.0480     4.1150     0.2890 C.3   1 <1>  -0.0990 
  9 O       -2.2540     3.9100     0.8690 O.2   1 <1>  -0.5700 
 10 C       -3.0400     1.2400    -1.3110 C.3   1 <1>  -0.2400 
 11 C        3.0750     4.0460     0.6810 C.3   1 <1>   0.1100 
 12 C        2.9040     1.6230     0.5610 C.3   1 <1>   0.1100 
 13 C        4.2520     3.9280     1.6650 C.3   1 <1>   0.2090 
 14 C        4.1070     1.4810     1.5130 C.3   1 <1>   0.2090 
 15 N        5.0040     2.6690     1.3990 N.pl3 1 <1>  -0.8380 
 16 C        6.1410     2.6440     0.6160 C.ar  1 <1>   0.7200 
 17 N        6.5880     3.8090     0.1460 N.ar  1 <1>  -0.6200 
 18 N        6.6920     1.4530     0.3870 N.ar  1 <1>  -0.6200 
 19 C        7.6660     3.7700    -0.5930 C.ar  1 <1>   0.1660 
 20 C        7.7680     1.4340    -0.3560 C.ar  1 <1>   0.1670 
 21 C        8.3040     2.5860    -0.8780 C.ar  1 <1>  -0.1500 
 22 C        8.1840     5.0890    -1.1240 C.3   1 <1>  -0.0970 
 23 C        8.3980     0.0830    -0.6150 C.3   1 <1>  -0.0970 
 24 H        1.4180     3.3010    -1.1780 H     1 <1>   0.0800 
 25 H       -2.9510     1.3570     0.8330 H     1 <1>   0.0800 
 26 H       -1.9050     0.1380     0.1440 H     1 <1>   0.0800 
 27 H       -0.0680     4.8990    -0.4340 H     1 <1>   0.0800 
 28 H        0.3330     4.5220     1.2420 H     1 <1>   0.0800 
 29 H       -3.4390     2.2310    -1.4380 H     1 <1>   0.0800 
 30 H       -3.8570     0.5420    -1.3170 H     1 <1>   0.0800 
 31 H       -2.3860     1.0050    -2.1320 H     1 <1>   0.0800 
 32 H        2.5500     4.9590     0.8970 H     1 <1>   0.0800 
 33 H        3.4780     4.1200    -0.3150 H     1 <1>   0.0800 
 34 H        3.2610     1.5700    -0.4540 H     1 <1>   0.0800 
 35 H        2.2600     0.7790     0.7310 H     1 <1>   0.0800 
 36 H        3.8720     3.9080     2.6710 H     1 <1>   0.0800 
 37 H        4.8900     4.7900     1.5790 H     1 <1>   0.0800 
 38 H        4.6300     0.5690     1.2900 H     1 <1>   0.0800 
 39 H        3.7500     1.4070     2.5240 H     1 <1>   0.0800 
 40 H        9.1880     2.5620    -1.4850 H     1 <1>   0.1500 
 41 H        7.4300     5.5500    -1.7350 H     1 <1>   0.0800 
 42 H        9.0720     4.9490    -1.7110 H     1 <1>   0.0800 
 43 H        8.4090     5.7420    -0.3000 H     1 <1>   0.0800 
 44 H        8.6760    -0.3670     0.3210 H     1 <1>   0.0800 
 45 H        9.2720     0.1750    -1.2320 H     1 <1>   0.0800 
 46 H        7.6870    -0.5550    -1.1080 H     1 <1>   0.0800 
@<TRIPOS>BOND
  1   1   2  2   
  2   2   3  am  
  3   2   4  1   
  4   3   5  am  
  5   3   6  1   
  6   4   7  1   
  7   4   8  1   
  8   4  24  1   
  9   5   8  1   
 10   5   9  2   
 11   6  10  1   
 12   6  25  1   
 13   6  26  1   
 14   7  11  1   
 15   7  12  1   
 16   8  27  1   
 17   8  28  1   
 18  10  29  1   
 19  10  30  1   
 20  10  31  1   
 21  11  13  1   
 22  11  32  1   
 23  11  33  1   
 24  12  14  1   
 25  12  34  1   
 26  12  35  1   
 27  13  15  1   
 28  13  36  1   
 29  13  37  1   
 30  14  15  1   
 31  14  38  1   
 32  14  39  1   
 33  15  16  1   
 34  16  17  ar  
 35  16  18  ar  
 36  17  19  ar  
 37  18  20  ar  
 38  19  21  ar  
 39  19  22  1   
 40  20  21  ar  
 41  20  23  1   
 42  21  40  1   
 43  22  41  1   
 44  22  42  1   
 45  22  43  1   
 46  23  44  1   
 47  23  45  1   
 48  23  46  1   
@<TRIPOS>SUBSTRUCTURE
  1 ****  12 GROUP 4 **** **** 0

# MOE 2024.06 (io_trps.svl 2023.06)
