@<TRIPOS>MOLECULE
NONAME
35 36 1 0 0 
SMALL
USER_CHARGES


@<TRIPOS>ATOM
  1 F       -0.4160     0.6200     1.3400 F     1 <1>  -0.1900 
  2 C       -0.9790     1.6110     0.6990 C.ar  1 <1>   0.1900 
  3 C       -0.1920     2.4640    -0.0600 C.ar  1 <1>  -0.1440 
  4 C       -2.3470     1.7590     0.8130 C.ar  1 <1>  -0.1500 
  5 C       -0.8270     3.5020    -0.7220 C.ar  1 <1>  -0.1500 
  6 C        1.3140     2.2730    -0.1670 C.3   1 <1>  -0.0960 
  7 C       -2.9810     2.7990     0.1460 C.ar  1 <1>   0.1170 
  8 C       -2.2000     3.6660    -0.6170 C.ar  1 <1>  -0.1500 
  9 N       -4.3710     2.9370     0.2860 N.am  1 <1>  -0.5470 
 10 C       -5.2960     3.5800    -0.4930 C.2   1 <1>   0.5690 
 11 O       -5.0200     4.1490    -1.5210 O.2   1 <1>  -0.5700 
 12 C       -6.7530     3.5530    -0.0260 C.3   1 <1>  -0.0190 
 13 C       -7.6420     2.7730    -1.0130 C.3   1 <1>  -0.1600 
 14 C       -7.3030     4.9770     0.1890 C.3   1 <1>  -0.1600 
 15 C       -9.1070     2.7470    -0.5540 C.3   1 <1>  -0.1600 
 16 C       -8.7680     4.9520     0.6490 C.3   1 <1>  -0.1600 
 17 C       -9.6440     4.1680    -0.3360 C.3   1 <1>  -0.1600 
 18 H       -2.9030     1.0660     1.4130 H     1 <1>   0.1500 
 19 H       -0.2600     4.1920    -1.3230 H     1 <1>   0.1500 
 20 H        1.5310     1.3060    -0.5840 H     1 <1>   0.0800 
 21 H        1.7610     2.3370     0.8090 H     1 <1>   0.0800 
 22 H        1.7540     3.0250    -0.7960 H     1 <1>   0.0800 
 23 H       -2.6620     4.4850    -1.1380 H     1 <1>   0.1500 
 24 H       -4.7630     2.4410     1.0830 H     1 <1>   0.3700 
 25 H       -6.7930     3.0450     0.9210 H     1 <1>   0.0800 
 26 H       -7.2780     1.7650    -1.1110 H     1 <1>   0.0800 
 27 H       -7.5840     3.2370    -1.9840 H     1 <1>   0.0800 
 28 H       -7.2330     5.5270    -0.7350 H     1 <1>   0.0800 
 29 H       -6.7040     5.4900     0.9210 H     1 <1>   0.0800 
 30 H       -9.1870     2.1910     0.3640 H     1 <1>   0.0800 
 31 H       -9.7070     2.2470    -1.2950 H     1 <1>   0.0800 
 32 H       -9.1350     5.9600     0.7320 H     1 <1>   0.0800 
 33 H       -8.8310     4.4970     1.6230 H     1 <1>   0.0800 
 34 H      -10.6530     4.1200     0.0360 H     1 <1>   0.0800 
 35 H       -9.6670     4.6870    -1.2800 H     1 <1>   0.0800 
@<TRIPOS>BOND
  1   1   2  1   
  2   2   3  ar  
  3   2   4  ar  
  4   3   5  ar  
  5   3   6  1   
  6   4   7  ar  
  7   4  18  1   
  8   5   8  ar  
  9   5  19  1   
 10   6  20  1   
 11   6  21  1   
 12   6  22  1   
 13   7   8  ar  
 14   7   9  1   
 15   8  23  1   
 16   9  10  am  
 17   9  24  1   
 18  10  11  2   
 19  10  12  1   
 20  12  13  1   
 21  12  14  1   
 22  12  25  1   
 23  13  15  1   
 24  13  26  1   
 25  13  27  1   
 26  14  16  1   
 27  14  28  1   
 28  14  29  1   
 29  15  17  1   
 30  15  30  1   
 31  15  31  1   
 32  16  17  1   
 33  16  32  1   
 34  16  33  1   
 35  17  34  1   
 36  17  35  1   
@<TRIPOS>SUBSTRUCTURE
  1 ****   9 GROUP 4 **** **** 0

# MOE 2024.06 (io_trps.svl 2023.06)
