@<TRIPOS>MOLECULE
NONAME
50 53 1 0 0 
SMALL
USER_CHARGES


@<TRIPOS>ATOM
  1 O       -3.9770    -2.0790    -3.5120 O.2   1 <1>  -0.5700 
  2 C       -4.0420    -2.0610    -2.2990 C.2   1 <1>   0.6340 
  3 O       -5.1020    -1.4770    -1.7520 O.3   1 <1>  -0.2320 
  4 C       -3.0310    -2.6090    -1.4320 C.ar  1 <1>   0.0860 
  5 C       -5.4450    -1.6530    -0.4600 C.ar  1 <1>   0.0830 
  6 C       -3.2710    -2.6770    -0.0490 C.ar  1 <1>   0.0000 
  7 C       -1.7970    -3.0160    -1.9460 C.ar  1 <1>  -0.1500 
  8 C       -4.6120    -2.3560     0.4260 C.ar  1 <1>   0.0000 
  9 C       -6.6770    -1.1550    -0.0820 C.ar  1 <1>  -0.1500 
 10 C       -2.1830    -3.0060     0.7680 C.ar  1 <1>  -0.1500 
 11 C       -0.7700    -3.4100    -1.1180 C.ar  1 <1>  -0.1500 
 12 C       -5.1750    -2.6850     1.6790 C.ar  1 <1>  -0.1430 
 13 C       -7.1670    -1.4080     1.1780 C.ar  1 <1>   0.0830 
 14 C       -0.9610    -3.3830     0.2500 C.ar  1 <1>  -0.1500 
 15 C       -6.4160    -2.1890     2.0470 C.ar  1 <1>  -0.1500 
 16 C       -4.5260    -3.6200     2.6940 C.3   1 <1>  -0.0970 
 17 O       -8.3820    -0.9000     1.4810 O.3   1 <1>  -0.3630 
 18 C       -9.1770    -1.4590     2.5180 C.3   1 <1>   0.1810 
 19 C      -10.6420    -1.0520     2.3710 C.2   1 <1>   0.5690 
 20 O      -11.1420    -0.4650     3.3050 O.2   1 <1>  -0.5700 
 21 N      -11.3650    -1.3610     1.2410 N.am  1 <1>  -0.6600 
 22 C      -10.8290    -2.0990     0.0610 C.3   1 <1>   0.1400 
 23 C      -12.7280    -0.8090     1.0180 C.3   1 <1>   0.1400 
 24 C      -10.7380    -1.1450    -1.1390 C.3   1 <1>  -0.0800 
 25 C      -12.6950     0.1480    -0.1800 C.3   1 <1>  -0.1600 
 26 C      -12.1130    -0.5210    -1.4360 C.3   1 <1>  -0.1600 
 27 C      -10.1950    -1.8730    -2.3740 C.3   1 <1>  -0.2400 
 28 H       -1.6430    -3.0050    -3.0120 H     1 <1>   0.1500 
 29 H       -7.2650    -0.5840    -0.7780 H     1 <1>   0.1500 
 30 H       -2.2630    -2.9590     1.8330 H     1 <1>   0.1500 
 31 H        0.1770    -3.7190    -1.5280 H     1 <1>   0.1500 
 32 H       -0.1520    -3.6530     0.9080 H     1 <1>   0.1500 
 33 H       -6.8030    -2.4150     3.0230 H     1 <1>   0.1500 
 34 H       -3.9880    -4.4080     2.1980 H     1 <1>   0.0800 
 35 H       -5.2720    -4.0910     3.3100 H     1 <1>   0.0800 
 36 H       -3.8650    -3.0700     3.3400 H     1 <1>   0.0800 
 37 H       -8.7940    -1.1070     3.4580 H     1 <1>   0.0800 
 38 H       -9.1060    -2.5290     2.4730 H     1 <1>   0.0800 
 39 H      -11.4950    -2.9120    -0.1720 H     1 <1>   0.0800 
 40 H       -9.8620    -2.5200     0.2670 H     1 <1>   0.0800 
 41 H      -13.0750    -0.2820     1.8920 H     1 <1>   0.0800 
 42 H      -13.4090    -1.6190     0.8260 H     1 <1>   0.0800 
 43 H      -10.0460    -0.3590    -0.8830 H     1 <1>   0.0800 
 44 H      -12.0990     1.0040     0.0830 H     1 <1>   0.0800 
 45 H      -13.6920     0.4950    -0.3840 H     1 <1>   0.0800 
 46 H      -12.7900    -1.2870    -1.7730 H     1 <1>   0.0800 
 47 H      -12.0200     0.2090    -2.2210 H     1 <1>   0.0800 
 48 H      -10.8490    -2.6780    -2.6620 H     1 <1>   0.0800 
 49 H       -9.2190    -2.2780    -2.1690 H     1 <1>   0.0800 
 50 H      -10.1070    -1.1890    -3.2000 H     1 <1>   0.0800 
@<TRIPOS>BOND
  1   1   2  2   
  2   2   3  1   
  3   2   4  1   
  4   3   5  1   
  5   4   6  ar  
  6   4   7  ar  
  7   5   8  ar  
  8   5   9  ar  
  9   6   8  1   
 10   6  10  ar  
 11   7  11  ar  
 12   7  28  1   
 13   8  12  ar  
 14   9  13  ar  
 15   9  29  1   
 16  10  14  ar  
 17  10  30  1   
 18  11  14  ar  
 19  11  31  1   
 20  12  15  ar  
 21  12  16  1   
 22  13  15  ar  
 23  13  17  1   
 24  14  32  1   
 25  15  33  1   
 26  16  34  1   
 27  16  35  1   
 28  16  36  1   
 29  17  18  1   
 30  18  19  1   
 31  18  37  1   
 32  18  38  1   
 33  19  20  2   
 34  19  21  am  
 35  21  22  1   
 36  21  23  1   
 37  22  24  1   
 38  22  39  1   
 39  22  40  1   
 40  23  25  1   
 41  23  41  1   
 42  23  42  1   
 43  24  26  1   
 44  24  27  1   
 45  24  43  1   
 46  25  26  1   
 47  25  44  1   
 48  25  45  1   
 49  26  46  1   
 50  26  47  1   
 51  27  48  1   
 52  27  49  1   
 53  27  50  1   
@<TRIPOS>SUBSTRUCTURE
  1 ****   9 GROUP 4 **** **** 0

# MOE 2024.06 (io_trps.svl 2023.06)
