@<TRIPOS>MOLECULE
NONAME
30 30 1 0 0 
SMALL
USER_CHARGES


@<TRIPOS>ATOM
  1 O       -0.6120     0.2770     0.4580 O.2   1 <1>  -0.5700 
  2 C       -1.5800     0.9810     0.3400 C.2   1 <1>   1.0110 
  3 N       -1.5860     2.0690    -0.5260 N.pl3 1 <1>  -0.7250 
  4 N       -2.6670     0.7300     1.0720 N.am  1 <1>  -0.4900 
  5 C       -2.6850     2.7980    -0.7520 C.cat 1 <1>   0.6040 
  6 C       -0.2450     2.3300    -1.1580 C.3   1 <1>   0.2500 
  7 C       -3.8210     1.4140     1.0160 C.2   1 <1>   0.5690 
  8 N       -2.6530     3.8330    -1.5610 N.pl3 1 <1>  -0.7540 
  9 C       -4.0500     2.4430    -0.1030 C.3   1 <1>   0.1660 
 10 O       -4.6580     1.1950     1.8490 O.2   1 <1>  -0.5700 
 11 C       -4.7360     3.7170     0.4810 C.3   1 <1>  -0.1600 
 12 C       -4.9390     1.8180    -1.2220 C.3   1 <1>  -0.1600 
 13 C       -3.8820     4.4900     1.5030 C.3   1 <1>  -0.2400 
 14 C       -6.3580     1.3830    -0.8120 C.3   1 <1>  -0.2400 
 15 H       -2.5830     0.0010     1.7760 H     1 <1>   0.3700 
 16 H        0.0490     1.4810    -1.7560 H     1 <1>   0.0800 
 17 H        0.5000     2.4760    -0.3920 H     1 <1>   0.0800 
 18 H       -0.2460     3.1990    -1.7900 H     1 <1>   0.0800 
 19 H       -3.4730     4.4160    -1.7580 H     1 <1>   0.4500 
 20 H       -1.8240     4.1640    -2.0560 H     1 <1>   0.4500 
 21 H       -5.6480     3.4310     0.9800 H     1 <1>   0.0800 
 22 H       -5.0230     4.3860    -0.3110 H     1 <1>   0.0800 
 23 H       -4.4370     0.9520    -1.6210 H     1 <1>   0.0800 
 24 H       -5.0420     2.5180    -2.0330 H     1 <1>   0.0800 
 25 H       -3.6380     3.8690     2.3480 H     1 <1>   0.0800 
 26 H       -4.4440     5.3310     1.8740 H     1 <1>   0.0800 
 27 H       -2.9730     4.8670     1.0720 H     1 <1>   0.0800 
 28 H       -6.3350     0.6380    -0.0360 H     1 <1>   0.0800 
 29 H       -6.8650     0.9540    -1.6600 H     1 <1>   0.0800 
 30 H       -6.9450     2.2170    -0.4700 H     1 <1>   0.0800 
@<TRIPOS>BOND
  1   1   2  2   
  2   2   3  1   
  3   2   4  am  
  4   3   5  ar  
  5   3   6  1   
  6   4   7  am  
  7   4  15  1   
  8   5   8  ar  
  9   5   9  1   
 10   6  16  1   
 11   6  17  1   
 12   6  18  1   
 13   7   9  1   
 14   7  10  2   
 15   8  19  1   
 16   8  20  1   
 17   9  11  1   
 18   9  12  1   
 19  11  13  1   
 20  11  21  1   
 21  11  22  1   
 22  12  14  1   
 23  12  23  1   
 24  12  24  1   
 25  13  25  1   
 26  13  26  1   
 27  13  27  1   
 28  14  28  1   
 29  14  29  1   
 30  14  30  1   
@<TRIPOS>SUBSTRUCTURE
  1 ****   9 GROUP 4 **** **** 0

# MOE 2024.06 (io_trps.svl 2023.06)
