@<TRIPOS>MOLECULE
NONAME
42 42 1 0 0 
SMALL
USER_CHARGES


@<TRIPOS>ATOM
  1 S        0.0190    -0.0050    -0.1910 S.o2  1 <1>   1.4470 
  2 O        0.0260    -0.9920    -1.2480 O.2   1 <1>  -0.6500 
  3 O       -0.3740    -0.4100     1.1390 O.2   1 <1>  -0.6500 
  4 N       -1.1070     1.0870    -0.8050 N.am  1 <1>  -0.9140 
  5 C        1.6040     0.9320    -0.1130 C.ar  1 <1>  -0.0090 
  6 C       -2.5370     0.8930    -0.5980 C.3   1 <1>   0.3560 
  7 C        2.8070     0.3690    -0.5790 C.ar  1 <1>  -0.1440 
  8 C        1.6520     2.2330     0.4190 C.ar  1 <1>  -0.1430 
  9 C       -3.2410     1.8300    -1.6190 C.3   1 <1>   0.1200 
 10 C       -2.9580    -0.5620    -0.8570 C.3   1 <1>  -0.2400 
 11 C       -2.9200     1.3290     0.8210 C.3   1 <1>  -0.2400 
 12 C        3.9720     1.1300    -0.6400 C.ar  1 <1>  -0.1430 
 13 C        2.8720    -1.0990    -1.0160 C.3   1 <1>  -0.0970 
 14 C        2.8200     2.9880     0.3540 C.ar  1 <1>  -0.1430 
 15 C        0.4290     2.8580     1.1000 C.3   1 <1>  -0.0970 
 16 O       -4.6340     1.7540    -1.5690 O.3   1 <1>  -0.6800 
 17 C        3.9610     2.4300    -0.1820 C.ar  1 <1>  -0.1500 
 18 C        5.2900     0.6010    -1.1990 C.3   1 <1>  -0.0970 
 19 C        2.9140     4.4270     0.8510 C.3   1 <1>  -0.0970 
 20 H       -0.9560     0.9770    -1.8030 H     1 <1>   0.4200 
 21 H       -2.9420     1.5820    -2.6220 H     1 <1>   0.0800 
 22 H       -2.9710     2.8520    -1.4190 H     1 <1>   0.0800 
 23 H       -2.6700    -0.8750    -1.8440 H     1 <1>   0.0800 
 24 H       -4.0230    -0.6660    -0.7640 H     1 <1>   0.0800 
 25 H       -2.5230    -1.2290    -0.1350 H     1 <1>   0.0800 
 26 H       -2.5960     2.3370     1.0040 H     1 <1>   0.0800 
 27 H       -2.5030     0.6820     1.5670 H     1 <1>   0.0800 
 28 H       -3.9880     1.3000     0.9400 H     1 <1>   0.0800 
 29 H        2.2780    -1.7170    -0.3670 H     1 <1>   0.0800 
 30 H        3.8640    -1.5010    -0.9670 H     1 <1>   0.0800 
 31 H        2.5160    -1.2000    -2.0260 H     1 <1>   0.0800 
 32 H       -0.1630     2.1170     1.6000 H     1 <1>   0.0800 
 33 H       -0.1790     3.3670     0.3740 H     1 <1>   0.0800 
 34 H        0.7100     3.5610     1.8610 H     1 <1>   0.0800 
 35 H       -4.9420     0.8530    -1.7890 H     1 <1>   0.4000 
 36 H        4.8610     3.0160    -0.2330 H     1 <1>   0.1500 
 37 H        5.1300     0.1340    -2.1540 H     1 <1>   0.0800 
 38 H        5.7160    -0.1150    -0.5190 H     1 <1>   0.0800 
 39 H        6.0010     1.3950    -1.3380 H     1 <1>   0.0800 
 40 H        2.0910     5.0070     0.4740 H     1 <1>   0.0800 
 41 H        3.8230     4.8940     0.5190 H     1 <1>   0.0800 
 42 H        2.8990     4.4460     1.9260 H     1 <1>   0.0800 
@<TRIPOS>BOND
  1   1   2  2   
  2   1   3  2   
  3   1   4  am  
  4   1   5  1   
  5   4   6  1   
  6   4  20  1   
  7   5   7  ar  
  8   5   8  ar  
  9   6   9  1   
 10   6  10  1   
 11   6  11  1   
 12   7  12  ar  
 13   7  13  1   
 14   8  14  ar  
 15   8  15  1   
 16   9  16  1   
 17   9  21  1   
 18   9  22  1   
 19  10  23  1   
 20  10  24  1   
 21  10  25  1   
 22  11  26  1   
 23  11  27  1   
 24  11  28  1   
 25  12  17  ar  
 26  12  18  1   
 27  13  29  1   
 28  13  30  1   
 29  13  31  1   
 30  14  17  ar  
 31  14  19  1   
 32  15  32  1   
 33  15  33  1   
 34  15  34  1   
 35  16  35  1   
 36  17  36  1   
 37  18  37  1   
 38  18  38  1   
 39  18  39  1   
 40  19  40  1   
 41  19  41  1   
 42  19  42  1   
@<TRIPOS>SUBSTRUCTURE
  1 ****   5 GROUP 4 **** **** 0

# MOE 2024.06 (io_trps.svl 2023.06)
