@<TRIPOS>MOLECULE
NONAME
51 53 1 0 0 
SMALL
USER_CHARGES


@<TRIPOS>ATOM
  1 S        0.4900    -0.2830     2.3950 S.3   1 <1>  -0.0800 
  2 C       -0.6260    -1.1740     1.3810 C.2   1 <1>   0.1040 
  3 C        1.6100    -0.0490     1.0680 C.2   1 <1>  -0.1400 
  4 N       -1.7980    -1.6720     1.9290 N.am  1 <1>  -0.4940 
  5 C       -0.1500    -1.2790     0.1010 C.2   1 <1>  -0.0860 
  6 C        1.1370    -0.6200    -0.0570 C.2   1 <1>  -0.1810 
  7 C        2.8620     0.7300     1.4260 C.3   1 <1>  -0.0600 
  8 C       -2.4600    -1.4830     3.1130 C.2   1 <1>   0.5690 
  9 C       -0.8930    -1.9660    -0.9290 C.2   1 <1>   0.8060 
 10 C        1.8700    -0.5750    -1.3920 C.3   1 <1>  -0.0590 
 11 O       -2.0910    -0.7540     4.0010 O.2   1 <1>  -0.5700 
 12 C       -3.7660    -2.2610     3.2890 C.3   1 <1>   0.1710 
 13 O       -2.0820    -2.2120    -0.8300 O.2   1 <1>  -0.5700 
 14 O       -0.2670    -2.3760    -2.0410 O.3   1 <1>  -0.4300 
 15 N       -4.2540    -2.9320     2.0460 N.3   1 <1>  -0.8100 
 16 C       -0.9460    -3.0780    -3.0660 C.3   1 <1>   0.0400 
 17 C       -5.2150    -4.0130     2.3620 C.3   1 <1>   0.1100 
 18 C       -4.8870    -1.9680     1.1050 C.3   1 <1>   0.1100 
 19 C       -5.7240    -4.7300     1.0950 C.3   1 <1>   0.2090 
 20 C       -5.3870    -2.6550    -0.1810 C.3   1 <1>   0.2090 
 21 N       -6.3360    -3.7630     0.1430 N.pl3 1 <1>  -0.8380 
 22 C       -7.0770    -4.3030    -0.8880 C.ar  1 <1>   0.4100 
 23 N       -6.5190    -4.3430    -2.0940 N.ar  1 <1>  -0.6200 
 24 C       -8.3560    -4.7880    -0.6240 C.ar  1 <1>  -0.1500 
 25 C       -7.2540    -4.8810    -3.0530 C.ar  1 <1>   0.1600 
 26 C       -9.1090    -5.3450    -1.6310 C.ar  1 <1>  -0.1500 
 27 C       -8.5300    -5.3890    -2.8820 C.ar  1 <1>  -0.1500 
 28 H       -2.3560    -2.2720     1.3030 H     1 <1>   0.3700 
 29 H        3.3840     0.2290     2.2210 H     1 <1>   0.0800 
 30 H        2.5900     1.7150     1.7610 H     1 <1>   0.0800 
 31 H        3.5240     0.8230     0.5870 H     1 <1>   0.0800 
 32 H        2.7450     0.0440    -1.3410 H     1 <1>   0.0800 
 33 H        1.2260    -0.1730    -2.1540 H     1 <1>   0.0800 
 34 H        2.1790    -1.5650    -1.6770 H     1 <1>   0.0800 
 35 H       -4.5200    -1.5940     3.6680 H     1 <1>   0.0800 
 36 H       -3.5790    -3.0060     4.0420 H     1 <1>   0.0800 
 37 H       -0.2430    -3.3050    -3.8470 H     1 <1>   0.0800 
 38 H       -1.7390    -2.4590    -3.4480 H     1 <1>   0.0800 
 39 H       -1.3510    -3.9880    -2.6560 H     1 <1>   0.0800 
 40 H       -6.0600    -3.6070     2.8910 H     1 <1>   0.0800 
 41 H       -4.7370    -4.7390     2.9960 H     1 <1>   0.0800 
 42 H       -4.1830    -1.2040     0.8270 H     1 <1>   0.0800 
 43 H       -5.7250    -1.4880     1.5810 H     1 <1>   0.0800 
 44 H       -6.4500    -5.4740     1.3720 H     1 <1>   0.0800 
 45 H       -4.9010    -5.2280     0.6130 H     1 <1>   0.0800 
 46 H       -4.5470    -3.0480    -0.7270 H     1 <1>   0.0800 
 47 H       -5.8820    -1.9330    -0.8070 H     1 <1>   0.0800 
 48 H       -8.7380    -4.7110     0.3750 H     1 <1>   0.1500 
 49 H       -6.8130    -4.9180    -4.0330 H     1 <1>   0.1500 
 50 H      -10.0990    -5.7260    -1.4530 H     1 <1>   0.1500 
 51 H       -9.0610    -5.8100    -3.7160 H     1 <1>   0.1500 
@<TRIPOS>BOND
  1   1   2  1   
  2   1   3  1   
  3   2   4  1   
  4   2   5  2   
  5   3   6  2   
  6   3   7  1   
  7   4   8  am  
  8   4  28  1   
  9   5   6  1   
 10   5   9  1   
 11   6  10  1   
 12   7  29  1   
 13   7  30  1   
 14   7  31  1   
 15   8  11  2   
 16   8  12  1   
 17   9  13  2   
 18   9  14  1   
 19  10  32  1   
 20  10  33  1   
 21  10  34  1   
 22  12  15  1   
 23  12  35  1   
 24  12  36  1   
 25  14  16  1   
 26  15  17  1   
 27  15  18  1   
 28  16  37  1   
 29  16  38  1   
 30  16  39  1   
 31  17  19  1   
 32  17  40  1   
 33  17  41  1   
 34  18  20  1   
 35  18  42  1   
 36  18  43  1   
 37  19  21  1   
 38  19  44  1   
 39  19  45  1   
 40  20  21  1   
 41  20  46  1   
 42  20  47  1   
 43  21  22  1   
 44  22  23  ar  
 45  22  24  ar  
 46  23  25  ar  
 47  24  26  ar  
 48  24  48  1   
 49  25  27  ar  
 50  25  49  1   
 51  26  27  ar  
 52  26  50  1   
 53  27  51  1   
@<TRIPOS>SUBSTRUCTURE
  1 ****  13 GROUP 4 **** **** 0

# MOE 2024.06 (io_trps.svl 2023.06)
