@<TRIPOS>MOLECULE
NONAME
41 43 1 0 0 
SMALL
USER_CHARGES


@<TRIPOS>ATOM
  1 CL       0.7310    -0.2810     1.4940 Cl    1 <1>  -0.1770 
  2 C        2.2080     0.5080     0.9930 C.ar  1 <1>   0.1770 
  3 C        3.2940     0.5620     1.8490 C.ar  1 <1>   0.1600 
  4 C        2.2870     1.0770    -0.2580 C.ar  1 <1>  -0.1500 
  5 N        4.4520     1.1390     1.5530 N.ar  1 <1>  -0.6200 
  6 C        3.4860     1.6790    -0.5760 C.ar  1 <1>  -0.1500 
  7 C        4.5350     1.6880     0.3480 C.ar  1 <1>   0.4270 
  8 N        5.7660     2.2600     0.1240 N.am  1 <1>  -0.5470 
  9 C        6.3520     2.8250    -0.9730 C.2   1 <1>   0.5690 
 10 O        5.7710     2.9910    -2.0170 O.2   1 <1>  -0.5700 
 11 C        7.8010     3.3130    -0.8430 C.3   1 <1>   0.1710 
 12 N        8.8610     2.2670    -0.9310 N.3   1 <1>  -0.8100 
 13 C       10.1940     2.9000    -1.0300 C.3   1 <1>   0.1100 
 14 C        8.8230     1.2890     0.1830 C.3   1 <1>   0.1100 
 15 C       11.3240     1.8640    -1.1720 C.3   1 <1>   0.1400 
 16 C        9.9280     0.2280     0.0520 C.3   1 <1>   0.1400 
 17 N       11.2650     0.8810    -0.0530 N.am  1 <1>  -0.6600 
 18 C       12.1410     0.9090     1.0140 C.2   1 <1>   0.7150 
 19 O       11.7250     0.5790     2.1120 O.2   1 <1>  -0.5700 
 20 C       13.5200     1.3180     0.8410 C.2   1 <1>   0.0550 
 21 O       14.1520     2.0220     1.7760 O.3   1 <1>  -0.2800 
 22 C       14.3870     1.1070    -0.1910 C.2   1 <1>  -0.1500 
 23 C       15.3790     2.2620     1.3750 C.2   1 <1>  -0.0100 
 24 C       15.5910     1.7210     0.1570 C.2   1 <1>  -0.1500 
 25 H        3.2000     0.1070     2.8200 H     1 <1>   0.1500 
 26 H        1.4570     1.0490    -0.9410 H     1 <1>   0.1500 
 27 H        3.6040     2.1400    -1.5380 H     1 <1>   0.1500 
 28 H        6.3550     2.1660     0.9460 H     1 <1>   0.3700 
 29 H        7.9030     3.8470     0.0850 H     1 <1>   0.0800 
 30 H        7.9570     4.0210    -1.6380 H     1 <1>   0.0800 
 31 H       10.3800     3.4990    -0.1540 H     1 <1>   0.0800 
 32 H       10.2160     3.5490    -1.8890 H     1 <1>   0.0800 
 33 H        7.8800     0.7730     0.1830 H     1 <1>   0.0800 
 34 H        8.9380     1.7950     1.1270 H     1 <1>   0.0800 
 35 H       12.2670     2.3800    -1.1830 H     1 <1>   0.0800 
 36 H       11.2130     1.3450    -2.1080 H     1 <1>   0.0800 
 37 H        9.7510    -0.3600    -0.8310 H     1 <1>   0.0800 
 38 H        9.8950    -0.4340     0.9000 H     1 <1>   0.0800 
 39 H       14.2010     0.5670    -1.1020 H     1 <1>   0.1500 
 40 H       16.0380     2.8230     2.0150 H     1 <1>   0.1500 
 41 H       16.4860     1.7400    -0.4400 H     1 <1>   0.1500 
@<TRIPOS>BOND
  1   1   2  1   
  2   2   3  ar  
  3   2   4  ar  
  4   3   5  ar  
  5   3  25  1   
  6   4   6  ar  
  7   4  26  1   
  8   5   7  ar  
  9   6   7  ar  
 10   6  27  1   
 11   7   8  1   
 12   8   9  am  
 13   8  28  1   
 14   9  10  2   
 15   9  11  1   
 16  11  12  1   
 17  11  29  1   
 18  11  30  1   
 19  12  13  1   
 20  12  14  1   
 21  13  15  1   
 22  13  31  1   
 23  13  32  1   
 24  14  16  1   
 25  14  33  1   
 26  14  34  1   
 27  15  17  1   
 28  15  35  1   
 29  15  36  1   
 30  16  17  1   
 31  16  37  1   
 32  16  38  1   
 33  17  18  am  
 34  18  19  2   
 35  18  20  1   
 36  20  21  1   
 37  20  22  2   
 38  21  23  1   
 39  22  24  1   
 40  22  39  1   
 41  23  24  2   
 42  23  40  1   
 43  24  41  1   
@<TRIPOS>SUBSTRUCTURE
  1 ****  14 GROUP 4 **** **** 0

# MOE 2024.06 (io_trps.svl 2023.06)
