@<TRIPOS>MOLECULE
NONAME
46 46 1 0 0 
SMALL
USER_CHARGES


@<TRIPOS>ATOM
  1 O        1.0980    -1.0670     0.0420 O.3   1 <1>  -0.3630 
  2 C       -0.2260    -1.2470     0.2890 C.ar  1 <1>   0.0830 
  3 C        1.9570    -0.4260     0.9480 C.3   1 <1>   0.1200 
  4 C       -1.0140    -1.8500    -0.6960 C.ar  1 <1>  -0.1440 
  5 C       -0.8080    -0.8470     1.4920 C.ar  1 <1>  -0.1500 
  6 C        3.3380    -0.3840     0.2950 C.3   1 <1>  -0.1600 
  7 C       -2.3680    -2.0340    -0.4470 C.ar  1 <1>  -0.1500 
  8 C       -0.4720    -2.3270    -2.0510 C.3   1 <1>   0.0640 
  9 C       -2.1570    -1.0390     1.7190 C.ar  1 <1>  -0.1500 
 10 C        4.3470     0.3140     1.2030 C.3   1 <1>   0.3430 
 11 C       -2.9390    -1.6340     0.7480 C.ar  1 <1>  -0.1500 
 12 C        0.5630    -3.4480    -1.8980 C.3   1 <1>  -0.2400 
 13 C        0.0740    -1.1700    -2.8970 C.3   1 <1>  -0.2400 
 14 N        5.7160     0.2560     0.6110 N.4   1 <1>  -0.9590 
 15 C        6.7330     0.6020     1.6410 C.3   1 <1>   0.3430 
 16 C        5.8410     1.1110    -0.6030 C.3   1 <1>   0.3430 
 17 C        8.1120     0.1400     1.1850 C.3   1 <1>  -0.2400 
 18 C        6.1250     0.2110    -1.7980 C.3   1 <1>  -0.2400 
 19 H        1.9700    -0.9980     1.8600 H     1 <1>   0.0800 
 20 H        1.5770     0.5650     1.1260 H     1 <1>   0.0800 
 21 H       -0.2340    -0.3840     2.2700 H     1 <1>   0.1500 
 22 H        3.2480     0.1420    -0.6380 H     1 <1>   0.0800 
 23 H        3.6540    -1.3960     0.1090 H     1 <1>   0.0800 
 24 H       -2.9990    -2.4950    -1.1870 H     1 <1>   0.1500 
 25 H       -1.2930    -2.7470    -2.6070 H     1 <1>   0.0800 
 26 H       -2.6000    -0.7280     2.6480 H     1 <1>   0.1500 
 27 H        4.3500    -0.1840     2.1600 H     1 <1>   0.0800 
 28 H        4.0550     1.3400     1.3590 H     1 <1>   0.0800 
 29 H       -3.9900    -1.7860     0.9200 H     1 <1>   0.1500 
 30 H        1.4580    -3.0870    -1.4280 H     1 <1>   0.0800 
 31 H        0.8200    -3.8490    -2.8620 H     1 <1>   0.0800 
 32 H        0.1550    -4.2390    -1.2950 H     1 <1>   0.0800 
 33 H        0.9580    -0.7510    -2.4560 H     1 <1>   0.0800 
 34 H       -0.6690    -0.3970    -2.9770 H     1 <1>   0.0800 
 35 H        0.3160    -1.5160    -3.8850 H     1 <1>   0.0800 
 36 H        5.8910    -0.7150     0.3200 H     1 <1>   0.4500 
 37 H        6.4930     0.1050     2.5690 H     1 <1>   0.0800 
 38 H        6.7370     1.6650     1.8210 H     1 <1>   0.0800 
 39 H        6.6470     1.8180    -0.4840 H     1 <1>   0.0800 
 40 H        4.9310     1.6640    -0.7720 H     1 <1>   0.0800 
 41 H        8.1170    -0.9180     0.9900 H     1 <1>   0.0800 
 42 H        8.8240     0.3350     1.9680 H     1 <1>   0.0800 
 43 H        8.4380     0.6730     0.3100 H     1 <1>   0.0800 
 44 H        7.0480    -0.3250    -1.6660 H     1 <1>   0.0800 
 45 H        6.2190     0.8170    -2.6820 H     1 <1>   0.0800 
 46 H        5.3210    -0.4850    -1.9600 H     1 <1>   0.0800 
@<TRIPOS>BOND
  1   1   2  1   
  2   1   3  1   
  3   2   4  ar  
  4   2   5  ar  
  5   3   6  1   
  6   3  19  1   
  7   3  20  1   
  8   4   7  ar  
  9   4   8  1   
 10   5   9  ar  
 11   5  21  1   
 12   6  10  1   
 13   6  22  1   
 14   6  23  1   
 15   7  11  ar  
 16   7  24  1   
 17   8  12  1   
 18   8  13  1   
 19   8  25  1   
 20   9  11  ar  
 21   9  26  1   
 22  10  14  1   
 23  10  27  1   
 24  10  28  1   
 25  11  29  1   
 26  12  30  1   
 27  12  31  1   
 28  12  32  1   
 29  13  33  1   
 30  13  34  1   
 31  13  35  1   
 32  14  15  1   
 33  14  16  1   
 34  14  36  1   
 35  15  17  1   
 36  15  37  1   
 37  15  38  1   
 38  16  18  1   
 39  16  39  1   
 40  16  40  1   
 41  17  41  1   
 42  17  42  1   
 43  17  43  1   
 44  18  44  1   
 45  18  45  1   
 46  18  46  1   
@<TRIPOS>SUBSTRUCTURE
  1 ****   1 GROUP 4 **** **** 0

# MOE 2024.06 (io_trps.svl 2023.06)
