@<TRIPOS>MOLECULE
NONAME
56 59 1 0 0 
SMALL
USER_CHARGES


@<TRIPOS>ATOM
  1 O        0.7800    -0.8580    -1.7640 O.2   1 <1>  -0.5700 
  2 C        1.4300    -0.8400    -0.7460 C.2   1 <1>   0.4950 
  3 C        2.4210     0.1340    -0.4320 C.2   1 <1>  -0.1240 
  4 C        1.1830    -1.9470     0.2650 C.3   1 <1>  -0.0990 
  5 C        3.2490     0.0440     0.6410 C.2   1 <1>  -0.0380 
  6 C        2.5070     1.3450    -1.3670 C.3   1 <1>   0.3400 
  7 C        2.4710    -2.3360     1.0080 C.3   1 <1>  -0.1600 
  8 N        4.2180     0.9880     0.8940 N.pl3 1 <1>  -0.6000 
  9 C        3.1610    -1.1110     1.6290 C.3   1 <1>  -0.0220 
 10 C        3.7540     2.1980    -1.1150 C.2   1 <1>  -0.1240 
 11 C        1.2670     2.2180    -1.1510 C.ar  1 <1>  -0.1430 
 12 C        4.5080     1.9890    -0.0040 C.2   1 <1>  -0.0380 
 13 C        4.0410     3.2030    -2.0830 C.2   1 <1>   0.4950 
 14 C        1.0160     2.7860     0.0910 C.ar  1 <1>  -0.1500 
 15 C        0.3820     2.4600    -2.1930 C.ar  1 <1>  -0.1500 
 16 C        5.7250     2.8460     0.3150 C.3   1 <1>  -0.0220 
 17 O        3.4680     3.3240    -3.1400 O.2   1 <1>  -0.5700 
 18 C        5.1550     4.1880    -1.7710 C.3   1 <1>  -0.0990 
 19 C       -0.0970     3.5830     0.2950 C.ar  1 <1>   0.0830 
 20 C       -0.7420     3.2440    -1.9950 C.ar  1 <1>  -0.1500 
 21 C        6.2760     3.5360    -0.9430 C.3   1 <1>  -0.1600 
 22 O       -0.2540     4.1360     1.5220 O.3   1 <1>  -0.3630 
 23 C       -1.0000     3.7960    -0.7520 C.ar  1 <1>   0.0830 
 24 C       -0.0910     5.5330     1.5940 C.3   1 <1>   0.1200 
 25 O       -2.1370     4.5230    -0.6150 O.3   1 <1>  -0.3630 
 26 C       -0.2850     5.9570     3.0460 C.3   1 <1>  -0.2400 
 27 C       -3.0840     4.0500     0.3190 C.3   1 <1>   0.1200 
 28 C       -4.3830     4.8290     0.1200 C.3   1 <1>   0.1200 
 29 O       -5.3480     4.3570     0.9990 O.3   1 <1>  -0.6800 
 30 H        0.7860    -2.8070    -0.2450 H     1 <1>   0.0800 
 31 H        0.4430    -1.6030     0.9650 H     1 <1>   0.0800 
 32 H        2.5390     0.9880    -2.3820 H     1 <1>   0.0800 
 33 H        3.1480    -2.7920     0.3050 H     1 <1>   0.0800 
 34 H        2.2520    -3.0600     1.7730 H     1 <1>   0.0800 
 35 H        4.7980     0.8910     1.7360 H     1 <1>   0.4000 
 36 H        2.6110    -0.7820     2.4940 H     1 <1>   0.0800 
 37 H        4.1480    -1.3950     1.9480 H     1 <1>   0.0800 
 38 H        1.6900     2.6170     0.9120 H     1 <1>   0.1500 
 39 H        0.5660     2.0350    -3.1650 H     1 <1>   0.1500 
 40 H        6.5010     2.2360     0.7410 H     1 <1>   0.0800 
 41 H        5.4430     3.5860     1.0430 H     1 <1>   0.0800 
 42 H        4.7310     5.0150    -1.2320 H     1 <1>   0.0800 
 43 H        5.5600     4.5640    -2.6940 H     1 <1>   0.0800 
 44 H       -1.4240     3.4230    -2.8050 H     1 <1>   0.1500 
 45 H        6.7670     2.7970    -1.5540 H     1 <1>   0.0800 
 46 H        7.0070     4.2750    -0.6660 H     1 <1>   0.0800 
 47 H       -0.8200     6.0040     0.9580 H     1 <1>   0.0800 
 48 H        0.9000     5.7750     1.2490 H     1 <1>   0.0800 
 49 H       -1.2750     5.6980     3.3760 H     1 <1>   0.0800 
 50 H       -0.1610     7.0210     3.1340 H     1 <1>   0.0800 
 51 H        0.4420     5.4730     3.6730 H     1 <1>   0.0800 
 52 H       -2.7040     4.2090     1.3110 H     1 <1>   0.0800 
 53 H       -3.2340     3.0000     0.1400 H     1 <1>   0.0800 
 54 H       -4.7520     4.7100    -0.8840 H     1 <1>   0.0800 
 55 H       -4.2260     5.8720     0.3320 H     1 <1>   0.0800 
 56 H       -5.6000     3.4390     0.7820 H     1 <1>   0.4000 
@<TRIPOS>BOND
  1   1   2  2   
  2   2   3  1   
  3   2   4  1   
  4   3   5  2   
  5   3   6  1   
  6   4   7  1   
  7   4  30  1   
  8   4  31  1   
  9   5   8  1   
 10   5   9  1   
 11   6  10  1   
 12   6  11  1   
 13   6  32  1   
 14   7   9  1   
 15   7  33  1   
 16   7  34  1   
 17   8  12  1   
 18   8  35  1   
 19   9  36  1   
 20   9  37  1   
 21  10  12  2   
 22  10  13  1   
 23  11  14  ar  
 24  11  15  ar  
 25  12  16  1   
 26  13  17  2   
 27  13  18  1   
 28  14  19  ar  
 29  14  38  1   
 30  15  20  ar  
 31  15  39  1   
 32  16  21  1   
 33  16  40  1   
 34  16  41  1   
 35  18  21  1   
 36  18  42  1   
 37  18  43  1   
 38  19  22  1   
 39  19  23  ar  
 40  20  23  ar  
 41  20  44  1   
 42  21  45  1   
 43  21  46  1   
 44  22  24  1   
 45  23  25  1   
 46  24  26  1   
 47  24  47  1   
 48  24  48  1   
 49  25  27  1   
 50  26  49  1   
 51  26  50  1   
 52  26  51  1   
 53  27  28  1   
 54  27  52  1   
 55  27  53  1   
 56  28  29  1   
 57  28  54  1   
 58  28  55  1   
 59  29  56  1   
@<TRIPOS>SUBSTRUCTURE
  1 ****  14 GROUP 4 **** **** 0

# MOE 2024.06 (io_trps.svl 2023.06)
