@<TRIPOS>MOLECULE
NONAME
44 46 1 0 0 
SMALL
USER_CHARGES


@<TRIPOS>ATOM
  1 S        0.2230     0.0180     2.5800 S.o2  1 <1>   1.4470 
  2 O        0.9510    -1.1600     2.9940 O.2   1 <1>  -0.6500 
  3 O       -0.2530     0.9620     3.5650 O.2   1 <1>  -0.6500 
  4 N       -1.1600    -0.6280     1.7500 N.am  1 <1>  -0.5780 
  5 C        1.1200     0.8620     1.2480 C.ar  1 <1>  -0.0090 
  6 N       -2.2070     0.0580     1.1470 N.2   1 <1>  -0.4300 
  7 C        0.5690     1.9660     0.6090 C.ar  1 <1>  -0.1500 
  8 C        2.3720     0.4290     0.8270 C.ar  1 <1>  -0.1500 
  9 C       -3.1780    -0.5500     0.5960 C.2   1 <1>   0.3280 
 10 C        1.2390     2.6150    -0.4140 C.ar  1 <1>  -0.1500 
 11 C        3.0490     1.0730    -0.1950 C.ar  1 <1>  -0.1500 
 12 C       -4.3570     0.1790    -0.0870 C.3   1 <1>   0.0610 
 13 C       -3.3110    -2.0730     0.5360 C.3   1 <1>  -0.0990 
 14 C        2.4840     2.1700    -0.8220 C.ar  1 <1>  -0.1430 
 15 C       -5.6550    -0.2800     0.6200 C.3   1 <1>  -0.1600 
 16 C       -4.4130    -0.3090    -1.5550 C.3   1 <1>  -0.1600 
 17 C       -4.2440     1.7140    -0.0440 C.3   1 <1>  -0.2400 
 18 C       -4.6080    -2.4270    -0.1970 C.3   1 <1>   0.2800 
 19 C        3.2240     2.8800    -1.9420 C.3   1 <1>  -0.0970 
 20 C       -5.8020    -1.8200     0.5570 C.3   1 <1>  -0.1600 
 21 C       -4.5640    -1.8480    -1.6200 C.3   1 <1>  -0.1600 
 22 O       -4.7390    -3.7910    -0.2540 O.3   1 <1>  -0.6800 
 23 H       -1.1110    -1.6450     1.7230 H     1 <1>   0.4200 
 24 H       -0.4020     2.3190     0.9170 H     1 <1>   0.1500 
 25 H        2.8260    -0.4230     1.3040 H     1 <1>   0.1500 
 26 H        0.7860     3.4680    -0.8870 H     1 <1>   0.1500 
 27 H        4.0180     0.7170    -0.4980 H     1 <1>   0.1500 
 28 H       -3.3370    -2.4680     1.5350 H     1 <1>   0.0800 
 29 H       -2.4710    -2.4850     0.0080 H     1 <1>   0.0800 
 30 H       -5.6310     0.0350     1.6500 H     1 <1>   0.0800 
 31 H       -6.5080     0.1830     0.1560 H     1 <1>   0.0800 
 32 H       -3.5090    -0.0160    -2.0640 H     1 <1>   0.0800 
 33 H       -5.2390     0.1560    -2.0640 H     1 <1>   0.0800 
 34 H       -5.0860     2.1730    -0.5290 H     1 <1>   0.0800 
 35 H       -3.3450     2.0360    -0.5390 H     1 <1>   0.0800 
 36 H       -4.2070     2.0560     0.9760 H     1 <1>   0.0800 
 37 H        2.5290     3.3260    -2.6290 H     1 <1>   0.0800 
 38 H        3.8390     2.1850    -2.4860 H     1 <1>   0.0800 
 39 H        3.8500     3.6510    -1.5310 H     1 <1>   0.0800 
 40 H       -6.7200    -2.0700     0.0560 H     1 <1>   0.0800 
 41 H       -5.8400    -2.2190     1.5570 H     1 <1>   0.0800 
 42 H       -3.7310    -2.2690    -2.1580 H     1 <1>   0.0800 
 43 H       -5.4690    -2.0950    -2.1460 H     1 <1>   0.0800 
 44 H       -5.5680    -4.0240    -0.7120 H     1 <1>   0.4000 
@<TRIPOS>BOND
  1   1   2  2   
  2   1   3  2   
  3   1   4  am  
  4   1   5  1   
  5   4   6  1   
  6   4  23  1   
  7   5   7  ar  
  8   5   8  ar  
  9   6   9  2   
 10   7  10  ar  
 11   7  24  1   
 12   8  11  ar  
 13   8  25  1   
 14   9  12  1   
 15   9  13  1   
 16  10  14  ar  
 17  10  26  1   
 18  11  14  ar  
 19  11  27  1   
 20  12  15  1   
 21  12  16  1   
 22  12  17  1   
 23  13  18  1   
 24  13  28  1   
 25  13  29  1   
 26  14  19  1   
 27  15  20  1   
 28  15  30  1   
 29  15  31  1   
 30  16  21  1   
 31  16  32  1   
 32  16  33  1   
 33  17  34  1   
 34  17  35  1   
 35  17  36  1   
 36  18  20  1   
 37  18  21  1   
 38  18  22  1   
 39  19  37  1   
 40  19  38  1   
 41  19  39  1   
 42  20  40  1   
 43  20  41  1   
 44  21  42  1   
 45  21  43  1   
 46  22  44  1   
@<TRIPOS>SUBSTRUCTURE
  1 ****   6 GROUP 4 **** **** 0

# MOE 2024.06 (io_trps.svl 2023.06)
