@<TRIPOS>MOLECULE
NONAME
53 54 1 0 0 
SMALL
USER_CHARGES


@<TRIPOS>ATOM
  1 O        0.5280    -0.4160     0.1970 O.2   1 <1>  -0.5700 
  2 C        1.6220    -0.8010     0.5210 C.2   1 <1>   0.5690 
  3 N        2.6200     0.1010     0.6670 N.am  1 <1>  -0.7300 
  4 C        1.8430    -2.3030     0.7160 C.3   1 <1>  -0.0190 
  5 C        4.0720    -0.0710     0.9150 C.3   1 <1>   0.1400 
  6 C        2.2100    -2.9630    -0.6250 C.3   1 <1>  -0.1600 
  7 C        0.6020    -2.9920     1.3220 C.3   1 <1>  -0.1600 
  8 C        4.8770     0.3320    -0.3310 C.3   1 <1>  -0.0800 
  9 C        2.3250    -4.4820    -0.5120 C.3   1 <1>   0.3430 
 10 C        0.7650    -4.5070     1.3990 C.3   1 <1>   0.3430 
 11 C        6.3700     0.0650    -0.0980 C.3   1 <1>  -0.2400 
 12 C        4.6730     1.8090    -0.7020 C.3   1 <1>  -0.2400 
 13 N        1.0590    -5.0400     0.0370 N.4   1 <1>  -0.9590 
 14 C        1.0780    -6.5320     0.0000 C.3   1 <1>   0.3430 
 15 C       -0.3160    -7.1410     0.2310 C.3   1 <1>  -0.0800 
 16 C       -0.2200    -8.6730     0.1160 C.3   1 <1>  -0.1600 
 17 C       -1.3720    -6.5960    -0.7560 C.3   1 <1>  -0.1600 
 18 C       -1.5840    -9.3420     0.3290 C.3   1 <1>  -0.1600 
 19 C       -2.7350    -7.2700    -0.5490 C.3   1 <1>  -0.1600 
 20 C       -2.6260    -8.7950    -0.6530 C.3   1 <1>  -0.1600 
 21 H        2.3380     1.0700     0.4910 H     1 <1>   0.3700 
 22 H        2.6530    -2.4440     1.4080 H     1 <1>   0.0800 
 23 H        4.2950    -1.0900     1.1690 H     1 <1>   0.0800 
 24 H        4.3590     0.5480     1.7480 H     1 <1>   0.0800 
 25 H        3.1480    -2.5650    -0.9730 H     1 <1>   0.0800 
 26 H        1.4670    -2.7170    -1.3650 H     1 <1>   0.0800 
 27 H       -0.2730    -2.7690     0.7360 H     1 <1>   0.0800 
 28 H        0.4280    -2.6040     2.3100 H     1 <1>   0.0800 
 29 H        4.5560    -0.2790    -1.1580 H     1 <1>   0.0800 
 30 H        3.1480    -4.7360     0.1370 H     1 <1>   0.0800 
 31 H        2.5210    -4.8980    -1.4870 H     1 <1>   0.0800 
 32 H       -0.1460    -4.9400     1.7810 H     1 <1>   0.0800 
 33 H        1.5690    -4.7550     2.0730 H     1 <1>   0.0800 
 34 H        6.7410     0.6610     0.7180 H     1 <1>   0.0800 
 35 H        6.9350     0.3100    -0.9810 H     1 <1>   0.0800 
 36 H        6.5390    -0.9730     0.1290 H     1 <1>   0.0800 
 37 H        4.9460     2.4500     0.1190 H     1 <1>   0.0800 
 38 H        3.6470     2.0010    -0.9620 H     1 <1>   0.0800 
 39 H        5.2800     2.0670    -1.5520 H     1 <1>   0.0800 
 40 H        0.2950    -4.7300    -0.5800 H     1 <1>   0.4500 
 41 H        1.7620    -6.9090     0.7430 H     1 <1>   0.0800 
 42 H        1.4290    -6.8580    -0.9670 H     1 <1>   0.0800 
 43 H       -0.6330    -6.9190     1.2350 H     1 <1>   0.0800 
 44 H        0.4700    -9.0570     0.8480 H     1 <1>   0.0800 
 45 H        0.1480    -8.9460    -0.8590 H     1 <1>   0.0800 
 46 H       -1.0500    -6.7730    -1.7680 H     1 <1>   0.0800 
 47 H       -1.5060    -5.5360    -0.6280 H     1 <1>   0.0800 
 48 H       -1.9200    -9.1700     1.3380 H     1 <1>   0.0800 
 49 H       -1.4900   -10.4070     0.1930 H     1 <1>   0.0800 
 50 H       -3.4330    -6.9120    -1.2870 H     1 <1>   0.0800 
 51 H       -3.1240    -7.0090     0.4210 H     1 <1>   0.0800 
 52 H       -3.5840    -9.2400    -0.4450 H     1 <1>   0.0800 
 53 H       -2.3500    -9.0680    -1.6580 H     1 <1>   0.0800 
@<TRIPOS>BOND
  1   1   2  2   
  2   2   3  am  
  3   2   4  1   
  4   3   5  1   
  5   3  21  1   
  6   4   6  1   
  7   4   7  1   
  8   4  22  1   
  9   5   8  1   
 10   5  23  1   
 11   5  24  1   
 12   6   9  1   
 13   6  25  1   
 14   6  26  1   
 15   7  10  1   
 16   7  27  1   
 17   7  28  1   
 18   8  11  1   
 19   8  12  1   
 20   8  29  1   
 21   9  13  1   
 22   9  30  1   
 23   9  31  1   
 24  10  13  1   
 25  10  32  1   
 26  10  33  1   
 27  11  34  1   
 28  11  35  1   
 29  11  36  1   
 30  12  37  1   
 31  12  38  1   
 32  12  39  1   
 33  13  14  1   
 34  13  40  1   
 35  14  15  1   
 36  14  41  1   
 37  14  42  1   
 38  15  16  1   
 39  15  17  1   
 40  15  43  1   
 41  16  18  1   
 42  16  44  1   
 43  16  45  1   
 44  17  19  1   
 45  17  46  1   
 46  17  47  1   
 47  18  20  1   
 48  18  48  1   
 49  18  49  1   
 50  19  20  1   
 51  19  50  1   
 52  19  51  1   
 53  20  52  1   
 54  20  53  1   
@<TRIPOS>SUBSTRUCTURE
  1 ****  13 GROUP 4 **** **** 0

# MOE 2024.06 (io_trps.svl 2023.06)
