@<TRIPOS>MOLECULE
NONAME
56 59 1 0 0 
SMALL
USER_CHARGES


@<TRIPOS>ATOM
  1 O       -8.0120     1.9750     0.0630 O.3   1 <1>  -0.5600 
  2 C       -7.3370     0.8150     0.4420 C.3   1 <1>   0.1200 
  3 C       -9.3970     1.8900     0.1630 C.3   1 <1>   0.1200 
  4 C       -5.8310     1.0590     0.2730 C.3   1 <1>   0.2000 
  5 C       -9.9780     3.2340    -0.2850 C.3   1 <1>  -0.1600 
  6 O       -5.6220     1.6520    -0.9720 O.3   1 <1>  -0.6800 
  7 C       -4.9920    -0.2320     0.3650 C.3   1 <1>   0.3430 
  8 C      -11.5210     3.3290    -0.2470 C.3   1 <1>   0.0000 
  9 N       -3.6830    -0.0450    -0.3300 N.4   1 <1>  -0.9590 
 10 C      -12.0720     3.1220     1.1850 C.3   1 <1>  -0.1600 
 11 C      -12.1810     2.2880    -1.1830 C.3   1 <1>  -0.1600 
 12 C      -11.9370     4.7400    -0.7250 C.3   1 <1>  -0.1600 
 13 C       -3.0290    -1.2840    -0.8020 C.3   1 <1>   0.3430 
 14 C       -2.6730     0.7190     0.4340 C.3   1 <1>   0.3430 
 15 C      -13.6050     3.2730     1.2080 C.3   1 <1>  -0.0800 
 16 C      -13.7150     2.4360    -1.1710 C.3   1 <1>  -0.0800 
 17 C      -13.4680     4.9020    -0.7110 C.3   1 <1>  -0.0800 
 18 C       -1.5880    -0.8710    -1.0690 C.3   1 <1>  -0.1600 
 19 C       -1.3650     0.4310    -0.2910 C.3   1 <1>  -0.1600 
 20 C      -14.2310     2.2280     0.2660 C.3   1 <1>  -0.1600 
 21 C      -13.9840     4.6840     0.7230 C.3   1 <1>  -0.1600 
 22 C      -14.0930     3.8510    -1.6450 C.3   1 <1>  -0.1600 
 23 H       -7.6650     0.0060    -0.1890 H     1 <1>   0.0800 
 24 H       -7.5750     0.5920     1.4690 H     1 <1>   0.0800 
 25 H       -9.6550     1.6830     1.1870 H     1 <1>   0.0800 
 26 H       -9.7380     1.0930    -0.4740 H     1 <1>   0.0800 
 27 H       -5.5070     1.7580     1.0240 H     1 <1>   0.0800 
 28 H       -9.6470     3.4240    -1.2910 H     1 <1>   0.0800 
 29 H       -9.5700     4.0030     0.3460 H     1 <1>   0.0800 
 30 H       -6.3820     2.2690    -1.1190 H     1 <1>   0.4000 
 31 H       -5.5410    -1.0210    -0.1230 H     1 <1>   0.0800 
 32 H       -4.8460    -0.5150     1.3940 H     1 <1>   0.0800 
 33 H       -3.9270     0.5410    -1.1530 H     1 <1>   0.4500 
 34 H      -11.6310     3.8410     1.8530 H     1 <1>   0.0800 
 35 H      -11.8200     2.1410     1.5470 H     1 <1>   0.0800 
 36 H      -11.9320     1.2900    -0.8720 H     1 <1>   0.0800 
 37 H      -11.8170     2.4180    -2.1880 H     1 <1>   0.0800 
 38 H      -11.5720     4.9120    -1.7220 H     1 <1>   0.0800 
 39 H      -11.4970     5.4870    -0.0870 H     1 <1>   0.0800 
 40 H       -3.5040    -1.6730    -1.6890 H     1 <1>   0.0800 
 41 H       -3.0520    -2.0300    -0.0240 H     1 <1>   0.0800 
 42 H       -2.6170     0.3460     1.4440 H     1 <1>   0.0800 
 43 H       -2.9000     1.7740     0.4470 H     1 <1>   0.0800 
 44 H      -13.9700     3.1240     2.2100 H     1 <1>   0.0800 
 45 H      -14.1560     1.7040    -1.8250 H     1 <1>   0.0800 
 46 H      -13.7330     5.8900    -1.0460 H     1 <1>   0.0800 
 47 H       -1.4460    -0.7060    -2.1230 H     1 <1>   0.0800 
 48 H       -0.9120    -1.6460    -0.7510 H     1 <1>   0.0800 
 49 H       -0.5550     0.3460     0.4130 H     1 <1>   0.0800 
 50 H       -1.1440     1.2380    -0.9680 H     1 <1>   0.0800 
 51 H      -15.3030     2.3190     0.2830 H     1 <1>   0.0800 
 52 H      -13.9830     1.2370     0.6030 H     1 <1>   0.0800 
 53 H      -13.5600     5.4220     1.3800 H     1 <1>   0.0800 
 54 H      -15.0540     4.8020     0.7460 H     1 <1>   0.0800 
 55 H      -15.1640     3.9590    -1.6500 H     1 <1>   0.0800 
 56 H      -13.7450     4.0030    -2.6510 H     1 <1>   0.0800 
@<TRIPOS>BOND
  1   1   2  1   
  2   1   3  1   
  3   2   4  1   
  4   2  23  1   
  5   2  24  1   
  6   3   5  1   
  7   3  25  1   
  8   3  26  1   
  9   4   6  1   
 10   4   7  1   
 11   4  27  1   
 12   5   8  1   
 13   5  28  1   
 14   5  29  1   
 15   6  30  1   
 16   7   9  1   
 17   7  31  1   
 18   7  32  1   
 19   8  10  1   
 20   8  11  1   
 21   8  12  1   
 22   9  13  1   
 23   9  14  1   
 24   9  33  1   
 25  10  15  1   
 26  10  34  1   
 27  10  35  1   
 28  11  16  1   
 29  11  36  1   
 30  11  37  1   
 31  12  17  1   
 32  12  38  1   
 33  12  39  1   
 34  13  18  1   
 35  13  40  1   
 36  13  41  1   
 37  14  19  1   
 38  14  42  1   
 39  14  43  1   
 40  15  20  1   
 41  15  21  1   
 42  15  44  1   
 43  16  20  1   
 44  16  22  1   
 45  16  45  1   
 46  17  21  1   
 47  17  22  1   
 48  17  46  1   
 49  18  19  1   
 50  18  47  1   
 51  18  48  1   
 52  19  49  1   
 53  19  50  1   
 54  20  51  1   
 55  20  52  1   
 56  21  53  1   
 57  21  54  1   
 58  22  55  1   
 59  22  56  1   
@<TRIPOS>SUBSTRUCTURE
  1 ****   3 GROUP 4 **** **** 0

# MOE 2024.06 (io_trps.svl 2023.06)
