@<TRIPOS>MOLECULE
NONAME
46 50 1 0 0 
SMALL
USER_CHARGES


@<TRIPOS>ATOM
  1 S       -0.5140     0.0020     1.8390 S.3   1 <1>  -0.0800 
  2 C       -1.7950     0.9670     1.0900 C.ar  1 <1>   0.2970 
  3 C        0.6820     1.2850     1.5760 C.2   1 <1>  -0.0450 
  4 N       -3.0140     0.4860     0.9750 N.ar  1 <1>  -0.5670 
  5 C       -1.3050     2.2080     0.6880 C.ar  1 <1>   0.0000 
  6 C        2.0540     1.2590     1.9210 C.2   1 <1>   0.8660 
  7 C        0.1030     2.3430     0.9640 C.2   1 <1>   0.0830 
  8 C       -3.8620     1.3200     0.3920 C.ar  1 <1>   0.4100 
  9 C       -2.2260     3.0770     0.1050 C.ar  1 <1>  -0.1430 
 10 O        2.5760     0.3060     2.4820 O.2   1 <1>  -0.5700 
 11 N        2.8330     2.3480     1.6130 N.2   1 <1>  -0.6610 
 12 N        0.9460     3.3920     0.6770 N.pl3 1 <1>  -0.5330 
 13 N       -5.1490     0.8600     0.2320 N.pl3 1 <1>  -0.8380 
 14 C       -3.5130     2.6050    -0.0530 C.ar  1 <1>  -0.1430 
 15 C       -1.8800     4.4850    -0.3590 C.3   1 <1>  -0.0170 
 16 C        2.2710     3.3400     1.0200 C.2   1 <1>   0.4400 
 17 C       -5.8650     0.4010     1.4580 C.3   1 <1>   0.2090 
 18 C       -5.3700    -0.0890    -0.8960 C.3   1 <1>   0.2090 
 19 C       -4.5930     3.4700    -0.6940 C.3   1 <1>   0.2630 
 20 C       -3.1320     5.3600    -0.5670 C.3   1 <1>   0.2800 
 21 C       -7.3470     0.1200     1.1500 C.3   1 <1>   0.1200 
 22 C       -6.8730    -0.3500    -1.1030 C.3   1 <1>   0.1200 
 23 O       -4.0720     4.6300    -1.2880 O.3   1 <1>  -0.5600 
 24 C       -3.7450     5.8430     0.7580 C.3   1 <1>  -0.2400 
 25 C       -2.7990     6.5740    -1.4350 C.3   1 <1>  -0.2400 
 26 O       -7.4800    -0.7830     0.0850 O.3   1 <1>  -0.5600 
 27 H        0.5900     4.2120     0.1820 H     1 <1>   0.4000 
 28 H       -1.3410     4.4130    -1.2870 H     1 <1>   0.0800 
 29 H       -1.2500     4.9680     0.3630 H     1 <1>   0.0800 
 30 H        2.8650     4.2010     0.7640 H     1 <1>   0.0600 
 31 H       -5.7890     1.1570     2.2200 H     1 <1>   0.0800 
 32 H       -5.4040    -0.4970     1.8310 H     1 <1>   0.0800 
 33 H       -4.8720    -1.0200    -0.6840 H     1 <1>   0.0800 
 34 H       -4.9460     0.3180    -1.7970 H     1 <1>   0.0800 
 35 H       -5.3250     3.7580     0.0390 H     1 <1>   0.0800 
 36 H       -5.0950     2.9190    -1.4700 H     1 <1>   0.0800 
 37 H       -7.8540     1.0330     0.8910 H     1 <1>   0.0800 
 38 H       -7.8280    -0.3120     2.0080 H     1 <1>   0.0800 
 39 H       -7.0170    -1.1160    -1.8430 H     1 <1>   0.0800 
 40 H       -7.3660     0.5480    -1.4320 H     1 <1>   0.0800 
 41 H       -3.9120     5.0260     1.4360 H     1 <1>   0.0800 
 42 H       -4.6750     6.3490     0.5730 H     1 <1>   0.0800 
 43 H       -3.0770     6.5320     1.2420 H     1 <1>   0.0800 
 44 H       -2.4240     6.2580    -2.3920 H     1 <1>   0.0800 
 45 H       -2.0550     7.1860    -0.9600 H     1 <1>   0.0800 
 46 H       -3.6810     7.1690    -1.5900 H     1 <1>   0.0800 
@<TRIPOS>BOND
  1   1   2  1   
  2   1   3  1   
  3   2   4  ar  
  4   2   5  ar  
  5   3   6  1   
  6   3   7  2   
  7   4   8  ar  
  8   5   7  1   
  9   5   9  ar  
 10   6  10  2   
 11   6  11  1   
 12   7  12  1   
 13   8  13  1   
 14   8  14  ar  
 15   9  14  ar  
 16   9  15  1   
 17  11  16  2   
 18  12  16  1   
 19  12  27  1   
 20  13  17  1   
 21  13  18  1   
 22  14  19  1   
 23  15  20  1   
 24  15  28  1   
 25  15  29  1   
 26  16  30  1   
 27  17  21  1   
 28  17  31  1   
 29  17  32  1   
 30  18  22  1   
 31  18  33  1   
 32  18  34  1   
 33  19  23  1   
 34  19  35  1   
 35  19  36  1   
 36  20  23  1   
 37  20  24  1   
 38  20  25  1   
 39  21  26  1   
 40  21  37  1   
 41  21  38  1   
 42  22  26  1   
 43  22  39  1   
 44  22  40  1   
 45  24  41  1   
 46  24  42  1   
 47  24  43  1   
 48  25  44  1   
 49  25  45  1   
 50  25  46  1   
@<TRIPOS>SUBSTRUCTURE
  1 ****   9 GROUP 4 **** **** 0

# MOE 2024.06 (io_trps.svl 2023.06)
