@<TRIPOS>MOLECULE
NONAME
44 45 1 0 0 
SMALL
USER_CHARGES


@<TRIPOS>ATOM
  1 O       -0.4960     1.8270    -1.4390 O.2   1 <1>  -0.5700 
  2 C       -0.2320     2.4460    -0.4320 C.2   1 <1>   0.4950 
  3 C        1.1080     2.6030     0.0470 C.2   1 <1>   0.0290 
  4 C       -1.4200     3.1000     0.2620 C.3   1 <1>   0.0420 
  5 C        1.3860     3.7130     0.9150 C.2   1 <1>   0.4950 
  6 C        2.0780     1.7100    -0.3580 C.2   1 <1>  -0.0500 
  7 C       -2.4230     2.0070     0.6100 C.2   1 <1>   0.4230 
  8 C       -1.0400     3.9220     1.5090 C.3   1 <1>  -0.1600 
  9 O        2.4670     3.9750     1.3930 O.2   1 <1>  -0.5700 
 10 C        0.2680     4.6770     1.2760 C.3   1 <1>  -0.0990 
 11 N        3.3830     1.7320     0.0020 N.pl3 1 <1>  -0.8690 
 12 O       -2.0790     1.1850     1.4220 O.2   1 <1>  -0.5700 
 13 C       -3.7200     1.9720    -0.0300 C.ar  1 <1>   0.0860 
 14 C        4.4270     0.7600    -0.3900 C.3   1 <1>   0.2890 
 15 C       -4.4450     3.1240    -0.3520 C.ar  1 <1>  -0.1500 
 16 C       -4.3080     0.7450    -0.3410 C.ar  1 <1>  -0.1500 
 17 C        5.4000     1.4520    -1.3640 C.3   1 <1>   0.1200 
 18 C        5.1180     0.2400     0.8840 C.3   1 <1>  -0.1600 
 19 C       -5.6800     3.0510    -0.9690 C.ar  1 <1>  -0.1500 
 20 C       -5.5430     0.6650    -0.9570 C.ar  1 <1>  -0.1500 
 21 O        6.4460     0.6090    -1.7350 O.3   1 <1>  -0.6800 
 22 C        4.1550    -0.4420     1.8690 C.3   1 <1>  -0.2400 
 23 C       -6.2310     1.8210    -1.2750 C.ar  1 <1>  -0.1500 
 24 H       -1.8470     3.7660    -0.4630 H     1 <1>   0.0800 
 25 H        1.7850     0.9090    -1.0210 H     1 <1>   0.1500 
 26 H       -1.8310     4.6080     1.7570 H     1 <1>   0.0800 
 27 H       -0.9010     3.2650     2.3530 H     1 <1>   0.0800 
 28 H        0.5370     5.2090     2.1720 H     1 <1>   0.0800 
 29 H        0.1580     5.3970     0.4840 H     1 <1>   0.0800 
 30 H        3.7030     2.4730     0.6530 H     1 <1>   0.4000 
 31 H        3.9580    -0.0620    -0.9050 H     1 <1>   0.0800 
 32 H       -4.0520     4.0950    -0.1120 H     1 <1>   0.1500 
 33 H       -3.7780    -0.1610    -0.0940 H     1 <1>   0.1500 
 34 H        5.8240     2.3320    -0.9130 H     1 <1>   0.0800 
 35 H        4.8730     1.7310    -2.2600 H     1 <1>   0.0800 
 36 H        5.8650    -0.4810     0.6030 H     1 <1>   0.0800 
 37 H        5.6180     1.0550     1.3780 H     1 <1>   0.0800 
 38 H       -6.2200     3.9510    -1.2120 H     1 <1>   0.1500 
 39 H       -5.9690    -0.2970    -1.1880 H     1 <1>   0.1500 
 40 H        7.0310     0.4310    -0.9740 H     1 <1>   0.4000 
 41 H        3.6340    -1.2500     1.3850 H     1 <1>   0.0800 
 42 H        3.4280     0.2600     2.2380 H     1 <1>   0.0800 
 43 H        4.7000    -0.8370     2.7080 H     1 <1>   0.0800 
 44 H       -7.1930     1.7610    -1.7560 H     1 <1>   0.1500 
@<TRIPOS>BOND
  1   1   2  2   
  2   2   3  1   
  3   2   4  1   
  4   3   5  1   
  5   3   6  2   
  6   4   7  1   
  7   4   8  1   
  8   4  24  1   
  9   5   9  2   
 10   5  10  1   
 11   6  11  1   
 12   6  25  1   
 13   7  12  2   
 14   7  13  1   
 15   8  10  1   
 16   8  26  1   
 17   8  27  1   
 18  10  28  1   
 19  10  29  1   
 20  11  14  1   
 21  11  30  1   
 22  13  15  ar  
 23  13  16  ar  
 24  14  17  1   
 25  14  18  1   
 26  14  31  1   
 27  15  19  ar  
 28  15  32  1   
 29  16  20  ar  
 30  16  33  1   
 31  17  21  1   
 32  17  34  1   
 33  17  35  1   
 34  18  22  1   
 35  18  36  1   
 36  18  37  1   
 37  19  23  ar  
 38  19  38  1   
 39  20  23  ar  
 40  20  39  1   
 41  21  40  1   
 42  22  41  1   
 43  22  42  1   
 44  22  43  1   
 45  23  44  1   
@<TRIPOS>SUBSTRUCTURE
  1 ****   2 GROUP 4 **** **** 0

# MOE 2024.06 (io_trps.svl 2023.06)
