@<TRIPOS>MOLECULE
NONAME
41 44 1 0 0 
SMALL
USER_CHARGES


@<TRIPOS>ATOM
  1 S        0.0070    -0.2590     1.0830 S.3   1 <1>  -0.2860 
  2 C       -1.4770     0.7100     1.2840 C.2   1 <1>   0.5340 
  3 C        1.2350     0.6490     2.1390 C.3   1 <1>   0.1310 
  4 O       -2.5580     0.3220     0.7090 O.3   1 <1>  -0.2800 
  5 N       -1.5900     1.7900     1.9500 N.2   1 <1>  -0.3380 
  6 C        2.6500     0.1680     1.8490 C.2   1 <1>   0.5690 
  7 C       -3.4230     1.2400     1.0490 C.2   1 <1>   0.4790 
  8 N       -2.8660     2.1430     1.7980 N.2   1 <1>  -0.3380 
  9 O        3.2080    -0.3770     2.7730 O.2   1 <1>  -0.5700 
 10 N        3.2550     0.3730     0.6140 N.am  1 <1>  -0.4770 
 11 C       -4.7900     1.1530     0.5860 C.2   1 <1>   0.2880 
 12 C        4.5250    -0.1460     0.2520 C.ar  1 <1>   0.1170 
 13 C        2.6760     1.3010    -0.3970 C.3   1 <1>   0.1400 
 14 N       -5.7410     2.0070     0.8300 N.2   1 <1>  -0.4100 
 15 C       -5.3010     0.1160    -0.2090 C.2   1 <1>  -0.1500 
 16 C        5.3850     0.5880    -0.5750 C.ar  1 <1>  -0.1430 
 17 C        4.9490    -1.4020     0.6830 C.ar  1 <1>  -0.1500 
 18 C        3.6530     2.4580    -0.5960 C.3   1 <1>  -0.1600 
 19 O       -6.8060     1.5610     0.2350 O.3   1 <1>  -0.0190 
 20 C       -6.5860     0.4400    -0.3930 C.2   1 <1>  -0.0400 
 21 C        6.6280     0.0820    -0.9170 C.ar  1 <1>  -0.1500 
 22 C        4.9850     1.9430    -1.1520 C.3   1 <1>  -0.0170 
 23 C        6.1900    -1.9040     0.3380 C.ar  1 <1>  -0.1500 
 24 C       -7.7100    -0.2360    -1.1490 C.3   1 <1>  -0.0600 
 25 C        7.0350    -1.1580    -0.4610 C.ar  1 <1>  -0.1500 
 26 H        0.9750     0.4440     3.1610 H     1 <1>   0.0800 
 27 H        1.1350     1.7000     1.9520 H     1 <1>   0.0800 
 28 H        1.7220     1.6900    -0.0980 H     1 <1>   0.0800 
 29 H        2.5410     0.7670    -1.3220 H     1 <1>   0.0800 
 30 H       -4.7500    -0.7330    -0.5690 H     1 <1>   0.1500 
 31 H        4.3030    -2.0000     1.2990 H     1 <1>   0.1500 
 32 H        3.8190     2.9410     0.3510 H     1 <1>   0.0800 
 33 H        3.2360     3.1820    -1.2720 H     1 <1>   0.0800 
 34 H        7.2890     0.6510    -1.5470 H     1 <1>   0.1500 
 35 H        4.8960     1.8320    -2.2190 H     1 <1>   0.0800 
 36 H        5.7580     2.6650    -0.9580 H     1 <1>   0.0800 
 37 H        6.4960    -2.8720     0.6920 H     1 <1>   0.1500 
 38 H       -7.3600    -1.1430    -1.6060 H     1 <1>   0.0800 
 39 H       -8.0810     0.4210    -1.9150 H     1 <1>   0.0800 
 40 H       -8.5130    -0.4710    -0.4730 H     1 <1>   0.0800 
 41 H        8.0030    -1.5430    -0.7290 H     1 <1>   0.1500 
@<TRIPOS>BOND
  1   1   2  1   
  2   1   3  1   
  3   2   4  1   
  4   2   5  2   
  5   3   6  1   
  6   3  26  1   
  7   3  27  1   
  8   4   7  1   
  9   5   8  1   
 10   6   9  2   
 11   6  10  am  
 12   7   8  2   
 13   7  11  1   
 14  10  12  1   
 15  10  13  1   
 16  11  14  2   
 17  11  15  1   
 18  12  16  ar  
 19  12  17  ar  
 20  13  18  1   
 21  13  28  1   
 22  13  29  1   
 23  14  19  1   
 24  15  20  2   
 25  15  30  1   
 26  16  21  ar  
 27  16  22  1   
 28  17  23  ar  
 29  17  31  1   
 30  18  22  1   
 31  18  32  1   
 32  18  33  1   
 33  19  20  1   
 34  20  24  1   
 35  21  25  ar  
 36  21  34  1   
 37  22  35  1   
 38  22  36  1   
 39  23  25  ar  
 40  23  37  1   
 41  24  38  1   
 42  24  39  1   
 43  24  40  1   
 44  25  41  1   
@<TRIPOS>SUBSTRUCTURE
  1 ****   1 GROUP 4 **** **** 0

# MOE 2024.06 (io_trps.svl 2023.06)
