@<TRIPOS>MOLECULE
NONAME
26 26 1 0 0 
SMALL
USER_CHARGES


@<TRIPOS>ATOM
  1 O        0.1350     0.1150    -0.4120 O.2   1 <1>  -0.5700 
  2 C        0.1980     1.2930    -0.1690 C.2   1 <1>   0.6590 
  3 O        1.3610     1.9080    -0.0390 O.3   1 <1>  -0.4300 
  4 C       -1.0180     2.1850     0.0070 C.3   1 <1>  -0.0990 
  5 C        2.5670     1.1980    -0.2080 C.3   1 <1>   0.3000 
  6 C       -2.3700     1.4560    -0.0620 C.3   1 <1>  -0.1600 
  7 C        3.7350     2.1470    -0.0120 C.2   1 <1>  -0.0400 
  8 C       -3.5350     2.4420     0.1320 C.3   1 <1>  -0.2660 
  9 O        3.9440     3.1020    -0.8990 O.3   1 <1>  -0.2800 
 10 C        4.6680     2.1980     0.9640 C.2   1 <1>  -0.1500 
 11 C       -4.8830     1.7620     0.0740 C.2   1 <1>   0.9060 
 12 C        5.0050     3.7810    -0.5120 C.2   1 <1>  -0.0100 
 13 C        5.5030     3.2740     0.6360 C.2   1 <1>  -0.1500 
 14 O       -5.4560     1.6830    -1.0160 O.co2 1 <1>  -0.9000 
 15 O       -5.3630     1.3200     1.1220 O.co2 1 <1>  -0.9000 
 16 H       -0.9860     2.9400    -0.7570 H     1 <1>   0.0800 
 17 H       -0.9330     2.6750     0.9590 H     1 <1>   0.0800 
 18 H        2.5840     0.7820    -1.2010 H     1 <1>   0.0800 
 19 H        2.5970     0.4040     0.5170 H     1 <1>   0.0800 
 20 H       -2.4190     0.6980     0.7020 H     1 <1>   0.0800 
 21 H       -2.4770     0.9680    -1.0170 H     1 <1>   0.0800 
 22 H       -3.5190     3.1930    -0.6350 H     1 <1>   0.0800 
 23 H       -3.4580     2.9250     1.0860 H     1 <1>   0.0800 
 24 H        4.7780     1.5670     1.8280 H     1 <1>   0.1500 
 25 H        5.3360     4.6110    -1.1110 H     1 <1>   0.1500 
 26 H        6.3560     3.6010     1.2030 H     1 <1>   0.1500 
@<TRIPOS>BOND
  1   1   2  2   
  2   2   3  1   
  3   2   4  1   
  4   3   5  1   
  5   4   6  1   
  6   4  16  1   
  7   4  17  1   
  8   5   7  1   
  9   5  18  1   
 10   5  19  1   
 11   6   8  1   
 12   6  20  1   
 13   6  21  1   
 14   7   9  1   
 15   7  10  2   
 16   8  11  1   
 17   8  22  1   
 18   8  23  1   
 19   9  12  1   
 20  10  13  1   
 21  10  24  1   
 22  11  14  ar  
 23  11  15  ar  
 24  12  13  2   
 25  12  25  1   
 26  13  26  1   
@<TRIPOS>SUBSTRUCTURE
  1 ****   2 GROUP 4 **** **** 0

# MOE 2024.06 (io_trps.svl 2023.06)
