@<TRIPOS>MOLECULE
NONAME
38 38 1 0 0 
SMALL
USER_CHARGES


@<TRIPOS>ATOM
  1 O        0.6430    -0.6320    -0.3410 O.3   1 <1>  -0.6800 
  2 C        1.6750     0.1230    -0.8660 C.3   1 <1>   0.1200 
  3 C        2.5710     0.5590     0.3010 C.3   1 <1>   0.3430 
  4 N        3.7430     1.3830    -0.1570 N.4   1 <1>  -0.9590 
  5 C        5.0060     0.7910     0.3880 C.3   1 <1>   0.3430 
  6 C        3.5930     2.8230     0.2160 C.3   1 <1>   0.3430 
  7 C        6.2640     1.4070    -0.2460 C.3   1 <1>  -0.0800 
  8 C        2.4330     3.4750    -0.5390 C.3   1 <1>  -0.1600 
  9 C        7.2630     0.2910    -0.6110 C.3   1 <1>  -0.0220 
 10 C        6.9420     2.4340     0.6880 C.3   1 <1>  -0.1600 
 11 C        2.4030     4.9870    -0.2880 C.3   1 <1>  -0.2400 
 12 C        8.6000     0.8740    -1.0280 C.2   1 <1>  -0.2880 
 13 C        8.1230     3.1290    -0.0090 C.3   1 <1>  -0.0220 
 14 C        8.9740     2.1290    -0.7710 C.2   1 <1>  -0.2880 
 15 H        0.0260    -0.9440    -1.0370 H     1 <1>   0.4000 
 16 H        1.2440     0.9690    -1.3710 H     1 <1>   0.0800 
 17 H        2.2180    -0.4950    -1.5610 H     1 <1>   0.0800 
 18 H        2.9220    -0.3300     0.7980 H     1 <1>   0.0800 
 19 H        1.9790     1.1210     1.0040 H     1 <1>   0.0800 
 20 H        3.8000     1.3300    -1.1820 H     1 <1>   0.4500 
 21 H        5.0070    -0.2670     0.1800 H     1 <1>   0.0800 
 22 H        5.0440     0.9110     1.4600 H     1 <1>   0.0800 
 23 H        4.4950     3.3540    -0.0400 H     1 <1>   0.0800 
 24 H        3.4380     2.9190     1.2790 H     1 <1>   0.0800 
 25 H        6.0010     1.9020    -1.1650 H     1 <1>   0.0800 
 26 H        1.4940     3.0640    -0.2130 H     1 <1>   0.0800 
 27 H        2.5430     3.3080    -1.5970 H     1 <1>   0.0800 
 28 H        6.8680    -0.2940    -1.4250 H     1 <1>   0.0800 
 29 H        7.4280    -0.3660     0.2270 H     1 <1>   0.0800 
 30 H        7.3180     1.9230     1.5580 H     1 <1>   0.0800 
 31 H        6.2520     3.1850     1.0260 H     1 <1>   0.0800 
 32 H        2.2720     5.2000     0.7600 H     1 <1>   0.0800 
 33 H        1.5840     5.4330    -0.8250 H     1 <1>   0.0800 
 34 H        3.3150     5.4510    -0.6240 H     1 <1>   0.0800 
 35 H        9.2310     0.1730    -1.5520 H     1 <1>   0.1500 
 36 H        8.7280     3.6270     0.7290 H     1 <1>   0.0800 
 37 H        7.7620     3.8730    -0.6990 H     1 <1>   0.0800 
 38 H        9.9230     2.5330    -1.0880 H     1 <1>   0.1500 
@<TRIPOS>BOND
  1   1   2  1   
  2   1  15  1   
  3   2   3  1   
  4   2  16  1   
  5   2  17  1   
  6   3   4  1   
  7   3  18  1   
  8   3  19  1   
  9   4   5  1   
 10   4   6  1   
 11   4  20  1   
 12   5   7  1   
 13   5  21  1   
 14   5  22  1   
 15   6   8  1   
 16   6  23  1   
 17   6  24  1   
 18   7   9  1   
 19   7  10  1   
 20   7  25  1   
 21   8  11  1   
 22   8  26  1   
 23   8  27  1   
 24   9  12  1   
 25   9  28  1   
 26   9  29  1   
 27  10  13  1   
 28  10  30  1   
 29  10  31  1   
 30  11  32  1   
 31  11  33  1   
 32  11  34  1   
 33  12  14  2   
 34  12  35  1   
 35  13  14  1   
 36  13  36  1   
 37  13  37  1   
 38  14  38  1   
@<TRIPOS>SUBSTRUCTURE
  1 ****   5 GROUP 4 **** **** 0

# MOE 2024.06 (io_trps.svl 2023.06)
