@<TRIPOS>MOLECULE
NONAME
52 54 1 0 0 
SMALL
USER_CHARGES


@<TRIPOS>ATOM
  1 S       -1.1200     0.5420    -2.3010 S.3   1 <1>  -0.0800 
  2 C       -0.1890    -0.5010    -1.2530 C.2   1 <1>   0.1040 
  3 C       -2.5160     0.4820    -1.2420 C.2   1 <1>  -0.1400 
  4 N        1.1100    -0.8410    -1.5990 N.am  1 <1>  -0.4940 
  5 C       -0.9290    -0.8790    -0.1660 C.2   1 <1>  -0.0860 
  6 C       -2.2540    -0.2740    -0.1510 C.2   1 <1>  -0.1810 
  7 C       -3.6940     1.2850    -1.7660 C.3   1 <1>  -0.0600 
  8 C        1.9690    -0.4510    -2.5920 C.2   1 <1>   0.5690 
  9 C       -0.3960    -1.7910     0.8140 C.2   1 <1>   0.8060 
 10 C       -3.1750    -0.5160     1.0540 C.3   1 <1>   0.0210 
 11 O        1.7110     0.3580    -3.4490 O.2   1 <1>  -0.5700 
 12 C        3.3500    -1.1100    -2.5900 C.3   1 <1>   0.1710 
 13 O        0.7950    -1.8840     1.0550 O.2   1 <1>  -0.5700 
 14 O       -1.2310    -2.6090     1.4720 O.3   1 <1>  -0.4300 
 15 C       -4.3120     0.4880     1.2640 C.3   1 <1>  -0.2400 
 16 N        3.7130    -1.7720    -1.2970 N.3   1 <1>  -0.8100 
 17 C       -0.7650    -3.5590     2.4110 C.3   1 <1>   0.0400 
 18 C        3.9870    -0.7720    -0.2330 C.3   1 <1>   0.1100 
 19 C        4.7620    -2.8050    -1.4720 C.3   1 <1>   0.1100 
 20 C        4.7870    -1.3950     0.9070 C.3   1 <1>  -0.1600 
 21 C        6.1400    -2.2730    -1.0870 C.3   1 <1>  -0.1600 
 22 C        6.1520    -1.8700     0.3890 C.3   1 <1>   0.5600 
 23 O        7.1070    -0.8760     0.5640 O.3   1 <1>  -0.5600 
 24 O        6.5940    -2.9430     1.1500 O.3   1 <1>  -0.5600 
 25 C        7.7810    -1.0900     1.7540 C.3   1 <1>   0.1200 
 26 C        7.3150    -2.4560     2.2200 C.3   1 <1>   0.1200 
 27 H        1.5930    -1.4730    -0.9420 H     1 <1>   0.3700 
 28 H       -3.6320     2.2980    -1.4130 H     1 <1>   0.0800 
 29 H       -4.6270     0.8540    -1.4630 H     1 <1>   0.0800 
 30 H       -3.6800     1.2950    -2.8410 H     1 <1>   0.0800 
 31 H       -2.5720    -0.4720     1.9430 H     1 <1>   0.0800 
 32 H       -3.5890    -1.5070     0.9890 H     1 <1>   0.0800 
 33 H        4.0900    -0.3720    -2.8450 H     1 <1>   0.0800 
 34 H        3.3350    -1.8430    -3.3750 H     1 <1>   0.0800 
 35 H       -3.9490     1.4950     1.1600 H     1 <1>   0.0800 
 36 H       -4.7150     0.3740     2.2550 H     1 <1>   0.0800 
 37 H       -5.1100     0.3120     0.5680 H     1 <1>   0.0800 
 38 H       -1.6110    -4.0960     2.8010 H     1 <1>   0.0800 
 39 H       -0.2540    -3.0430     3.2060 H     1 <1>   0.0800 
 40 H       -0.0920    -4.2380     1.9160 H     1 <1>   0.0800 
 41 H        3.0590    -0.3860     0.1530 H     1 <1>   0.0800 
 42 H        4.5490     0.0550    -0.6370 H     1 <1>   0.0800 
 43 H        4.7750    -3.1720    -2.4840 H     1 <1>   0.0800 
 44 H        4.5260    -3.6400    -0.8320 H     1 <1>   0.0800 
 45 H        4.2270    -2.2290     1.2890 H     1 <1>   0.0800 
 46 H        4.9150    -0.6790     1.6960 H     1 <1>   0.0800 
 47 H        6.3620    -1.4200    -1.7020 H     1 <1>   0.0800 
 48 H        6.8900    -3.0220    -1.2620 H     1 <1>   0.0800 
 49 H        7.5210    -0.3170     2.4550 H     1 <1>   0.0800 
 50 H        8.8380    -1.0770     1.5580 H     1 <1>   0.0800 
 51 H        8.1340    -3.1200     2.4300 H     1 <1>   0.0800 
 52 H        6.6640    -2.3800     3.0730 H     1 <1>   0.0800 
@<TRIPOS>BOND
  1   1   2  1   
  2   1   3  1   
  3   2   4  1   
  4   2   5  2   
  5   3   6  2   
  6   3   7  1   
  7   4   8  am  
  8   4  27  1   
  9   5   6  1   
 10   5   9  1   
 11   6  10  1   
 12   7  28  1   
 13   7  29  1   
 14   7  30  1   
 15   8  11  2   
 16   8  12  1   
 17   9  13  2   
 18   9  14  1   
 19  10  15  1   
 20  10  31  1   
 21  10  32  1   
 22  12  16  1   
 23  12  33  1   
 24  12  34  1   
 25  14  17  1   
 26  15  35  1   
 27  15  36  1   
 28  15  37  1   
 29  16  18  1   
 30  16  19  1   
 31  17  38  1   
 32  17  39  1   
 33  17  40  1   
 34  18  20  1   
 35  18  41  1   
 36  18  42  1   
 37  19  21  1   
 38  19  43  1   
 39  19  44  1   
 40  20  22  1   
 41  20  45  1   
 42  20  46  1   
 43  21  22  1   
 44  21  47  1   
 45  21  48  1   
 46  22  23  1   
 47  22  24  1   
 48  23  25  1   
 49  24  26  1   
 50  25  26  1   
 51  25  49  1   
 52  25  50  1   
 53  26  51  1   
 54  26  52  1   
@<TRIPOS>SUBSTRUCTURE
  1 ****   4 GROUP 4 **** **** 0

# MOE 2024.06 (io_trps.svl 2023.06)
