@<TRIPOS>MOLECULE
NONAME
37 37 1 0 0 
SMALL
USER_CHARGES


@<TRIPOS>ATOM
  1 P       -0.0970     0.7540    -0.2850 P.3   1 <1>   1.2420 
  2 O       -0.3400     0.9630    -1.7130 O.2   1 <1>  -0.7000 
  3 O        0.5200    -0.6960     0.0340 O.3   1 <1>  -0.5510 
  4 O        1.0220     1.7480     0.2930 O.3   1 <1>  -0.5510 
  5 C       -1.5140     0.9620     0.8230 C.3   1 <1>   0.1100 
  6 C        0.5720    -1.6500    -0.9650 C.3   1 <1>   0.1200 
  7 C        2.2770     1.7660    -0.2830 C.3   1 <1>   0.1200 
  8 N       -2.7160     0.0690     0.7560 N.3   1 <1>  -0.8100 
  9 C        1.1080    -2.9370    -0.3510 C.3   1 <1>  -0.2400 
 10 C        3.1110     2.8090     0.4520 C.3   1 <1>  -0.2400 
 11 C       -3.4300     0.1640    -0.5350 C.3   1 <1>   0.1100 
 12 C       -2.4360    -1.3140     1.1530 C.3   1 <1>   0.1100 
 13 C       -4.4440    -0.9790    -0.7290 C.3   1 <1>  -0.1600 
 14 C       -3.7560    -2.0410     1.4570 C.3   1 <1>  -0.1600 
 15 C       -4.9410    -1.5440     0.6070 C.3   1 <1>  -0.1600 
 16 H       -1.8790     1.9660     0.7080 H     1 <1>   0.0800 
 17 H       -1.1570     0.9100     1.8350 H     1 <1>   0.0800 
 18 H        1.2220    -1.2930    -1.7470 H     1 <1>   0.0800 
 19 H       -0.4200    -1.7940    -1.3620 H     1 <1>   0.0800 
 20 H        2.1740     2.0210    -1.3260 H     1 <1>   0.0800 
 21 H        2.7170     0.7870    -0.1880 H     1 <1>   0.0800 
 22 H        2.0930    -2.7750     0.0470 H     1 <1>   0.0800 
 23 H        1.1640    -3.7020    -1.1040 H     1 <1>   0.0800 
 24 H        0.4540    -3.2750     0.4330 H     1 <1>   0.0800 
 25 H        2.6560     3.7790     0.3580 H     1 <1>   0.0800 
 26 H        4.0980     2.8510     0.0260 H     1 <1>   0.0800 
 27 H        3.1960     2.5490     1.4910 H     1 <1>   0.0800 
 28 H       -2.7360     0.1480    -1.3580 H     1 <1>   0.0800 
 29 H       -3.9510     1.1060    -0.5600 H     1 <1>   0.0800 
 30 H       -1.8060    -1.3350     2.0270 H     1 <1>   0.0800 
 31 H       -1.9240    -1.8200     0.3540 H     1 <1>   0.0800 
 32 H       -3.9750    -1.7660    -1.2910 H     1 <1>   0.0800 
 33 H       -5.2740    -0.6210    -1.3120 H     1 <1>   0.0800 
 34 H       -3.9950    -1.9110     2.4980 H     1 <1>   0.0800 
 35 H       -3.6060    -3.0920     1.2920 H     1 <1>   0.0800 
 36 H       -5.6450    -2.3410     0.4460 H     1 <1>   0.0800 
 37 H       -5.4440    -0.7560     1.1410 H     1 <1>   0.0800 
@<TRIPOS>BOND
  1   1   2  2   
  2   1   3  1   
  3   1   4  1   
  4   1   5  1   
  5   3   6  1   
  6   4   7  1   
  7   5   8  1   
  8   5  16  1   
  9   5  17  1   
 10   6   9  1   
 11   6  18  1   
 12   6  19  1   
 13   7  10  1   
 14   7  20  1   
 15   7  21  1   
 16   8  11  1   
 17   8  12  1   
 18   9  22  1   
 19   9  23  1   
 20   9  24  1   
 21  10  25  1   
 22  10  26  1   
 23  10  27  1   
 24  11  13  1   
 25  11  28  1   
 26  11  29  1   
 27  12  14  1   
 28  12  30  1   
 29  12  31  1   
 30  13  15  1   
 31  13  32  1   
 32  13  33  1   
 33  14  15  1   
 34  14  34  1   
 35  14  35  1   
 36  15  36  1   
 37  15  37  1   
@<TRIPOS>SUBSTRUCTURE
  1 ****   1 GROUP 4 **** **** 0

# MOE 2024.06 (io_trps.svl 2023.06)
