@<TRIPOS>MOLECULE
NONAME
36 37 1 0 0 
SMALL
USER_CHARGES


@<TRIPOS>ATOM
  1 S       -0.0260    -0.0800     0.8510 S.3   1 <1>  -0.0800 
  2 C       -0.9160    -1.4050     0.1220 C.2   1 <1>   0.1040 
  3 C        1.5060    -0.9120     0.6570 C.2   1 <1>  -0.1400 
  4 N       -2.3000    -1.3380     0.0240 N.am  1 <1>  -0.4940 
  5 C       -0.0630    -2.4060    -0.2560 C.2   1 <1>  -0.0860 
  6 C        1.3180    -2.1090     0.0680 C.2   1 <1>  -0.1810 
  7 C        2.7170    -0.1600     1.1730 C.3   1 <1>  -0.0600 
  8 C       -3.2400    -0.3560     0.2370 C.2   1 <1>   0.7160 
  9 C       -0.4960    -3.6100    -0.9160 C.2   1 <1>   0.7160 
 10 C        2.4300    -3.0980    -0.2560 C.3   1 <1>  -0.0590 
 11 O       -2.9220     0.7720     0.5680 O.2   1 <1>  -0.5700 
 12 C       -4.6240    -0.7320     0.0230 C.2   1 <1>   0.2030 
 13 O       -0.0270    -4.7060    -0.6900 O.2   1 <1>  -0.5700 
 14 N       -1.4710    -3.5720    -1.8530 N.am  1 <1>  -0.8000 
 15 N       -5.0220    -1.9170    -0.4130 N.2   1 <1>  -0.7070 
 16 C       -5.7290     0.0970     0.2460 C.2   1 <1>  -0.1500 
 17 N       -6.3600    -1.8490    -0.4610 N.pl3 1 <1>   0.3140 
 18 C       -6.8100    -0.6420    -0.0690 C.2   1 <1>  -0.3020 
 19 C       -7.1940    -2.9900    -0.8940 C.3   1 <1>   0.0960 
 20 C       -7.7240    -3.7770     0.3110 C.3   1 <1>  -0.2400 
 21 H       -2.7750    -2.2050    -0.2480 H     1 <1>   0.3700 
 22 H        2.5940     0.0480     2.2210 H     1 <1>   0.0800 
 23 H        2.8170     0.7720     0.6460 H     1 <1>   0.0800 
 24 H        3.6170    -0.7290     1.0400 H     1 <1>   0.0800 
 25 H        3.3970    -2.6880    -0.0400 H     1 <1>   0.0800 
 26 H        2.4000    -3.3590    -1.2990 H     1 <1>   0.0800 
 27 H        2.3050    -3.9920     0.3270 H     1 <1>   0.0800 
 28 H       -1.6840    -4.4330    -2.3560 H     1 <1>   0.3700 
 29 H       -1.7580    -2.6980    -2.2900 H     1 <1>   0.3700 
 30 H       -5.6760     1.1120     0.6000 H     1 <1>   0.1500 
 31 H       -7.8520    -0.3840    -0.0370 H     1 <1>   0.1500 
 32 H       -6.5920    -3.6300    -1.5140 H     1 <1>   0.0800 
 33 H       -8.0110    -2.6130    -1.4820 H     1 <1>   0.0800 
 34 H       -6.9020    -4.1560     0.8940 H     1 <1>   0.0800 
 35 H       -8.3150    -4.6080    -0.0270 H     1 <1>   0.0800 
 36 H       -8.3380    -3.1480     0.9310 H     1 <1>   0.0800 
@<TRIPOS>BOND
  1   1   2  1   
  2   1   3  1   
  3   2   4  1   
  4   2   5  2   
  5   3   6  2   
  6   3   7  1   
  7   4   8  am  
  8   4  21  1   
  9   5   6  1   
 10   5   9  1   
 11   6  10  1   
 12   7  22  1   
 13   7  23  1   
 14   7  24  1   
 15   8  11  2   
 16   8  12  1   
 17   9  13  2   
 18   9  14  am  
 19  10  25  1   
 20  10  26  1   
 21  10  27  1   
 22  12  15  2   
 23  12  16  1   
 24  14  28  1   
 25  14  29  1   
 26  15  17  1   
 27  16  18  2   
 28  16  30  1   
 29  17  18  1   
 30  17  19  1   
 31  18  31  1   
 32  19  20  1   
 33  19  32  1   
 34  19  33  1   
 35  20  34  1   
 36  20  35  1   
 37  20  36  1   
@<TRIPOS>SUBSTRUCTURE
  1 ****   4 GROUP 4 **** **** 0

# MOE 2024.06 (io_trps.svl 2023.06)
