@<TRIPOS>MOLECULE
Structure2319
24 25 1 0 0 
SMALL
USER_CHARGES


@<TRIPOS>ATOM
  1 O       -0.1640     0.4090    -0.2690 O.3   1 <1>  -0.3400 
  2 C       -1.3630     1.0380    -0.2230 C.ar  1 <1>   0.0830 
  3 C        0.9910     0.9680     0.3230 C.3   1 <1>   0.2580 
  4 C       -1.6380     2.1290     0.5960 C.ar  1 <1>  -0.1500 
  5 C       -2.3580     0.5440    -1.0510 C.ar  1 <1>  -0.1500 
  6 C        1.6160     2.0770    -0.5590 C.3   1 <1>   0.4720 
  7 C        2.2420     0.1240    -0.0180 C.3   1 <1>   0.4720 
  8 C       -2.8930     2.7140     0.5670 C.ar  1 <1>  -0.1500 
  9 C       -3.6090     1.1340    -1.0730 C.ar  1 <1>  -0.1500 
 10 N        2.9440     1.3830    -0.4480 N.4   1 <1>  -0.8440 
 11 C       -3.8970     2.2290    -0.2660 C.ar  1 <1>   0.0730 
 12 C       -5.1950     2.8410    -0.2900 C.1   1 <1>   0.4840 
 13 N       -6.2240     3.3320    -0.3080 N.1   1 <1>  -0.5570 
 14 H        0.8670     1.1870     1.3680 H     1 <1>   0.0000 
 15 H       -0.9080     2.5360     1.2690 H     1 <1>   0.1500 
 16 H       -2.1540    -0.3050    -1.6800 H     1 <1>   0.1500 
 17 H        1.6380     3.0480    -0.0980 H     1 <1>   0.0000 
 18 H        1.2590     2.0650    -1.5730 H     1 <1>   0.0000 
 19 H        2.0950    -0.5370    -0.8530 H     1 <1>   0.0000 
 20 H        2.7210    -0.3220     0.8340 H     1 <1>   0.0000 
 21 H       -3.1030     3.5580     1.2040 H     1 <1>   0.1500 
 22 H       -4.3720     0.7380    -1.7230 H     1 <1>   0.1500 
 23 H        3.5460     1.7750     0.2850 H     1 <1>   0.4500 
 24 H        3.4260     1.2850    -1.3490 H     1 <1>   0.4500 
@<TRIPOS>BOND
  1   1   2  1   
  2   1   3  1   
  3   2   4  ar  
  4   2   5  ar  
  5   3   6  1   
  6   3   7  1   
  7   3  14  1   
  8   4   8  ar  
  9   4  15  1   
 10   5   9  ar  
 11   5  16  1   
 12   6  10  1   
 13   6  17  1   
 14   6  18  1   
 15   7  10  1   
 16   7  19  1   
 17   7  20  1   
 18   8  11  ar  
 19   8  21  1   
 20   9  11  ar  
 21   9  22  1   
 22  10  23  1   
 23  10  24  1   
 24  11  12  1   
 25  12  13  3   
@<TRIPOS>SUBSTRUCTURE
  1 ****   2 GROUP 4 **** **** 0

# MOE 2024.06 (io_trps.svl 2023.06)
