@<TRIPOS>MOLECULE
NONAME
57 58 1 0 0 
SMALL
USER_CHARGES


@<TRIPOS>ATOM
  1 O       -0.8170    -3.0160    -0.9750 O.3   1 <1>  -0.5600 
  2 C       -2.1560    -2.6670    -0.8030 C.3   1 <1>   0.2000 
  3 C        0.1020    -1.9700    -0.8560 C.3   1 <1>   0.1200 
  4 C       -2.4950    -2.6850     0.6960 C.3   1 <1>  -0.1600 
  5 C       -2.9860    -3.6980    -1.5700 C.3   1 <1>  -0.1600 
  6 C        1.5070    -2.5470    -1.0750 C.3   1 <1>   0.2000 
  7 C       -3.9990    -2.4720     0.9690 C.3   1 <1>   0.0000 
  8 C       -4.4920    -3.4750    -1.3580 C.3   1 <1>  -0.0800 
  9 O        1.6230    -3.7110    -0.3160 O.3   1 <1>  -0.6800 
 10 C        2.6350    -1.5720    -0.6790 C.3   1 <1>   0.3430 
 11 C       -4.8310    -3.4770     0.1430 C.3   1 <1>  -0.1600 
 12 C       -4.4110    -1.0250     0.6440 C.3   1 <1>  -0.2400 
 13 C       -4.2710    -2.7120     2.4620 C.3   1 <1>  -0.2400 
 14 C       -5.2970    -4.5560    -2.0880 C.3   1 <1>  -0.2400 
 15 N        3.8870    -2.3290    -0.3730 N.4   1 <1>  -0.9590 
 16 C        4.7670    -1.6410     0.6220 C.3   1 <1>   0.3430 
 17 C        4.6220    -2.7850    -1.5810 C.3   1 <1>   0.3430 
 18 C        6.1620    -2.2930     0.7230 C.3   1 <1>  -0.0800 
 19 C        5.6220    -3.8790    -1.1830 C.3   1 <1>  -0.1600 
 20 C        6.1480    -3.7600     0.2600 C.3   1 <1>  -0.1600 
 21 C        6.7020    -2.1900     2.1550 C.3   1 <1>  -0.2400 
 22 H       -2.3250    -1.6910    -1.2260 H     1 <1>   0.0800 
 23 H        0.0180    -1.5420     0.1280 H     1 <1>   0.0800 
 24 H       -0.1230    -1.2220    -1.5970 H     1 <1>   0.0800 
 25 H       -1.9350    -1.9270     1.2100 H     1 <1>   0.0800 
 26 H       -2.2040    -3.6430     1.0910 H     1 <1>   0.0800 
 27 H       -2.7230    -4.6840    -1.2280 H     1 <1>   0.0800 
 28 H       -2.7570    -3.6270    -2.6180 H     1 <1>   0.0800 
 29 H        1.6090    -2.8230    -2.1100 H     1 <1>   0.0800 
 30 H       -4.7630    -2.5230    -1.7800 H     1 <1>   0.0800 
 31 H        0.7410    -4.1590    -0.3560 H     1 <1>   0.4000 
 32 H        2.3190    -1.0410     0.2030 H     1 <1>   0.0800 
 33 H        2.8020    -0.8500    -1.4610 H     1 <1>   0.0800 
 34 H       -5.8790    -3.2670     0.2730 H     1 <1>   0.0800 
 35 H       -4.6560    -4.4670     0.5270 H     1 <1>   0.0800 
 36 H       -5.4580    -0.8810     0.8480 H     1 <1>   0.0800 
 37 H       -4.2400    -0.7810    -0.3880 H     1 <1>   0.0800 
 38 H       -3.8550    -0.3300     1.2480 H     1 <1>   0.0800 
 39 H       -3.9970    -3.7140     2.7430 H     1 <1>   0.0800 
 40 H       -5.3150    -2.5760     2.6820 H     1 <1>   0.0800 
 41 H       -3.7050    -2.0260     3.0660 H     1 <1>   0.0800 
 42 H       -5.0590    -5.5330    -1.7050 H     1 <1>   0.0800 
 43 H       -5.0780    -4.5380    -3.1410 H     1 <1>   0.0800 
 44 H       -6.3510    -4.3850    -1.9600 H     1 <1>   0.0800 
 45 H        3.5270    -3.1990     0.0670 H     1 <1>   0.4500 
 46 H        4.2910    -1.6800     1.5880 H     1 <1>   0.0800 
 47 H        4.8890    -0.6040     0.3550 H     1 <1>   0.0800 
 48 H        5.1520    -1.9520    -2.0130 H     1 <1>   0.0800 
 49 H        3.9390    -3.1760    -2.3180 H     1 <1>   0.0800 
 50 H        6.8310    -1.7440     0.0820 H     1 <1>   0.0800 
 51 H        6.4490    -3.8360    -1.8710 H     1 <1>   0.0800 
 52 H        5.1620    -4.8440    -1.3120 H     1 <1>   0.0800 
 53 H        5.5120    -4.3310     0.9170 H     1 <1>   0.0800 
 54 H        7.1370    -4.1840     0.3200 H     1 <1>   0.0800 
 55 H        6.0750    -2.7310     2.8430 H     1 <1>   0.0800 
 56 H        6.7510    -1.1620     2.4700 H     1 <1>   0.0800 
 57 H        7.6960    -2.6020     2.2090 H     1 <1>   0.0800 
@<TRIPOS>BOND
  1   1   2  1   
  2   1   3  1   
  3   2   4  1   
  4   2   5  1   
  5   2  22  1   
  6   3   6  1   
  7   3  23  1   
  8   3  24  1   
  9   4   7  1   
 10   4  25  1   
 11   4  26  1   
 12   5   8  1   
 13   5  27  1   
 14   5  28  1   
 15   6   9  1   
 16   6  10  1   
 17   6  29  1   
 18   7  11  1   
 19   7  12  1   
 20   7  13  1   
 21   8  11  1   
 22   8  14  1   
 23   8  30  1   
 24   9  31  1   
 25  10  15  1   
 26  10  32  1   
 27  10  33  1   
 28  11  34  1   
 29  11  35  1   
 30  12  36  1   
 31  12  37  1   
 32  12  38  1   
 33  13  39  1   
 34  13  40  1   
 35  13  41  1   
 36  14  42  1   
 37  14  43  1   
 38  14  44  1   
 39  15  16  1   
 40  15  17  1   
 41  15  45  1   
 42  16  18  1   
 43  16  46  1   
 44  16  47  1   
 45  17  19  1   
 46  17  48  1   
 47  17  49  1   
 48  18  20  1   
 49  18  21  1   
 50  18  50  1   
 51  19  20  1   
 52  19  51  1   
 53  19  52  1   
 54  20  53  1   
 55  20  54  1   
 56  21  55  1   
 57  21  56  1   
 58  21  57  1   
@<TRIPOS>SUBSTRUCTURE
  1 ****   3 GROUP 4 **** **** 0

# MOE 2024.06 (io_trps.svl 2023.06)
