@<TRIPOS>MOLECULE
NONAME
57 58 1 0 0 
SMALL
USER_CHARGES


@<TRIPOS>ATOM
  1 O        2.8210    -7.1380    -1.6110 O.2   1 <1>  -0.5700 
  2 C        3.0420    -6.1540    -0.9430 C.2   1 <1>   0.5690 
  3 N        4.3220    -5.7620    -0.6320 N.am  1 <1>  -0.6600 
  4 C        1.8010    -5.3860    -0.4690 C.3   1 <1>  -0.0190 
  5 C        5.4780    -6.5830    -1.1090 C.3   1 <1>   0.2780 
  6 C        4.6980    -4.5220     0.1010 C.3   1 <1>   0.1400 
  7 C        0.9680    -6.2630     0.4860 C.3   1 <1>  -0.1600 
  8 C        0.9420    -4.9390    -1.6680 C.3   1 <1>  -0.1600 
  9 C        6.1200    -7.3270     0.0560 C.2   1 <1>  -0.2760 
 10 C        4.5390    -4.7190     1.6090 C.3   1 <1>  -0.2400 
 11 C       -0.3560    -5.6080     0.8690 C.3   1 <1>   0.3430 
 12 C       -0.3810    -4.3160    -1.2310 C.3   1 <1>   0.3430 
 13 C        5.5570    -8.4020     0.6160 C.2   1 <1>  -0.3000 
 14 C        7.4570    -6.7660     0.5190 C.3   1 <1>  -0.1020 
 15 N       -1.1200    -5.2800    -0.3700 N.4   1 <1>  -0.9590 
 16 C       -2.4990    -4.7890    -0.0810 C.3   1 <1>   0.3430 
 17 C       -3.4000    -5.8880     0.5090 C.3   1 <1>  -0.0800 
 18 C       -3.4570    -7.1490    -0.3810 C.3   1 <1>  -0.1600 
 19 C       -4.8150    -5.3190     0.7180 C.3   1 <1>  -0.1600 
 20 C       -4.4150    -8.2000     0.1950 C.3   1 <1>  -0.1600 
 21 C       -5.7670    -6.3720     1.2990 C.3   1 <1>  -0.1600 
 22 C       -5.8170    -7.6200     0.4100 C.3   1 <1>  -0.1600 
 23 H        2.0910    -4.5030     0.0660 H     1 <1>   0.0800 
 24 H        6.1970    -5.9510    -1.6010 H     1 <1>   0.0800 
 25 H        5.1510    -7.3070    -1.8350 H     1 <1>   0.0800 
 26 H        4.0940    -3.6990    -0.2360 H     1 <1>   0.0800 
 27 H        5.7220    -4.2710    -0.1180 H     1 <1>   0.0800 
 28 H        1.5380    -6.4570     1.3780 H     1 <1>   0.0800 
 29 H        0.7660    -7.2160     0.0280 H     1 <1>   0.0800 
 30 H        0.7350    -5.7790    -2.3100 H     1 <1>   0.0800 
 31 H        1.4940    -4.2230    -2.2520 H     1 <1>   0.0800 
 32 H        3.5190    -4.9190     1.8720 H     1 <1>   0.0800 
 33 H        4.8540    -3.8290     2.1230 H     1 <1>   0.0800 
 34 H        5.1500    -5.5350     1.9490 H     1 <1>   0.0800 
 35 H       -0.1700    -4.7090     1.4340 H     1 <1>   0.0800 
 36 H       -0.9190    -6.2880     1.4860 H     1 <1>   0.0800 
 37 H       -0.9670    -4.0750    -2.1030 H     1 <1>   0.0800 
 38 H       -0.1930    -3.4060    -0.6840 H     1 <1>   0.0800 
 39 H        5.9820    -8.9590     1.4330 H     1 <1>   0.1500 
 40 H        4.6150    -8.8140     0.2960 H     1 <1>   0.1500 
 41 H        7.3530    -5.7460     0.8390 H     1 <1>   0.0800 
 42 H        8.1730    -6.8080    -0.2830 H     1 <1>   0.0800 
 43 H        7.8410    -7.3410     1.3430 H     1 <1>   0.0800 
 44 H       -1.2130    -6.1540    -0.9070 H     1 <1>   0.4500 
 45 H       -2.9510    -4.4430    -0.9970 H     1 <1>   0.0800 
 46 H       -2.4570    -3.9550     0.6010 H     1 <1>   0.0800 
 47 H       -3.0240    -6.1650     1.4790 H     1 <1>   0.0800 
 48 H       -2.4850    -7.6010    -0.4680 H     1 <1>   0.0800 
 49 H       -3.7910    -6.8820    -1.3700 H     1 <1>   0.0800 
 50 H       -5.2150    -4.9750    -0.2210 H     1 <1>   0.0800 
 51 H       -4.7810    -4.4770     1.3900 H     1 <1>   0.0800 
 52 H       -4.0330    -8.5610     1.1350 H     1 <1>   0.0800 
 53 H       -4.4770    -9.0410    -0.4760 H     1 <1>   0.0800 
 54 H       -6.7570    -5.9560     1.3860 H     1 <1>   0.0800 
 55 H       -5.4420    -6.6500     2.2870 H     1 <1>   0.0800 
 56 H       -6.4480    -8.3630     0.8690 H     1 <1>   0.0800 
 57 H       -6.2510    -7.3660    -0.5420 H     1 <1>   0.0800 
@<TRIPOS>BOND
  1   1   2  2   
  2   2   3  am  
  3   2   4  1   
  4   3   5  1   
  5   3   6  1   
  6   4   7  1   
  7   4   8  1   
  8   4  23  1   
  9   5   9  1   
 10   5  24  1   
 11   5  25  1   
 12   6  10  1   
 13   6  26  1   
 14   6  27  1   
 15   7  11  1   
 16   7  28  1   
 17   7  29  1   
 18   8  12  1   
 19   8  30  1   
 20   8  31  1   
 21   9  13  2   
 22   9  14  1   
 23  10  32  1   
 24  10  33  1   
 25  10  34  1   
 26  11  15  1   
 27  11  35  1   
 28  11  36  1   
 29  12  15  1   
 30  12  37  1   
 31  12  38  1   
 32  13  39  1   
 33  13  40  1   
 34  14  41  1   
 35  14  42  1   
 36  14  43  1   
 37  15  16  1   
 38  15  44  1   
 39  16  17  1   
 40  16  45  1   
 41  16  46  1   
 42  17  18  1   
 43  17  19  1   
 44  17  47  1   
 45  18  20  1   
 46  18  48  1   
 47  18  49  1   
 48  19  21  1   
 49  19  50  1   
 50  19  51  1   
 51  20  22  1   
 52  20  52  1   
 53  20  53  1   
 54  21  22  1   
 55  21  54  1   
 56  21  55  1   
 57  22  56  1   
 58  22  57  1   
@<TRIPOS>SUBSTRUCTURE
  1 ****   7 GROUP 4 **** **** 0

# MOE 2024.06 (io_trps.svl 2023.06)
