@<TRIPOS>MOLECULE
NONAME
46 47 1 0 0 
SMALL
USER_CHARGES


@<TRIPOS>ATOM
  1 O       -1.0110    -1.6890     2.2310 O.2   1 <1>  -0.5700 
  2 C       -0.6600    -2.1990     1.1890 C.2   1 <1>   0.7800 
  3 O        0.5010    -2.8410     1.1630 O.3   1 <1>  -0.4300 
  4 N       -1.4480    -2.1860     0.0640 N.am  1 <1>  -0.6600 
  5 C        1.5290    -2.3660     0.3270 C.3   1 <1>   0.1200 
  6 C       -1.4700    -3.3220    -0.8860 C.3   1 <1>   0.1400 
  7 C       -2.6250    -1.2880    -0.0100 C.3   1 <1>   0.1400 
  8 C        2.6710    -3.3760     0.3650 C.3   1 <1>  -0.2400 
  9 C       -2.6960    -4.1820    -0.5690 C.3   1 <1>  -0.1600 
 10 C       -3.8700    -2.1030     0.3360 C.3   1 <1>  -0.1600 
 11 C       -3.9780    -3.3380    -0.5760 C.3   1 <1>   0.4230 
 12 N       -5.1450    -4.1980    -0.2230 N.4   1 <1>  -0.9590 
 13 C       -6.4370    -3.5680    -0.6600 C.3   1 <1>   0.3430 
 14 C       -5.2050    -4.6230     1.2080 C.3   1 <1>   0.3430 
 15 C       -7.6780    -4.2440    -0.0430 C.3   1 <1>  -0.0800 
 16 C       -6.2140    -5.7700     1.3550 C.3   1 <1>  -0.1600 
 17 C       -7.3970    -5.6990     0.3690 C.3   1 <1>  -0.1600 
 18 C       -8.8690    -4.1530    -1.0040 C.3   1 <1>   0.1200 
 19 O       -8.9220    -2.8630    -1.5040 O.3   1 <1>  -0.6800 
 20 H        1.8500    -1.4090     0.7020 H     1 <1>   0.0800 
 21 H        1.1510    -2.2530    -0.6750 H     1 <1>   0.0800 
 22 H       -0.5770    -3.9180    -0.7900 H     1 <1>   0.0800 
 23 H       -1.5150    -2.9450    -1.8940 H     1 <1>   0.0800 
 24 H       -2.6990    -0.8750    -1.0020 H     1 <1>   0.0800 
 25 H       -2.5140    -0.4690     0.6840 H     1 <1>   0.0800 
 26 H        3.0350    -3.4810     1.3720 H     1 <1>   0.0800 
 27 H        3.4790    -3.0360    -0.2570 H     1 <1>   0.0800 
 28 H        2.3370    -4.3320     0.0030 H     1 <1>   0.0800 
 29 H       -2.5370    -4.6310     0.3950 H     1 <1>   0.0800 
 30 H       -2.7660    -4.9630    -1.3040 H     1 <1>   0.0800 
 31 H       -4.7300    -1.4700     0.2200 H     1 <1>   0.0800 
 32 H       -3.7890    -2.3850     1.3700 H     1 <1>   0.0800 
 33 H       -4.1130    -2.9810    -1.5850 H     1 <1>   0.0800 
 34 H       -5.0550    -5.0660    -0.7640 H     1 <1>   0.4500 
 35 H       -6.5100    -3.6230    -1.7340 H     1 <1>   0.0800 
 36 H       -6.4590    -2.5240    -0.3920 H     1 <1>   0.0800 
 37 H       -5.5210    -3.7880     1.8130 H     1 <1>   0.0800 
 38 H       -4.2380    -4.9450     1.5580 H     1 <1>   0.0800 
 39 H       -7.9470    -3.6920     0.8420 H     1 <1>   0.0800 
 40 H       -6.5900    -5.7460     2.3640 H     1 <1>   0.0800 
 41 H       -5.7070    -6.7120     1.2370 H     1 <1>   0.0800 
 42 H       -7.1650    -6.2780    -0.5100 H     1 <1>   0.0800 
 43 H       -8.2720    -6.1370     0.8220 H     1 <1>   0.0800 
 44 H       -9.7930    -4.3630    -0.4910 H     1 <1>   0.0800 
 45 H       -8.7580    -4.8300    -1.8350 H     1 <1>   0.0800 
 46 H       -9.7450    -2.7230    -2.0200 H     1 <1>   0.4000 
@<TRIPOS>BOND
  1   1   2  2   
  2   2   3  1   
  3   2   4  am  
  4   3   5  1   
  5   4   6  1   
  6   4   7  1   
  7   5   8  1   
  8   5  20  1   
  9   5  21  1   
 10   6   9  1   
 11   6  22  1   
 12   6  23  1   
 13   7  10  1   
 14   7  24  1   
 15   7  25  1   
 16   8  26  1   
 17   8  27  1   
 18   8  28  1   
 19   9  11  1   
 20   9  29  1   
 21   9  30  1   
 22  10  11  1   
 23  10  31  1   
 24  10  32  1   
 25  11  12  1   
 26  11  33  1   
 27  12  13  1   
 28  12  14  1   
 29  12  34  1   
 30  13  15  1   
 31  13  35  1   
 32  13  36  1   
 33  14  16  1   
 34  14  37  1   
 35  14  38  1   
 36  15  17  1   
 37  15  18  1   
 38  15  39  1   
 39  16  17  1   
 40  16  40  1   
 41  16  41  1   
 42  17  42  1   
 43  17  43  1   
 44  18  19  1   
 45  18  44  1   
 46  18  45  1   
 47  19  46  1   
@<TRIPOS>SUBSTRUCTURE
  1 ****  11 GROUP 4 **** **** 0

# MOE 2024.06 (io_trps.svl 2023.06)
