@<TRIPOS>MOLECULE
NONAME
46 46 1 0 0 
SMALL
USER_CHARGES


@<TRIPOS>ATOM
  1 O        5.1080    -5.5740    -1.1670 O.2   1 <1>  -0.5700 
  2 C        4.9100    -4.9350    -0.1640 C.2   1 <1>   0.5690 
  3 N        5.9060    -4.2970     0.5020 N.am  1 <1>  -0.7300 
  4 C        3.4810    -4.8470     0.3670 C.3   1 <1>  -0.0190 
  5 C        7.3280    -4.2790     0.0840 C.3   1 <1>   0.1400 
  6 C        2.9460    -6.2490     0.7190 C.3   1 <1>  -0.1600 
  7 C        2.5620    -4.1620    -0.6640 C.3   1 <1>  -0.1600 
  8 C        7.8310    -2.8340    -0.0560 C.3   1 <1>  -0.0800 
  9 C        1.4680    -6.2260     1.1000 C.3   1 <1>   0.3430 
 10 C        1.0940    -4.1980    -0.2490 C.3   1 <1>   0.3430 
 11 C        9.2810    -2.8330    -0.5570 C.3   1 <1>  -0.2400 
 12 C        7.7450    -2.0520     1.2650 C.3   1 <1>  -0.2400 
 13 N        0.6850    -5.6090    -0.0080 N.4   1 <1>  -0.9590 
 14 C       -0.7820    -5.7220     0.2280 C.3   1 <1>   0.3430 
 15 C       -1.3890    -6.8550    -0.6190 C.3   1 <1>  -0.0800 
 16 C       -2.9030    -6.9180    -0.3780 C.3   1 <1>  -0.2400 
 17 C       -0.7740    -8.2360    -0.3300 C.3   1 <1>  -0.2400 
 18 H        5.7130    -3.7590     1.3460 H     1 <1>   0.3700 
 19 H        3.4880    -4.2510     1.2630 H     1 <1>   0.0800 
 20 H        7.4360    -4.7910    -0.8590 H     1 <1>   0.0800 
 21 H        7.9170    -4.8050     0.8160 H     1 <1>   0.0800 
 22 H        3.5160    -6.6520     1.5380 H     1 <1>   0.0800 
 23 H        3.0810    -6.9140    -0.1170 H     1 <1>   0.0800 
 24 H        2.6650    -4.6430    -1.6230 H     1 <1>   0.0800 
 25 H        2.8700    -3.1390    -0.7900 H     1 <1>   0.0800 
 26 H        7.2260    -2.3370    -0.7970 H     1 <1>   0.0800 
 27 H        1.3340    -5.6560     2.0050 H     1 <1>   0.0800 
 28 H        1.1290    -7.2330     1.2790 H     1 <1>   0.0800 
 29 H        0.4900    -3.7670    -1.0320 H     1 <1>   0.0800 
 30 H        0.9540    -3.6170     0.6490 H     1 <1>   0.0800 
 31 H        9.9300    -3.3180     0.1510 H     1 <1>   0.0800 
 32 H        9.6260    -1.8240    -0.7020 H     1 <1>   0.0800 
 33 H        9.3520    -3.3490    -1.4980 H     1 <1>   0.0800 
 34 H        8.3020    -2.5530     2.0380 H     1 <1>   0.0800 
 35 H        6.7250    -1.9460     1.5840 H     1 <1>   0.0800 
 36 H        8.1530    -1.0650     1.1380 H     1 <1>   0.0800 
 37 H        0.8990    -6.1390    -0.8650 H     1 <1>   0.4500 
 38 H       -1.2680    -4.7990    -0.0440 H     1 <1>   0.0800 
 39 H       -0.9790    -5.9040     1.2720 H     1 <1>   0.0800 
 40 H       -1.2380    -6.6210    -1.6600 H     1 <1>   0.0800 
 41 H       -3.1220    -7.1640     0.6480 H     1 <1>   0.0800 
 42 H       -3.3500    -7.6700    -1.0060 H     1 <1>   0.0800 
 43 H       -3.3670    -5.9760    -0.6120 H     1 <1>   0.0800 
 44 H       -0.8750    -8.4910     0.7110 H     1 <1>   0.0800 
 45 H        0.2660    -8.2690    -0.6000 H     1 <1>   0.0800 
 46 H       -1.2780    -8.9920    -0.9080 H     1 <1>   0.0800 
@<TRIPOS>BOND
  1   1   2  2   
  2   2   3  am  
  3   2   4  1   
  4   3   5  1   
  5   3  18  1   
  6   4   6  1   
  7   4   7  1   
  8   4  19  1   
  9   5   8  1   
 10   5  20  1   
 11   5  21  1   
 12   6   9  1   
 13   6  22  1   
 14   6  23  1   
 15   7  10  1   
 16   7  24  1   
 17   7  25  1   
 18   8  11  1   
 19   8  12  1   
 20   8  26  1   
 21   9  13  1   
 22   9  27  1   
 23   9  28  1   
 24  10  13  1   
 25  10  29  1   
 26  10  30  1   
 27  11  31  1   
 28  11  32  1   
 29  11  33  1   
 30  12  34  1   
 31  12  35  1   
 32  12  36  1   
 33  13  14  1   
 34  13  37  1   
 35  14  15  1   
 36  14  38  1   
 37  14  39  1   
 38  15  16  1   
 39  15  17  1   
 40  15  40  1   
 41  16  41  1   
 42  16  42  1   
 43  16  43  1   
 44  17  44  1   
 45  17  45  1   
 46  17  46  1   
@<TRIPOS>SUBSTRUCTURE
  1 ****   4 GROUP 4 **** **** 0

# MOE 2024.06 (io_trps.svl 2023.06)
