@<TRIPOS>MOLECULE
NONAME
42 43 1 0 0 
SMALL
USER_CHARGES


@<TRIPOS>ATOM
  1 O        3.7250     5.1270     1.3280 O.2   1 <1>  -0.5700 
  2 C        3.9160     4.5760     0.2770 C.2   1 <1>   0.6590 
  3 O        5.1160     4.4320    -0.2580 O.3   1 <1>  -0.4300 
  4 C        2.7700     4.0000    -0.5190 C.3   1 <1>  -0.0990 
  5 C        6.2730     4.9250     0.3800 C.3   1 <1>   0.1200 
  6 C        1.4590     4.3000     0.2020 C.3   1 <1>   0.3430 
  7 C        7.4750     4.5930    -0.4990 C.3   1 <1>  -0.2400 
  8 N        0.2990     3.7400    -0.5520 N.4   1 <1>  -0.9060 
  9 C       -1.0100     4.0130     0.1170 C.3   1 <1>   0.4230 
 10 C       -2.1280     3.0600    -0.3730 C.3   1 <1>   0.2000 
 11 C       -1.3590     5.4830    -0.1440 C.3   1 <1>  -0.2400 
 12 O       -3.3490     3.4450     0.2320 O.3   1 <1>  -0.3630 
 13 C       -1.8570     1.5800    -0.0380 C.3   1 <1>   0.1200 
 14 C       -4.3900     2.5790     0.1270 C.ar  1 <1>   0.0830 
 15 O       -2.9290     0.7850    -0.4930 O.3   1 <1>  -0.3630 
 16 C       -4.1810     1.2510    -0.2520 C.ar  1 <1>   0.0830 
 17 C       -5.6710     3.0300     0.3940 C.ar  1 <1>  -0.1500 
 18 C       -5.2570     0.3910    -0.3790 C.ar  1 <1>  -0.1500 
 19 C       -6.7450     2.1630     0.2710 C.ar  1 <1>  -0.1500 
 20 C       -6.5390     0.8480    -0.1170 C.ar  1 <1>  -0.1500 
 21 H        2.9250     2.9410    -0.6070 H     1 <1>   0.0800 
 22 H        2.7800     4.4510    -1.4940 H     1 <1>   0.0800 
 23 H        6.3610     4.4540     1.3460 H     1 <1>   0.0800 
 24 H        6.1700     5.9900     0.5060 H     1 <1>   0.0800 
 25 H        1.3560     5.3690     0.3080 H     1 <1>   0.0800 
 26 H        1.4970     3.8750     1.1940 H     1 <1>   0.0800 
 27 H        7.5640     3.5290    -0.6230 H     1 <1>   0.0800 
 28 H        8.3740     4.9590    -0.0360 H     1 <1>   0.0800 
 29 H        7.3730     5.0620    -1.4610 H     1 <1>   0.0800 
 30 H        0.4360     2.7290    -0.6680 H     1 <1>   0.4500 
 31 H        0.2720     4.1520    -1.4940 H     1 <1>   0.4500 
 32 H       -0.9000     3.8620     1.1800 H     1 <1>   0.0800 
 33 H       -2.2600     3.1710    -1.4350 H     1 <1>   0.0800 
 34 H       -1.5110     5.6660    -1.1930 H     1 <1>   0.0800 
 35 H       -0.6030     6.1470     0.2320 H     1 <1>   0.0800 
 36 H       -2.2730     5.7360     0.3650 H     1 <1>   0.0800 
 37 H       -1.7700     1.4370     1.0250 H     1 <1>   0.0800 
 38 H       -0.9700     1.2160    -0.5200 H     1 <1>   0.0800 
 39 H       -5.8280     4.0510     0.6920 H     1 <1>   0.1500 
 40 H       -5.0910    -0.6290    -0.6770 H     1 <1>   0.1500 
 41 H       -7.7430     2.5110     0.4760 H     1 <1>   0.1500 
 42 H       -7.3770     0.1780    -0.2130 H     1 <1>   0.1500 
@<TRIPOS>BOND
  1   1   2  2   
  2   2   3  1   
  3   2   4  1   
  4   3   5  1   
  5   4   6  1   
  6   4  21  1   
  7   4  22  1   
  8   5   7  1   
  9   5  23  1   
 10   5  24  1   
 11   6   8  1   
 12   6  25  1   
 13   6  26  1   
 14   7  27  1   
 15   7  28  1   
 16   7  29  1   
 17   8   9  1   
 18   8  30  1   
 19   8  31  1   
 20   9  10  1   
 21   9  11  1   
 22   9  32  1   
 23  10  12  1   
 24  10  13  1   
 25  10  33  1   
 26  11  34  1   
 27  11  35  1   
 28  11  36  1   
 29  12  14  1   
 30  13  15  1   
 31  13  37  1   
 32  13  38  1   
 33  14  16  ar  
 34  14  17  ar  
 35  15  16  1   
 36  16  18  ar  
 37  17  19  ar  
 38  17  39  1   
 39  18  20  ar  
 40  18  40  1   
 41  19  20  ar  
 42  19  41  1   
 43  20  42  1   
@<TRIPOS>SUBSTRUCTURE
  1 ****   9 GROUP 4 **** **** 0

# MOE 2024.06 (io_trps.svl 2023.06)
