@<TRIPOS>MOLECULE
NONAME
37 37 1 0 0 
SMALL
USER_CHARGES


@<TRIPOS>ATOM
  1 O        0.2540    -0.9260    -1.6700 O.2   1 <1>  -0.5700 
  2 C       -0.0150    -1.2500    -0.5270 C.2   1 <1>   0.6900 
  3 N        0.9140    -1.8670     0.2760 N.am  1 <1>  -0.6600 
  4 N       -1.2560    -1.0180    -0.0430 N.am  1 <1>  -0.7300 
  5 C        0.6450    -2.2500     1.6880 C.3   1 <1>   0.1400 
  6 C        2.3210    -2.0220    -0.1850 C.3   1 <1>   0.1400 
  7 C       -2.4300    -0.6970    -0.8690 C.3   1 <1>   0.2840 
  8 C       -0.1450    -3.5590     1.7410 C.3   1 <1>  -0.2400 
  9 C        2.5800    -3.4670    -0.6030 C.3   1 <1>  -0.2400 
 10 C       -3.3700    -1.8910    -0.8190 C.ar  1 <1>  -0.1430 
 11 C       -4.4860    -1.9080     0.0130 C.ar  1 <1>   0.0820 
 12 C       -3.0920    -2.9890    -1.6180 C.ar  1 <1>  -0.1500 
 13 O       -4.7140    -0.8170     0.7920 O.3   1 <1>  -0.3630 
 14 C       -5.3160    -3.0270     0.0250 C.ar  1 <1>  -0.1500 
 15 C       -3.9190    -4.0980    -1.6010 C.ar  1 <1>  -0.1500 
 16 C       -5.8460    -0.7240     1.6280 C.3   1 <1>   0.0400 
 17 C       -5.0320    -4.1160    -0.7810 C.ar  1 <1>  -0.1500 
 18 H       -1.4930    -1.4800     0.8290 H     1 <1>   0.3700 
 19 H        0.0920    -1.4640     2.1750 H     1 <1>   0.0800 
 20 H        1.5740    -2.3690     2.2180 H     1 <1>   0.0800 
 21 H        2.9970    -1.7350     0.6020 H     1 <1>   0.0800 
 22 H        2.5090    -1.3720    -1.0240 H     1 <1>   0.0800 
 23 H       -2.1350    -0.5060    -1.8860 H     1 <1>   0.0800 
 24 H       -2.9030     0.1910    -0.4880 H     1 <1>   0.0800 
 25 H       -1.0860    -3.4640     1.2310 H     1 <1>   0.0800 
 26 H       -0.3390    -3.8220     2.7650 H     1 <1>   0.0800 
 27 H        0.4170    -4.3550     1.2880 H     1 <1>   0.0800 
 28 H        2.5080    -4.1250     0.2420 H     1 <1>   0.0800 
 29 H        3.5680    -3.5510    -1.0160 H     1 <1>   0.0800 
 30 H        1.8690    -3.7620    -1.3550 H     1 <1>   0.0800 
 31 H       -2.2220    -2.9810    -2.2540 H     1 <1>   0.1500 
 32 H       -6.1850    -3.0720     0.6520 H     1 <1>   0.1500 
 33 H       -3.6940    -4.9450    -2.2270 H     1 <1>   0.1500 
 34 H       -5.8190     0.2310     2.1220 H     1 <1>   0.0800 
 35 H       -5.8080    -1.5140     2.3570 H     1 <1>   0.0800 
 36 H       -6.7330    -0.7970     1.0230 H     1 <1>   0.0800 
 37 H       -5.6760    -4.9780    -0.7690 H     1 <1>   0.1500 
@<TRIPOS>BOND
  1   1   2  2   
  2   2   3  am  
  3   2   4  am  
  4   3   5  1   
  5   3   6  1   
  6   4   7  1   
  7   4  18  1   
  8   5   8  1   
  9   5  19  1   
 10   5  20  1   
 11   6   9  1   
 12   6  21  1   
 13   6  22  1   
 14   7  10  1   
 15   7  23  1   
 16   7  24  1   
 17   8  25  1   
 18   8  26  1   
 19   8  27  1   
 20   9  28  1   
 21   9  29  1   
 22   9  30  1   
 23  10  11  ar  
 24  10  12  ar  
 25  11  13  1   
 26  11  14  ar  
 27  12  15  ar  
 28  12  31  1   
 29  13  16  1   
 30  14  17  ar  
 31  14  32  1   
 32  15  17  ar  
 33  15  33  1   
 34  16  34  1   
 35  16  35  1   
 36  16  36  1   
 37  17  37  1   
@<TRIPOS>SUBSTRUCTURE
  1 ****   4 GROUP 4 **** **** 0

# MOE 2024.06 (io_trps.svl 2023.06)
