@<TRIPOS>MOLECULE
NONAME
30 30 1 0 0 
SMALL
USER_CHARGES


@<TRIPOS>ATOM
  1 O       -0.1720    -0.4650    -0.7480 O.2   1 <1>  -0.5700 
  2 C       -0.1180    -1.6030    -0.3630 C.2   1 <1>   0.5690 
  3 N       -1.0720    -2.4780    -0.7670 N.am  1 <1>  -0.5470 
  4 C        0.9890    -2.0020     0.5860 C.3   1 <1>  -0.1790 
  5 C       -1.2390    -3.8280    -0.5240 C.ar  1 <1>   0.4270 
  6 N       -0.1600    -4.5820    -0.5370 N.ar  1 <1>  -0.6200 
  7 C       -2.4950    -4.3670    -0.3010 C.ar  1 <1>  -0.1430 
  8 C       -0.3480    -5.8690    -0.3320 C.ar  1 <1>   0.4770 
  9 C       -2.5600    -5.7240    -0.0980 C.ar  1 <1>   0.1600 
 10 C       -3.7300    -3.4760    -0.2690 C.3   1 <1>   0.2640 
 11 N       -1.4890    -6.4910    -0.1110 N.ar  1 <1>  -0.6200 
 12 C        0.8840    -6.7410    -0.3470 C.3   1 <1>  -0.0970 
 13 O       -4.8720    -4.2370    -0.0360 O.3   1 <1>  -0.5600 
 14 C       -6.0460    -3.4990     0.0360 C.3   1 <1>   0.1200 
 15 C       -7.1840    -4.4790     0.2900 C.3   1 <1>  -0.2400 
 16 H       -1.7320    -2.0470    -1.4070 H     1 <1>   0.3700 
 17 H        0.5880    -2.5710     1.4030 H     1 <1>   0.0800 
 18 H        1.4710    -1.1240     0.9730 H     1 <1>   0.0800 
 19 H        1.7130    -2.5950     0.0600 H     1 <1>   0.0800 
 20 H       -3.5060    -6.2070     0.0840 H     1 <1>   0.1500 
 21 H       -3.8490    -2.9730    -1.2130 H     1 <1>   0.0800 
 22 H       -3.6370    -2.7510     0.5220 H     1 <1>   0.0800 
 23 H        1.7430    -6.1790    -0.6620 H     1 <1>   0.0800 
 24 H        0.7340    -7.5610    -1.0240 H     1 <1>   0.0800 
 25 H        1.0570    -7.1270     0.6400 H     1 <1>   0.0800 
 26 H       -6.1930    -2.9820    -0.8970 H     1 <1>   0.0800 
 27 H       -5.9670    -2.7920     0.8450 H     1 <1>   0.0800 
 28 H       -7.2470    -5.1890    -0.5150 H     1 <1>   0.0800 
 29 H       -8.1160    -3.9480     0.3530 H     1 <1>   0.0800 
 30 H       -7.0230    -5.0000     1.2160 H     1 <1>   0.0800 
@<TRIPOS>BOND
  1   1   2  2   
  2   2   3  am  
  3   2   4  1   
  4   3   5  1   
  5   3  16  1   
  6   4  17  1   
  7   4  18  1   
  8   4  19  1   
  9   5   6  ar  
 10   5   7  ar  
 11   6   8  ar  
 12   7   9  ar  
 13   7  10  1   
 14   8  11  ar  
 15   8  12  1   
 16   9  11  ar  
 17   9  20  1   
 18  10  13  1   
 19  10  21  1   
 20  10  22  1   
 21  12  23  1   
 22  12  24  1   
 23  12  25  1   
 24  13  14  1   
 25  14  15  1   
 26  14  26  1   
 27  14  27  1   
 28  15  28  1   
 29  15  29  1   
 30  15  30  1   
@<TRIPOS>SUBSTRUCTURE
  1 ****   7 GROUP 4 **** **** 0

# MOE 2024.06 (io_trps.svl 2023.06)
