@<TRIPOS>MOLECULE
NONAME
48 49 1 0 0 
SMALL
USER_CHARGES


@<TRIPOS>ATOM
  1 O        0.7530    -2.9630    -2.2450 O.2   1 <1>  -0.5700 
  2 C        0.5390    -2.4510    -1.1770 C.2   1 <1>   0.6590 
  3 O       -0.5270    -1.7010    -0.9430 O.3   1 <1>  -0.4300 
  4 C        1.5000    -2.6300    -0.0050 C.3   1 <1>  -0.0190 
  5 C       -1.4870    -1.4570    -1.9460 C.3   1 <1>   0.1200 
  6 C        2.8410    -1.9250    -0.2860 C.3   1 <1>  -0.1600 
  7 C        1.7340    -4.1220     0.3010 C.3   1 <1>  -0.1600 
  8 C       -2.5740    -0.5660    -1.3540 C.3   1 <1>  -0.2400 
  9 C        3.8630    -2.1700     0.8220 C.3   1 <1>   0.3430 
 10 C        2.7750    -4.3290     1.3990 C.3   1 <1>   0.3430 
 11 N        4.0320    -3.6370     1.0180 N.4   1 <1>  -0.9590 
 12 C        5.1560    -3.9590     1.9330 C.3   1 <1>   0.4860 
 13 C        6.4470    -3.4780     1.3010 C.ar  1 <1>  -0.1440 
 14 C        6.8490    -3.9680     0.0600 C.ar  1 <1>   0.0820 
 15 C        7.2300    -2.5430     1.9610 C.ar  1 <1>  -0.1500 
 16 O        6.0360    -4.8780    -0.5450 O.3   1 <1>  -0.3620 
 17 C        8.0350    -3.5140    -0.5120 C.ar  1 <1>  -0.1500 
 18 C        8.4050    -2.0960     1.3870 C.ar  1 <1>  -0.1500 
 19 C        6.4370    -5.5570    -1.7190 C.3   1 <1>   0.0400 
 20 C        8.8140    -2.5750     0.1540 C.ar  1 <1>   0.0820 
 21 O        9.9780    -2.0760    -0.3290 O.3   1 <1>  -0.3620 
 22 C       10.5300    -2.5210    -1.5490 C.3   1 <1>   0.0400 
 23 H        1.0490    -2.1730     0.8590 H     1 <1>   0.0800 
 24 H       -1.8940    -2.4020    -2.2670 H     1 <1>   0.0800 
 25 H       -0.9990    -0.9730    -2.7760 H     1 <1>   0.0800 
 26 H        2.6760    -0.8660    -0.3820 H     1 <1>   0.0800 
 27 H        3.2490    -2.2700    -1.2220 H     1 <1>   0.0800 
 28 H        2.0590    -4.6340    -0.5900 H     1 <1>   0.0800 
 29 H        0.8060    -4.5740     0.6060 H     1 <1>   0.0800 
 30 H       -3.0460    -1.0570    -0.5220 H     1 <1>   0.0800 
 31 H       -3.3210    -0.3640    -2.1000 H     1 <1>   0.0800 
 32 H       -2.1530     0.3690    -1.0300 H     1 <1>   0.0800 
 33 H        3.5250    -1.7140     1.7380 H     1 <1>   0.0800 
 34 H        4.8040    -1.7220     0.5440 H     1 <1>   0.0800 
 35 H        2.9570    -5.3840     1.5260 H     1 <1>   0.0800 
 36 H        2.4050    -3.9300     2.3300 H     1 <1>   0.0800 
 37 H        4.3540    -4.0240     0.1120 H     1 <1>   0.4500 
 38 H        5.2180    -5.0260     2.0770 H     1 <1>   0.0800 
 39 H        5.0080    -3.4880     2.8910 H     1 <1>   0.0800 
 40 H        6.9440    -2.1540     2.9240 H     1 <1>   0.1500 
 41 H        8.3530    -3.8810    -1.4660 H     1 <1>   0.1500 
 42 H        9.0210    -1.3720     1.8920 H     1 <1>   0.1500 
 43 H        6.5450    -4.8450    -2.5200 H     1 <1>   0.0800 
 44 H        5.6780    -6.2750    -1.9730 H     1 <1>   0.0800 
 45 H        7.3670    -6.0650    -1.5320 H     1 <1>   0.0800 
 46 H       11.4560    -1.9980    -1.7060 H     1 <1>   0.0800 
 47 H        9.8450    -2.2950    -2.3470 H     1 <1>   0.0800 
 48 H       10.7160    -3.5790    -1.4840 H     1 <1>   0.0800 
@<TRIPOS>BOND
  1   1   2  2   
  2   2   3  1   
  3   2   4  1   
  4   3   5  1   
  5   4   6  1   
  6   4   7  1   
  7   4  23  1   
  8   5   8  1   
  9   5  24  1   
 10   5  25  1   
 11   6   9  1   
 12   6  26  1   
 13   6  27  1   
 14   7  10  1   
 15   7  28  1   
 16   7  29  1   
 17   8  30  1   
 18   8  31  1   
 19   8  32  1   
 20   9  11  1   
 21   9  33  1   
 22   9  34  1   
 23  10  11  1   
 24  10  35  1   
 25  10  36  1   
 26  11  12  1   
 27  11  37  1   
 28  12  13  1   
 29  12  38  1   
 30  12  39  1   
 31  13  14  ar  
 32  13  15  ar  
 33  14  16  1   
 34  14  17  ar  
 35  15  18  ar  
 36  15  40  1   
 37  16  19  1   
 38  17  20  ar  
 39  17  41  1   
 40  18  20  ar  
 41  18  42  1   
 42  19  43  1   
 43  19  44  1   
 44  19  45  1   
 45  20  21  1   
 46  21  22  1   
 47  22  46  1   
 48  22  47  1   
 49  22  48  1   
@<TRIPOS>SUBSTRUCTURE
  1 ****   9 GROUP 4 **** **** 0

# MOE 2024.06 (io_trps.svl 2023.06)
