@<TRIPOS>MOLECULE
NONAME
41 42 1 0 0 
SMALL
USER_CHARGES


@<TRIPOS>ATOM
  1 N       -0.0980     0.3460    -0.6800 N.4   1 <1>  -0.9590 
  2 C        1.2810    -0.2470    -0.6530 C.3   1 <1>   0.3430 
  3 C       -1.0920    -0.6420    -0.1130 C.3   1 <1>   0.3430 
  4 C       -0.4410     0.8030    -2.0730 C.3   1 <1>   0.2630 
  5 C        2.3650     0.8410    -0.7720 C.3   1 <1>  -0.0800 
  6 C       -2.5240    -0.0700     0.1080 C.3   1 <1>   0.3430 
  7 C        3.8680     0.1700    -0.5970 C.3   1 <1>   0.0580 
  8 C        2.2470     2.0720     0.4130 C.3   1 <1>  -0.1600 
  9 N       -3.4850    -1.0220     0.7840 N.4   1 <1>  -0.9590 
 10 C        5.1550     0.2420     0.3730 C.2   1 <1>  -0.2880 
 11 C        3.6720     1.1870     0.2430 C.3   1 <1>  -0.1600 
 12 C        3.6920     2.0940     1.2180 C.3   1 <1>   0.0580 
 13 C       -3.8040    -2.2430    -0.0330 C.3   1 <1>   0.2630 
 14 C       -4.7700    -0.3150     1.1150 C.3   1 <1>   0.2630 
 15 C        5.0630     1.2490     1.3240 C.2   1 <1>  -0.2880 
 16 H       -0.0400     1.1810    -0.0730 H     1 <1>   0.4500 
 17 H        1.3990    -0.9640    -1.4510 H     1 <1>   0.0800 
 18 H        1.4340    -0.7660     0.2800 H     1 <1>   0.0800 
 19 H       -0.7210    -0.9890     0.8380 H     1 <1>   0.0800 
 20 H       -1.1530    -1.4900    -0.7750 H     1 <1>   0.0800 
 21 H       -0.4430    -0.0320    -2.7550 H     1 <1>   0.0800 
 22 H        0.2830     1.5220    -2.4210 H     1 <1>   0.0800 
 23 H       -1.4110     1.2730    -2.0950 H     1 <1>   0.0800 
 24 H        2.3000     1.2780    -1.7590 H     1 <1>   0.0800 
 25 H       -2.9350     0.2190    -0.8450 H     1 <1>   0.0800 
 26 H       -2.4400     0.8160     0.7160 H     1 <1>   0.0800 
 27 H        4.3150     0.3370    -1.5680 H     1 <1>   0.0800 
 28 H        1.4530     1.8850     1.1190 H     1 <1>   0.0800 
 29 H        2.0570     3.0320    -0.0480 H     1 <1>   0.0800 
 30 H       -3.0930    -1.3380     1.6890 H     1 <1>   0.4500 
 31 H        5.9590    -0.4610     0.2200 H     1 <1>   0.1500 
 32 H        4.1830     1.9350    -0.4960 H     1 <1>   0.0800 
 33 H        3.2280     0.3870     1.0490 H     1 <1>   0.0800 
 34 H        4.0540     3.0970     1.0330 H     1 <1>   0.0800 
 35 H       -4.2480    -1.9630    -0.9760 H     1 <1>   0.0800 
 36 H       -4.5040    -2.8720     0.4950 H     1 <1>   0.0800 
 37 H       -2.9150    -2.8200    -0.2260 H     1 <1>   0.0800 
 38 H       -5.2570     0.0290     0.2160 H     1 <1>   0.0800 
 39 H       -4.5820     0.5350     1.7520 H     1 <1>   0.0800 
 40 H       -5.4430    -0.9810     1.6320 H     1 <1>   0.0800 
 41 H        5.7750     1.5190     2.0880 H     1 <1>   0.1500 
@<TRIPOS>BOND
  1   1   2  1   
  2   1   3  1   
  3   1   4  1   
  4   1  16  1   
  5   2   5  1   
  6   2  17  1   
  7   2  18  1   
  8   3   6  1   
  9   3  19  1   
 10   3  20  1   
 11   4  21  1   
 12   4  22  1   
 13   4  23  1   
 14   5   7  1   
 15   5   8  1   
 16   5  24  1   
 17   6   9  1   
 18   6  25  1   
 19   6  26  1   
 20   7  10  1   
 21   7  11  1   
 22   7  27  1   
 23   8  12  1   
 24   8  28  1   
 25   8  29  1   
 26   9  13  1   
 27   9  14  1   
 28   9  30  1   
 29  10  15  2   
 30  10  31  1   
 31  11  12  1   
 32  11  32  1   
 33  11  33  1   
 34  12  15  1   
 35  12  34  1   
 36  13  35  1   
 37  13  36  1   
 38  13  37  1   
 39  14  38  1   
 40  14  39  1   
 41  14  40  1   
 42  15  41  1   
@<TRIPOS>SUBSTRUCTURE
  1 ****   2 GROUP 4 **** **** 0

# MOE 2024.06 (io_trps.svl 2023.06)
