@<TRIPOS>MOLECULE
NONAME
40 41 1 0 0 
SMALL
USER_CHARGES


@<TRIPOS>ATOM
  1 BR      -2.2120     2.2960    -3.6650 Br    1 <1>  -0.1110 
  2 C       -2.6240     2.1950    -1.7900 C.ar  1 <1>   0.1110 
  3 C       -3.5710     1.2800    -1.3700 C.ar  1 <1>  -0.1500 
  4 C       -1.9670     3.0360    -0.9140 C.ar  1 <1>  -0.1500 
  5 C       -3.8790     1.2080    -0.0170 C.ar  1 <1>  -0.1440 
  6 C       -2.2710     2.9540     0.4330 C.ar  1 <1>  -0.1500 
  7 C       -3.2200     2.0450     0.8770 C.ar  1 <1>  -0.1500 
  8 C       -4.9260     0.2290     0.4790 C.3   1 <1>   0.4870 
  9 N       -6.2710     0.7050     0.0510 N.4   1 <1>  -0.9590 
 10 C       -6.6070     2.0290     0.6530 C.3   1 <1>   0.3430 
 11 C       -7.3190    -0.3200     0.3140 C.3   1 <1>   0.3430 
 12 C       -7.9230     2.5380     0.0670 C.3   1 <1>  -0.1600 
 13 C       -8.6450     0.1440    -0.2830 C.3   1 <1>  -0.1600 
 14 C       -9.0690     1.5270     0.2530 C.3   1 <1>  -0.0190 
 15 C      -10.3480     2.0370    -0.4080 C.2   1 <1>   0.6590 
 16 O      -10.6380     1.7440    -1.5380 O.2   1 <1>  -0.5700 
 17 O      -11.0990     2.8310     0.3390 O.3   1 <1>  -0.4300 
 18 C      -12.3010     3.3800    -0.1510 C.3   1 <1>   0.1200 
 19 C      -12.9090     4.2450     0.9480 C.3   1 <1>  -0.2400 
 20 H       -4.0400     0.6460    -2.1010 H     1 <1>   0.1500 
 21 H       -1.2340     3.7350    -1.2790 H     1 <1>   0.1500 
 22 H       -1.7640     3.5970     1.1340 H     1 <1>   0.1500 
 23 H       -3.4310     2.0000     1.9330 H     1 <1>   0.1500 
 24 H       -4.8810     0.1540     1.5530 H     1 <1>   0.0800 
 25 H       -4.7260    -0.7440     0.0600 H     1 <1>   0.0800 
 26 H       -6.2170     0.8510    -0.9660 H     1 <1>   0.4500 
 27 H       -5.8260     2.7430     0.4420 H     1 <1>   0.0800 
 28 H       -6.6990     1.9340     1.7230 H     1 <1>   0.0800 
 29 H       -7.4320    -0.4650     1.3770 H     1 <1>   0.0800 
 30 H       -7.0380    -1.2630    -0.1300 H     1 <1>   0.0800 
 31 H       -7.7880     2.7520    -0.9800 H     1 <1>   0.0800 
 32 H       -8.1850     3.4650     0.5500 H     1 <1>   0.0800 
 33 H       -9.4090    -0.5770    -0.0480 H     1 <1>   0.0800 
 34 H       -8.5560     0.1720    -1.3560 H     1 <1>   0.0800 
 35 H       -9.2740     1.4310     1.3050 H     1 <1>   0.0800 
 36 H      -12.9620     2.5730    -0.4180 H     1 <1>   0.0800 
 37 H      -12.0780     3.9680    -1.0260 H     1 <1>   0.0800 
 38 H      -13.1190     3.6480     1.8180 H     1 <1>   0.0800 
 39 H      -13.8300     4.6760     0.6010 H     1 <1>   0.0800 
 40 H      -12.2370     5.0420     1.2100 H     1 <1>   0.0800 
@<TRIPOS>BOND
  1   1   2  1   
  2   2   3  ar  
  3   2   4  ar  
  4   3   5  ar  
  5   3  20  1   
  6   4   6  ar  
  7   4  21  1   
  8   5   7  ar  
  9   5   8  1   
 10   6   7  ar  
 11   6  22  1   
 12   7  23  1   
 13   8   9  1   
 14   8  24  1   
 15   8  25  1   
 16   9  10  1   
 17   9  11  1   
 18   9  26  1   
 19  10  12  1   
 20  10  27  1   
 21  10  28  1   
 22  11  13  1   
 23  11  29  1   
 24  11  30  1   
 25  12  14  1   
 26  12  31  1   
 27  12  32  1   
 28  13  14  1   
 29  13  33  1   
 30  13  34  1   
 31  14  15  1   
 32  14  35  1   
 33  15  16  2   
 34  15  17  1   
 35  17  18  1   
 36  18  19  1   
 37  18  36  1   
 38  18  37  1   
 39  19  38  1   
 40  19  39  1   
 41  19  40  1   
@<TRIPOS>SUBSTRUCTURE
  1 ****  10 GROUP 4 **** **** 0

# MOE 2024.06 (io_trps.svl 2023.06)
