@<TRIPOS>MOLECULE
Structure2542
29 30 1 0 0 
SMALL
USER_CHARGES


@<TRIPOS>ATOM
  1 BR       0.3530    -0.5790    -1.1670 Br    1 <1>  -0.1110 
  2 C       -1.4280    -0.9890    -0.5600 C.ar  1 <1>   0.1110 
  3 C       -1.7650    -0.7130     0.7510 C.ar  1 <1>  -0.1500 
  4 C       -2.3230    -1.5500    -1.4520 C.ar  1 <1>  -0.1500 
  5 C       -3.0480    -1.0100     1.1780 C.ar  1 <1>  -0.1500 
  6 C       -3.6040    -1.8430    -1.0150 C.ar  1 <1>  -0.1500 
  7 C       -3.9720    -1.5670     0.3030 C.ar  1 <1>   0.0820 
  8 O       -5.2070    -1.8110     0.8110 O.3   1 <1>  -0.3630 
  9 C       -6.3450    -2.0060     0.0080 C.3   1 <1>   0.2000 
 10 C       -6.7500    -0.6600    -0.6090 C.3   1 <1>  -0.1600 
 11 C       -7.4440    -2.5440     0.9280 C.3   1 <1>  -0.1600 
 12 C       -8.1110    -0.7490    -1.2930 C.3   1 <1>   0.3430 
 13 C       -8.7900    -2.6040     0.2120 C.3   1 <1>   0.3430 
 14 N       -9.1250    -1.2580    -0.3290 N.4   1 <1>  -0.9060 
 15 H       -1.0410    -0.2800     1.4180 H     1 <1>   0.1500 
 16 H       -2.0160    -1.7530    -2.4630 H     1 <1>   0.1500 
 17 H       -3.3380    -0.8090     2.1940 H     1 <1>   0.1500 
 18 H       -4.2860    -2.2880    -1.7120 H     1 <1>   0.1500 
 19 H       -6.1210    -2.7400    -0.7460 H     1 <1>   0.0800 
 20 H       -6.0180    -0.3600    -1.3360 H     1 <1>   0.0800 
 21 H       -6.7850     0.0960     0.1560 H     1 <1>   0.0800 
 22 H       -7.5310    -1.9190     1.8000 H     1 <1>   0.0800 
 23 H       -7.1750    -3.5330     1.2550 H     1 <1>   0.0800 
 24 H       -8.0460    -1.4140    -2.1400 H     1 <1>   0.0800 
 25 H       -8.3990     0.2270    -1.6530 H     1 <1>   0.0800 
 26 H       -9.5530    -2.9270     0.9040 H     1 <1>   0.0800 
 27 H       -8.7390    -3.3200    -0.5930 H     1 <1>   0.0800 
 28 H      -10.0500    -1.2850    -0.7780 H     1 <1>   0.4500 
 29 H       -9.1980    -0.5960     0.4550 H     1 <1>   0.4500 
@<TRIPOS>BOND
  1   1   2  1   
  2   2   3  ar  
  3   2   4  ar  
  4   3   5  ar  
  5   3  15  1   
  6   4   6  ar  
  7   4  16  1   
  8   5   7  ar  
  9   5  17  1   
 10   6   7  ar  
 11   6  18  1   
 12   7   8  1   
 13   8   9  1   
 14   9  10  1   
 15   9  11  1   
 16   9  19  1   
 17  10  12  1   
 18  10  20  1   
 19  10  21  1   
 20  11  13  1   
 21  11  22  1   
 22  11  23  1   
 23  12  14  1   
 24  12  24  1   
 25  12  25  1   
 26  13  14  1   
 27  13  26  1   
 28  13  27  1   
 29  14  28  1   
 30  14  29  1   
@<TRIPOS>SUBSTRUCTURE
  1 ****   7 GROUP 4 **** **** 0

# MOE 2024.06 (io_trps.svl 2023.06)
