@<TRIPOS>MOLECULE
NONAME
55 57 1 0 0 
SMALL
USER_CHARGES


@<TRIPOS>ATOM
  1 O        1.0040     1.1780    -2.8140 O.2   1 <1>  -0.5700 
  2 C        0.7890     1.9340    -1.8990 C.2   1 <1>   0.5690 
  3 N       -0.3920     1.9760    -1.2080 N.am  1 <1>  -0.5470 
  4 C        1.9000     2.8960    -1.4570 C.3   1 <1>   0.1710 
  5 C       -1.5540     1.1850    -1.2460 C.ar  1 <1>   0.1170 
  6 N        2.8650     2.3350    -0.4620 N.3   1 <1>  -0.8100 
  7 C       -2.4540     1.2990    -0.1810 C.ar  1 <1>   0.0820 
  8 C       -1.8510     0.3130    -2.2870 C.ar  1 <1>  -0.1500 
  9 C        3.9560     3.2850    -0.1400 C.3   1 <1>   0.1100 
 10 C        2.2350     1.7930     0.7680 C.3   1 <1>   0.1100 
 11 O       -2.1270     2.1720     0.8220 O.3   1 <1>  -0.3630 
 12 C       -3.6210     0.5400    -0.1710 C.ar  1 <1>  -0.1500 
 13 C       -3.0130    -0.4380    -2.2730 C.ar  1 <1>  -0.1500 
 14 C        4.9910     2.6830     0.8430 C.3   1 <1>   0.3430 
 15 C        3.2710     1.1260     1.7070 C.3   1 <1>   0.3430 
 16 C       -3.0520     2.4760     1.8460 C.3   1 <1>   0.0400 
 17 C       -3.8970    -0.3250    -1.2160 C.ar  1 <1>  -0.1500 
 18 N        4.6600     1.2530     1.1600 N.4   1 <1>  -0.9590 
 19 C        5.6970     0.5420     1.9510 C.3   1 <1>   0.4860 
 20 C        7.0290     0.6630     1.2370 C.ar  1 <1>  -0.1430 
 21 C        7.2180     0.0570     0.0040 C.ar  1 <1>  -0.1500 
 22 C        8.0670     1.3910     1.8030 C.ar  1 <1>  -0.1500 
 23 C        8.4200     0.1820    -0.6700 C.ar  1 <1>   0.0820 
 24 C        9.2730     1.5160     1.1350 C.ar  1 <1>  -0.1500 
 25 O        8.5040    -0.4360    -1.8720 O.3   1 <1>  -0.3620 
 26 C        9.4540     0.9170    -0.0990 C.ar  1 <1>  -0.1500 
 27 C        9.6930    -0.4090    -2.6310 C.3   1 <1>   0.0400 
 28 H       -0.4500     2.6590    -0.4530 H     1 <1>   0.3700 
 29 H        1.4470     3.7860    -1.0590 H     1 <1>   0.0800 
 30 H        2.4430     3.1760    -2.3420 H     1 <1>   0.0800 
 31 H       -1.1800     0.2140    -3.1210 H     1 <1>   0.1500 
 32 H        3.5470     4.1860     0.2850 H     1 <1>   0.0800 
 33 H        4.4660     3.5580    -1.0490 H     1 <1>   0.0800 
 34 H        1.5020     1.0490     0.5050 H     1 <1>   0.0800 
 35 H        1.7250     2.5790     1.2980 H     1 <1>   0.0800 
 36 H       -4.3270     0.6030     0.6350 H     1 <1>   0.1500 
 37 H       -3.2270    -1.1090    -3.0870 H     1 <1>   0.1500 
 38 H        5.0090     3.2680     1.7470 H     1 <1>   0.0800 
 39 H        5.9690     2.7450     0.3930 H     1 <1>   0.0800 
 40 H        3.0160     0.0850     1.8170 H     1 <1>   0.0800 
 41 H        3.2120     1.5840     2.6810 H     1 <1>   0.0800 
 42 H       -2.6190     3.2300     2.4780 H     1 <1>   0.0800 
 43 H       -3.2450     1.5860     2.4190 H     1 <1>   0.0800 
 44 H       -3.9560     2.8500     1.4000 H     1 <1>   0.0800 
 45 H       -4.8000    -0.9110    -1.2070 H     1 <1>   0.1500 
 46 H        4.6060     0.8190     0.2250 H     1 <1>   0.4500 
 47 H        5.4390    -0.5000     2.0490 H     1 <1>   0.0800 
 48 H        5.7720     0.9720     2.9360 H     1 <1>   0.0800 
 49 H        6.4410    -0.5250    -0.4610 H     1 <1>   0.1500 
 50 H        7.9550     1.8650     2.7630 H     1 <1>   0.1500 
 51 H       10.0780     2.0800     1.5770 H     1 <1>   0.1500 
 52 H       10.3990     1.0300    -0.5960 H     1 <1>   0.1500 
 53 H        9.5280    -0.9740    -3.5310 H     1 <1>   0.0800 
 54 H       10.4840    -0.8590    -2.0570 H     1 <1>   0.0800 
 55 H        9.9280     0.6110    -2.8790 H     1 <1>   0.0800 
@<TRIPOS>BOND
  1   1   2  2   
  2   2   3  am  
  3   2   4  1   
  4   3   5  1   
  5   3  28  1   
  6   4   6  1   
  7   4  29  1   
  8   4  30  1   
  9   5   7  ar  
 10   5   8  ar  
 11   6   9  1   
 12   6  10  1   
 13   7  11  1   
 14   7  12  ar  
 15   8  13  ar  
 16   8  31  1   
 17   9  14  1   
 18   9  32  1   
 19   9  33  1   
 20  10  15  1   
 21  10  34  1   
 22  10  35  1   
 23  11  16  1   
 24  12  17  ar  
 25  12  36  1   
 26  13  17  ar  
 27  13  37  1   
 28  14  18  1   
 29  14  38  1   
 30  14  39  1   
 31  15  18  1   
 32  15  40  1   
 33  15  41  1   
 34  16  42  1   
 35  16  43  1   
 36  16  44  1   
 37  17  45  1   
 38  18  19  1   
 39  18  46  1   
 40  19  20  1   
 41  19  47  1   
 42  19  48  1   
 43  20  21  ar  
 44  20  22  ar  
 45  21  23  ar  
 46  21  49  1   
 47  22  24  ar  
 48  22  50  1   
 49  23  25  1   
 50  23  26  ar  
 51  24  26  ar  
 52  24  51  1   
 53  25  27  1   
 54  26  52  1   
 55  27  53  1   
 56  27  54  1   
 57  27  55  1   
@<TRIPOS>SUBSTRUCTURE
  1 ****   6 GROUP 4 **** **** 0

# MOE 2024.06 (io_trps.svl 2023.06)
