@<TRIPOS>MOLECULE
NONAME
44 45 1 0 0 
SMALL
USER_CHARGES


@<TRIPOS>ATOM
  1 CL       0.6040     1.1450    -2.9870 Cl    1 <1>  -0.1770 
  2 C       -0.0460     2.1650    -1.7280 C.ar  1 <1>   0.1770 
  3 C       -1.2750     2.7670    -1.9100 C.ar  1 <1>  -0.1500 
  4 C        0.6850     2.3520    -0.5720 C.ar  1 <1>  -0.1500 
  5 C       -1.8020     3.5790    -0.9130 C.ar  1 <1>   0.1170 
  6 C        0.1740     3.1610     0.4290 C.ar  1 <1>  -0.1500 
  7 N       -3.0450     4.2270    -1.0200 N.am  1 <1>  -0.5470 
  8 C       -1.0650     3.7760     0.2640 C.ar  1 <1>   0.0830 
  9 C       -4.0920     4.0980    -1.8930 C.2   1 <1>   0.5690 
 10 O       -1.6230     4.5850     1.2170 O.3   1 <1>  -0.3630 
 11 O       -4.0650     3.3890    -2.8690 O.2   1 <1>  -0.5700 
 12 C       -5.3730     4.8860    -1.5890 C.3   1 <1>   0.1710 
 13 C       -0.8900     4.9690     2.3620 C.3   1 <1>   0.0400 
 14 N       -6.3990     4.1290    -0.8090 N.3   1 <1>  -0.8100 
 15 C       -5.9170     3.6210     0.5000 C.3   1 <1>   0.1100 
 16 C       -7.6700     4.8720    -0.6640 C.3   1 <1>   0.1100 
 17 C       -7.0090     2.8270     1.2600 C.3   1 <1>   0.3430 
 18 C       -8.7700     4.0100     0.0070 C.3   1 <1>   0.3430 
 19 N       -8.2390     2.6650     0.4170 N.4   1 <1>  -0.9590 
 20 C       -9.2400     1.7520     1.0200 C.3   1 <1>   0.3430 
 21 C      -10.2570     1.3350    -0.0350 C.3   1 <1>  -0.2400 
 22 H       -1.8020     2.5950    -2.8290 H     1 <1>   0.1500 
 23 H        1.6390     1.8680    -0.4610 H     1 <1>   0.1500 
 24 H        0.7560     3.2930     1.3220 H     1 <1>   0.1500 
 25 H       -3.1860     4.8700    -0.2400 H     1 <1>   0.3700 
 26 H       -5.7990     5.1680    -2.5360 H     1 <1>   0.0800 
 27 H       -5.1130     5.7890    -1.0670 H     1 <1>   0.0800 
 28 H       -1.4920     5.6520     2.9340 H     1 <1>   0.0800 
 29 H        0.0170     5.4570     2.0510 H     1 <1>   0.0800 
 30 H       -0.6740     4.0950     2.9510 H     1 <1>   0.0800 
 31 H       -5.5800     4.4390     1.1150 H     1 <1>   0.0800 
 32 H       -5.0780     2.9640     0.3420 H     1 <1>   0.0800 
 33 H       -8.0190     5.1790    -1.6360 H     1 <1>   0.0800 
 34 H       -7.5100     5.7630    -0.0810 H     1 <1>   0.0800 
 35 H       -7.2550     3.3450     2.1720 H     1 <1>   0.0800 
 36 H       -6.6130     1.8610     1.5260 H     1 <1>   0.0800 
 37 H       -9.5800     3.8850    -0.6920 H     1 <1>   0.0800 
 38 H       -9.1570     4.5330     0.8650 H     1 <1>   0.0800 
 39 H       -7.8790     2.2610    -0.4630 H     1 <1>   0.4500 
 40 H       -9.7370     2.2360     1.8460 H     1 <1>   0.0800 
 41 H       -8.7440     0.8700     1.3930 H     1 <1>   0.0800 
 42 H      -10.8490     2.1690    -0.3630 H     1 <1>   0.0800 
 43 H      -10.9260     0.6080     0.3910 H     1 <1>   0.0800 
 44 H       -9.7680     0.8810    -0.8780 H     1 <1>   0.0800 
@<TRIPOS>BOND
  1   1   2  1   
  2   2   3  ar  
  3   2   4  ar  
  4   3   5  ar  
  5   3  22  1   
  6   4   6  ar  
  7   4  23  1   
  8   5   7  1   
  9   5   8  ar  
 10   6   8  ar  
 11   6  24  1   
 12   7   9  am  
 13   7  25  1   
 14   8  10  1   
 15   9  11  2   
 16   9  12  1   
 17  10  13  1   
 18  12  14  1   
 19  12  26  1   
 20  12  27  1   
 21  13  28  1   
 22  13  29  1   
 23  13  30  1   
 24  14  15  1   
 25  14  16  1   
 26  15  17  1   
 27  15  31  1   
 28  15  32  1   
 29  16  18  1   
 30  16  33  1   
 31  16  34  1   
 32  17  19  1   
 33  17  35  1   
 34  17  36  1   
 35  18  19  1   
 36  18  37  1   
 37  18  38  1   
 38  19  20  1   
 39  19  39  1   
 40  20  21  1   
 41  20  40  1   
 42  20  41  1   
 43  21  42  1   
 44  21  43  1   
 45  21  44  1   
@<TRIPOS>SUBSTRUCTURE
  1 ****   7 GROUP 4 **** **** 0

# MOE 2024.06 (io_trps.svl 2023.06)
