@<TRIPOS>MOLECULE
NONAME
51 53 1 0 0 
SMALL
USER_CHARGES


@<TRIPOS>ATOM
  1 O       -0.3370     0.3900     0.6810 O.2   1 <1>  -0.5700 
  2 C       -0.4840     1.5000     0.2090 C.2   1 <1>   0.5440 
  3 N        0.5160     2.0340    -0.5570 N.am  1 <1>  -0.7300 
  4 C       -1.7040     2.2440     0.4640 C.ar  1 <1>   0.0860 
  5 C        1.7990     1.3710    -0.8740 C.3   1 <1>   0.1400 
  6 C       -2.3800     2.1060     1.6750 C.ar  1 <1>  -0.1500 
  7 C       -2.2580     3.1100    -0.4800 C.ar  1 <1>  -0.1500 
  8 C        2.9500     2.2920    -0.4710 C.3   1 <1>  -0.1600 
  9 C       -3.5510     2.7910     1.9360 C.ar  1 <1>  -0.1500 
 10 C       -3.4310     3.7990    -0.2290 C.ar  1 <1>  -0.1500 
 11 C        4.3080     1.6490    -0.7800 C.3   1 <1>  -0.1600 
 12 C       -4.0930     3.6370     0.9800 C.ar  1 <1>  -0.1430 
 13 C        5.4600     2.5730    -0.3750 C.3   1 <1>  -0.2400 
 14 C       -5.3990     4.3600     1.2520 C.3   1 <1>   0.4860 
 15 N       -6.4770     3.6950     0.4760 N.4   1 <1>  -0.9590 
 16 C       -7.7600     4.4440     0.5450 C.3   1 <1>   0.4860 
 17 C       -6.6890     2.2680     0.8680 C.3   1 <1>   0.3430 
 18 C       -8.8070     3.7640    -0.3200 C.ar  1 <1>  -0.1430 
 19 C       -7.5500     1.5610    -0.1800 C.3   1 <1>  -0.0170 
 20 C       -8.7190     2.4150    -0.6500 C.ar  1 <1>  -0.1430 
 21 C       -9.8820     4.5120    -0.7800 C.ar  1 <1>  -0.1500 
 22 C       -9.7030     1.8330    -1.4320 C.ar  1 <1>  -0.1500 
 23 C      -10.8600     3.9240    -1.5610 C.ar  1 <1>  -0.1500 
 24 C      -10.7710     2.5840    -1.8860 C.ar  1 <1>  -0.1500 
 25 H        0.4450     3.0020    -0.8670 H     1 <1>   0.3700 
 26 H        1.8400     1.1640    -1.9300 H     1 <1>   0.0800 
 27 H        1.8760     0.4350    -0.3430 H     1 <1>   0.0800 
 28 H       -1.9670     1.4440     2.4200 H     1 <1>   0.1500 
 29 H       -1.7650     3.2350    -1.4290 H     1 <1>   0.1500 
 30 H        2.8850     2.4910     0.5850 H     1 <1>   0.0800 
 31 H        2.8690     3.2220    -1.0060 H     1 <1>   0.0800 
 32 H       -4.0300     2.6510     2.8920 H     1 <1>   0.1500 
 33 H       -3.8180     4.4580    -0.9880 H     1 <1>   0.1500 
 34 H        4.3790     1.4360    -1.8330 H     1 <1>   0.0800 
 35 H        4.3970     0.7190    -0.2440 H     1 <1>   0.0800 
 36 H        5.4060     3.5020    -0.9150 H     1 <1>   0.0800 
 37 H        6.4030     2.1040    -0.5960 H     1 <1>   0.0800 
 38 H        5.4220     2.7820     0.6800 H     1 <1>   0.0800 
 39 H       -5.3030     5.3910     0.9520 H     1 <1>   0.0800 
 40 H       -5.6230     4.3290     2.3060 H     1 <1>   0.0800 
 41 H       -6.1960     3.6850    -0.5120 H     1 <1>   0.4500 
 42 H       -7.6170     5.4540     0.1980 H     1 <1>   0.0800 
 43 H       -8.1140     4.4790     1.5630 H     1 <1>   0.0800 
 44 H       -7.1850     2.2260     1.8250 H     1 <1>   0.0800 
 45 H       -5.7450     1.7520     0.9510 H     1 <1>   0.0800 
 46 H       -7.9160     0.6380     0.2350 H     1 <1>   0.0800 
 47 H       -6.9360     1.3110    -1.0280 H     1 <1>   0.0800 
 48 H       -9.9760     5.5570    -0.5390 H     1 <1>   0.1500 
 49 H       -9.6480     0.7900    -1.6970 H     1 <1>   0.1500 
 50 H      -11.6940     4.5060    -1.9170 H     1 <1>   0.1500 
 51 H      -11.5330     2.1260    -2.4940 H     1 <1>   0.1500 
@<TRIPOS>BOND
  1   1   2  2   
  2   2   3  am  
  3   2   4  1   
  4   3   5  1   
  5   3  25  1   
  6   4   6  ar  
  7   4   7  ar  
  8   5   8  1   
  9   5  26  1   
 10   5  27  1   
 11   6   9  ar  
 12   6  28  1   
 13   7  10  ar  
 14   7  29  1   
 15   8  11  1   
 16   8  30  1   
 17   8  31  1   
 18   9  12  ar  
 19   9  32  1   
 20  10  12  ar  
 21  10  33  1   
 22  11  13  1   
 23  11  34  1   
 24  11  35  1   
 25  12  14  1   
 26  13  36  1   
 27  13  37  1   
 28  13  38  1   
 29  14  15  1   
 30  14  39  1   
 31  14  40  1   
 32  15  16  1   
 33  15  17  1   
 34  15  41  1   
 35  16  18  1   
 36  16  42  1   
 37  16  43  1   
 38  17  19  1   
 39  17  44  1   
 40  17  45  1   
 41  18  20  ar  
 42  18  21  ar  
 43  19  20  1   
 44  19  46  1   
 45  19  47  1   
 46  20  22  ar  
 47  21  23  ar  
 48  21  48  1   
 49  22  24  ar  
 50  22  49  1   
 51  23  24  ar  
 52  23  50  1   
 53  24  51  1   
@<TRIPOS>SUBSTRUCTURE
  1 ****  10 GROUP 4 **** **** 0

# MOE 2024.06 (io_trps.svl 2023.06)
