@<TRIPOS>MOLECULE
NONAME
55 57 1 0 0 
SMALL
USER_CHARGES


@<TRIPOS>ATOM
  1 O       -0.1950    -0.8310    -1.8110 O.2   1 <1>  -0.5700 
  2 C        0.1900    -1.8940    -1.3810 C.2   1 <1>   0.5690 
  3 N        1.4530    -2.1600    -0.9430 N.am  1 <1>  -0.2370 
  4 C       -0.6810    -3.1610    -1.3570 C.3   1 <1>   0.2510 
  5 C        2.4130    -1.1810    -0.6120 C.ar  1 <1>   0.1170 
  6 C        1.6110    -3.5050    -0.7720 C.2   1 <1>   0.5690 
  7 N       -1.7260    -3.2320    -0.2930 N.3   1 <1>  -0.8100 
  8 C        0.3550    -4.2660    -1.1060 C.3   1 <1>  -0.0990 
  9 C        2.7640    -0.9380     0.7180 C.ar  1 <1>   0.0830 
 10 C        3.0290    -0.4390    -1.6120 C.ar  1 <1>  -0.1500 
 11 O        2.6210    -4.0720    -0.4400 O.2   1 <1>  -0.5700 
 12 C       -2.6880    -4.3310    -0.5640 C.3   1 <1>   0.1100 
 13 C       -2.4570    -1.9490    -0.1230 C.3   1 <1>   0.1100 
 14 O        2.1580    -1.6380     1.7080 O.3   1 <1>  -0.3630 
 15 C        3.7110     0.0250     1.0300 C.ar  1 <1>  -0.1500 
 16 C        3.9780     0.5180    -1.3000 C.ar  1 <1>  -0.1500 
 17 C       -3.7420    -4.4630     0.5460 C.3   1 <1>   0.1400 
 18 C       -3.5290    -2.0260     0.9780 C.3   1 <1>   0.1400 
 19 C        2.9860    -2.4680     2.4920 C.3   1 <1>   0.0400 
 20 C        4.3210     0.7510     0.0210 C.ar  1 <1>  -0.1500 
 21 N       -4.4520    -3.1690     0.7290 N.am  1 <1>  -0.6600 
 22 C       -5.7940    -3.0330     0.5010 C.2   1 <1>   0.7800 
 23 O       -6.4920    -3.9800     0.1930 O.2   1 <1>  -0.5700 
 24 O       -6.3100    -1.8070     0.6180 O.3   1 <1>  -0.4300 
 25 C       -7.6500    -1.4160     0.4120 C.3   1 <1>   0.2800 
 26 C       -7.6690     0.0900     0.6770 C.3   1 <1>  -0.2400 
 27 C       -8.5680    -2.1180     1.4190 C.3   1 <1>  -0.2400 
 28 C       -8.0620    -1.6790    -1.0410 C.3   1 <1>  -0.2400 
 29 H       -1.1370    -3.2740    -2.3250 H     1 <1>   0.0800 
 30 H        0.5210    -4.8470    -1.9940 H     1 <1>   0.0800 
 31 H        0.0960    -4.9080    -0.2840 H     1 <1>   0.0800 
 32 H        2.7610    -0.6100    -2.6400 H     1 <1>   0.1500 
 33 H       -2.1640    -5.2670    -0.6430 H     1 <1>   0.0800 
 34 H       -3.1940    -4.1530    -1.4980 H     1 <1>   0.0800 
 35 H       -2.9250    -1.6650    -1.0510 H     1 <1>   0.0800 
 36 H       -1.7690    -1.1690     0.1550 H     1 <1>   0.0800 
 37 H        3.9660     0.2140     2.0570 H     1 <1>   0.1500 
 38 H        4.4480     1.0850    -2.0850 H     1 <1>   0.1500 
 39 H       -3.2590    -4.7360     1.4680 H     1 <1>   0.0800 
 40 H       -4.4370    -5.2440     0.2900 H     1 <1>   0.0800 
 41 H       -4.0660    -1.0960     1.0140 H     1 <1>   0.0800 
 42 H       -3.0460    -2.1650     1.9290 H     1 <1>   0.0800 
 43 H        2.3570    -3.0720     3.1220 H     1 <1>   0.0800 
 44 H        3.6310    -1.8570     3.0960 H     1 <1>   0.0800 
 45 H        3.5640    -3.1000     1.8400 H     1 <1>   0.0800 
 46 H        5.0570     1.4980     0.2630 H     1 <1>   0.1500 
 47 H       -7.0080     0.5960    -0.0040 H     1 <1>   0.0800 
 48 H       -7.3590     0.2950     1.6860 H     1 <1>   0.0800 
 49 H       -8.6600     0.4810     0.5400 H     1 <1>   0.0800 
 50 H       -8.2060    -1.9720     2.4210 H     1 <1>   0.0800 
 51 H       -8.6330    -3.1710     1.2170 H     1 <1>   0.0800 
 52 H       -9.5620    -1.7140     1.3530 H     1 <1>   0.0800 
 53 H       -7.3550    -1.2330    -1.7170 H     1 <1>   0.0800 
 54 H       -9.0300    -1.2520    -1.2300 H     1 <1>   0.0800 
 55 H       -8.1280    -2.7320    -1.2410 H     1 <1>   0.0800 
@<TRIPOS>BOND
  1   1   2  2   
  2   2   3  am  
  3   2   4  1   
  4   3   5  1   
  5   3   6  am  
  6   4   7  1   
  7   4   8  1   
  8   4  29  1   
  9   5   9  ar  
 10   5  10  ar  
 11   6   8  1   
 12   6  11  2   
 13   7  12  1   
 14   7  13  1   
 15   8  30  1   
 16   8  31  1   
 17   9  14  1   
 18   9  15  ar  
 19  10  16  ar  
 20  10  32  1   
 21  12  17  1   
 22  12  33  1   
 23  12  34  1   
 24  13  18  1   
 25  13  35  1   
 26  13  36  1   
 27  14  19  1   
 28  15  20  ar  
 29  15  37  1   
 30  16  20  ar  
 31  16  38  1   
 32  17  21  1   
 33  17  39  1   
 34  17  40  1   
 35  18  21  1   
 36  18  41  1   
 37  18  42  1   
 38  19  43  1   
 39  19  44  1   
 40  19  45  1   
 41  20  46  1   
 42  21  22  am  
 43  22  23  2   
 44  22  24  1   
 45  24  25  1   
 46  25  26  1   
 47  25  27  1   
 48  25  28  1   
 49  26  47  1   
 50  26  48  1   
 51  26  49  1   
 52  27  50  1   
 53  27  51  1   
 54  27  52  1   
 55  28  53  1   
 56  28  54  1   
 57  28  55  1   
@<TRIPOS>SUBSTRUCTURE
  1 ****  13 GROUP 4 **** **** 0

# MOE 2024.06 (io_trps.svl 2023.06)
