@<TRIPOS>MOLECULE
NONAME
52 53 1 0 0 
SMALL
USER_CHARGES


@<TRIPOS>ATOM
  1 S        0.1710    -0.2100    -0.9270 S.o2  1 <1>   1.3330 
  2 O        1.5560    -0.5400    -0.6880 O.2   1 <1>  -0.6500 
  3 O       -0.2240     1.1760    -0.9370 O.2   1 <1>  -0.6500 
  4 N       -0.7590    -1.0930     0.2460 N.am  1 <1>  -0.6930 
  5 C       -0.2950    -0.9600    -2.4740 C.3   1 <1>  -0.1350 
  6 C       -0.4360    -2.4180     0.5120 C.ar  1 <1>   0.1990 
  7 C       -2.1010    -0.6220     0.7150 C.3   1 <1>   0.3370 
  8 C       -1.1660    -3.4580    -0.0500 C.ar  1 <1>  -0.1500 
  9 C        0.6160    -2.7290     1.3580 C.ar  1 <1>  -0.1500 
 10 C       -3.2230    -0.7470    -0.3490 C.2   1 <1>   0.5690 
 11 C       -2.0390     0.7580     1.3840 C.3   1 <1>  -0.2400 
 12 C       -0.8770    -4.7810     0.2380 C.ar  1 <1>  -0.1440 
 13 C        0.9170    -4.0450     1.6510 C.ar  1 <1>  -0.1500 
 14 O       -3.1710    -0.0260    -1.3210 O.2   1 <1>  -0.5700 
 15 N       -4.2400    -1.6730    -0.2230 N.am  1 <1>  -0.6600 
 16 C        0.1740    -5.0790     1.0990 C.ar  1 <1>  -0.1430 
 17 C       -1.7160    -5.8790    -0.4020 C.3   1 <1>  -0.0970 
 18 C       -5.1690    -1.9160    -1.3710 C.3   1 <1>   0.1400 
 19 C       -4.4750    -2.5000     1.0050 C.3   1 <1>   0.1400 
 20 C        0.5360    -6.5160     1.4480 C.3   1 <1>  -0.0970 
 21 C       -5.4940    -3.4090    -1.4680 C.3   1 <1>  -0.1600 
 22 C       -5.8940    -3.0780     1.0330 C.3   1 <1>  -0.1600 
 23 C       -6.2140    -3.9330    -0.2090 C.3   1 <1>  -0.0800 
 24 C       -5.8660    -5.4080     0.0260 C.3   1 <1>  -0.2400 
 25 H        0.2790    -0.5300    -3.2700 H     1 <1>   0.0800 
 26 H       -1.3320    -0.7990    -2.6820 H     1 <1>   0.0800 
 27 H       -0.1040    -2.0140    -2.4450 H     1 <1>   0.0800 
 28 H       -2.3540    -1.2850     1.5180 H     1 <1>   0.0800 
 29 H       -1.9690    -3.2230    -0.7230 H     1 <1>   0.1500 
 30 H        1.1990    -1.9300     1.7810 H     1 <1>   0.1500 
 31 H       -2.0300     1.5440     0.6520 H     1 <1>   0.0800 
 32 H       -1.1670     0.8350     2.0070 H     1 <1>   0.0800 
 33 H       -2.9130     0.9000     1.9920 H     1 <1>   0.0800 
 34 H        1.7400    -4.2590     2.3110 H     1 <1>   0.1500 
 35 H       -2.4680    -5.4640    -1.0490 H     1 <1>   0.0800 
 36 H       -2.2060    -6.4590     0.3580 H     1 <1>   0.0800 
 37 H       -1.0890    -6.5260    -0.9880 H     1 <1>   0.0800 
 38 H       -4.7170    -1.5920    -2.2940 H     1 <1>   0.0800 
 39 H       -6.0710    -1.3460    -1.2240 H     1 <1>   0.0800 
 40 H       -4.3420    -1.8920     1.8830 H     1 <1>   0.0800 
 41 H       -3.7620    -3.3060     1.0330 H     1 <1>   0.0800 
 42 H        0.8190    -7.0500     0.5580 H     1 <1>   0.0800 
 43 H       -0.3030    -7.0090     1.9030 H     1 <1>   0.0800 
 44 H        1.3600    -6.5500     2.1370 H     1 <1>   0.0800 
 45 H       -4.5690    -3.9360    -1.6220 H     1 <1>   0.0800 
 46 H       -6.1110    -3.5860    -2.3310 H     1 <1>   0.0800 
 47 H       -6.5860    -2.2550     1.0830 H     1 <1>   0.0800 
 48 H       -6.0310    -3.6560     1.9300 H     1 <1>   0.0800 
 49 H       -7.2770    -3.8700    -0.3770 H     1 <1>   0.0800 
 50 H       -4.8190    -5.5230     0.2440 H     1 <1>   0.0800 
 51 H       -6.1030    -5.9910    -0.8470 H     1 <1>   0.0800 
 52 H       -6.4330    -5.7990     0.8530 H     1 <1>   0.0800 
@<TRIPOS>BOND
  1   1   2  2   
  2   1   3  2   
  3   1   4  am  
  4   1   5  1   
  5   4   6  1   
  6   4   7  1   
  7   5  25  1   
  8   5  26  1   
  9   5  27  1   
 10   6   8  ar  
 11   6   9  ar  
 12   7  10  1   
 13   7  11  1   
 14   7  28  1   
 15   8  12  ar  
 16   8  29  1   
 17   9  13  ar  
 18   9  30  1   
 19  10  14  2   
 20  10  15  am  
 21  11  31  1   
 22  11  32  1   
 23  11  33  1   
 24  12  16  ar  
 25  12  17  1   
 26  13  16  ar  
 27  13  34  1   
 28  15  18  1   
 29  15  19  1   
 30  16  20  1   
 31  17  35  1   
 32  17  36  1   
 33  17  37  1   
 34  18  21  1   
 35  18  38  1   
 36  18  39  1   
 37  19  22  1   
 38  19  40  1   
 39  19  41  1   
 40  20  42  1   
 41  20  43  1   
 42  20  44  1   
 43  21  23  1   
 44  21  45  1   
 45  21  46  1   
 46  22  23  1   
 47  22  47  1   
 48  22  48  1   
 49  23  24  1   
 50  23  49  1   
 51  24  50  1   
 52  24  51  1   
 53  24  52  1   
@<TRIPOS>SUBSTRUCTURE
  1 ****   8 GROUP 4 **** **** 0

# MOE 2024.06 (io_trps.svl 2023.06)
