@<TRIPOS>MOLECULE
NONAME
37 39 1 0 0 
SMALL
USER_CHARGES


@<TRIPOS>ATOM
  1 BR      -1.4710     2.2330    -2.7580 Br    1 <1>  -0.0580 
  2 C       -2.3810     1.2030    -1.4180 C.2   1 <1>   0.0980 
  3 S       -3.8340     0.3830    -1.9380 S.3   1 <1>  -0.0800 
  4 C       -2.0950     0.9940    -0.1220 C.2   1 <1>  -0.1500 
  5 C       -4.0520    -0.2660    -0.3110 C.2   1 <1>  -0.1400 
  6 C       -3.0610     0.1460     0.5110 C.2   1 <1>  -0.1500 
  7 C       -5.2630    -1.1470    -0.0870 C.3   1 <1>   0.5230 
  8 N       -6.4830    -0.3590    -0.4010 N.4   1 <1>  -0.9590 
  9 C       -6.6450     0.8190     0.5330 C.3   1 <1>   0.3430 
 10 C       -7.7240    -1.2160    -0.4170 C.3   1 <1>   0.3430 
 11 C       -7.9140     1.6410     0.2280 C.3   1 <1>   0.2090 
 12 C       -8.9980    -0.4030    -0.7260 C.3   1 <1>   0.2090 
 13 N       -9.1240     0.7660     0.1960 N.pl3 1 <1>  -0.8380 
 14 C      -10.3470     1.4480     0.1250 C.ar  1 <1>   0.1000 
 15 C      -10.7820     2.1890    -0.9820 C.ar  1 <1>   0.1900 
 16 C      -11.2020     1.3980     1.2190 C.ar  1 <1>  -0.1500 
 17 F      -10.0150     2.2710    -2.0450 F     1 <1>  -0.1900 
 18 C      -11.9950     2.8480    -1.0140 C.ar  1 <1>  -0.1500 
 19 C      -12.4230     2.0520     1.2060 C.ar  1 <1>  -0.1500 
 20 C      -12.8230     2.7770     0.0940 C.ar  1 <1>  -0.1500 
 21 H       -1.2490     1.3980     0.4080 H     1 <1>   0.1500 
 22 H       -2.9500    -0.1070     1.5530 H     1 <1>   0.1500 
 23 H       -5.2890    -1.4860     0.9360 H     1 <1>   0.0800 
 24 H       -5.1990    -2.0060    -0.7350 H     1 <1>   0.0800 
 25 H       -6.3460     0.0280    -1.3440 H     1 <1>   0.4500 
 26 H       -5.7860     1.4660     0.4620 H     1 <1>   0.0800 
 27 H       -6.7130     0.4680     1.5490 H     1 <1>   0.0800 
 28 H       -7.8540    -1.6800     0.5460 H     1 <1>   0.0800 
 29 H       -7.6230    -1.9980    -1.1520 H     1 <1>   0.0800 
 30 H       -7.8010     2.1460    -0.7160 H     1 <1>   0.0800 
 31 H       -8.0430     2.3920     0.9900 H     1 <1>   0.0800 
 32 H       -9.8620    -1.0360    -0.6120 H     1 <1>   0.0800 
 33 H       -8.9720    -0.0620    -1.7470 H     1 <1>   0.0800 
 34 H      -10.9020     0.8390     2.0870 H     1 <1>   0.1500 
 35 H      -12.2860     3.4040    -1.8870 H     1 <1>   0.1500 
 36 H      -13.0680     1.9980     2.0670 H     1 <1>   0.1500 
 37 H      -13.7730     3.2830     0.0920 H     1 <1>   0.1500 
@<TRIPOS>BOND
  1   1   2  1   
  2   2   3  1   
  3   2   4  2   
  4   3   5  1   
  5   4   6  1   
  6   4  21  1   
  7   5   6  2   
  8   5   7  1   
  9   6  22  1   
 10   7   8  1   
 11   7  23  1   
 12   7  24  1   
 13   8   9  1   
 14   8  10  1   
 15   8  25  1   
 16   9  11  1   
 17   9  26  1   
 18   9  27  1   
 19  10  12  1   
 20  10  28  1   
 21  10  29  1   
 22  11  13  1   
 23  11  30  1   
 24  11  31  1   
 25  12  13  1   
 26  12  32  1   
 27  12  33  1   
 28  13  14  1   
 29  14  15  ar  
 30  14  16  ar  
 31  15  17  1   
 32  15  18  ar  
 33  16  19  ar  
 34  16  34  1   
 35  18  20  ar  
 36  18  35  1   
 37  19  20  ar  
 38  19  36  1   
 39  20  37  1   
@<TRIPOS>SUBSTRUCTURE
  1 ****  11 GROUP 4 **** **** 0

# MOE 2024.06 (io_trps.svl 2023.06)
