@<TRIPOS>MOLECULE
NONAME
45 47 1 0 0 
SMALL
USER_CHARGES


@<TRIPOS>ATOM
  1 S       -0.4380    -0.1580    -0.7630 S.o2  1 <1>   1.3330 
  2 O       -0.5110     1.0580    -1.5320 O.2   1 <1>  -0.6500 
  3 O        0.2090    -1.3380    -1.2750 O.2   1 <1>  -0.6500 
  4 N       -2.0360    -0.6750    -0.4140 N.am  1 <1>  -0.7570 
  5 C        0.2060     0.1830     0.8600 C.3   1 <1>  -0.1350 
  6 C       -3.1600     0.0490    -0.0270 C.ar  1 <1>   0.1990 
  7 C       -4.3320    -0.6400     0.2460 C.ar  1 <1>  -0.1500 
  8 C       -3.1630     1.4330     0.1030 C.ar  1 <1>  -0.1500 
  9 C       -5.5080    -0.0040     0.6490 C.ar  1 <1>   0.0860 
 10 C       -4.3080     2.0970     0.4990 C.ar  1 <1>  -0.1500 
 11 C       -6.7020    -0.7750     0.9220 C.2   1 <1>   0.3030 
 12 C       -5.4630     1.3890     0.7690 C.ar  1 <1>  -0.1500 
 13 N       -6.7830    -2.0440     0.9710 N.2   1 <1>  -0.5120 
 14 C       -8.0310    -0.0990     1.1930 C.3   1 <1>  -0.0990 
 15 N       -8.0780    -2.4310     1.2250 N.am  1 <1>  -0.2980 
 16 C       -8.9960    -1.2780     1.2690 C.3   1 <1>   0.4000 
 17 C       -8.5410    -3.7130     1.4510 C.2   1 <1>   0.5690 
 18 C       -9.9500    -1.2780     0.0800 C.2   1 <1>  -0.1400 
 19 O       -9.6340    -3.9250     1.9320 O.2   1 <1>  -0.5700 
 20 C       -7.6350    -4.8980     1.1250 C.3   1 <1>   0.1810 
 21 S      -11.2030    -0.0430     0.0670 S.3   1 <1>  -0.0800 
 22 C      -10.0500    -2.0550    -1.0170 C.2   1 <1>  -0.1500 
 23 O       -7.6590    -5.2110    -0.2460 O.3   1 <1>  -0.5600 
 24 C      -11.8330    -0.6320    -1.4610 C.2   1 <1>  -0.1100 
 25 C      -11.1200    -1.6870    -1.8930 C.2   1 <1>  -0.1500 
 26 C       -6.8230    -6.2630    -0.6000 C.3   1 <1>   0.0400 
 27 H       -2.1470    -1.6510    -0.6750 H     1 <1>   0.4200 
 28 H        1.2310     0.4880     0.7900 H     1 <1>   0.0800 
 29 H        0.1490    -0.6940     1.4730 H     1 <1>   0.0800 
 30 H       -0.3560     0.9690     1.3250 H     1 <1>   0.0800 
 31 H       -4.3370    -1.7100     0.1440 H     1 <1>   0.1500 
 32 H       -2.2810     2.0070    -0.1120 H     1 <1>   0.1500 
 33 H       -4.2970     3.1700     0.5930 H     1 <1>   0.1500 
 34 H       -6.3350     1.9370     1.0760 H     1 <1>   0.1500 
 35 H       -8.2930     0.5770     0.4000 H     1 <1>   0.0800 
 36 H       -8.0090     0.4220     2.1310 H     1 <1>   0.0800 
 37 H       -9.5430    -1.2850     2.1960 H     1 <1>   0.0800 
 38 H       -7.9710    -5.7580     1.6750 H     1 <1>   0.0800 
 39 H       -6.6240    -4.6640     1.4070 H     1 <1>   0.0800 
 40 H       -9.4070    -2.8880    -1.2520 H     1 <1>   0.1500 
 41 H      -12.6830    -0.1210    -1.8780 H     1 <1>   0.1500 
 42 H      -11.2980    -2.2370    -2.8010 H     1 <1>   0.1500 
 43 H       -6.9180    -6.4240    -1.6590 H     1 <1>   0.0800 
 44 H       -7.1240    -7.1500    -0.0700 H     1 <1>   0.0800 
 45 H       -5.8060    -6.0030    -0.3630 H     1 <1>   0.0800 
@<TRIPOS>BOND
  1   1   2  2   
  2   1   3  2   
  3   1   4  am  
  4   1   5  1   
  5   4   6  1   
  6   4  27  1   
  7   5  28  1   
  8   5  29  1   
  9   5  30  1   
 10   6   7  ar  
 11   6   8  ar  
 12   7   9  ar  
 13   7  31  1   
 14   8  10  ar  
 15   8  32  1   
 16   9  11  1   
 17   9  12  ar  
 18  10  12  ar  
 19  10  33  1   
 20  11  13  2   
 21  11  14  1   
 22  12  34  1   
 23  13  15  1   
 24  14  16  1   
 25  14  35  1   
 26  14  36  1   
 27  15  16  1   
 28  15  17  am  
 29  16  18  1   
 30  16  37  1   
 31  17  19  2   
 32  17  20  1   
 33  18  21  1   
 34  18  22  2   
 35  20  23  1   
 36  20  38  1   
 37  20  39  1   
 38  21  24  1   
 39  22  25  1   
 40  22  40  1   
 41  23  26  1   
 42  24  25  2   
 43  24  41  1   
 44  25  42  1   
 45  26  43  1   
 46  26  44  1   
 47  26  45  1   
@<TRIPOS>SUBSTRUCTURE
  1 ****  11 GROUP 4 **** **** 0

# MOE 2024.06 (io_trps.svl 2023.06)
