@<TRIPOS>MOLECULE
NONAME
40 40 1 0 0 
SMALL
USER_CHARGES


@<TRIPOS>ATOM
  1 O       -0.1180    -1.0080     1.5010 O.co2 1 <1>  -0.9000 
  2 C       -0.9060    -1.7320     0.8760 C.2   1 <1>   1.0500 
  3 O       -0.4910    -2.4590    -0.0420 O.co2 1 <1>  -0.9000 
  4 C       -2.2970    -1.7350     1.2060 C.2   1 <1>  -0.4000 
  5 C       -3.2610    -2.4770     0.6100 C.2   1 <1>  -0.1360 
  6 C       -4.6700    -2.5390     0.8740 C.2   1 <1>   0.6160 
  7 O       -5.2080    -1.8790     1.7440 O.2   1 <1>  -0.5700 
  8 N       -5.4520    -3.3600     0.1160 N.am  1 <1>  -0.7300 
  9 C       -6.8960    -3.5240     0.3180 C.3   1 <1>   0.2200 
 10 C       -7.3360    -4.8960    -0.1790 C.3   1 <1>  -0.1600 
 11 C       -7.6300    -2.4360    -0.4570 C.3   1 <1>  -0.1600 
 12 C       -8.8510    -5.0950    -0.0300 C.3   1 <1>   0.5030 
 13 C       -9.1490    -2.5550    -0.3070 C.3   1 <1>   0.5030 
 14 N       -9.6020    -3.9360    -0.5470 N.4   1 <1>  -0.9060 
 15 C       -9.2550    -5.3730     1.4210 C.3   1 <1>  -0.2400 
 16 C       -9.2950    -6.2830    -0.8810 C.3   1 <1>  -0.2400 
 17 C       -9.6310    -2.0720     1.0640 C.3   1 <1>  -0.2400 
 18 C       -9.8360    -1.7070    -1.3760 C.3   1 <1>  -0.2400 
 19 H       -2.5280    -1.0650     2.0080 H     1 <1>   0.1500 
 20 H       -2.9480    -3.1270    -0.1870 H     1 <1>   0.1500 
 21 H       -5.0010    -3.8870    -0.6330 H     1 <1>   0.3700 
 22 H       -7.1000    -3.4310     1.3720 H     1 <1>   0.0800 
 23 H       -6.8190    -5.6580     0.3770 H     1 <1>   0.0800 
 24 H       -7.0580    -5.0010    -1.2130 H     1 <1>   0.0800 
 25 H       -7.3580    -2.4970    -1.4960 H     1 <1>   0.0800 
 26 H       -7.3120    -1.4720    -0.0970 H     1 <1>   0.0800 
 27 H      -10.5640    -4.0110    -0.2140 H     1 <1>   0.4500 
 28 H       -9.6410    -4.0490    -1.5610 H     1 <1>   0.4500 
 29 H       -8.8570    -6.3240     1.7300 H     1 <1>   0.0800 
 30 H      -10.3240    -5.4200     1.5280 H     1 <1>   0.0800 
 31 H       -8.8630    -4.6460     2.1040 H     1 <1>   0.0800 
 32 H       -9.0610    -6.1320    -1.9200 H     1 <1>   0.0800 
 33 H      -10.3520    -6.4620    -0.7800 H     1 <1>   0.0800 
 34 H       -8.7830    -7.1740    -0.5600 H     1 <1>   0.0800 
 35 H       -9.4710    -1.0110     1.1480 H     1 <1>   0.0800 
 36 H       -9.0890    -2.5190     1.8730 H     1 <1>   0.0800 
 37 H      -10.6830    -2.2530     1.1970 H     1 <1>   0.0800 
 38 H       -9.5520    -2.0170    -2.3660 H     1 <1>   0.0800 
 39 H       -9.5460    -0.6760    -1.2660 H     1 <1>   0.0800 
 40 H      -10.9070    -1.7540    -1.2840 H     1 <1>   0.0800 
@<TRIPOS>BOND
  1   1   2  ar  
  2   2   3  ar  
  3   2   4  1   
  4   4   5  2   
  5   4  19  1   
  6   5   6  1   
  7   5  20  1   
  8   6   7  2   
  9   6   8  am  
 10   8   9  1   
 11   8  21  1   
 12   9  10  1   
 13   9  11  1   
 14   9  22  1   
 15  10  12  1   
 16  10  23  1   
 17  10  24  1   
 18  11  13  1   
 19  11  25  1   
 20  11  26  1   
 21  12  14  1   
 22  12  15  1   
 23  12  16  1   
 24  13  14  1   
 25  13  17  1   
 26  13  18  1   
 27  14  27  1   
 28  14  28  1   
 29  15  29  1   
 30  15  30  1   
 31  15  31  1   
 32  16  32  1   
 33  16  33  1   
 34  16  34  1   
 35  17  35  1   
 36  17  36  1   
 37  17  37  1   
 38  18  38  1   
 39  18  39  1   
 40  18  40  1   
@<TRIPOS>SUBSTRUCTURE
  1 ****   8 GROUP 4 **** **** 0

# MOE 2024.06 (io_trps.svl 2023.06)
