@<TRIPOS>MOLECULE
NONAME
43 44 1 0 0 
SMALL
USER_CHARGES


@<TRIPOS>ATOM
  1 O       -3.3800     0.9530     1.2080 O.co2 1 <1>  -0.9000 
  2 C       -3.2950     2.1500     1.4920 C.2   1 <1>   0.9060 
  3 O       -4.2220     2.7510     2.0520 O.co2 1 <1>  -0.9000 
  4 C       -2.0550     2.9590     1.1230 C.3   1 <1>  -0.1860 
  5 C       -2.3570     4.1390     0.1450 C.3   1 <1>  -0.0190 
  6 C       -0.8650     2.1180     0.6190 C.3   1 <1>  -0.1600 
  7 C       -3.4510     3.8530    -0.9030 C.2   1 <1>   0.5690 
  8 C       -1.0570     4.7040    -0.4970 C.3   1 <1>  -0.1600 
  9 C        0.4310     2.9510     0.5530 C.3   1 <1>  -0.1600 
 10 O       -3.1830     3.7620    -2.0820 O.2   1 <1>  -0.5700 
 11 N       -4.7280     3.7340    -0.4770 N.am  1 <1>  -0.7300 
 12 C        0.1820     4.4600     0.3720 C.3   1 <1>  -0.1600 
 13 C       -5.8030     3.1350    -1.2750 C.3   1 <1>   0.2840 
 14 C       -7.1460     3.4430    -0.6330 C.ar  1 <1>  -0.1430 
 15 C       -8.1050     4.1840    -1.3070 C.ar  1 <1>  -0.1500 
 16 C       -7.4260     2.9740     0.6410 C.ar  1 <1>  -0.1500 
 17 C       -9.3290     4.4480    -0.7160 C.ar  1 <1>  -0.1500 
 18 C       -8.6490     3.2400     1.2320 C.ar  1 <1>  -0.1500 
 19 C       -9.6090     3.9780     0.5580 C.ar  1 <1>  -0.1430 
 20 C      -10.9500     4.2680     1.2100 C.3   1 <1>  -0.0170 
 21 C      -11.9540     3.1610     0.8880 C.3   1 <1>  -0.2400 
 22 H       -1.7470     3.3900     2.0570 H     1 <1>   0.0800 
 23 H       -2.7620     4.9220     0.7610 H     1 <1>   0.0800 
 24 H       -1.1100     1.7410    -0.3600 H     1 <1>   0.0800 
 25 H       -0.7190     1.2670     1.2620 H     1 <1>   0.0800 
 26 H       -1.1820     5.7550    -0.6870 H     1 <1>   0.0800 
 27 H       -0.8770     4.2250    -1.4440 H     1 <1>   0.0800 
 28 H        1.0280     2.5840    -0.2640 H     1 <1>   0.0800 
 29 H        0.9950     2.8030     1.4580 H     1 <1>   0.0800 
 30 H       -4.8440     3.5590     0.5430 H     1 <1>   0.3700 
 31 H        0.0290     4.9190     1.3340 H     1 <1>   0.0800 
 32 H        1.0450     4.9180    -0.0780 H     1 <1>   0.0800 
 33 H       -5.6540     2.0690    -1.3070 H     1 <1>   0.0800 
 34 H       -5.7600     3.5190    -2.2790 H     1 <1>   0.0800 
 35 H       -7.8980     4.5580    -2.2930 H     1 <1>   0.1500 
 36 H       -6.6830     2.4040     1.1800 H     1 <1>   0.1500 
 37 H      -10.0620     5.0220    -1.2520 H     1 <1>   0.1500 
 38 H       -8.8400     2.8670     2.2220 H     1 <1>   0.1500 
 39 H      -11.3260     5.2130     0.8600 H     1 <1>   0.0800 
 40 H      -10.8220     4.3430     2.2760 H     1 <1>   0.0800 
 41 H      -12.0980     3.0900    -0.1760 H     1 <1>   0.0800 
 42 H      -12.9000     3.3690     1.3540 H     1 <1>   0.0800 
 43 H      -11.5890     2.2150     1.2490 H     1 <1>   0.0800 
@<TRIPOS>BOND
  1   1   2  ar  
  2   2   3  ar  
  3   2   4  1   
  4   4   5  1   
  5   4   6  1   
  6   4  22  1   
  7   5   7  1   
  8   5   8  1   
  9   5  23  1   
 10   6   9  1   
 11   6  24  1   
 12   6  25  1   
 13   7  10  2   
 14   7  11  am  
 15   8  12  1   
 16   8  26  1   
 17   8  27  1   
 18   9  12  1   
 19   9  28  1   
 20   9  29  1   
 21  11  13  1   
 22  11  30  1   
 23  12  31  1   
 24  12  32  1   
 25  13  14  1   
 26  13  33  1   
 27  13  34  1   
 28  14  15  ar  
 29  14  16  ar  
 30  15  17  ar  
 31  15  35  1   
 32  16  18  ar  
 33  16  36  1   
 34  17  19  ar  
 35  17  37  1   
 36  18  19  ar  
 37  18  38  1   
 38  19  20  1   
 39  20  21  1   
 40  20  39  1   
 41  20  40  1   
 42  21  41  1   
 43  21  42  1   
 44  21  43  1   
@<TRIPOS>SUBSTRUCTURE
  1 ****  11 GROUP 4 **** **** 0

# MOE 2024.06 (io_trps.svl 2023.06)
