@<TRIPOS>MOLECULE
NONAME
53 55 1 0 0 
SMALL
USER_CHARGES


@<TRIPOS>ATOM
  1 N        0.2070    -0.0590    -0.0140 N.4   1 <1>  -0.9590 
  2 C        1.3380    -0.9600    -0.4250 C.3   1 <1>   0.4230 
  3 C       -1.0610    -0.8030     0.3060 C.3   1 <1>   0.3430 
  4 C       -0.1010     1.0100    -1.0280 C.3   1 <1>   0.3430 
  5 C        1.6270    -2.0030     0.6690 C.3   1 <1>  -0.1600 
  6 C        2.6120    -0.1430    -0.6970 C.3   1 <1>  -0.1600 
  7 C       -2.0950     0.1480     0.9130 C.3   1 <1>  -0.1600 
  8 C       -1.1090     2.0080    -0.4570 C.3   1 <1>  -0.1600 
  9 C        2.8460    -2.8650     0.3380 C.3   1 <1>   0.3430 
 10 C        3.8170    -1.0330    -1.0040 C.3   1 <1>   0.3430 
 11 C       -2.4060     1.3190    -0.0240 C.3   1 <1>  -0.1600 
 12 N        4.0370    -2.0030     0.1060 N.4   1 <1>  -0.9590 
 13 C        5.2400    -2.8590    -0.1390 C.3   1 <1>   0.3430 
 14 C        6.5190    -2.0350     0.0090 C.3   1 <1>  -0.1600 
 15 C        7.7660    -2.9180    -0.1110 C.3   1 <1>  -0.0170 
 16 C        9.0070    -2.0560     0.0290 C.ar  1 <1>  -0.1430 
 17 C        9.5900    -1.4830    -1.0910 C.ar  1 <1>  -0.1500 
 18 C        9.5640    -1.8280     1.2780 C.ar  1 <1>  -0.1500 
 19 C       10.7140    -0.6850    -0.9620 C.ar  1 <1>  -0.1500 
 20 C       10.6880    -1.0310     1.4070 C.ar  1 <1>  -0.1500 
 21 C       11.2630    -0.4580     0.2870 C.ar  1 <1>  -0.1500 
 22 H        0.4700     0.4360     0.8480 H     1 <1>   0.4500 
 23 H        1.0610    -1.4780    -1.3310 H     1 <1>   0.0800 
 24 H       -0.8730    -1.5890     1.0180 H     1 <1>   0.0800 
 25 H       -1.4650    -1.2460    -0.5900 H     1 <1>   0.0800 
 26 H       -0.5060     0.5640    -1.9220 H     1 <1>   0.0800 
 27 H        0.7910     1.5510    -1.2940 H     1 <1>   0.0800 
 28 H        0.7960    -2.6760     0.7710 H     1 <1>   0.0800 
 29 H        1.7890    -1.5200     1.6170 H     1 <1>   0.0800 
 30 H        2.8480     0.4810     0.1480 H     1 <1>   0.0800 
 31 H        2.4750     0.4900    -1.5540 H     1 <1>   0.0800 
 32 H       -1.7370     0.5170     1.8580 H     1 <1>   0.0800 
 33 H       -3.0030    -0.3980     1.1070 H     1 <1>   0.0800 
 34 H       -1.3370     2.7460    -1.2070 H     1 <1>   0.0800 
 35 H       -0.6710     2.5280     0.3780 H     1 <1>   0.0800 
 36 H        2.6480    -3.4560    -0.5420 H     1 <1>   0.0800 
 37 H        3.0380    -3.5420     1.1570 H     1 <1>   0.0800 
 38 H        4.6910    -0.4130    -1.1320 H     1 <1>   0.0800 
 39 H        3.6520    -1.5670    -1.9270 H     1 <1>   0.0800 
 40 H       -3.0500     2.0260     0.4730 H     1 <1>   0.0800 
 41 H       -2.9300     0.9560    -0.8930 H     1 <1>   0.0800 
 42 H        4.2360    -1.4760     0.9700 H     1 <1>   0.4500 
 43 H        5.1970    -3.2970    -1.1240 H     1 <1>   0.0800 
 44 H        5.2660    -3.6610     0.5830 H     1 <1>   0.0800 
 45 H        6.5380    -1.5550     0.9720 H     1 <1>   0.0800 
 46 H        6.5730    -1.2790    -0.7540 H     1 <1>   0.0800 
 47 H        7.7850    -3.4170    -1.0650 H     1 <1>   0.0800 
 48 H        7.7690    -3.6740     0.6560 H     1 <1>   0.0800 
 49 H        9.1790    -1.6510    -2.0700 H     1 <1>   0.1500 
 50 H        9.1320    -2.2680     2.1600 H     1 <1>   0.1500 
 51 H       11.1640    -0.2420    -1.8340 H     1 <1>   0.1500 
 52 H       11.1170    -0.8570     2.3790 H     1 <1>   0.1500 
 53 H       12.1370     0.1620     0.3870 H     1 <1>   0.1500 
@<TRIPOS>BOND
  1   1   2  1   
  2   1   3  1   
  3   1   4  1   
  4   1  22  1   
  5   2   5  1   
  6   2   6  1   
  7   2  23  1   
  8   3   7  1   
  9   3  24  1   
 10   3  25  1   
 11   4   8  1   
 12   4  26  1   
 13   4  27  1   
 14   5   9  1   
 15   5  28  1   
 16   5  29  1   
 17   6  10  1   
 18   6  30  1   
 19   6  31  1   
 20   7  11  1   
 21   7  32  1   
 22   7  33  1   
 23   8  11  1   
 24   8  34  1   
 25   8  35  1   
 26   9  12  1   
 27   9  36  1   
 28   9  37  1   
 29  10  12  1   
 30  10  38  1   
 31  10  39  1   
 32  11  40  1   
 33  11  41  1   
 34  12  13  1   
 35  12  42  1   
 36  13  14  1   
 37  13  43  1   
 38  13  44  1   
 39  14  15  1   
 40  14  45  1   
 41  14  46  1   
 42  15  16  1   
 43  15  47  1   
 44  15  48  1   
 45  16  17  ar  
 46  16  18  ar  
 47  17  19  ar  
 48  17  49  1   
 49  18  20  ar  
 50  18  50  1   
 51  19  21  ar  
 52  19  51  1   
 53  20  21  ar  
 54  20  52  1   
 55  21  53  1   
@<TRIPOS>SUBSTRUCTURE
  1 ****  12 GROUP 4 **** **** 0

# MOE 2024.06 (io_trps.svl 2023.06)
