@<TRIPOS>MOLECULE
NONAME
54 57 1 0 0 
SMALL
USER_CHARGES


@<TRIPOS>ATOM
  1 S        0.2520    -0.5140     1.5480 S.o2  1 <1>   1.3330 
  2 O       -0.4890     0.6470     1.9840 O.2   1 <1>  -0.6500 
  3 O        0.9740    -1.3160     2.5080 O.2   1 <1>  -0.6500 
  4 N        1.3490    -0.0140     0.3580 N.am  1 <1>  -0.8490 
  5 C       -0.8640    -1.5580     0.6360 C.3   1 <1>  -0.1350 
  6 C        2.4150    -1.0060     0.1150 C.3   1 <1>   0.1960 
  7 C        1.9500     1.2880     0.6960 C.3   1 <1>   0.1960 
  8 C        3.3620    -0.5570    -1.0110 C.3   1 <1>   0.1400 
  9 C        2.9070     1.7860    -0.4030 C.3   1 <1>   0.1400 
 10 N        3.9740     0.7750    -0.6890 N.am  1 <1>  -0.6600 
 11 C        5.3510     0.9130    -0.6220 C.2   1 <1>   0.5690 
 12 O        6.0400    -0.0660    -0.8110 O.2   1 <1>  -0.5700 
 13 C        6.0930     2.2500    -0.3140 C.3   1 <1>   0.0610 
 14 C        5.7360     3.3610    -1.3410 C.3   1 <1>  -0.1600 
 15 C        7.6370     2.0560    -0.4130 C.3   1 <1>  -0.1600 
 16 C        5.8140     2.7360     1.1340 C.3   1 <1>  -0.1600 
 17 C        6.4670     4.6810    -1.0270 C.3   1 <1>   0.0000 
 18 C        8.4170     3.3520    -0.1120 C.3   1 <1>   0.0000 
 19 C        6.5480     4.0550     1.4290 C.3   1 <1>  -0.0800 
 20 C        7.9850     4.4360    -1.1160 C.3   1 <1>  -0.1600 
 21 C        6.1130     5.1230     0.4080 C.3   1 <1>  -0.1600 
 22 C        6.0520     5.7650    -2.0300 C.3   1 <1>  -0.2400 
 23 C        8.0630     3.8240     1.3110 C.3   1 <1>  -0.1600 
 24 C        9.9260     3.1000    -0.2230 C.3   1 <1>  -0.2400 
 25 H       -0.3410    -2.3970     0.2230 H     1 <1>   0.0800 
 26 H       -1.3170    -1.0020    -0.1620 H     1 <1>   0.0800 
 27 H       -1.6370    -1.9190     1.2850 H     1 <1>   0.0800 
 28 H        1.9770    -1.9490    -0.1590 H     1 <1>   0.0800 
 29 H        2.9950    -1.1580     1.0110 H     1 <1>   0.0800 
 30 H        2.4850     1.2140     1.6290 H     1 <1>   0.0800 
 31 H        1.1730     2.0230     0.8190 H     1 <1>   0.0800 
 32 H        2.8090    -0.4780    -1.9300 H     1 <1>   0.0800 
 33 H        4.1150    -1.3120    -1.1490 H     1 <1>   0.0800 
 34 H        3.3100     2.7250    -0.0950 H     1 <1>   0.0800 
 35 H        2.3410     1.9590    -1.3020 H     1 <1>   0.0800 
 36 H        4.6850     3.5540    -1.3630 H     1 <1>   0.0800 
 37 H        6.0090     3.0240    -2.3260 H     1 <1>   0.0800 
 38 H        7.8910     1.7100    -1.4010 H     1 <1>   0.0800 
 39 H        7.9460     1.2900     0.2780 H     1 <1>   0.0800 
 40 H        6.1420     1.9810     1.8280 H     1 <1>   0.0800 
 41 H        4.7700     2.8840     1.3130 H     1 <1>   0.0800 
 42 H        6.3120     4.3870     2.4260 H     1 <1>   0.0800 
 43 H        8.2440     4.1270    -2.1140 H     1 <1>   0.0800 
 44 H        8.5140     5.3510    -0.9110 H     1 <1>   0.0800 
 45 H        5.0540     5.2910     0.4910 H     1 <1>   0.0800 
 46 H        6.6080     6.0520     0.6340 H     1 <1>   0.0800 
 47 H        6.2910     5.4600    -3.0330 H     1 <1>   0.0800 
 48 H        6.5680     6.6860    -1.8230 H     1 <1>   0.0800 
 49 H        4.9940     5.9490    -1.9730 H     1 <1>   0.0800 
 50 H        8.5860     4.7380     1.5350 H     1 <1>   0.0800 
 51 H        8.3730     3.0860     2.0300 H     1 <1>   0.0800 
 52 H       10.1800     2.7700    -1.2140 H     1 <1>   0.0800 
 53 H       10.2340     2.3430     0.4760 H     1 <1>   0.0800 
 54 H       10.4750     4.0010    -0.0130 H     1 <1>   0.0800 
@<TRIPOS>BOND
  1   1   2  2   
  2   1   3  2   
  3   1   4  am  
  4   1   5  1   
  5   4   6  1   
  6   4   7  1   
  7   5  25  1   
  8   5  26  1   
  9   5  27  1   
 10   6   8  1   
 11   6  28  1   
 12   6  29  1   
 13   7   9  1   
 14   7  30  1   
 15   7  31  1   
 16   8  10  1   
 17   8  32  1   
 18   8  33  1   
 19   9  10  1   
 20   9  34  1   
 21   9  35  1   
 22  10  11  am  
 23  11  12  2   
 24  11  13  1   
 25  13  14  1   
 26  13  15  1   
 27  13  16  1   
 28  14  17  1   
 29  14  36  1   
 30  14  37  1   
 31  15  18  1   
 32  15  38  1   
 33  15  39  1   
 34  16  19  1   
 35  16  40  1   
 36  16  41  1   
 37  17  20  1   
 38  17  21  1   
 39  17  22  1   
 40  18  20  1   
 41  18  23  1   
 42  18  24  1   
 43  19  21  1   
 44  19  23  1   
 45  19  42  1   
 46  20  43  1   
 47  20  44  1   
 48  21  45  1   
 49  21  46  1   
 50  22  47  1   
 51  22  48  1   
 52  22  49  1   
 53  23  50  1   
 54  23  51  1   
 55  24  52  1   
 56  24  53  1   
 57  24  54  1   
@<TRIPOS>SUBSTRUCTURE
  1 ****  11 GROUP 4 **** **** 0

# MOE 2024.06 (io_trps.svl 2023.06)
