@<TRIPOS>MOLECULE
NONAME
38 39 1 0 0 
SMALL
USER_CHARGES


@<TRIPOS>ATOM
  1 S       -0.7130     0.4790     0.6350 S.o2  1 <1>   1.3330 
  2 O       -0.3580     1.8390     0.3210 O.2   1 <1>  -0.6500 
  3 O        0.2930    -0.5350     0.8330 O.2   1 <1>  -0.6500 
  4 N       -1.7490    -0.0280    -0.6370 N.am  1 <1>  -0.7570 
  5 C       -1.8200     0.4830     2.0280 C.3   1 <1>  -0.1350 
  6 C       -2.3710    -1.2660    -0.7140 C.ar  1 <1>   0.1990 
  7 C       -3.7720    -1.3750    -0.8140 C.ar  1 <1>   0.0860 
  8 C       -1.5970    -2.4240    -0.7060 C.ar  1 <1>  -0.1500 
  9 C       -4.6220    -0.2030    -0.8520 C.2   1 <1>   0.5440 
 10 C       -4.3330    -2.6540    -0.8700 C.ar  1 <1>  -0.1500 
 11 C       -2.1740    -3.6750    -0.7700 C.ar  1 <1>  -0.1500 
 12 O       -4.3510     0.7920    -0.2030 O.2   1 <1>  -0.5700 
 13 N       -5.7510    -0.1840    -1.6230 N.am  1 <1>  -0.7300 
 14 C       -3.5500    -3.7910    -0.8490 C.ar  1 <1>  -0.1500 
 15 C       -6.6850     0.9720    -1.7580 C.3   1 <1>   0.1400 
 16 C       -7.9270     0.7950    -0.8740 C.3   1 <1>   0.2000 
 17 O       -8.8040     1.8530    -1.0990 O.3   1 <1>  -0.5600 
 18 C       -7.6520     0.8190     0.6240 C.3   1 <1>  -0.1600 
 19 C       -9.5190     2.1840     0.0530 C.3   1 <1>   0.1200 
 20 C       -8.9680     1.3210     1.1820 C.3   1 <1>  -0.1600 
 21 H       -2.3560     0.7670    -0.8570 H     1 <1>   0.4200 
 22 H       -2.6430     1.1470     1.8460 H     1 <1>   0.0800 
 23 H       -1.3020     0.8110     2.9070 H     1 <1>   0.0800 
 24 H       -2.2030    -0.5030     2.2010 H     1 <1>   0.0800 
 25 H       -0.5250    -2.3410    -0.6550 H     1 <1>   0.1500 
 26 H       -5.4020    -2.7630    -0.9230 H     1 <1>   0.1500 
 27 H       -1.5550    -4.5570    -0.7590 H     1 <1>   0.1500 
 28 H       -5.9460    -0.9740    -2.2400 H     1 <1>   0.3700 
 29 H       -4.0030    -4.7680    -0.8940 H     1 <1>   0.1500 
 30 H       -6.9910     1.0560    -2.7850 H     1 <1>   0.0800 
 31 H       -6.1810     1.8820    -1.4790 H     1 <1>   0.0800 
 32 H       -8.4510    -0.1050    -1.1440 H     1 <1>   0.0800 
 33 H       -6.8630     1.5200     0.8370 H     1 <1>   0.0800 
 34 H       -7.3770    -0.1500     1.0000 H     1 <1>   0.0800 
 35 H      -10.5650     2.0000    -0.1220 H     1 <1>   0.0800 
 36 H       -9.3570     3.2300     0.2470 H     1 <1>   0.0800 
 37 H       -8.8440     1.8810     2.0920 H     1 <1>   0.0800 
 38 H       -9.6390     0.4990     1.3610 H     1 <1>   0.0800 
@<TRIPOS>BOND
  1   1   2  2   
  2   1   3  2   
  3   1   4  am  
  4   1   5  1   
  5   4   6  1   
  6   4  21  1   
  7   5  22  1   
  8   5  23  1   
  9   5  24  1   
 10   6   7  ar  
 11   6   8  ar  
 12   7   9  1   
 13   7  10  ar  
 14   8  11  ar  
 15   8  25  1   
 16   9  12  2   
 17   9  13  am  
 18  10  14  ar  
 19  10  26  1   
 20  11  14  ar  
 21  11  27  1   
 22  13  15  1   
 23  13  28  1   
 24  14  29  1   
 25  15  16  1   
 26  15  30  1   
 27  15  31  1   
 28  16  17  1   
 29  16  18  1   
 30  16  32  1   
 31  17  19  1   
 32  18  20  1   
 33  18  33  1   
 34  18  34  1   
 35  19  20  1   
 36  19  35  1   
 37  19  36  1   
 38  20  37  1   
 39  20  38  1   
@<TRIPOS>SUBSTRUCTURE
  1 ****   9 GROUP 4 **** **** 0

# MOE 2024.06 (io_trps.svl 2023.06)
