@<TRIPOS>MOLECULE
NONAME
40 43 1 0 0 
SMALL
USER_CHARGES


@<TRIPOS>ATOM
  1 O        0.3880     0.0780    -0.0460 O.2   1 <1>  -0.5700 
  2 C        0.8390     1.1820     0.1940 C.2   1 <1>   0.6900 
  3 N        2.1840     1.3510     0.4170 N.am  1 <1>  -0.6600 
  4 N        0.0210     2.2720     0.2800 N.am  1 <1>  -0.5470 
  5 C        2.9000     2.6390     0.2250 C.3   1 <1>   0.1400 
  6 C        3.0640     0.1930     0.7230 C.3   1 <1>   0.1400 
  7 C       -1.3440     2.4330    -0.0010 C.ar  1 <1>   0.1170 
  8 C        4.1090     2.4220    -0.6870 C.3   1 <1>  -0.1600 
  9 C        4.2560     0.1930    -0.2340 C.3   1 <1>  -0.1600 
 10 C       -2.0390     3.4500     0.6490 C.ar  1 <1>  -0.1500 
 11 C       -2.0220     1.6240    -0.9220 C.ar  1 <1>  -0.1500 
 12 C        5.1540     1.4680     0.0150 C.3   1 <1>   0.5600 
 13 C       -3.3780     3.6230     0.3640 C.ar  1 <1>   0.0820 
 14 C       -3.3700     1.8110    -1.1960 C.ar  1 <1>  -0.1500 
 15 O        6.0090     2.5700     0.1970 O.3   1 <1>  -0.5600 
 16 O        6.0570     0.6590     0.7280 O.3   1 <1>  -0.5600 
 17 O       -4.2220     4.5290     0.8710 O.3   1 <1>  -0.3620 
 18 C       -4.0270     2.8270    -0.5330 C.ar  1 <1>   0.0820 
 19 C        7.3010     2.2490    -0.1550 C.3   1 <1>   0.1200 
 20 C        7.3380     0.8130     0.2470 C.3   1 <1>   0.1200 
 21 C       -5.4900     4.2890     0.2630 C.3   1 <1>   0.4000 
 22 O       -5.3120     3.1940    -0.6330 O.3   1 <1>  -0.3630 
 23 H        0.4650     3.0490     0.7540 H     1 <1>   0.3700 
 24 H        3.2280     3.0110     1.1820 H     1 <1>   0.0800 
 25 H        2.2520     3.3700    -0.2260 H     1 <1>   0.0800 
 26 H        2.5230    -0.7330     0.6250 H     1 <1>   0.0800 
 27 H        3.4120     0.2700     1.7390 H     1 <1>   0.0800 
 28 H        4.4670     3.4130    -0.9270 H     1 <1>   0.0800 
 29 H        3.7700     2.0730    -1.6450 H     1 <1>   0.0800 
 30 H        3.8910     0.1000    -1.2410 H     1 <1>   0.0800 
 31 H        4.7530    -0.7560    -0.0940 H     1 <1>   0.0800 
 32 H       -1.5580     4.0920     1.3620 H     1 <1>   0.1500 
 33 H       -1.4900     0.8410    -1.4310 H     1 <1>   0.1500 
 34 H       -3.8940     1.1900    -1.9000 H     1 <1>   0.1500 
 35 H        7.9870     2.8590     0.4060 H     1 <1>   0.0800 
 36 H        7.4330     2.3810    -1.2140 H     1 <1>   0.0800 
 37 H        7.4940     0.1570    -0.5900 H     1 <1>   0.0800 
 38 H        8.0420     0.6180     1.0370 H     1 <1>   0.0800 
 39 H       -5.7960     5.1600    -0.2890 H     1 <1>   0.0800 
 40 H       -6.2070     4.0230     1.0190 H     1 <1>   0.0800 
@<TRIPOS>BOND
  1   1   2  2   
  2   2   3  am  
  3   2   4  am  
  4   3   5  1   
  5   3   6  1   
  6   4   7  1   
  7   4  23  1   
  8   5   8  1   
  9   5  24  1   
 10   5  25  1   
 11   6   9  1   
 12   6  26  1   
 13   6  27  1   
 14   7  10  ar  
 15   7  11  ar  
 16   8  12  1   
 17   8  28  1   
 18   8  29  1   
 19   9  12  1   
 20   9  30  1   
 21   9  31  1   
 22  10  13  ar  
 23  10  32  1   
 24  11  14  ar  
 25  11  33  1   
 26  12  15  1   
 27  12  16  1   
 28  13  17  1   
 29  13  18  ar  
 30  14  18  ar  
 31  14  34  1   
 32  15  19  1   
 33  16  20  1   
 34  17  21  1   
 35  18  22  1   
 36  19  20  1   
 37  19  35  1   
 38  19  36  1   
 39  20  37  1   
 40  20  38  1   
 41  21  22  1   
 42  21  39  1   
 43  21  40  1   
@<TRIPOS>SUBSTRUCTURE
  1 ****   4 GROUP 4 **** **** 0

# MOE 2024.06 (io_trps.svl 2023.06)
