@<TRIPOS>MOLECULE
NONAME
57 59 1 0 0 
SMALL
USER_CHARGES


@<TRIPOS>ATOM
  1 O       -0.4820    -1.3850    -1.2430 O.3   1 <1>  -0.3630 
  2 C       -1.4240    -1.3870    -0.2470 C.ar  1 <1>   0.0830 
  3 C       -0.6150    -0.5550    -2.3750 C.3   1 <1>   0.1200 
  4 C       -1.1980    -2.1970     0.8820 C.ar  1 <1>   0.1000 
  5 C       -2.5810    -0.6170    -0.3200 C.ar  1 <1>  -0.1500 
  6 C        0.6090    -0.7670    -3.2600 C.3   1 <1>  -0.2400 
  7 N       -0.0660    -3.0080     1.0490 N.pl3 1 <1>  -0.8380 
  8 C       -2.1430    -2.2060     1.8970 C.ar  1 <1>  -0.1500 
  9 C       -3.5090    -0.6440     0.7070 C.ar  1 <1>  -0.1500 
 10 C        1.2100    -2.2480     1.2140 C.3   1 <1>   0.2090 
 11 C        0.0190    -4.1420     0.0810 C.3   1 <1>   0.2090 
 12 C       -3.2900    -1.4380     1.8170 C.ar  1 <1>  -0.1500 
 13 C        2.3890    -3.1900     1.5220 C.3   1 <1>   0.3430 
 14 C        1.2100    -5.0670     0.4040 C.3   1 <1>   0.3430 
 15 N        2.5050    -4.3080     0.5140 N.4   1 <1>  -0.9590 
 16 C        3.6650    -5.1920     0.7910 C.3   1 <1>   0.4860 
 17 C        4.9290    -4.3610     0.6720 C.ar  1 <1>  -0.1430 
 18 C        5.4160    -3.8950    -0.5510 C.ar  1 <1>  -0.1430 
 19 C        5.5980    -4.0530     1.8460 C.ar  1 <1>  -0.1500 
 20 C        6.5510    -3.0830    -0.5730 C.ar  1 <1>  -0.1430 
 21 C        4.7350    -4.2690    -1.8720 C.3   1 <1>  -0.0970 
 22 C        6.7340    -3.2730     1.8220 C.ar  1 <1>  -0.1500 
 23 C        7.2180    -2.7820     0.6160 C.ar  1 <1>   0.0830 
 24 C        7.0930    -2.5190    -1.8930 C.3   1 <1>  -0.0970 
 25 O        8.3400    -2.0150     0.5530 O.3   1 <1>  -0.3620 
 26 C        9.1670    -1.7890     1.6730 C.3   1 <1>   0.0400 
 27 H       -0.6720     0.4680    -2.0440 H     1 <1>   0.0800 
 28 H       -1.5150    -0.8310    -2.8980 H     1 <1>   0.0800 
 29 H       -2.7900     0.0120    -1.1640 H     1 <1>   0.1500 
 30 H        1.5040    -0.4990    -2.7270 H     1 <1>   0.0800 
 31 H        0.5340    -0.1450    -4.1330 H     1 <1>   0.0800 
 32 H        0.6660    -1.7930    -3.5770 H     1 <1>   0.0800 
 33 H       -1.9730    -2.8230     2.7600 H     1 <1>   0.1500 
 34 H       -4.4020    -0.0460     0.6430 H     1 <1>   0.1500 
 35 H        1.0960    -1.5430     2.0200 H     1 <1>   0.0800 
 36 H        1.4250    -1.6880     0.3200 H     1 <1>   0.0800 
 37 H        0.1210    -3.7650    -0.9210 H     1 <1>   0.0800 
 38 H       -0.8960    -4.7090     0.1250 H     1 <1>   0.0800 
 39 H       -4.0100    -1.4590     2.6160 H     1 <1>   0.1500 
 40 H        2.2410    -3.6030     2.5060 H     1 <1>   0.0800 
 41 H        3.3000    -2.6130     1.5380 H     1 <1>   0.0800 
 42 H        1.2860    -5.8190    -0.3630 H     1 <1>   0.0800 
 43 H        1.0010    -5.5630     1.3380 H     1 <1>   0.0800 
 44 H        2.6960    -3.8520    -0.3860 H     1 <1>   0.4500 
 45 H        3.7000    -6.0030     0.0830 H     1 <1>   0.0800 
 46 H        3.5880    -5.6080     1.7820 H     1 <1>   0.0800 
 47 H        5.2460    -4.4160     2.7970 H     1 <1>   0.1500 
 48 H        4.0860    -5.1180    -1.7860 H     1 <1>   0.0800 
 49 H        5.4770    -4.5310    -2.6060 H     1 <1>   0.0800 
 50 H        4.1700    -3.4330    -2.2460 H     1 <1>   0.0800 
 51 H        7.2300    -3.0570     2.7490 H     1 <1>   0.1500 
 52 H        7.7080    -3.2560    -2.3750 H     1 <1>   0.0800 
 53 H        7.6870    -1.6370    -1.7360 H     1 <1>   0.0800 
 54 H        6.2970    -2.2360    -2.5550 H     1 <1>   0.0800 
 55 H       10.0140    -1.2100     1.3490 H     1 <1>   0.0800 
 56 H        9.4990    -2.7360     2.0600 H     1 <1>   0.0800 
 57 H        8.6130    -1.2390     2.4130 H     1 <1>   0.0800 
@<TRIPOS>BOND
  1   1   2  1   
  2   1   3  1   
  3   2   4  ar  
  4   2   5  ar  
  5   3   6  1   
  6   3  27  1   
  7   3  28  1   
  8   4   7  1   
  9   4   8  ar  
 10   5   9  ar  
 11   5  29  1   
 12   6  30  1   
 13   6  31  1   
 14   6  32  1   
 15   7  10  1   
 16   7  11  1   
 17   8  12  ar  
 18   8  33  1   
 19   9  12  ar  
 20   9  34  1   
 21  10  13  1   
 22  10  35  1   
 23  10  36  1   
 24  11  14  1   
 25  11  37  1   
 26  11  38  1   
 27  12  39  1   
 28  13  15  1   
 29  13  40  1   
 30  13  41  1   
 31  14  15  1   
 32  14  42  1   
 33  14  43  1   
 34  15  16  1   
 35  15  44  1   
 36  16  17  1   
 37  16  45  1   
 38  16  46  1   
 39  17  18  ar  
 40  17  19  ar  
 41  18  20  ar  
 42  18  21  1   
 43  19  22  ar  
 44  19  47  1   
 45  20  23  ar  
 46  20  24  1   
 47  21  48  1   
 48  21  49  1   
 49  21  50  1   
 50  22  23  ar  
 51  22  51  1   
 52  23  25  1   
 53  24  52  1   
 54  24  53  1   
 55  24  54  1   
 56  25  26  1   
 57  26  55  1   
 58  26  56  1   
 59  26  57  1   
@<TRIPOS>SUBSTRUCTURE
  1 ****  13 GROUP 4 **** **** 0

# MOE 2024.06 (io_trps.svl 2023.06)
