@<TRIPOS>MOLECULE
NONAME
40 41 1 0 0 
SMALL
USER_CHARGES


@<TRIPOS>ATOM
  1 S       -0.2050    -0.0890     0.2980 S.3   1 <1>  -0.3710 
  2 C       -1.7550     0.8170     0.2890 C.2   1 <1>   0.6510 
  3 C        1.0780     1.2370     0.3770 C.3   1 <1>   0.0700 
  4 N       -1.6170     2.0860     0.3390 N.2   1 <1>  -0.6210 
  5 N       -2.9540     0.1170     0.2370 N.am  1 <1>  -0.4200 
  6 C        2.4500     0.5650     0.3880 C.3   1 <1>  -0.2400 
  7 C       -2.7320     2.8660     0.3490 C.2   1 <1>   0.0210 
  8 C       -4.1080     0.9060     0.2760 C.2   1 <1>   0.6160 
  9 C       -3.1070    -1.3760     0.1170 C.3   1 <1>   0.2200 
 10 O       -2.5370     4.0860     0.3860 O.3   1 <1>  -0.8500 
 11 C       -3.9940     2.2920     0.3240 C.2   1 <1>  -0.1240 
 12 O       -5.2220     0.3430     0.2680 O.2   1 <1>  -0.5700 
 13 C       -2.6190    -2.1360     1.3630 C.3   1 <1>  -0.1600 
 14 C       -2.5380    -1.9430    -1.1960 C.3   1 <1>  -0.1600 
 15 C       -5.2330     3.1840     0.3490 C.3   1 <1>  -0.0220 
 16 C       -2.9010    -3.6400     1.2260 C.3   1 <1>  -0.1600 
 17 C       -2.8220    -3.4490    -1.3050 C.3   1 <1>  -0.1600 
 18 C       -5.7310     3.4630    -1.0710 C.3   1 <1>  -0.2400 
 19 C       -2.3020    -4.2020    -0.0710 C.3   1 <1>  -0.1600 
 20 H        0.8970     1.8060     1.2730 H     1 <1>   0.0800 
 21 H        0.9410     1.8670    -0.4850 H     1 <1>   0.0800 
 22 H        2.5370    -0.0780     1.2450 H     1 <1>   0.0800 
 23 H        3.2200     1.3140     0.4340 H     1 <1>   0.0800 
 24 H        2.5820    -0.0160    -0.5070 H     1 <1>   0.0800 
 25 H       -4.1540    -1.6060     0.0640 H     1 <1>   0.0800 
 26 H       -3.1300    -1.7550     2.2300 H     1 <1>   0.0800 
 27 H       -1.5650    -2.0060     1.5100 H     1 <1>   0.0800 
 28 H       -1.4780    -1.8000    -1.2560 H     1 <1>   0.0800 
 29 H       -2.9940    -1.4330    -2.0270 H     1 <1>   0.0800 
 30 H       -4.9890     4.1160     0.8300 H     1 <1>   0.0800 
 31 H       -6.0100     2.7160     0.9260 H     1 <1>   0.0800 
 32 H       -3.9650    -3.8050     1.2280 H     1 <1>   0.0800 
 33 H       -2.4850    -4.1610     2.0720 H     1 <1>   0.0800 
 34 H       -2.3530    -3.8390    -2.1910 H     1 <1>   0.0800 
 35 H       -3.8840    -3.6060    -1.3970 H     1 <1>   0.0800 
 36 H       -4.9440     3.9410    -1.6310 H     1 <1>   0.0800 
 37 H       -6.5850     4.1130    -1.0440 H     1 <1>   0.0800 
 38 H       -5.9970     2.5430    -1.5580 H     1 <1>   0.0800 
 39 H       -2.5480    -5.2460    -0.1580 H     1 <1>   0.0800 
 40 H       -1.2290    -4.1190    -0.0320 H     1 <1>   0.0800 
@<TRIPOS>BOND
  1   1   2  1   
  2   1   3  1   
  3   2   4  2   
  4   2   5  1   
  5   3   6  1   
  6   3  20  1   
  7   3  21  1   
  8   4   7  1   
  9   5   8  am  
 10   5   9  1   
 11   6  22  1   
 12   6  23  1   
 13   6  24  1   
 14   7  10  1   
 15   7  11  2   
 16   8  11  1   
 17   8  12  2   
 18   9  13  1   
 19   9  14  1   
 20   9  25  1   
 21  11  15  1   
 22  13  16  1   
 23  13  26  1   
 24  13  27  1   
 25  14  17  1   
 26  14  28  1   
 27  14  29  1   
 28  15  18  1   
 29  15  30  1   
 30  15  31  1   
 31  16  19  1   
 32  16  32  1   
 33  16  33  1   
 34  17  19  1   
 35  17  34  1   
 36  17  35  1   
 37  18  36  1   
 38  18  37  1   
 39  18  38  1   
 40  19  39  1   
 41  19  40  1   
@<TRIPOS>SUBSTRUCTURE
  1 ****   5 GROUP 4 **** **** 0

# MOE 2024.06 (io_trps.svl 2023.06)
