@<TRIPOS>MOLECULE
NONAME
28 28 1 0 0 
SMALL
USER_CHARGES


@<TRIPOS>ATOM
  1 BR       0.5440     0.4950    -1.8280 Br    1 <1>  -0.1110 
  2 C        1.8110    -0.5150    -0.7900 C.ar  1 <1>   0.1110 
  3 C        1.3560    -1.5050     0.0620 C.ar  1 <1>   0.1600 
  4 C        3.1510    -0.2350    -0.9120 C.ar  1 <1>  -0.1500 
  5 N        2.1640    -2.2460     0.8070 N.ar  1 <1>  -0.6200 
  6 C        4.0220    -0.9910    -0.1360 C.ar  1 <1>   0.0860 
  7 C        3.4570    -1.9750     0.6810 C.ar  1 <1>   0.1600 
  8 C        5.4520    -0.7740    -0.1760 C.2   1 <1>   0.5440 
  9 O        5.9850    -0.3990    -1.1990 O.2   1 <1>  -0.5700 
 10 N        6.2300    -0.9750     0.9320 N.am  1 <1>  -0.7300 
 11 C        7.6920    -0.7200     0.9910 C.3   1 <1>   0.1400 
 12 C        8.4550    -1.8060     0.2340 C.3   1 <1>   0.0700 
 13 S       10.2260    -1.5750     0.5500 S.3   1 <1>  -0.4600 
 14 C       10.9990    -2.7620    -0.5770 C.3   1 <1>   0.0700 
 15 C       12.5090    -2.6650    -0.3810 C.3   1 <1>  -0.2400 
 16 H        0.2980    -1.6900     0.1290 H     1 <1>   0.1500 
 17 H        3.5130     0.5320    -1.5750 H     1 <1>   0.1500 
 18 H        4.1230    -2.5850     1.2670 H     1 <1>   0.1500 
 19 H        5.7870    -1.1400     1.8380 H     1 <1>   0.3700 
 20 H        8.0100    -0.7050     2.0190 H     1 <1>   0.0800 
 21 H        7.9080     0.2400     0.5500 H     1 <1>   0.0800 
 22 H        8.3000    -1.7220    -0.8270 H     1 <1>   0.0800 
 23 H        8.1960    -2.7890     0.5840 H     1 <1>   0.0800 
 24 H       10.7090    -2.4950    -1.5780 H     1 <1>   0.0800 
 25 H       10.6260    -3.7400    -0.3250 H     1 <1>   0.0800 
 26 H       12.8470    -1.6690    -0.6060 H     1 <1>   0.0800 
 27 H       13.0090    -3.3560    -1.0350 H     1 <1>   0.0800 
 28 H       12.7660    -2.9010     0.6360 H     1 <1>   0.0800 
@<TRIPOS>BOND
  1   1   2  1   
  2   2   3  ar  
  3   2   4  ar  
  4   3   5  ar  
  5   3  16  1   
  6   4   6  ar  
  7   4  17  1   
  8   5   7  ar  
  9   6   7  ar  
 10   6   8  1   
 11   7  18  1   
 12   8   9  2   
 13   8  10  am  
 14  10  11  1   
 15  10  19  1   
 16  11  12  1   
 17  11  20  1   
 18  11  21  1   
 19  12  13  1   
 20  12  22  1   
 21  12  23  1   
 22  13  14  1   
 23  14  15  1   
 24  14  24  1   
 25  14  25  1   
 26  15  26  1   
 27  15  27  1   
 28  15  28  1   
@<TRIPOS>SUBSTRUCTURE
  1 ****   8 GROUP 4 **** **** 0

# MOE 2024.06 (io_trps.svl 2023.06)
