@<TRIPOS>MOLECULE
NONAME
48 50 1 0 0 
SMALL
USER_CHARGES


@<TRIPOS>ATOM
  1 F        0.2720    -1.4360    -1.6360 F     1 <1>  -0.3400 
  2 C       -0.9460    -1.9330    -1.4240 C.3   1 <1>   1.0200 
  3 F       -0.8290    -3.2450    -1.6040 F     1 <1>  -0.3400 
  4 F       -1.6850    -1.4920    -2.4410 F     1 <1>  -0.3400 
  5 C       -1.5340    -1.5000    -0.0150 C.3   1 <1>   0.5800 
  6 O       -0.8710    -2.0610     1.0810 O.3   1 <1>  -0.6800 
  7 N       -2.9800    -1.8100     0.1690 N.am  1 <1>  -0.2980 
  8 C       -1.5110     0.0240     0.1760 C.3   1 <1>  -0.0990 
  9 N       -3.7160    -0.6720     0.3920 N.2   1 <1>  -0.5120 
 10 C       -3.4540    -3.1150     0.2600 C.2   1 <1>   0.5440 
 11 C       -2.9670     0.3550     0.4190 C.2   1 <1>   0.3030 
 12 O       -2.6430    -4.0090     0.4280 O.2   1 <1>  -0.5700 
 13 C       -4.8730    -3.4250     0.1980 C.ar  1 <1>   0.0860 
 14 C       -3.4010     1.7130     0.6440 C.ar  1 <1>   0.0860 
 15 C       -5.7620    -2.7340    -0.6240 C.ar  1 <1>  -0.1500 
 16 C       -5.4090    -4.4560     0.9660 C.ar  1 <1>  -0.1500 
 17 C       -4.7540     1.9960     0.8550 C.ar  1 <1>   0.1600 
 18 C       -2.5310     2.8020     0.6650 C.ar  1 <1>  -0.1500 
 19 C       -7.1080    -3.0450    -0.6620 C.ar  1 <1>  -0.1500 
 20 C       -6.7550    -4.7720     0.9300 C.ar  1 <1>  -0.1500 
 21 N       -5.2790     3.1930     1.0640 N.ar  1 <1>  -0.6200 
 22 C       -3.0580     4.0560     0.8830 C.ar  1 <1>  -0.1500 
 23 C       -7.6380    -4.0690     0.1160 C.ar  1 <1>  -0.1430 
 24 C       -4.4210     4.1980     1.0750 C.ar  1 <1>   0.1600 
 25 C       -9.1500    -4.3740     0.0460 C.3   1 <1>   0.1440 
 26 C       -9.5330    -4.7500    -1.3930 C.3   1 <1>  -0.2400 
 27 C       -9.5750    -5.5360     0.9590 C.3   1 <1>  -0.2400 
 28 C       -9.9430    -3.1310     0.4770 C.3   1 <1>  -0.2400 
 29 H       -1.1940    -2.9920     1.1520 H     1 <1>   0.4000 
 30 H       -1.1700     0.5310    -0.7080 H     1 <1>   0.0800 
 31 H       -0.9020     0.3090     1.0140 H     1 <1>   0.0800 
 32 H       -5.3940    -1.9370    -1.2450 H     1 <1>   0.1500 
 33 H       -4.7530    -5.0210     1.6050 H     1 <1>   0.1500 
 34 H       -5.4460     1.1700     0.8490 H     1 <1>   0.1500 
 35 H       -1.4730     2.6870     0.5170 H     1 <1>   0.1500 
 36 H       -7.7460    -2.4730    -1.3110 H     1 <1>   0.1500 
 37 H       -7.0910    -5.5780     1.5550 H     1 <1>   0.1500 
 38 H       -2.4230     4.9230     0.9070 H     1 <1>   0.1500 
 39 H       -4.8250     5.1830     1.2450 H     1 <1>   0.1500 
 40 H       -8.9570    -5.5980    -1.7170 H     1 <1>   0.0800 
 41 H       -9.3480    -3.9380    -2.0710 H     1 <1>   0.0800 
 42 H      -10.5770    -5.0020    -1.4550 H     1 <1>   0.0800 
 43 H       -9.3550    -5.3100     1.9860 H     1 <1>   0.0800 
 44 H       -9.0640    -6.4410     0.6810 H     1 <1>   0.0800 
 45 H      -10.6330    -5.7130     0.8770 H     1 <1>   0.0800 
 46 H       -9.6550    -2.8390     1.4710 H     1 <1>   0.0800 
 47 H      -10.9990    -3.3320     0.4710 H     1 <1>   0.0800 
 48 H       -9.7580    -2.3040    -0.1830 H     1 <1>   0.0800 
@<TRIPOS>BOND
  1   1   2  1   
  2   2   3  1   
  3   2   4  1   
  4   2   5  1   
  5   5   6  1   
  6   5   7  1   
  7   5   8  1   
  8   6  29  1   
  9   7   9  1   
 10   7  10  am  
 11   8  11  1   
 12   8  30  1   
 13   8  31  1   
 14   9  11  2   
 15  10  12  2   
 16  10  13  1   
 17  11  14  1   
 18  13  15  ar  
 19  13  16  ar  
 20  14  17  ar  
 21  14  18  ar  
 22  15  19  ar  
 23  15  32  1   
 24  16  20  ar  
 25  16  33  1   
 26  17  21  ar  
 27  17  34  1   
 28  18  22  ar  
 29  18  35  1   
 30  19  23  ar  
 31  19  36  1   
 32  20  23  ar  
 33  20  37  1   
 34  21  24  ar  
 35  22  24  ar  
 36  22  38  1   
 37  23  25  1   
 38  24  39  1   
 39  25  26  1   
 40  25  27  1   
 41  25  28  1   
 42  26  40  1   
 43  26  41  1   
 44  26  42  1   
 45  27  43  1   
 46  27  44  1   
 47  27  45  1   
 48  28  46  1   
 49  28  47  1   
 50  28  48  1   
@<TRIPOS>SUBSTRUCTURE
  1 ****   9 GROUP 4 **** **** 0

# MOE 2024.06 (io_trps.svl 2023.06)
