@<TRIPOS>MOLECULE
NONAME
55 56 1 0 0 
SMALL
USER_CHARGES


@<TRIPOS>ATOM
  1 O        4.4140    -8.3750     0.0500 O.3   1 <1>  -0.3630 
  2 C        5.6510    -7.8220    -0.0280 C.ar  1 <1>   0.0830 
  3 C        3.2570    -7.5770     0.0650 C.3   1 <1>   0.1200 
  4 C        5.8850    -6.4520    -0.0920 C.ar  1 <1>  -0.1500 
  5 C        6.7230    -8.6980    -0.0430 C.ar  1 <1>  -0.1500 
  6 C        2.0520    -8.5150     0.1450 C.3   1 <1>  -0.1600 
  7 C        7.1810    -5.9610    -0.1720 C.ar  1 <1>  -0.1440 
  8 C        8.0200    -8.2230    -0.1210 C.ar  1 <1>  -0.1430 
  9 C        0.7270    -7.7390     0.1790 C.3   1 <1>  -0.1600 
 10 C        8.2410    -6.8570    -0.1850 C.ar  1 <1>  -0.1500 
 11 C        7.4560    -4.4600    -0.2440 C.3   1 <1>   0.0630 
 12 C        9.1990    -9.1790    -0.1380 C.3   1 <1>  -0.0970 
 13 C       -0.4560    -8.7080     0.2390 C.3   1 <1>   0.3430 
 14 C        6.9570    -3.7510     1.0190 C.3   1 <1>  -0.2400 
 15 C        6.8260    -3.8470    -1.4990 C.3   1 <1>  -0.2400 
 16 N       -1.7410    -7.9690     0.1650 N.4   1 <1>  -0.9590 
 17 C       -2.0610    -7.1220     1.3660 C.3   1 <1>   0.3430 
 18 C       -2.9080    -8.8530    -0.1650 C.3   1 <1>   0.3430 
 19 C       -3.3750    -6.3270     1.1590 C.3   1 <1>   0.1100 
 20 C       -4.1950    -8.0210    -0.3880 C.3   1 <1>   0.1100 
 21 N       -3.9730    -6.5720    -0.1740 N.3   1 <1>  -0.8100 
 22 C       -5.2140    -5.8070    -0.3540 C.3   1 <1>   0.0300 
 23 H        3.2370    -6.9960    -0.8410 H     1 <1>   0.0800 
 24 H        3.3050    -6.9310     0.9250 H     1 <1>   0.0800 
 25 H        5.0720    -5.7550    -0.0820 H     1 <1>   0.1500 
 26 H        6.5270    -9.7530     0.0080 H     1 <1>   0.1500 
 27 H        2.1450    -9.1150     1.0340 H     1 <1>   0.0800 
 28 H        2.0710    -9.1660    -0.7130 H     1 <1>   0.0800 
 29 H        0.6530    -7.1360    -0.7100 H     1 <1>   0.0800 
 30 H        0.7260    -7.0960     1.0410 H     1 <1>   0.0800 
 31 H        9.2500    -6.4920    -0.2460 H     1 <1>   0.1500 
 32 H        8.5210    -4.3070    -0.3050 H     1 <1>   0.0800 
 33 H        8.8660   -10.1990    -0.0640 H     1 <1>   0.0800 
 34 H        9.8510    -8.9700     0.6910 H     1 <1>   0.0800 
 35 H        9.7490    -9.0640    -1.0540 H     1 <1>   0.0800 
 36 H       -0.4120    -9.2860     1.1490 H     1 <1>   0.0800 
 37 H       -0.3860    -9.3890    -0.5940 H     1 <1>   0.0800 
 38 H        5.8880    -3.8260     1.1050 H     1 <1>   0.0800 
 39 H        7.2280    -2.7110     0.9940 H     1 <1>   0.0800 
 40 H        7.4030    -4.2000     1.8890 H     1 <1>   0.0800 
 41 H        5.7550    -3.9220    -1.4670 H     1 <1>   0.0800 
 42 H        7.1810    -4.3640    -2.3730 H     1 <1>   0.0800 
 43 H        7.0960    -2.8090    -1.5810 H     1 <1>   0.0800 
 44 H       -1.7280    -7.2930    -0.6150 H     1 <1>   0.4500 
 45 H       -1.2620    -6.4230     1.5470 H     1 <1>   0.0800 
 46 H       -2.1580    -7.7430     2.2410 H     1 <1>   0.0800 
 47 H       -3.0760    -9.5560     0.6350 H     1 <1>   0.0800 
 48 H       -2.7010    -9.4180    -1.0590 H     1 <1>   0.0800 
 49 H       -3.1660    -5.2760     1.2670 H     1 <1>   0.0800 
 50 H       -4.0770    -6.5970     1.9300 H     1 <1>   0.0800 
 51 H       -4.9650    -8.3770     0.2760 H     1 <1>   0.0800 
 52 H       -4.5420    -8.1790    -1.3960 H     1 <1>   0.0800 
 53 H       -5.0180    -4.7540    -0.2390 H     1 <1>   0.0800 
 54 H       -5.9560    -6.1050     0.3670 H     1 <1>   0.0800 
 55 H       -5.6050    -5.9680    -1.3450 H     1 <1>   0.0800 
@<TRIPOS>BOND
  1   1   2  1   
  2   1   3  1   
  3   2   4  ar  
  4   2   5  ar  
  5   3   6  1   
  6   3  23  1   
  7   3  24  1   
  8   4   7  ar  
  9   4  25  1   
 10   5   8  ar  
 11   5  26  1   
 12   6   9  1   
 13   6  27  1   
 14   6  28  1   
 15   7  10  ar  
 16   7  11  1   
 17   8  10  ar  
 18   8  12  1   
 19   9  13  1   
 20   9  29  1   
 21   9  30  1   
 22  10  31  1   
 23  11  14  1   
 24  11  15  1   
 25  11  32  1   
 26  12  33  1   
 27  12  34  1   
 28  12  35  1   
 29  13  16  1   
 30  13  36  1   
 31  13  37  1   
 32  14  38  1   
 33  14  39  1   
 34  14  40  1   
 35  15  41  1   
 36  15  42  1   
 37  15  43  1   
 38  16  17  1   
 39  16  18  1   
 40  16  44  1   
 41  17  19  1   
 42  17  45  1   
 43  17  46  1   
 44  18  20  1   
 45  18  47  1   
 46  18  48  1   
 47  19  21  1   
 48  19  49  1   
 49  19  50  1   
 50  20  21  1   
 51  20  51  1   
 52  20  52  1   
 53  21  22  1   
 54  22  53  1   
 55  22  54  1   
 56  22  55  1   
@<TRIPOS>SUBSTRUCTURE
  1 ****   3 GROUP 4 **** **** 0

# MOE 2024.06 (io_trps.svl 2023.06)
