@<TRIPOS>MOLECULE
NONAME
35 36 1 0 0 
SMALL
USER_CHARGES


@<TRIPOS>ATOM
  1 CL      -1.0480    -1.5570     2.2160 Cl    1 <1>  -0.1770 
  2 C       -0.4720    -2.4670     0.8410 C.ar  1 <1>   0.1770 
  3 C       -1.2230    -2.5470    -0.3200 C.ar  1 <1>   0.1770 
  4 C        0.7490    -3.1060     0.9340 C.ar  1 <1>  -0.1500 
  5 CL      -2.7660    -1.7420    -0.4510 Cl    1 <1>  -0.1770 
  6 C       -0.7500    -3.2730    -1.3960 C.ar  1 <1>  -0.1500 
  7 C        1.2580    -3.8400    -0.1420 C.ar  1 <1>   0.0860 
  8 C        0.4760    -3.9100    -1.3000 C.ar  1 <1>  -0.1500 
  9 C        2.5470    -4.5100    -0.0660 C.2   1 <1>   0.5440 
 10 O        2.8360    -5.4060    -0.8350 O.2   1 <1>  -0.5700 
 11 N        3.5150    -4.1310     0.8340 N.am  1 <1>  -0.6600 
 12 C        4.4520    -5.1740     1.3490 C.3   1 <1>   0.1400 
 13 C        4.1550    -2.7950     0.6760 C.3   1 <1>   0.1400 
 14 C        5.6750    -5.2910     0.4190 C.3   1 <1>   0.3430 
 15 C        5.4000    -2.9060    -0.2330 C.3   1 <1>   0.3430 
 16 N        6.3720    -3.9650     0.2330 N.4   1 <1>  -0.9590 
 17 C        7.5150    -4.1230    -0.7030 C.3   1 <1>   0.3430 
 18 C        8.4340    -2.9110    -0.6050 C.3   1 <1>  -0.2400 
 19 H        1.3010    -3.0350     1.8530 H     1 <1>   0.1500 
 20 H       -1.3380    -3.3380    -2.2960 H     1 <1>   0.1500 
 21 H        0.8380    -4.4810    -2.1410 H     1 <1>   0.1500 
 22 H        3.9450    -6.1250     1.3880 H     1 <1>   0.0800 
 23 H        4.7620    -4.9250     2.3480 H     1 <1>   0.0800 
 24 H        4.4350    -2.4120     1.6420 H     1 <1>   0.0800 
 25 H        3.4570    -2.1030     0.2360 H     1 <1>   0.0800 
 26 H        5.3330    -5.6600    -0.5350 H     1 <1>   0.0800 
 27 H        6.3600    -6.0150     0.8270 H     1 <1>   0.0800 
 28 H        5.8910    -1.9480    -0.2710 H     1 <1>   0.0800 
 29 H        5.0670    -3.1440    -1.2300 H     1 <1>   0.0800 
 30 H        6.7480    -3.6780     1.1460 H     1 <1>   0.4500 
 31 H        7.1570    -4.2390    -1.7140 H     1 <1>   0.0800 
 32 H        8.0780    -5.0070    -0.4430 H     1 <1>   0.0800 
 33 H        7.9470    -2.0170    -0.9500 H     1 <1>   0.0800 
 34 H        9.2930    -3.0730    -1.2310 H     1 <1>   0.0800 
 35 H        8.7820    -2.7730     0.4030 H     1 <1>   0.0800 
@<TRIPOS>BOND
  1   1   2  1   
  2   2   3  ar  
  3   2   4  ar  
  4   3   5  1   
  5   3   6  ar  
  6   4   7  ar  
  7   4  19  1   
  8   6   8  ar  
  9   6  20  1   
 10   7   8  ar  
 11   7   9  1   
 12   8  21  1   
 13   9  10  2   
 14   9  11  am  
 15  11  12  1   
 16  11  13  1   
 17  12  14  1   
 18  12  22  1   
 19  12  23  1   
 20  13  15  1   
 21  13  24  1   
 22  13  25  1   
 23  14  16  1   
 24  14  26  1   
 25  14  27  1   
 26  15  16  1   
 27  15  28  1   
 28  15  29  1   
 29  16  17  1   
 30  16  30  1   
 31  17  18  1   
 32  17  31  1   
 33  17  32  1   
 34  18  33  1   
 35  18  34  1   
 36  18  35  1   
@<TRIPOS>SUBSTRUCTURE
  1 ****   9 GROUP 4 **** **** 0

# MOE 2024.06 (io_trps.svl 2023.06)
