@<TRIPOS>MOLECULE
NONAME
37 38 1 0 0 
SMALL
USER_CHARGES


@<TRIPOS>ATOM
  1 S       -0.1760     0.0650    -0.7750 S.o2  1 <1>   1.3330 
  2 O        0.9220    -0.8320    -1.0490 O.2   1 <1>  -0.6500 
  3 O       -0.5490     1.0850    -1.7270 O.2   1 <1>  -0.6500 
  4 N       -1.5510    -0.8750    -0.4590 N.am  1 <1>  -0.8490 
  5 C        0.1690     0.8760     0.7750 C.3   1 <1>  -0.1350 
  6 C       -2.7540    -0.0980    -0.1390 C.3   1 <1>   0.1960 
  7 C       -1.3240    -2.0020     0.4480 C.3   1 <1>   0.1960 
  8 C       -4.0010    -0.9910    -0.1920 C.3   1 <1>  -0.0190 
  9 C       -2.5310    -2.9470     0.4210 C.3   1 <1>  -0.1600 
 10 C       -5.2360    -0.1800     0.1710 C.2   1 <1>   0.5690 
 11 C       -3.8390    -2.2090     0.7370 C.3   1 <1>  -0.1600 
 12 O       -5.1750     0.5680     1.1160 O.2   1 <1>  -0.5700 
 13 N       -6.3610    -0.3600    -0.5880 N.am  1 <1>  -0.5470 
 14 C       -7.6300     0.2360    -0.5150 C.ar  1 <1>   0.1170 
 15 C       -8.7040    -0.4120    -1.1170 C.ar  1 <1>  -0.1500 
 16 C       -7.8670     1.4530     0.1180 C.ar  1 <1>  -0.1500 
 17 C       -9.9750     0.1330    -1.0860 C.ar  1 <1>  -0.1500 
 18 C       -9.1370     2.0010     0.1520 C.ar  1 <1>  -0.1500 
 19 C      -10.1940     1.3420    -0.4500 C.ar  1 <1>  -0.1500 
 20 H        1.0390     1.4940     0.6710 H     1 <1>   0.0800 
 21 H        0.3570     0.1540     1.5440 H     1 <1>   0.0800 
 22 H       -0.6540     1.4980     1.0670 H     1 <1>   0.0800 
 23 H       -2.8730     0.7020    -0.8530 H     1 <1>   0.0800 
 24 H       -2.6580     0.3380     0.8420 H     1 <1>   0.0800 
 25 H       -1.1630    -1.6430     1.4500 H     1 <1>   0.0800 
 26 H       -0.4490    -2.5510     0.1370 H     1 <1>   0.0800 
 27 H       -4.1020    -1.3360    -1.2050 H     1 <1>   0.0800 
 28 H       -2.3790    -3.7370     1.1340 H     1 <1>   0.0800 
 29 H       -2.5920    -3.3960    -0.5550 H     1 <1>   0.0800 
 30 H       -4.6750    -2.8780     0.6190 H     1 <1>   0.0800 
 31 H       -3.8230    -1.8760     1.7620 H     1 <1>   0.0800 
 32 H       -6.2800    -1.0720    -1.3110 H     1 <1>   0.3700 
 33 H       -8.5510    -1.3530    -1.6130 H     1 <1>   0.1500 
 34 H       -7.0600     1.9840     0.5860 H     1 <1>   0.1500 
 35 H      -10.7960    -0.3810    -1.5550 H     1 <1>   0.1500 
 36 H       -9.3000     2.9420     0.6490 H     1 <1>   0.1500 
 37 H      -11.1820     1.7690    -0.4220 H     1 <1>   0.1500 
@<TRIPOS>BOND
  1   1   2  2   
  2   1   3  2   
  3   1   4  am  
  4   1   5  1   
  5   4   6  1   
  6   4   7  1   
  7   5  20  1   
  8   5  21  1   
  9   5  22  1   
 10   6   8  1   
 11   6  23  1   
 12   6  24  1   
 13   7   9  1   
 14   7  25  1   
 15   7  26  1   
 16   8  10  1   
 17   8  11  1   
 18   8  27  1   
 19   9  11  1   
 20   9  28  1   
 21   9  29  1   
 22  10  12  2   
 23  10  13  am  
 24  11  30  1   
 25  11  31  1   
 26  13  14  1   
 27  13  32  1   
 28  14  15  ar  
 29  14  16  ar  
 30  15  17  ar  
 31  15  33  1   
 32  16  18  ar  
 33  16  34  1   
 34  17  19  ar  
 35  17  35  1   
 36  18  19  ar  
 37  18  36  1   
 38  19  37  1   
@<TRIPOS>SUBSTRUCTURE
  1 ****  10 GROUP 4 **** **** 0

# MOE 2024.06 (io_trps.svl 2023.06)
