@<TRIPOS>MOLECULE
NONAME
40 42 1 0 0 
SMALL
USER_CHARGES


@<TRIPOS>ATOM
  1 N       -0.6290     4.5800    -0.0950 N.4   1 <1>  -0.9590 
  2 C        0.8000     4.9900    -0.1910 C.3   1 <1>   0.4810 
  3 C       -0.8450     3.2390    -0.7200 C.3   1 <1>   0.3430 
  4 C       -1.5380     5.6170    -0.6660 C.3   1 <1>   0.2630 
  5 C        1.6670     3.8680     0.3420 C.2   1 <1>  -0.2880 
  6 C       -0.1200     2.1520     0.0870 C.3   1 <1>  -0.0220 
  7 C        1.2830     2.5900     0.4930 C.2   1 <1>  -0.2760 
  8 C        2.1270     1.4340     1.0340 C.3   1 <1>   0.3470 
  9 N        3.4350     1.9130     1.5190 N.pl3 1 <1>  -0.8690 
 10 C        4.5750     1.6500     0.7650 C.ar  1 <1>   0.1000 
 11 C        5.0050     0.3190     0.4850 C.ar  1 <1>   0.0000 
 12 C        5.2890     2.7120     0.2610 C.ar  1 <1>  -0.1500 
 13 C        6.0810     0.1250    -0.4120 C.ar  1 <1>   0.0000 
 14 C        4.4320    -0.8290     1.0750 C.ar  1 <1>  -0.1500 
 15 C        6.3770     2.5170    -0.5880 C.ar  1 <1>  -0.1500 
 16 C        6.7540     1.2480    -0.9290 C.ar  1 <1>  -0.1500 
 17 C        6.4690    -1.1880    -0.7490 C.ar  1 <1>  -0.1500 
 18 C        4.8370    -2.0940     0.7440 C.ar  1 <1>  -0.1500 
 19 C        5.8600    -2.2760    -0.1890 C.ar  1 <1>  -0.1500 
 20 H       -0.8150     4.4700     0.9110 H     1 <1>   0.4500 
 21 H        0.9600     5.8800     0.3960 H     1 <1>   0.0800 
 22 H        1.0680     5.2000    -1.2140 H     1 <1>   0.0800 
 23 H       -0.4580     3.2480    -1.7270 H     1 <1>   0.0800 
 24 H       -1.8970     3.0090    -0.7630 H     1 <1>   0.0800 
 25 H       -1.3460     5.7470    -1.7190 H     1 <1>   0.0800 
 26 H       -1.3890     6.5620    -0.1690 H     1 <1>   0.0800 
 27 H       -2.5680     5.3230    -0.5380 H     1 <1>   0.0800 
 28 H        2.6570     4.2170     0.5790 H     1 <1>   0.1500 
 29 H       -0.0660     1.2650    -0.5210 H     1 <1>   0.0800 
 30 H       -0.6930     1.9110     0.9650 H     1 <1>   0.0800 
 31 H        2.2730     0.7020     0.2570 H     1 <1>   0.0800 
 32 H        1.6150     0.9570     1.8530 H     1 <1>   0.0800 
 33 H        3.3650     2.8580     1.8990 H     1 <1>   0.4000 
 34 H        5.0080     3.7180     0.5060 H     1 <1>   0.1500 
 35 H        3.6620    -0.6950     1.8110 H     1 <1>   0.1500 
 36 H        6.9080     3.3700    -0.9730 H     1 <1>   0.1500 
 37 H        7.5830     1.0890    -1.5950 H     1 <1>   0.1500 
 38 H        7.2660    -1.3200    -1.4580 H     1 <1>   0.1500 
 39 H        4.3820    -2.9570     1.1980 H     1 <1>   0.1500 
 40 H        6.1620    -3.2760    -0.4480 H     1 <1>   0.1500 
@<TRIPOS>BOND
  1   1   2  1   
  2   1   3  1   
  3   1   4  1   
  4   1  20  1   
  5   2   5  1   
  6   2  21  1   
  7   2  22  1   
  8   3   6  1   
  9   3  23  1   
 10   3  24  1   
 11   4  25  1   
 12   4  26  1   
 13   4  27  1   
 14   5   7  2   
 15   5  28  1   
 16   6   7  1   
 17   6  29  1   
 18   6  30  1   
 19   7   8  1   
 20   8   9  1   
 21   8  31  1   
 22   8  32  1   
 23   9  10  1   
 24   9  33  1   
 25  10  11  ar  
 26  10  12  ar  
 27  11  13  ar  
 28  11  14  ar  
 29  12  15  ar  
 30  12  34  1   
 31  13  16  ar  
 32  13  17  ar  
 33  14  18  ar  
 34  14  35  1   
 35  15  16  ar  
 36  15  36  1   
 37  16  37  1   
 38  17  19  ar  
 39  17  38  1   
 40  18  19  ar  
 41  18  39  1   
 42  19  40  1   
@<TRIPOS>SUBSTRUCTURE
  1 ****   9 GROUP 4 **** **** 0

# MOE 2024.06 (io_trps.svl 2023.06)
