@<TRIPOS>MOLECULE
NONAME
31 31 1 0 0 
SMALL
USER_CHARGES


@<TRIPOS>ATOM
  1 O        0.0150     1.1870    -1.7240 O.2   1 <1>  -0.5700 
  2 C       -0.0710     2.0670    -0.9090 C.2   1 <1>   0.5690 
  3 N       -1.2670     2.3810    -0.3700 N.am  1 <1>  -0.7300 
  4 C        1.1770     2.8100    -0.5000 C.3   1 <1>  -0.1790 
  5 C       -1.6150     3.4420     0.6040 C.3   1 <1>   0.2840 
  6 C       -2.9350     4.1000     0.2170 C.ar  1 <1>   0.1660 
  7 N       -4.0460     3.4900     0.6090 N.ar  1 <1>  -0.6200 
  8 C       -2.9180     5.2790    -0.5120 C.ar  1 <1>  -0.1500 
  9 C       -5.1890     4.0720     0.2730 C.ar  1 <1>   0.1670 
 10 C       -4.1070     5.8800    -0.8620 C.ar  1 <1>  -0.1500 
 11 C       -5.2640     5.2520    -0.4540 C.ar  1 <1>  -0.1500 
 12 C       -6.4630     3.3610     0.7250 C.3   1 <1>   0.2840 
 13 N       -7.5160     4.3170     1.1640 N.am  1 <1>  -0.7300 
 14 C       -8.7710     4.4800     0.6960 C.2   1 <1>   0.5690 
 15 O       -9.4650     5.3570     1.1360 O.2   1 <1>  -0.5700 
 16 C       -9.3210     3.5810    -0.3840 C.3   1 <1>  -0.1790 
 17 H       -2.0700     1.8340    -0.6930 H     1 <1>   0.3700 
 18 H        1.1150     3.8310    -0.8250 H     1 <1>   0.0800 
 19 H        2.0340     2.3530    -0.9600 H     1 <1>   0.0800 
 20 H        1.2960     2.7710     0.5660 H     1 <1>   0.0800 
 21 H       -0.8380     4.1830     0.6430 H     1 <1>   0.0800 
 22 H       -1.7160     3.0040     1.5820 H     1 <1>   0.0800 
 23 H       -1.9860     5.7240    -0.8090 H     1 <1>   0.1500 
 24 H       -4.1330     6.7950    -1.4280 H     1 <1>   0.1500 
 25 H       -6.2180     5.6810    -0.7040 H     1 <1>   0.1500 
 26 H       -6.2260     2.7140     1.5510 H     1 <1>   0.0800 
 27 H       -6.8190     2.7470    -0.0820 H     1 <1>   0.0800 
 28 H       -7.2300     4.9710     1.8960 H     1 <1>   0.3700 
 29 H       -9.2900     2.5580    -0.0590 H     1 <1>   0.0800 
 30 H       -8.7480     3.6970    -1.2840 H     1 <1>   0.0800 
 31 H      -10.3430     3.8470    -0.5870 H     1 <1>   0.0800 
@<TRIPOS>BOND
  1   1   2  2   
  2   2   3  am  
  3   2   4  1   
  4   3   5  1   
  5   3  17  1   
  6   4  18  1   
  7   4  19  1   
  8   4  20  1   
  9   5   6  1   
 10   5  21  1   
 11   5  22  1   
 12   6   7  ar  
 13   6   8  ar  
 14   7   9  ar  
 15   8  10  ar  
 16   8  23  1   
 17   9  11  ar  
 18   9  12  1   
 19  10  11  ar  
 20  10  24  1   
 21  11  25  1   
 22  12  13  1   
 23  12  26  1   
 24  12  27  1   
 25  13  14  am  
 26  13  28  1   
 27  14  15  2   
 28  14  16  1   
 29  16  29  1   
 30  16  30  1   
 31  16  31  1   
@<TRIPOS>SUBSTRUCTURE
  1 ****   7 GROUP 4 **** **** 0

# MOE 2024.06 (io_trps.svl 2023.06)
