@<TRIPOS>MOLECULE
12069
37 38 1 0 0 
SMALL
USER_CHARGES


@<TRIPOS>ATOM
  1 S       -0.6360    -0.8780     0.3850 S.3   1 <1>  -0.0800 
  2 C       -0.1530    -2.5240    -0.0360 C.2   1 <1>   0.1040 
  3 C        0.9910    -0.2840     0.1290 C.2   1 <1>  -0.1400 
  4 N       -1.0980    -3.5540     0.0170 N.am  1 <1>  -0.4940 
  5 C        1.1750    -2.5610    -0.3330 C.2   1 <1>   0.0190 
  6 C        1.8120    -1.2740    -0.2480 C.2   1 <1>  -0.1810 
  7 C        1.3210     1.1790     0.3340 C.3   1 <1>   0.0200 
  8 C       -2.4630    -3.5780     0.0110 C.2   1 <1>   0.6160 
  9 C        1.8930    -3.7440    -0.6930 C.1   1 <1>   0.5380 
 10 C        3.2830    -1.0100    -0.5400 C.3   1 <1>   0.0210 
 11 C        2.8540     1.3490     0.3820 C.3   1 <1>  -0.0800 
 12 O       -2.9630    -4.6230     0.3630 O.2   1 <1>  -0.5700 
 13 C       -3.2620    -2.4650    -0.4540 C.2   1 <1>  -0.1360 
 14 N        2.4630    -4.6910    -0.9740 N.1   1 <1>  -0.5570 
 15 C        3.5510     0.5010    -0.7050 C.3   1 <1>  -0.1600 
 16 C        3.2400     2.8270     0.2490 C.3   1 <1>  -0.2400 
 17 C       -4.5200    -2.0760    -0.1580 C.2   1 <1>  -0.2760 
 18 C       -5.1620    -0.8580    -0.8040 C.3   1 <1>  -0.1020 
 19 C       -5.4530    -2.7640     0.8320 C.3   1 <1>  -0.1020 
 20 H       -0.7370    -4.4990     0.1590 H     1 <1>   0.3700 
 21 H        0.9030     1.7430    -0.4820 H     1 <1>   0.0800 
 22 H        0.8850     1.5300     1.2520 H     1 <1>   0.0800 
 23 H        3.8730    -1.3940     0.2740 H     1 <1>   0.0800 
 24 H        3.5820    -1.5190    -1.4400 H     1 <1>   0.0800 
 25 H        3.1950     0.9990     1.3430 H     1 <1>   0.0800 
 26 H       -2.7150    -1.8770    -1.1650 H     1 <1>   0.1500 
 27 H        3.1930     0.8120    -1.6710 H     1 <1>   0.0800 
 28 H        4.6140     0.6710    -0.6800 H     1 <1>   0.0800 
 29 H        2.9340     3.2170    -0.7060 H     1 <1>   0.0800 
 30 H        4.3060     2.9440     0.3390 H     1 <1>   0.0800 
 31 H        2.7710     3.4080     1.0240 H     1 <1>   0.0800 
 32 H       -6.0510    -1.1460    -1.3360 H     1 <1>   0.0800 
 33 H       -4.4890    -0.3890    -1.5000 H     1 <1>   0.0800 
 34 H       -5.4270    -0.1350    -0.0530 H     1 <1>   0.0800 
 35 H       -5.7880    -2.0620     1.5740 H     1 <1>   0.0800 
 36 H       -4.9690    -3.5750     1.3440 H     1 <1>   0.0800 
 37 H       -6.3100    -3.1590     0.3170 H     1 <1>   0.0800 
@<TRIPOS>BOND
  1   1   2  1   
  2   1   3  1   
  3   2   4  1   
  4   2   5  2   
  5   3   6  2   
  6   3   7  1   
  7   4   8  am  
  8   4  20  1   
  9   5   6  1   
 10   5   9  1   
 11   6  10  1   
 12   7  11  1   
 13   7  21  1   
 14   7  22  1   
 15   8  12  2   
 16   8  13  1   
 17   9  14  3   
 18  10  15  1   
 19  10  23  1   
 20  10  24  1   
 21  11  15  1   
 22  11  16  1   
 23  11  25  1   
 24  13  17  2   
 25  13  26  1   
 26  15  27  1   
 27  15  28  1   
 28  16  29  1   
 29  16  30  1   
 30  16  31  1   
 31  17  18  1   
 32  17  19  1   
 33  18  32  1   
 34  18  33  1   
 35  18  34  1   
 36  19  35  1   
 37  19  36  1   
 38  19  37  1   
@<TRIPOS>SUBSTRUCTURE
  1 ****   2 GROUP 4 **** **** 0

# MOE 2024.06 (io_trps.svl 2023.06)
