@<TRIPOS>MOLECULE
NONAME
42 45 1 0 0 
SMALL
USER_CHARGES


@<TRIPOS>ATOM
  1 S       -0.0180    -0.9850     0.8570 S.3   1 <1>  -0.0800 
  2 C        1.6660    -1.0350     1.2150 C.2   1 <1>   0.4340 
  3 C        0.4120    -1.6300    -0.6920 C.2   1 <1>   0.1980 
  4 S        2.1690    -0.4640     2.8270 S.3   1 <1>  -0.2860 
  5 N        2.3970    -1.4750     0.2720 N.2   1 <1>  -0.3380 
  6 N        1.6640    -1.8200    -0.8330 N.2   1 <1>  -0.3380 
  7 C       -0.7000    -1.8910    -1.6820 C.3   1 <1>  -0.0600 
  8 C        3.9740    -0.8960     2.8910 C.3   1 <1>   0.1310 
  9 C        4.1570    -2.4090     2.9950 C.2   1 <1>   0.5690 
 10 O        3.6340    -2.9580     3.9320 O.2   1 <1>  -0.5700 
 11 N        4.8790    -3.1920     2.1530 N.am  1 <1>  -0.7300 
 12 C        5.7650    -3.0660     0.9760 C.3   1 <1>   0.3000 
 13 C        7.1170    -3.6950     1.3640 C.3   1 <1>  -0.1600 
 14 C        6.0110    -1.6270     0.4840 C.3   1 <1>  -0.1600 
 15 C        5.1480    -3.8880    -0.1700 C.3   1 <1>  -0.1600 
 16 C        8.0750    -3.7110     0.1570 C.3   1 <1>  -0.0800 
 17 C        6.9640    -1.6280    -0.7280 C.3   1 <1>  -0.0800 
 18 C        6.0900    -3.9020    -1.3900 C.3   1 <1>  -0.0800 
 19 C        8.3050    -2.2670    -0.3230 C.3   1 <1>  -0.1600 
 20 C        7.4370    -4.5280    -0.9820 C.3   1 <1>  -0.1600 
 21 C        6.3280    -2.4550    -1.8620 C.3   1 <1>  -0.1600 
 22 H       -1.2190    -0.9760    -1.9000 H     1 <1>   0.0800 
 23 H       -1.3930    -2.6040    -1.2730 H     1 <1>   0.0800 
 24 H       -0.2900    -2.2860    -2.5940 H     1 <1>   0.0800 
 25 H        4.3690    -0.4270     3.7720 H     1 <1>   0.0800 
 26 H        4.4170    -0.4620     2.0250 H     1 <1>   0.0800 
 27 H        4.7940    -4.1730     2.4180 H     1 <1>   0.3700 
 28 H        6.9670    -4.7030     1.7070 H     1 <1>   0.0800 
 29 H        7.5610    -3.1310     2.1650 H     1 <1>   0.0800 
 30 H        6.4450    -1.0360     1.2700 H     1 <1>   0.0800 
 31 H        5.0850    -1.1860     0.1680 H     1 <1>   0.0800 
 32 H        4.2030    -3.4600    -0.4550 H     1 <1>   0.0800 
 33 H        4.9710    -4.8980     0.1530 H     1 <1>   0.0800 
 34 H        9.0140    -4.1550     0.4420 H     1 <1>   0.0800 
 35 H        7.1270    -0.6190    -1.0640 H     1 <1>   0.0800 
 36 H        5.6450    -4.4750    -2.1860 H     1 <1>   0.0800 
 37 H        8.9770    -2.2650    -1.1630 H     1 <1>   0.0800 
 38 H        8.7630    -1.6890     0.4610 H     1 <1>   0.0800 
 39 H        7.2850    -5.5450    -0.6630 H     1 <1>   0.0800 
 40 H        8.0990    -4.5500    -1.8300 H     1 <1>   0.0800 
 41 H        5.3920    -2.0120    -2.1570 H     1 <1>   0.0800 
 42 H        6.9750    -2.4540    -2.7220 H     1 <1>   0.0800 
@<TRIPOS>BOND
  1   1   2  1   
  2   1   3  1   
  3   2   4  1   
  4   2   5  2   
  5   3   6  2   
  6   3   7  1   
  7   4   8  1   
  8   5   6  1   
  9   7  22  1   
 10   7  23  1   
 11   7  24  1   
 12   8   9  1   
 13   8  25  1   
 14   8  26  1   
 15   9  10  2   
 16   9  11  am  
 17  11  12  1   
 18  11  27  1   
 19  12  13  1   
 20  12  14  1   
 21  12  15  1   
 22  13  16  1   
 23  13  28  1   
 24  13  29  1   
 25  14  17  1   
 26  14  30  1   
 27  14  31  1   
 28  15  18  1   
 29  15  32  1   
 30  15  33  1   
 31  16  19  1   
 32  16  20  1   
 33  16  34  1   
 34  17  19  1   
 35  17  21  1   
 36  17  35  1   
 37  18  20  1   
 38  18  21  1   
 39  18  36  1   
 40  19  37  1   
 41  19  38  1   
 42  20  39  1   
 43  20  40  1   
 44  21  41  1   
 45  21  42  1   
@<TRIPOS>SUBSTRUCTURE
  1 ****  12 GROUP 4 **** **** 0

# MOE 2024.06 (io_trps.svl 2023.06)
