@<TRIPOS>MOLECULE
NONAME
47 49 1 0 0 
SMALL
USER_CHARGES


@<TRIPOS>ATOM
  1 F        1.7720     0.1560     1.7480 F     1 <1>  -0.1900 
  2 C        2.5090    -0.8520     1.3690 C.ar  1 <1>   0.1900 
  3 C        3.5580    -0.6130     0.5010 C.ar  1 <1>  -0.1500 
  4 C        2.2170    -2.1130     1.8490 C.ar  1 <1>  -0.1500 
  5 C        4.3530    -1.6790     0.1020 C.ar  1 <1>  -0.1440 
  6 C        3.0060    -3.1740     1.4410 C.ar  1 <1>  -0.1500 
  7 C        4.0660    -2.9570     0.5720 C.ar  1 <1>  -0.1500 
  8 C        5.5270    -1.4540    -0.8320 C.3   1 <1>   0.4870 
  9 N        6.6210    -0.7900    -0.0720 N.4   1 <1>  -0.9590 
 10 C        7.7460    -0.4040    -1.0000 C.3   1 <1>   0.3430 
 11 C        7.1030    -1.6760     1.0530 C.3   1 <1>   0.3430 
 12 C        8.9700     0.1610    -0.2440 C.3   1 <1>   0.1400 
 13 C        8.3130    -1.0750     1.7980 C.3   1 <1>   0.1400 
 14 N        9.4040    -0.7760     0.8320 N.am  1 <1>  -0.6600 
 15 C       10.1560    -1.8450     0.4480 C.2   1 <1>   0.6900 
 16 O        9.7640    -2.5280    -0.4790 O.2   1 <1>  -0.5700 
 17 N       11.2720    -2.1360     1.1620 N.am  1 <1>  -0.5470 
 18 C       12.0920    -3.2680     1.0800 C.ar  1 <1>   0.1170 
 19 C       12.8480    -3.5790    -0.0530 C.ar  1 <1>  -0.1430 
 20 C       12.1630    -4.1040     2.1880 C.ar  1 <1>  -0.1500 
 21 C       13.6350    -4.7200    -0.0590 C.ar  1 <1>  -0.1500 
 22 C       12.8450    -2.6950    -1.2950 C.3   1 <1>  -0.0970 
 23 C       12.9540    -5.2380     2.1760 C.ar  1 <1>  -0.1500 
 24 C       13.6900    -5.5480     1.0480 C.ar  1 <1>  -0.1500 
 25 H        3.7240     0.3920     0.1570 H     1 <1>   0.1500 
 26 H        1.3900    -2.2570     2.5220 H     1 <1>   0.1500 
 27 H        2.7920    -4.1680     1.7980 H     1 <1>   0.1500 
 28 H        4.6610    -3.8030     0.2670 H     1 <1>   0.1500 
 29 H        5.2130    -0.8320    -1.6540 H     1 <1>   0.0800 
 30 H        5.8700    -2.3960    -1.2280 H     1 <1>   0.0800 
 31 H        6.2290     0.0590     0.3510 H     1 <1>   0.4500 
 32 H        7.4030     0.3270    -1.7130 H     1 <1>   0.0800 
 33 H        8.0710    -1.2730    -1.5500 H     1 <1>   0.0800 
 34 H        7.3990    -2.6330     0.6540 H     1 <1>   0.0800 
 35 H        6.3040    -1.8450     1.7560 H     1 <1>   0.0800 
 36 H        8.7350     1.1200     0.1830 H     1 <1>   0.0800 
 37 H        9.7800     0.3010    -0.9410 H     1 <1>   0.0800 
 38 H        8.6640    -1.7820     2.5310 H     1 <1>   0.0800 
 39 H        8.0260    -0.1760     2.3160 H     1 <1>   0.0800 
 40 H       11.4710    -1.4920     1.9230 H     1 <1>   0.3700 
 41 H       11.5910    -3.8710     3.0670 H     1 <1>   0.1500 
 42 H       14.2130    -4.9720    -0.9300 H     1 <1>   0.1500 
 43 H       12.8310    -1.6570    -1.0190 H     1 <1>   0.0800 
 44 H       11.9780    -2.9120    -1.8920 H     1 <1>   0.0800 
 45 H       13.7230    -2.8710    -1.8900 H     1 <1>   0.0800 
 46 H       12.9960    -5.8790     3.0390 H     1 <1>   0.1500 
 47 H       14.3050    -6.4310     1.0300 H     1 <1>   0.1500 
@<TRIPOS>BOND
  1   1   2  1   
  2   2   3  ar  
  3   2   4  ar  
  4   3   5  ar  
  5   3  25  1   
  6   4   6  ar  
  7   4  26  1   
  8   5   7  ar  
  9   5   8  1   
 10   6   7  ar  
 11   6  27  1   
 12   7  28  1   
 13   8   9  1   
 14   8  29  1   
 15   8  30  1   
 16   9  10  1   
 17   9  11  1   
 18   9  31  1   
 19  10  12  1   
 20  10  32  1   
 21  10  33  1   
 22  11  13  1   
 23  11  34  1   
 24  11  35  1   
 25  12  14  1   
 26  12  36  1   
 27  12  37  1   
 28  13  14  1   
 29  13  38  1   
 30  13  39  1   
 31  14  15  am  
 32  15  16  2   
 33  15  17  am  
 34  17  18  1   
 35  17  40  1   
 36  18  19  ar  
 37  18  20  ar  
 38  19  21  ar  
 39  19  22  1   
 40  20  23  ar  
 41  20  41  1   
 42  21  24  ar  
 43  21  42  1   
 44  22  43  1   
 45  22  44  1   
 46  22  45  1   
 47  23  24  ar  
 48  23  46  1   
 49  24  47  1   
@<TRIPOS>SUBSTRUCTURE
  1 ****  11 GROUP 4 **** **** 0

# MOE 2024.06 (io_trps.svl 2023.06)
