@<TRIPOS>MOLECULE
NONAME
29 29 1 0 0 
SMALL
USER_CHARGES


@<TRIPOS>ATOM
  1 S        0.2830    -0.1310     0.2330 S.3   1 <1>  -0.4600 
  2 C       -1.0430    -1.3480     0.2570 C.3   1 <1>   0.0700 
  3 C       -0.7000     1.3270    -0.1530 C.3   1 <1>   0.0700 
  4 C       -2.2540    -0.6020    -0.3200 C.3   1 <1>   0.4230 
  5 C       -2.1410     0.8730     0.0880 C.3   1 <1>  -0.1600 
  6 N       -3.5280    -1.2050     0.1580 N.4   1 <1>  -0.9060 
  7 C       -4.7370    -0.6780    -0.5220 C.3   1 <1>   0.4230 
  8 C       -5.5060     0.3260     0.3600 C.3   1 <1>   0.1200 
  9 C       -5.6010    -1.8820    -0.8860 C.3   1 <1>  -0.2400 
 10 O       -6.4690     0.9400    -0.4290 O.3   1 <1>  -0.5600 
 11 C       -7.2890     1.8400     0.2500 C.3   1 <1>   0.0400 
 12 H       -1.1760    -1.6290     1.2870 H     1 <1>   0.0800 
 13 H       -0.7350    -2.1840    -0.3460 H     1 <1>   0.0800 
 14 H       -0.5110     1.5730    -1.1850 H     1 <1>   0.0800 
 15 H       -0.3910     2.1320     0.4930 H     1 <1>   0.0800 
 16 H       -2.1990    -0.6670    -1.3960 H     1 <1>   0.0800 
 17 H       -2.8080     1.4970    -0.4810 H     1 <1>   0.0800 
 18 H       -2.3520     0.9860     1.1370 H     1 <1>   0.0800 
 19 H       -3.6160    -1.0890     1.1730 H     1 <1>   0.4500 
 20 H       -3.4990    -2.2150    -0.0220 H     1 <1>   0.4500 
 21 H       -4.4450    -0.1720    -1.4290 H     1 <1>   0.0800 
 22 H       -4.8550     1.0950     0.7370 H     1 <1>   0.0800 
 23 H       -6.0010    -0.1760     1.1740 H     1 <1>   0.0800 
 24 H       -5.9240    -2.4140    -0.0090 H     1 <1>   0.0800 
 25 H       -5.0760    -2.5490    -1.5460 H     1 <1>   0.0800 
 26 H       -6.4810    -1.5420    -1.4060 H     1 <1>   0.0800 
 27 H       -6.6900     2.6300     0.6690 H     1 <1>   0.0800 
 28 H       -7.8290     1.3210     1.0250 H     1 <1>   0.0800 
 29 H       -7.9880     2.2550    -0.4560 H     1 <1>   0.0800 
@<TRIPOS>BOND
  1   1   2  1   
  2   1   3  1   
  3   2   4  1   
  4   2  12  1   
  5   2  13  1   
  6   3   5  1   
  7   3  14  1   
  8   3  15  1   
  9   4   5  1   
 10   4   6  1   
 11   4  16  1   
 12   5  17  1   
 13   5  18  1   
 14   6   7  1   
 15   6  19  1   
 16   6  20  1   
 17   7   8  1   
 18   7   9  1   
 19   7  21  1   
 20   8  10  1   
 21   8  22  1   
 22   8  23  1   
 23   9  24  1   
 24   9  25  1   
 25   9  26  1   
 26  10  11  1   
 27  11  27  1   
 28  11  28  1   
 29  11  29  1   
@<TRIPOS>SUBSTRUCTURE
  1 ****   6 GROUP 4 **** **** 0

# MOE 2024.06 (io_trps.svl 2023.06)
