@<TRIPOS>MOLECULE
NONAME
44 45 1 0 0 
SMALL
USER_CHARGES


@<TRIPOS>ATOM
  1 CL      -0.8660    -0.9380    -0.2550 Cl    1 <1>  -0.1770 
  2 C       -2.4800    -0.3950     0.1230 C.ar  1 <1>   0.1770 
  3 C       -2.7040     0.6680     0.9890 C.ar  1 <1>  -0.0090 
  4 C       -3.5230    -1.0690    -0.4840 C.ar  1 <1>  -0.1500 
  5 S       -1.3360     1.5500     1.7760 S.o2  1 <1>   1.4470 
  6 C       -4.0250     1.0380     1.2230 C.ar  1 <1>  -0.1500 
  7 C       -4.8200    -0.6710    -0.2300 C.ar  1 <1>   0.1770 
  8 O       -0.4760     0.6050     2.4520 O.2   1 <1>  -0.6500 
  9 O       -1.8640     2.6720     2.5210 O.2   1 <1>  -0.6500 
 10 N       -0.4880     2.1950     0.4560 N.am  1 <1>  -0.8490 
 11 C       -5.1050     0.3950     0.6180 C.ar  1 <1>   0.0860 
 12 CL      -6.1090    -1.5510    -1.0100 Cl    1 <1>  -0.1770 
 13 C       -1.0240     3.4840    -0.0110 C.3   1 <1>   0.1960 
 14 C        0.9510     2.3300     0.7310 C.3   1 <1>   0.1960 
 15 C       -6.4570     0.8230     0.8900 C.2   1 <1>   0.5440 
 16 C       -0.2300     4.0020    -1.2230 C.3   1 <1>   0.1200 
 17 C        1.7010     2.8980    -0.4890 C.3   1 <1>   0.1200 
 18 O       -6.9210     0.5810     1.9870 O.2   1 <1>  -0.5700 
 19 N       -7.2100     1.5250    -0.0320 N.am  1 <1>  -0.6600 
 20 O        1.1280     4.1060    -0.9060 O.3   1 <1>  -0.5600 
 21 C       -8.6610     1.7690     0.2070 C.3   1 <1>   0.1400 
 22 C       -6.6980     1.9510    -1.3630 C.3   1 <1>   0.1400 
 23 C       -8.8880     3.2150     0.6400 C.3   1 <1>  -0.2400 
 24 C       -5.8130     3.1890    -1.2220 C.3   1 <1>  -0.2400 
 25 H       -3.3260    -1.8940    -1.1440 H     1 <1>   0.1500 
 26 H       -4.2370     1.8510     1.9010 H     1 <1>   0.1500 
 27 H       -0.9680     4.2190     0.7750 H     1 <1>   0.0800 
 28 H       -2.0580     3.3690    -0.2880 H     1 <1>   0.0800 
 29 H        1.3670     1.3650     0.9680 H     1 <1>   0.0800 
 30 H        1.1060     2.9770     1.5780 H     1 <1>   0.0800 
 31 H       -0.5760     4.9800    -1.5060 H     1 <1>   0.0800 
 32 H       -0.3390     3.3360    -2.0620 H     1 <1>   0.0800 
 33 H        1.6680     2.2000    -1.3070 H     1 <1>   0.0800 
 34 H        2.7280     3.0900    -0.2370 H     1 <1>   0.0800 
 35 H       -9.0240     1.1080     0.9770 H     1 <1>   0.0800 
 36 H       -9.2200     1.5560    -0.6880 H     1 <1>   0.0800 
 37 H       -7.5250     2.1770    -2.0150 H     1 <1>   0.0800 
 38 H       -6.1410     1.1510    -1.8170 H     1 <1>   0.0800 
 39 H       -8.2940     3.4340     1.5100 H     1 <1>   0.0800 
 40 H       -9.9240     3.3560     0.8910 H     1 <1>   0.0800 
 41 H       -8.6370     3.8940    -0.1520 H     1 <1>   0.0800 
 42 H       -6.3620     3.9940    -0.7710 H     1 <1>   0.0800 
 43 H       -5.4850     3.5070    -2.1950 H     1 <1>   0.0800 
 44 H       -4.9470     2.9760    -0.6260 H     1 <1>   0.0800 
@<TRIPOS>BOND
  1   1   2  1   
  2   2   3  ar  
  3   2   4  ar  
  4   3   5  1   
  5   3   6  ar  
  6   4   7  ar  
  7   4  25  1   
  8   5   8  2   
  9   5   9  2   
 10   5  10  am  
 11   6  11  ar  
 12   6  26  1   
 13   7  11  ar  
 14   7  12  1   
 15  10  13  1   
 16  10  14  1   
 17  11  15  1   
 18  13  16  1   
 19  13  27  1   
 20  13  28  1   
 21  14  17  1   
 22  14  29  1   
 23  14  30  1   
 24  15  18  2   
 25  15  19  am  
 26  16  20  1   
 27  16  31  1   
 28  16  32  1   
 29  17  20  1   
 30  17  33  1   
 31  17  34  1   
 32  19  21  1   
 33  19  22  1   
 34  21  23  1   
 35  21  35  1   
 36  21  36  1   
 37  22  24  1   
 38  22  37  1   
 39  22  38  1   
 40  23  39  1   
 41  23  40  1   
 42  23  41  1   
 43  24  42  1   
 44  24  43  1   
 45  24  44  1   
@<TRIPOS>SUBSTRUCTURE
  1 ****   6 GROUP 4 **** **** 0

# MOE 2024.06 (io_trps.svl 2023.06)
