@<TRIPOS>MOLECULE
NONAME
50 51 1 0 0 
SMALL
USER_CHARGES


@<TRIPOS>ATOM
  1 CL       2.7570     2.0160    -3.0070 Cl    1 <1>  -0.1770 
  2 C        3.7530     1.1060    -1.8930 C.ar  1 <1>   0.1770 
  3 C        3.7130     1.3790    -0.5330 C.ar  1 <1>  -0.1440 
  4 C        4.5710     0.1160    -2.4070 C.ar  1 <1>  -0.1500 
  5 C        4.5190     0.6330     0.3130 C.ar  1 <1>  -0.1500 
  6 C        2.8080     2.4670     0.0250 C.3   1 <1>  -0.0960 
  7 C        5.3720    -0.6230    -1.5540 C.ar  1 <1>  -0.1500 
  8 C        5.3490    -0.3620    -0.1850 C.ar  1 <1>   0.0830 
  9 O        6.1020    -1.0320     0.7230 O.3   1 <1>  -0.3630 
 10 C        7.0620    -1.9880     0.3250 C.3   1 <1>   0.1200 
 11 C        7.7560    -2.5410     1.5790 C.3   1 <1>   0.2000 
 12 O        8.1160    -1.4780     2.4140 O.3   1 <1>  -0.6800 
 13 C        9.0120    -3.3900     1.2630 C.3   1 <1>   0.3430 
 14 N       10.2670    -2.5860     1.4220 N.4   1 <1>  -0.9590 
 15 C       10.6230    -1.7670     0.2090 C.3   1 <1>   0.3430 
 16 C       11.4210    -3.4140     1.9240 C.3   1 <1>   0.3430 
 17 C       11.8910    -0.9190     0.4300 C.3   1 <1>   0.1400 
 18 C       12.6860    -2.5650     2.1510 C.3   1 <1>   0.1400 
 19 N       13.0060    -1.7780     0.9260 N.am  1 <1>  -0.6600 
 20 C       14.1760    -1.9690     0.2370 C.2   1 <1>   0.7800 
 21 O       15.0040    -2.7850     0.5870 O.2   1 <1>  -0.5700 
 22 O       14.3700    -1.2460    -0.8640 O.3   1 <1>  -0.4300 
 23 C       15.5570    -1.3790    -1.6140 C.3   1 <1>   0.1200 
 24 C       15.4780    -0.4230    -2.8000 C.3   1 <1>  -0.2400 
 25 H        4.5730    -0.0690    -3.4660 H     1 <1>   0.1500 
 26 H        4.5090     0.8180     1.3720 H     1 <1>   0.1500 
 27 H        1.7820     2.2480    -0.2090 H     1 <1>   0.0800 
 28 H        3.0660     3.4170    -0.4080 H     1 <1>   0.0800 
 29 H        2.9060     2.5420     1.0930 H     1 <1>   0.0800 
 30 H        5.9940    -1.3880    -1.9760 H     1 <1>   0.1500 
 31 H        7.7650    -1.5030    -0.3290 H     1 <1>   0.0800 
 32 H        6.5570    -2.7780    -0.2040 H     1 <1>   0.0800 
 33 H        7.0460    -3.1520     2.1110 H     1 <1>   0.0800 
 34 H        7.3360    -0.8810     2.5090 H     1 <1>   0.4000 
 35 H        8.9470    -3.8150     0.2750 H     1 <1>   0.0800 
 36 H        9.0290    -4.2070     1.9640 H     1 <1>   0.0800 
 37 H       10.0060    -1.9050     2.1650 H     1 <1>   0.4500 
 38 H        9.8080    -1.1080    -0.0390 H     1 <1>   0.0800 
 39 H       10.7950    -2.4200    -0.6310 H     1 <1>   0.0800 
 40 H       11.6550    -4.1820     1.2060 H     1 <1>   0.0800 
 41 H       11.1530    -3.8950     2.8500 H     1 <1>   0.0800 
 42 H       11.6910    -0.1470     1.1520 H     1 <1>   0.0800 
 43 H       12.1590    -0.4370    -0.4940 H     1 <1>   0.0800 
 44 H       13.5050    -3.2140     2.4120 H     1 <1>   0.0800 
 45 H       12.5320    -1.8920     2.9760 H     1 <1>   0.0800 
 46 H       15.6400    -2.4010    -1.9460 H     1 <1>   0.0800 
 47 H       16.3920    -1.1370    -0.9780 H     1 <1>   0.0800 
 48 H       14.6380    -0.6710    -3.4230 H     1 <1>   0.0800 
 49 H       16.3740    -0.5030    -3.3880 H     1 <1>   0.0800 
 50 H       15.3860     0.5910    -2.4540 H     1 <1>   0.0800 
@<TRIPOS>BOND
  1   1   2  1   
  2   2   3  ar  
  3   2   4  ar  
  4   3   5  ar  
  5   3   6  1   
  6   4   7  ar  
  7   4  25  1   
  8   5   8  ar  
  9   5  26  1   
 10   6  27  1   
 11   6  28  1   
 12   6  29  1   
 13   7   8  ar  
 14   7  30  1   
 15   8   9  1   
 16   9  10  1   
 17  10  11  1   
 18  10  31  1   
 19  10  32  1   
 20  11  12  1   
 21  11  13  1   
 22  11  33  1   
 23  12  34  1   
 24  13  14  1   
 25  13  35  1   
 26  13  36  1   
 27  14  15  1   
 28  14  16  1   
 29  14  37  1   
 30  15  17  1   
 31  15  38  1   
 32  15  39  1   
 33  16  18  1   
 34  16  40  1   
 35  16  41  1   
 36  17  19  1   
 37  17  42  1   
 38  17  43  1   
 39  18  19  1   
 40  18  44  1   
 41  18  45  1   
 42  19  20  am  
 43  20  21  2   
 44  20  22  1   
 45  22  23  1   
 46  23  24  1   
 47  23  46  1   
 48  23  47  1   
 49  24  48  1   
 50  24  49  1   
 51  24  50  1   
@<TRIPOS>SUBSTRUCTURE
  1 ****  15 GROUP 4 **** **** 0

# MOE 2024.06 (io_trps.svl 2023.06)
