@<TRIPOS>MOLECULE
NONAME
48 50 1 0 0 
SMALL
USER_CHARGES


@<TRIPOS>ATOM
  1 CL      -0.5960    -0.0010     0.8970 Cl    1 <1>  -0.1770 
  2 C        1.1030     0.0630     0.4620 C.ar  1 <1>   0.1770 
  3 C        1.7530     1.2950     0.3700 C.ar  1 <1>   0.1170 
  4 C        1.7690    -1.1270     0.2410 C.ar  1 <1>  -0.1500 
  5 N        1.0840     2.5100     0.5890 N.am  1 <1>  -0.5470 
  6 C        3.1070     1.2980     0.0600 C.ar  1 <1>  -0.1500 
  7 C        3.1180    -1.1030    -0.0720 C.ar  1 <1>  -0.1500 
  8 C        0.0540     2.9850    -0.1770 C.2   1 <1>   0.5690 
  9 C        3.7830     0.1090    -0.1600 C.ar  1 <1>  -0.1500 
 10 O       -0.2090     2.5300    -1.2650 O.2   1 <1>  -0.5700 
 11 C       -0.8620     4.1030     0.3460 C.3   1 <1>   0.4040 
 12 N       -2.2880     3.9500    -0.1340 N.4   1 <1>  -0.9590 
 13 C       -3.1050     5.1760     0.0720 C.3   1 <1>   0.3430 
 14 C       -2.9270     2.7230     0.4300 C.3   1 <1>   0.3430 
 15 C       -4.4760     4.9970    -0.5830 C.3   1 <1>  -0.1600 
 16 C       -4.2960     2.5150    -0.2140 C.3   1 <1>  -0.1600 
 17 C       -5.2020     3.7500    -0.0560 C.3   1 <1>  -0.0800 
 18 C       -6.5570     3.5620    -0.7660 C.3   1 <1>  -0.0170 
 19 C       -7.3160     2.3670    -0.2120 C.ar  1 <1>  -0.1430 
 20 C       -7.9620     2.4570     1.0110 C.ar  1 <1>  -0.1500 
 21 C       -7.3660     1.1750    -0.9200 C.ar  1 <1>  -0.1500 
 22 C       -8.6420     1.3670     1.5260 C.ar  1 <1>  -0.1500 
 23 C       -8.0450     0.0840    -0.4060 C.ar  1 <1>  -0.1500 
 24 C       -8.6830     0.1790     0.8180 C.ar  1 <1>  -0.1500 
 25 H        1.2410    -2.0610     0.3160 H     1 <1>   0.1500 
 26 H        1.3880     3.0250     1.4170 H     1 <1>   0.3700 
 27 H        3.6370     2.2310    -0.0200 H     1 <1>   0.1500 
 28 H        3.6480    -2.0240    -0.2480 H     1 <1>   0.1500 
 29 H        4.8330     0.1250    -0.4050 H     1 <1>   0.1500 
 30 H       -0.4660     5.0400    -0.0060 H     1 <1>   0.0800 
 31 H       -0.8380     4.1050     1.4210 H     1 <1>   0.0800 
 32 H       -2.2100     3.7680    -1.1500 H     1 <1>   0.4500 
 33 H       -2.6100     6.0300    -0.3630 H     1 <1>   0.0800 
 34 H       -3.2340     5.3570     1.1270 H     1 <1>   0.0800 
 35 H       -3.0430     2.8230     1.4970 H     1 <1>   0.0800 
 36 H       -2.3120     1.8590     0.2320 H     1 <1>   0.0800 
 37 H       -4.3520     4.9330    -1.6510 H     1 <1>   0.0800 
 38 H       -5.0710     5.8710    -0.3800 H     1 <1>   0.0800 
 39 H       -4.7570     1.6620     0.2550 H     1 <1>   0.0800 
 40 H       -4.1660     2.2750    -1.2550 H     1 <1>   0.0800 
 41 H       -5.3990     3.8900     0.9950 H     1 <1>   0.0800 
 42 H       -6.4050     3.4360    -1.8240 H     1 <1>   0.0800 
 43 H       -7.1610     4.4430    -0.6330 H     1 <1>   0.0800 
 44 H       -7.9420     3.3750     1.5700 H     1 <1>   0.1500 
 45 H       -6.8780     1.0860    -1.8740 H     1 <1>   0.1500 
 46 H       -9.1420     1.4420     2.4760 H     1 <1>   0.1500 
 47 H       -8.0800    -0.8390    -0.9590 H     1 <1>   0.1500 
 48 H       -9.2110    -0.6690     1.2180 H     1 <1>   0.1500 
@<TRIPOS>BOND
  1   1   2  1   
  2   2   3  ar  
  3   2   4  ar  
  4   3   5  1   
  5   3   6  ar  
  6   4   7  ar  
  7   4  25  1   
  8   5   8  am  
  9   5  26  1   
 10   6   9  ar  
 11   6  27  1   
 12   7   9  ar  
 13   7  28  1   
 14   8  10  2   
 15   8  11  1   
 16   9  29  1   
 17  11  12  1   
 18  11  30  1   
 19  11  31  1   
 20  12  13  1   
 21  12  14  1   
 22  12  32  1   
 23  13  15  1   
 24  13  33  1   
 25  13  34  1   
 26  14  16  1   
 27  14  35  1   
 28  14  36  1   
 29  15  17  1   
 30  15  37  1   
 31  15  38  1   
 32  16  17  1   
 33  16  39  1   
 34  16  40  1   
 35  17  18  1   
 36  17  41  1   
 37  18  19  1   
 38  18  42  1   
 39  18  43  1   
 40  19  20  ar  
 41  19  21  ar  
 42  20  22  ar  
 43  20  44  1   
 44  21  23  ar  
 45  21  45  1   
 46  22  24  ar  
 47  22  46  1   
 48  23  24  ar  
 49  23  47  1   
 50  24  48  1   
@<TRIPOS>SUBSTRUCTURE
  1 ****  14 GROUP 4 **** **** 0

# MOE 2024.06 (io_trps.svl 2023.06)
