@<TRIPOS>MOLECULE
NONAME
35 35 1 0 0 
SMALL
USER_CHARGES


@<TRIPOS>ATOM
  1 P        0.1710     0.3400     0.3560 P.3   1 <1>   0.9760 
  2 O        0.1800     0.5080     1.8010 O.2   1 <1>  -0.7000 
  3 N        1.7480     0.4980    -0.2900 N.pl3 1 <1>  -0.7760 
  4 C       -0.5110    -1.2160    -0.2440 C.3   1 <1>  -0.0800 
  5 C       -0.7040     1.6500    -0.5100 C.3   1 <1>  -0.0800 
  6 C        2.8890    -0.2400     0.0020 C.ar  1 <1>   0.1000 
  7 C       -1.7020    -1.7240     0.5950 C.3   1 <1>  -0.2400 
  8 C        0.4800    -2.3930    -0.3390 C.3   1 <1>  -0.2400 
  9 C       -0.1510     3.0560    -0.1940 C.3   1 <1>  -0.2400 
 10 C       -2.2230     1.6960    -0.2630 C.3   1 <1>  -0.2400 
 11 C        3.8850    -0.3490    -0.9610 C.ar  1 <1>  -0.1500 
 12 C        3.0810    -0.8650     1.2300 C.ar  1 <1>  -0.1500 
 13 C        5.0380    -1.0710    -0.7120 C.ar  1 <1>  -0.1500 
 14 C        4.2320    -1.5900     1.4830 C.ar  1 <1>  -0.1500 
 15 C        5.2130    -1.6950     0.5110 C.ar  1 <1>  -0.1500 
 16 H        1.9740     1.4770    -0.4480 H     1 <1>   0.4000 
 17 H       -0.8740    -1.0650    -1.2440 H     1 <1>   0.0800 
 18 H       -0.5740     1.5060    -1.5680 H     1 <1>   0.0800 
 19 H       -1.3720    -1.9670     1.5910 H     1 <1>   0.0800 
 20 H       -2.1360    -2.6030     0.1530 H     1 <1>   0.0800 
 21 H       -2.4690    -0.9780     0.6790 H     1 <1>   0.0800 
 22 H        0.9070    -2.6050     0.6260 H     1 <1>   0.0800 
 23 H        1.2770    -2.1610    -1.0230 H     1 <1>   0.0800 
 24 H       -0.0100    -3.2810    -0.6990 H     1 <1>   0.0800 
 25 H       -0.2560     3.2660     0.8570 H     1 <1>   0.0800 
 26 H       -0.6800     3.8100    -0.7500 H     1 <1>   0.0800 
 27 H        0.8900     3.1270    -0.4490 H     1 <1>   0.0800 
 28 H       -2.4270     1.7600     0.7930 H     1 <1>   0.0800 
 29 H       -2.6970     0.8160    -0.6570 H     1 <1>   0.0800 
 30 H       -2.6660     2.5470    -0.7500 H     1 <1>   0.0800 
 31 H        3.7490     0.1320    -1.9120 H     1 <1>   0.1500 
 32 H        2.3320    -0.7820     1.9970 H     1 <1>   0.1500 
 33 H        5.7990    -1.1490    -1.4680 H     1 <1>   0.1500 
 34 H        4.3640    -2.0690     2.4370 H     1 <1>   0.1500 
 35 H        6.1080    -2.2580     0.7080 H     1 <1>   0.1500 
@<TRIPOS>BOND
  1   1   2  2   
  2   1   3  1   
  3   1   4  1   
  4   1   5  1   
  5   3   6  1   
  6   3  16  1   
  7   4   7  1   
  8   4   8  1   
  9   4  17  1   
 10   5   9  1   
 11   5  10  1   
 12   5  18  1   
 13   6  11  ar  
 14   6  12  ar  
 15   7  19  1   
 16   7  20  1   
 17   7  21  1   
 18   8  22  1   
 19   8  23  1   
 20   8  24  1   
 21   9  25  1   
 22   9  26  1   
 23   9  27  1   
 24  10  28  1   
 25  10  29  1   
 26  10  30  1   
 27  11  13  ar  
 28  11  31  1   
 29  12  14  ar  
 30  12  32  1   
 31  13  15  ar  
 32  13  33  1   
 33  14  15  ar  
 34  14  34  1   
 35  15  35  1   
@<TRIPOS>SUBSTRUCTURE
  1 ****   3 GROUP 4 **** **** 0

# MOE 2024.06 (io_trps.svl 2023.06)
