@<TRIPOS>MOLECULE
NONAME
38 40 1 0 0 
SMALL
USER_CHARGES


@<TRIPOS>ATOM
  1 S       -0.4370     0.1230    -0.8460 S.3   1 <1>  -0.0800 
  2 C        0.5520    -1.2350    -0.3130 C.2   1 <1>   0.3250 
  3 C       -1.8740    -0.8050    -0.5660 C.2   1 <1>  -0.1100 
  4 N       -0.1650    -2.2500     0.0310 N.2   1 <1>  -0.5650 
  5 C        1.9970    -1.1100    -0.3040 C.ar  1 <1>   0.0530 
  6 C       -1.5210    -2.0150    -0.1070 C.2   1 <1>   0.0460 
  7 C        2.7870    -2.1950     0.0850 C.ar  1 <1>  -0.1500 
  8 C        2.6690     0.0600    -0.6710 C.ar  1 <1>  -0.1500 
  9 C       -2.4650    -3.1500     0.2690 C.3   1 <1>   0.3210 
 10 C        4.1690    -2.1290     0.1120 C.ar  1 <1>  -0.1440 
 11 C        4.0490     0.1370    -0.6490 C.ar  1 <1>  -0.1500 
 12 N       -3.8240    -2.6360     0.5710 N.am  1 <1>  -0.7300 
 13 C        4.8010    -0.9550    -0.2580 C.ar  1 <1>  -0.1500 
 14 C        4.9970    -3.3280     0.5400 C.3   1 <1>  -0.0970 
 15 C       -4.9530    -3.0000    -0.0880 C.2   1 <1>   0.5770 
 16 O       -4.9280    -3.8230    -0.9690 O.2   1 <1>  -0.5700 
 17 C       -6.2770    -2.3610     0.3100 C.3   1 <1>   0.0530 
 18 C       -7.2520    -2.0610    -0.8620 C.3   1 <1>   0.0000 
 19 C       -6.2270    -0.8260     0.5480 C.3   1 <1>   0.0000 
 20 C       -7.6290    -0.7590    -0.1100 C.3   1 <1>   0.0000 
 21 H       -2.8240    -0.3500    -0.7770 H     1 <1>   0.1500 
 22 H        2.2960    -3.1080     0.3710 H     1 <1>   0.1500 
 23 H        2.1190     0.9290    -0.9800 H     1 <1>   0.1500 
 24 H       -2.0830    -3.6490     1.1420 H     1 <1>   0.0800 
 25 H       -2.4970    -3.8650    -0.5360 H     1 <1>   0.0800 
 26 H        4.5430     1.0500    -0.9360 H     1 <1>   0.1500 
 27 H       -3.8630    -1.9400     1.3160 H     1 <1>   0.3700 
 28 H        5.8750    -0.8890    -0.2440 H     1 <1>   0.1500 
 29 H        4.3690    -4.1080     0.9300 H     1 <1>   0.0800 
 30 H        5.6960    -3.0380     1.3040 H     1 <1>   0.0800 
 31 H        5.5420    -3.7140    -0.3030 H     1 <1>   0.0800 
 32 H       -6.7660    -2.8780     1.1190 H     1 <1>   0.0000 
 33 H       -8.0600    -2.7650    -0.9470 H     1 <1>   0.0000 
 34 H       -6.7500    -1.8650    -1.7950 H     1 <1>   0.0000 
 35 H       -5.4750    -0.3270    -0.0400 H     1 <1>   0.0000 
 36 H       -6.2200    -0.5450     1.5860 H     1 <1>   0.0000 
 37 H       -8.4290    -0.9030     0.5970 H     1 <1>   0.0000 
 38 H       -7.7690     0.0910    -0.7540 H     1 <1>   0.0000 
@<TRIPOS>BOND
  1   1   2  1   
  2   1   3  1   
  3   2   4  2   
  4   2   5  1   
  5   3   6  2   
  6   3  21  1   
  7   4   6  1   
  8   5   7  ar  
  9   5   8  ar  
 10   6   9  1   
 11   7  10  ar  
 12   7  22  1   
 13   8  11  ar  
 14   8  23  1   
 15   9  12  1   
 16   9  24  1   
 17   9  25  1   
 18  10  13  ar  
 19  10  14  1   
 20  11  13  ar  
 21  11  26  1   
 22  12  15  am  
 23  12  27  1   
 24  13  28  1   
 25  14  29  1   
 26  14  30  1   
 27  14  31  1   
 28  15  16  2   
 29  15  17  1   
 30  17  18  1   
 31  17  19  1   
 32  17  32  1   
 33  18  20  1   
 34  18  33  1   
 35  18  34  1   
 36  19  20  1   
 37  19  35  1   
 38  19  36  1   
 39  20  37  1   
 40  20  38  1   
@<TRIPOS>SUBSTRUCTURE
  1 ****   6 GROUP 4 **** **** 0

# MOE 2024.06 (io_trps.svl 2023.06)
