@<TRIPOS>MOLECULE
NONAME
33 34 1 0 0 
SMALL
USER_CHARGES


@<TRIPOS>ATOM
  1 O        0.5500     0.0730     0.6850 O.2   1 <1>  -0.5700 
  2 C        1.4120     0.8410     0.3090 C.2   1 <1>   0.6900 
  3 N        1.1170     2.0620    -0.2620 N.am  1 <1>  -0.4200 
  4 N        2.7170     0.4780     0.4600 N.am  1 <1>  -0.5390 
  5 C        2.1520     2.9010    -0.6490 C.2   1 <1>   0.6160 
  6 C       -0.2970     2.4990    -0.4400 C.3   1 <1>   0.0600 
  7 C        3.7650     1.2640     0.0830 C.2   1 <1>   0.2090 
  8 O        1.8970     3.9940    -1.1360 O.2   1 <1>  -0.5700 
  9 C        3.4820     2.4760    -0.4690 C.2   1 <1>  -0.1360 
 10 N        5.0010     0.7370     0.3110 N.pl3 1 <1>  -0.8690 
 11 C        6.2940     1.3390    -0.0580 C.3   1 <1>   0.2890 
 12 C        7.2420     0.2250    -0.5090 C.3   1 <1>  -0.1600 
 13 C        6.8550     2.0890     1.1530 C.3   1 <1>  -0.1600 
 14 C        8.6440     0.7770    -0.8070 C.3   1 <1>  -0.1600 
 15 C        8.2560     2.6460     0.8630 C.3   1 <1>  -0.1600 
 16 C        9.2100     1.5360     0.4010 C.3   1 <1>  -0.1600 
 17 H        2.8690    -0.4370     0.8700 H     1 <1>   0.3700 
 18 H       -0.9700     1.6640    -0.3560 H     1 <1>   0.0800 
 19 H       -0.4210     2.9440    -1.4120 H     1 <1>   0.0800 
 20 H       -0.5420     3.2270     0.3120 H     1 <1>   0.0800 
 21 H        4.2480     3.1540    -0.7810 H     1 <1>   0.1500 
 22 H        5.0930    -0.1460     0.8190 H     1 <1>   0.4000 
 23 H        6.1590     2.0280    -0.8740 H     1 <1>   0.0800 
 24 H        6.8460    -0.2410    -1.3940 H     1 <1>   0.0800 
 25 H        7.3180    -0.5180     0.2650 H     1 <1>   0.0800 
 26 H        6.9100     1.4200     1.9940 H     1 <1>   0.0800 
 27 H        6.1940     2.8990     1.4080 H     1 <1>   0.0800 
 28 H        8.5940     1.4420    -1.6530 H     1 <1>   0.0800 
 29 H        9.3040    -0.0340    -1.0650 H     1 <1>   0.0800 
 30 H        8.6490     3.1140     1.7500 H     1 <1>   0.0800 
 31 H        8.1900     3.4000     0.0970 H     1 <1>   0.0800 
 32 H       10.1640     1.9640     0.1440 H     1 <1>   0.0800 
 33 H        9.3690     0.8450     1.2120 H     1 <1>   0.0800 
@<TRIPOS>BOND
  1   1   2  2   
  2   2   3  am  
  3   2   4  am  
  4   3   5  am  
  5   3   6  1   
  6   4   7  1   
  7   4  17  1   
  8   5   8  2   
  9   5   9  1   
 10   6  18  1   
 11   6  19  1   
 12   6  20  1   
 13   7   9  2   
 14   7  10  1   
 15   9  21  1   
 16  10  11  1   
 17  10  22  1   
 18  11  12  1   
 19  11  13  1   
 20  11  23  1   
 21  12  14  1   
 22  12  24  1   
 23  12  25  1   
 24  13  15  1   
 25  13  26  1   
 26  13  27  1   
 27  14  16  1   
 28  14  28  1   
 29  14  29  1   
 30  15  16  1   
 31  15  30  1   
 32  15  31  1   
 33  16  32  1   
 34  16  33  1   
@<TRIPOS>SUBSTRUCTURE
  1 ****   7 GROUP 4 **** **** 0

# MOE 2024.06 (io_trps.svl 2023.06)
