@<TRIPOS>MOLECULE
NONAME
48 50 1 0 0 
SMALL
USER_CHARGES


@<TRIPOS>ATOM
  1 S        1.2470    -0.3380     1.1860 S.o2  1 <1>   1.4470 
  2 O        0.8190    -0.0640     2.5380 O.2   1 <1>  -0.6500 
  3 O        2.5870    -0.8230     0.9380 O.2   1 <1>  -0.6500 
  4 N        1.1180     1.1460     0.3000 N.am  1 <1>  -0.6930 
  5 C        0.0420    -1.3870     0.3270 C.ar  1 <1>  -0.0090 
  6 C       -0.0750     1.8680     0.3090 C.ar  1 <1>   0.1990 
  7 C        2.1430     1.3270    -0.7840 C.3   1 <1>   0.2570 
  8 C        0.4440    -2.3240    -0.6180 C.ar  1 <1>  -0.1500 
  9 C       -1.3210    -1.2540     0.5710 C.ar  1 <1>  -0.1500 
 10 C       -0.8600     1.9950    -0.8320 C.ar  1 <1>  -0.1500 
 11 C       -0.5180     2.4720     1.4800 C.ar  1 <1>  -0.1500 
 12 C        2.0590     2.6190    -1.6070 C.2   1 <1>   0.5690 
 13 C       -0.4790    -3.1030    -1.2950 C.ar  1 <1>  -0.1500 
 14 C       -2.2500    -2.0280    -0.1020 C.ar  1 <1>  -0.1500 
 15 C       -2.0380     2.7170    -0.8080 C.ar  1 <1>  -0.1500 
 16 C       -1.6980     3.1920     1.5090 C.ar  1 <1>  -0.1500 
 17 O        1.7640     2.5010    -2.7760 O.2   1 <1>  -0.5700 
 18 N        2.3240     3.8530    -1.0600 N.am  1 <1>  -0.6600 
 19 C       -1.8290    -2.9540    -1.0370 C.ar  1 <1>  -0.1500 
 20 C       -2.4650     3.3210     0.3630 C.ar  1 <1>  -0.1430 
 21 C        2.1960     5.1070    -1.8630 C.3   1 <1>   0.1400 
 22 C        2.6410     4.1140     0.3780 C.3   1 <1>   0.1400 
 23 C       -3.7570     4.1170     0.3920 C.3   1 <1>  -0.0970 
 24 C        1.2770     6.1130    -1.1520 C.3   1 <1>   0.1200 
 25 C        1.7020     5.1880     0.9550 C.3   1 <1>   0.1200 
 26 O        1.7170     6.3370     0.1570 O.3   1 <1>  -0.5600 
 27 H        2.0690     0.4980    -1.4650 H     1 <1>   0.0800 
 28 H        3.1230     1.2910    -0.3430 H     1 <1>   0.0800 
 29 H        1.4930    -2.4500    -0.8280 H     1 <1>   0.1500 
 30 H       -1.6600    -0.5320     1.2950 H     1 <1>   0.1500 
 31 H       -0.5500     1.5260    -1.7490 H     1 <1>   0.1500 
 32 H        0.0680     2.3780     2.3760 H     1 <1>   0.1500 
 33 H       -0.1460    -3.8240    -2.0230 H     1 <1>   0.1500 
 34 H       -3.3000    -1.9080     0.1030 H     1 <1>   0.1500 
 35 H       -2.6230     2.8050    -1.7080 H     1 <1>   0.1500 
 36 H       -2.0170     3.6530     2.4280 H     1 <1>   0.1500 
 37 H       -2.5490    -3.5580    -1.5620 H     1 <1>   0.1500 
 38 H        1.7970     4.8960    -2.8400 H     1 <1>   0.0800 
 39 H        3.1700     5.5460    -1.9920 H     1 <1>   0.0800 
 40 H        3.6560     4.4620     0.4560 H     1 <1>   0.0800 
 41 H        2.5540     3.2210     0.9680 H     1 <1>   0.0800 
 42 H       -4.4340     3.7660    -0.3650 H     1 <1>   0.0800 
 43 H       -3.5470     5.1560     0.2150 H     1 <1>   0.0800 
 44 H       -4.2370     4.0170     1.3490 H     1 <1>   0.0800 
 45 H        0.2660     5.7430    -1.1210 H     1 <1>   0.0800 
 46 H        1.2870     7.0550    -1.6690 H     1 <1>   0.0800 
 47 H        2.0200     5.4690     1.9430 H     1 <1>   0.0800 
 48 H        0.6920     4.8230     1.0070 H     1 <1>   0.0800 
@<TRIPOS>BOND
  1   1   2  2   
  2   1   3  2   
  3   1   4  am  
  4   1   5  1   
  5   4   6  1   
  6   4   7  1   
  7   5   8  ar  
  8   5   9  ar  
  9   6  10  ar  
 10   6  11  ar  
 11   7  12  1   
 12   7  27  1   
 13   7  28  1   
 14   8  13  ar  
 15   8  29  1   
 16   9  14  ar  
 17   9  30  1   
 18  10  15  ar  
 19  10  31  1   
 20  11  16  ar  
 21  11  32  1   
 22  12  17  2   
 23  12  18  am  
 24  13  19  ar  
 25  13  33  1   
 26  14  19  ar  
 27  14  34  1   
 28  15  20  ar  
 29  15  35  1   
 30  16  20  ar  
 31  16  36  1   
 32  18  21  1   
 33  18  22  1   
 34  19  37  1   
 35  20  23  1   
 36  21  24  1   
 37  21  38  1   
 38  21  39  1   
 39  22  25  1   
 40  22  40  1   
 41  22  41  1   
 42  23  42  1   
 43  23  43  1   
 44  23  44  1   
 45  24  26  1   
 46  24  45  1   
 47  24  46  1   
 48  25  26  1   
 49  25  47  1   
 50  25  48  1   
@<TRIPOS>SUBSTRUCTURE
  1 ****   6 GROUP 4 **** **** 0

# MOE 2024.06 (io_trps.svl 2023.06)
