@<TRIPOS>MOLECULE
NONAME
40 41 1 0 0 
SMALL
USER_CHARGES


@<TRIPOS>ATOM
  1 S       -4.9740    -1.7250    -0.4150 S.o2  1 <1>   1.2040 
  2 O       -4.6540    -2.9160    -1.1710 O.2   1 <1>  -0.6500 
  3 O       -4.3100    -0.4950    -0.7790 O.2   1 <1>  -0.6500 
  4 C       -6.7580    -1.4910    -0.2650 C.ar  1 <1>  -0.0090 
  5 C       -4.4680    -2.0390     1.2700 C.3   1 <1>  -0.0550 
  6 C       -7.6340    -2.5630    -0.3960 C.ar  1 <1>  -0.1500 
  7 C       -7.2940    -0.2410     0.0240 C.ar  1 <1>  -0.1500 
  8 C       -3.2670    -2.9940     1.4020 C.3   1 <1>   0.4230 
  9 C       -8.9990    -2.3960    -0.2370 C.ar  1 <1>  -0.1500 
 10 C       -8.6580    -0.0670     0.1840 C.ar  1 <1>  -0.1500 
 11 N       -2.2340    -2.8110     0.3280 N.4   1 <1>  -0.9590 
 12 C       -3.7540    -4.4490     1.4450 C.3   1 <1>  -0.2400 
 13 C       -9.5110    -1.1460     0.0550 C.ar  1 <1>  -0.1500 
 14 C       -1.1560    -3.8510     0.3070 C.3   1 <1>   0.3430 
 15 C       -1.6230    -1.4420     0.3350 C.3   1 <1>   0.3430 
 16 C       -0.3180    -3.7010    -0.9650 C.3   1 <1>  -0.1600 
 17 C       -0.8110    -1.2340    -0.9430 C.3   1 <1>  -0.1600 
 18 C        0.2830    -2.2960    -1.0940 C.3   1 <1>  -0.1600 
 19 H       -5.2920    -2.4440     1.8240 H     1 <1>   0.0800 
 20 H       -4.2210    -1.1070     1.7400 H     1 <1>   0.0800 
 21 H       -7.2530    -3.5430    -0.6320 H     1 <1>   0.1500 
 22 H       -6.6440     0.6130     0.1190 H     1 <1>   0.1500 
 23 H       -2.8040    -2.7940     2.3550 H     1 <1>   0.0800 
 24 H       -9.6650    -3.2360    -0.3450 H     1 <1>   0.1500 
 25 H       -9.0570     0.9090     0.4050 H     1 <1>   0.1500 
 26 H       -2.7320    -2.9170    -0.5780 H     1 <1>   0.4500 
 27 H       -4.0900    -4.7860     0.4800 H     1 <1>   0.0800 
 28 H       -4.5740    -4.5460     2.1340 H     1 <1>   0.0800 
 29 H       -2.9820    -5.1050     1.8030 H     1 <1>   0.0800 
 30 H      -10.5730    -1.0130     0.1780 H     1 <1>   0.1500 
 31 H       -1.5860    -4.8390     0.3140 H     1 <1>   0.0800 
 32 H       -0.5260    -3.7450     1.1740 H     1 <1>   0.0800 
 33 H       -0.9770    -1.3330     1.1920 H     1 <1>   0.0800 
 34 H       -2.3840    -0.6820     0.3900 H     1 <1>   0.0800 
 35 H       -0.9340    -3.9150    -1.8210 H     1 <1>   0.0800 
 36 H        0.4760    -4.4270    -0.9510 H     1 <1>   0.0800 
 37 H       -0.3600    -0.2570    -0.9180 H     1 <1>   0.0800 
 38 H       -1.4740    -1.2570    -1.7910 H     1 <1>   0.0800 
 39 H        0.7660    -2.1910    -2.0520 H     1 <1>   0.0800 
 40 H        1.0320    -2.1530    -0.3330 H     1 <1>   0.0800 
@<TRIPOS>BOND
  1   1   2  2   
  2   1   3  2   
  3   1   4  1   
  4   1   5  1   
  5   4   6  ar  
  6   4   7  ar  
  7   5   8  1   
  8   5  19  1   
  9   5  20  1   
 10   6   9  ar  
 11   6  21  1   
 12   7  10  ar  
 13   7  22  1   
 14   8  11  1   
 15   8  12  1   
 16   8  23  1   
 17   9  13  ar  
 18   9  24  1   
 19  10  13  ar  
 20  10  25  1   
 21  11  14  1   
 22  11  15  1   
 23  11  26  1   
 24  12  27  1   
 25  12  28  1   
 26  12  29  1   
 27  13  30  1   
 28  14  16  1   
 29  14  31  1   
 30  14  32  1   
 31  15  17  1   
 32  15  33  1   
 33  15  34  1   
 34  16  18  1   
 35  16  35  1   
 36  16  36  1   
 37  17  18  1   
 38  17  37  1   
 39  17  38  1   
 40  18  39  1   
 41  18  40  1   
@<TRIPOS>SUBSTRUCTURE
  1 ****   1 GROUP 4 **** **** 0

# MOE 2024.06 (io_trps.svl 2023.06)
