@<TRIPOS>MOLECULE
NONAME
65 69 1 0 0 
SMALL
USER_CHARGES


@<TRIPOS>ATOM
  1 O        0.0290     0.2960    -0.1810 O.2   1 <1>  -0.5700 
  2 C        0.0690     1.5050    -0.0700 C.2   1 <1>   0.8990 
  3 N        1.3130     2.1200    -0.1700 N.pl3 1 <1>  -0.7370 
  4 C       -1.1180     2.2820     0.0910 C.2   1 <1>  -0.1240 
  5 C        1.3270     3.4160    -0.4960 C.cat 1 <1>   1.2000 
  6 C        2.5190     1.2430     0.0760 C.3   1 <1>   0.2480 
  7 C       -1.0390     3.6050    -0.1770 C.2   1 <1>   0.2750 
  8 C       -2.4770     1.6630     0.4880 C.3   1 <1>   0.1380 
  9 N        0.2080     4.0990    -0.4820 N.pl3 1 <1>  -0.8200 
 10 N        2.4180     4.0550    -0.8420 N.pl3 1 <1>  -0.8440 
 11 C        3.5860     1.8760     0.9930 C.3   1 <1>  -0.1600 
 12 C        3.0870     0.6910    -1.2390 C.3   1 <1>  -0.1600 
 13 C       -2.1770     4.4970    -0.1800 C.ar  1 <1>   0.0280 
 14 C       -3.3710     2.7390     1.1590 C.3   1 <1>  -0.0170 
 15 C       -2.4070     0.4550     1.4620 C.3   1 <1>  -0.1600 
 16 C       -3.1660     1.1140    -0.7790 C.3   1 <1>  -0.1600 
 17 C        2.6180     5.3940    -1.4710 C.3   1 <1>   0.1680 
 18 C        4.9260     2.2040     0.3040 C.3   1 <1>   0.2800 
 19 C        4.1910     1.5370    -1.8880 C.3   1 <1>   0.1200 
 20 C       -3.3520     4.0820     0.4440 C.ar  1 <1>  -0.1430 
 21 C       -2.1740     5.7470    -0.8030 C.ar  1 <1>  -0.1500 
 22 C       -2.9200    -0.7630     0.6940 C.3   1 <1>  -0.1600 
 23 C       -3.8510    -0.1840    -0.3620 C.3   1 <1>  -0.1600 
 24 C        2.5040     6.5600    -0.4760 C.3   1 <1>   0.1200 
 25 O        4.6710     2.5290    -1.0250 O.3   1 <1>  -0.5600 
 26 C        5.5430     3.4600     0.9180 C.3   1 <1>  -0.2400 
 27 C        5.9510     1.0620     0.3840 C.3   1 <1>  -0.2400 
 28 C       -4.4790     4.8840     0.4430 C.ar  1 <1>  -0.1500 
 29 C       -3.2990     6.5490    -0.8030 C.ar  1 <1>  -0.1500 
 30 O        1.2000     6.6540     0.0010 O.3   1 <1>  -0.6800 
 31 C       -4.4550     6.1180    -0.1810 C.ar  1 <1>  -0.1500 
 32 H        2.1830     0.3800     0.6300 H     1 <1>   0.0800 
 33 H        0.3540     5.1160    -0.5310 H     1 <1>   0.4500 
 34 H        3.2780     3.4870    -0.8250 H     1 <1>   0.4500 
 35 H        3.7990     1.1810     1.7870 H     1 <1>   0.0800 
 36 H        3.1850     2.7450     1.4810 H     1 <1>   0.0800 
 37 H        2.2990     0.5030    -1.9460 H     1 <1>   0.0800 
 38 H        3.5160    -0.2720    -1.0260 H     1 <1>   0.0800 
 39 H       -3.0220     2.9130     2.1620 H     1 <1>   0.0800 
 40 H       -4.3830     2.3760     1.2290 H     1 <1>   0.0800 
 41 H       -3.0630     0.6020     2.3030 H     1 <1>   0.0800 
 42 H       -1.4250     0.2780     1.8620 H     1 <1>   0.0800 
 43 H       -2.4290     0.8740    -1.5260 H     1 <1>   0.0800 
 44 H       -3.8660     1.8100    -1.2100 H     1 <1>   0.0800 
 45 H        1.9090     5.5360    -2.2710 H     1 <1>   0.0800 
 46 H        3.6020     5.4160    -1.9110 H     1 <1>   0.0800 
 47 H        3.8100     2.0360    -2.7640 H     1 <1>   0.0800 
 48 H        5.0190     0.9190    -2.1930 H     1 <1>   0.0800 
 49 H       -1.2940     6.1050    -1.3050 H     1 <1>   0.1500 
 50 H       -3.4250    -1.4660     1.3350 H     1 <1>   0.0800 
 51 H       -2.0970    -1.2620     0.2100 H     1 <1>   0.0800 
 52 H       -3.9860    -0.8560    -1.1930 H     1 <1>   0.0800 
 53 H       -4.8100     0.0320     0.0770 H     1 <1>   0.0800 
 54 H        2.7450     7.4880    -0.9680 H     1 <1>   0.0800 
 55 H        3.1720     6.4190     0.3560 H     1 <1>   0.0800 
 56 H        4.8760     4.2980     0.8360 H     1 <1>   0.0800 
 57 H        6.4660     3.7010     0.4200 H     1 <1>   0.0800 
 58 H        5.7580     3.2980     1.9600 H     1 <1>   0.0800 
 59 H        5.5450     0.1270     0.0460 H     1 <1>   0.0800 
 60 H        6.2670     0.9240     1.4020 H     1 <1>   0.0800 
 61 H        6.8200     1.3020    -0.2030 H     1 <1>   0.0800 
 62 H       -5.3840     4.5590     0.9290 H     1 <1>   0.1500 
 63 H       -3.2810     7.5100    -1.2890 H     1 <1>   0.1500 
 64 H        1.1150     7.4240     0.6070 H     1 <1>   0.4000 
 65 H       -5.3340     6.7400    -0.1810 H     1 <1>   0.1500 
@<TRIPOS>BOND
  1   1   2  2   
  2   2   3  1   
  3   2   4  1   
  4   3   5  ar  
  5   3   6  1   
  6   4   7  2   
  7   4   8  1   
  8   5   9  ar  
  9   5  10  ar  
 10   6  11  1   
 11   6  12  1   
 12   6  32  1   
 13   7   9  1   
 14   7  13  1   
 15   8  14  1   
 16   8  15  1   
 17   8  16  1   
 18   9  33  1   
 19  10  17  1   
 20  10  34  1   
 21  11  18  1   
 22  11  35  1   
 23  11  36  1   
 24  12  19  1   
 25  12  37  1   
 26  12  38  1   
 27  13  20  ar  
 28  13  21  ar  
 29  14  20  1   
 30  14  39  1   
 31  14  40  1   
 32  15  22  1   
 33  15  41  1   
 34  15  42  1   
 35  16  23  1   
 36  16  43  1   
 37  16  44  1   
 38  17  24  1   
 39  17  45  1   
 40  17  46  1   
 41  18  25  1   
 42  18  26  1   
 43  18  27  1   
 44  19  25  1   
 45  19  47  1   
 46  19  48  1   
 47  20  28  ar  
 48  21  29  ar  
 49  21  49  1   
 50  22  23  1   
 51  22  50  1   
 52  22  51  1   
 53  23  52  1   
 54  23  53  1   
 55  24  30  1   
 56  24  54  1   
 57  24  55  1   
 58  26  56  1   
 59  26  57  1   
 60  26  58  1   
 61  27  59  1   
 62  27  60  1   
 63  27  61  1   
 64  28  31  ar  
 65  28  62  1   
 66  29  31  ar  
 67  29  63  1   
 68  30  64  1   
 69  31  65  1   
@<TRIPOS>SUBSTRUCTURE
  1 ****   9 GROUP 4 **** **** 0

# MOE 2024.06 (io_trps.svl 2023.06)
