@<TRIPOS>MOLECULE
NONAME
38 40 1 0 0 
SMALL
USER_CHARGES


@<TRIPOS>ATOM
  1 F       -0.4930     1.0370    -1.0900 F     1 <1>  -0.1900 
  2 C       -0.7090     2.2420    -0.6350 C.ar  1 <1>   0.1900 
  3 C        0.3720     3.0300    -0.2910 C.ar  1 <1>  -0.1500 
  4 C       -2.0130     2.6850    -0.5180 C.ar  1 <1>  -0.1500 
  5 C        0.1330     4.3060     0.1920 C.ar  1 <1>  -0.1500 
  6 C       -2.2380     3.9630    -0.0340 C.ar  1 <1>  -0.1500 
  7 C       -1.1690     4.7750     0.3250 C.ar  1 <1>  -0.1430 
  8 C       -1.4080     6.1770     0.8630 C.3   1 <1>   0.2840 
  9 N       -0.8750     7.1600    -0.0840 N.am  1 <1>  -0.7300 
 10 C       -1.2240     8.4660    -0.0860 C.2   1 <1>   0.5690 
 11 O       -2.2380     8.8380     0.4640 O.2   1 <1>  -0.5700 
 12 C       -0.3500     9.4800    -0.8450 C.3   1 <1>  -0.0190 
 13 C        1.3100     9.4620    -0.5190 C.3   1 <1>  -0.1860 
 14 C       -0.8670    11.0210    -0.6060 C.3   1 <1>  -0.0800 
 15 C        1.7870     8.2360     0.2500 C.2   1 <1>   0.9060 
 16 C        1.7110    10.9280     0.1050 C.3   1 <1>  -0.0800 
 17 C        0.4250    10.9780    -0.2700 C.3   1 <1>  -0.1600 
 18 C       -0.4530    12.4870    -0.0140 C.3   1 <1>  -0.1600 
 19 O        1.8800     7.1780    -0.3850 O.co2 1 <1>  -0.9000 
 20 O        1.9960     8.2780     1.4640 O.co2 1 <1>  -0.9000 
 21 C        1.1860    12.4600     0.3140 C.3   1 <1>  -0.1600 
 22 H        1.3760     2.6630    -0.4000 H     1 <1>   0.1500 
 23 H       -2.8280     2.0440    -0.8000 H     1 <1>   0.1500 
 24 H        0.9650     4.9420     0.4600 H     1 <1>   0.1500 
 25 H       -3.2460     4.3290     0.0600 H     1 <1>   0.1500 
 26 H       -0.8980     6.2950     1.8040 H     1 <1>   0.0800 
 27 H       -2.4580     6.3550     1.0180 H     1 <1>   0.0800 
 28 H        0.0980     6.9360    -0.3780 H     1 <1>   0.3700 
 29 H       -0.4760     9.2270    -1.8840 H     1 <1>   0.0800 
 30 H        1.8190     9.3710    -1.4670 H     1 <1>   0.0800 
 31 H       -1.1860    11.2850    -1.6050 H     1 <1>   0.0800 
 32 H        1.9970    10.6770     1.1180 H     1 <1>   0.0800 
 33 H        0.1200    10.6540     0.8210 H     1 <1>   0.0800 
 34 H        0.7230    11.2870    -1.3630 H     1 <1>   0.0800 
 35 H       -1.0070    12.6820     0.8920 H     1 <1>   0.0800 
 36 H       -0.6870    13.2720    -0.7150 H     1 <1>   0.0800 
 37 H        1.7120    13.1250    -0.3530 H     1 <1>   0.0800 
 38 H        1.3730    12.7930     1.3220 H     1 <1>   0.0800 
@<TRIPOS>BOND
  1   1   2  1   
  2   2   3  ar  
  3   2   4  ar  
  4   3   5  ar  
  5   3  22  1   
  6   4   6  ar  
  7   4  23  1   
  8   5   7  ar  
  9   5  24  1   
 10   6   7  ar  
 11   6  25  1   
 12   7   8  1   
 13   8   9  1   
 14   8  26  1   
 15   8  27  1   
 16   9  10  am  
 17   9  28  1   
 18  10  11  2   
 19  10  12  1   
 20  12  13  1   
 21  12  14  1   
 22  12  29  1   
 23  13  15  1   
 24  13  16  1   
 25  13  30  1   
 26  14  17  1   
 27  14  18  1   
 28  14  31  1   
 29  15  19  ar  
 30  15  20  ar  
 31  16  17  1   
 32  16  21  1   
 33  16  32  1   
 34  17  33  1   
 35  17  34  1   
 36  18  21  1   
 37  18  35  1   
 38  18  36  1   
 39  21  37  1   
 40  21  38  1   
@<TRIPOS>SUBSTRUCTURE
  1 ****   9 GROUP 4 **** **** 0

# MOE 2024.06 (io_trps.svl 2023.06)
