@<TRIPOS>MOLECULE
NONAME
39 41 1 0 0 
SMALL
USER_CHARGES


@<TRIPOS>ATOM
  1 S       -0.1780     0.4830    -0.0470 S.o2  1 <1>   1.3330 
  2 O        0.1440     0.3870    -1.4460 O.2   1 <1>  -0.6500 
  3 O        0.2940    -0.5450     0.8480 O.2   1 <1>  -0.6500 
  4 N       -1.8410     0.3650    -0.0170 N.am  1 <1>  -0.9140 
  5 C        0.1610     2.1040     0.6060 C.3   1 <1>  -0.1350 
  6 C       -2.2940    -0.9250    -0.5330 C.3   1 <1>   0.4190 
  7 C       -3.7940    -0.8440    -0.7370 C.ar  1 <1>  -0.1430 
  8 C       -2.1040    -2.1390     0.4660 C.3   1 <1>   0.5670 
  9 C       -4.4030    -1.7590     0.1130 C.ar  1 <1>   0.0000 
 10 C       -4.5600    -0.0670    -1.5640 C.ar  1 <1>  -0.1500 
 11 N       -1.4490    -3.3730    -0.1200 N.4   1 <1>  -0.9590 
 12 C       -3.5180    -2.5190     0.8690 C.ar  1 <1>  -0.1430 
 13 C       -5.7880    -1.9080     0.1970 C.ar  1 <1>   0.0000 
 14 C       -5.9590    -0.2030    -1.5200 C.ar  1 <1>  -0.1500 
 15 C        0.0020    -3.1540    -0.4170 C.3   1 <1>   0.2630 
 16 C       -2.1780    -3.9230    -1.3100 C.3   1 <1>   0.2630 
 17 C       -3.9990    -3.4270     1.7750 C.ar  1 <1>  -0.1500 
 18 C       -6.2600    -2.8530     1.1300 C.ar  1 <1>  -0.1500 
 19 C       -6.5570    -1.0950    -0.6620 C.ar  1 <1>  -0.1500 
 20 C       -5.3910    -3.5870     1.9000 C.ar  1 <1>  -0.1500 
 21 H       -2.1780     1.0480    -0.6930 H     1 <1>   0.4200 
 22 H       -0.2220     2.1890     1.6040 H     1 <1>   0.0800 
 23 H       -0.2930     2.8590    -0.0050 H     1 <1>   0.0800 
 24 H        1.2200     2.2770     0.6310 H     1 <1>   0.0800 
 25 H       -1.8250    -1.1340    -1.4780 H     1 <1>   0.0800 
 26 H       -1.5630    -1.8060     1.3350 H     1 <1>   0.0800 
 27 H       -4.1280     0.6480    -2.2440 H     1 <1>   0.1500 
 28 H       -1.5120    -4.0770     0.6280 H     1 <1>   0.4500 
 29 H       -6.5600     0.4100    -2.1700 H     1 <1>   0.1500 
 30 H        0.1270    -2.3860    -1.1640 H     1 <1>   0.0800 
 31 H        0.4540    -4.0640    -0.7800 H     1 <1>   0.0800 
 32 H        0.5260    -2.8470     0.4750 H     1 <1>   0.0800 
 33 H       -2.1470    -3.2250    -2.1310 H     1 <1>   0.0800 
 34 H       -3.2110    -4.1150    -1.0630 H     1 <1>   0.0800 
 35 H       -1.7270    -4.8480    -1.6300 H     1 <1>   0.0800 
 36 H       -3.3520    -4.0230     2.3960 H     1 <1>   0.1500 
 37 H       -7.3240    -2.9830     1.2290 H     1 <1>   0.1500 
 38 H       -7.6280    -1.1880    -0.6290 H     1 <1>   0.1500 
 39 H       -5.7690    -4.2990     2.6150 H     1 <1>   0.1500 
@<TRIPOS>BOND
  1   1   2  2   
  2   1   3  2   
  3   1   4  am  
  4   1   5  1   
  5   4   6  1   
  6   4  21  1   
  7   5  22  1   
  8   5  23  1   
  9   5  24  1   
 10   6   7  1   
 11   6   8  1   
 12   6  25  1   
 13   7   9  ar  
 14   7  10  ar  
 15   8  11  1   
 16   8  12  1   
 17   8  26  1   
 18   9  12  ar  
 19   9  13  ar  
 20  10  14  ar  
 21  10  27  1   
 22  11  15  1   
 23  11  16  1   
 24  11  28  1   
 25  12  17  ar  
 26  13  18  ar  
 27  13  19  ar  
 28  14  19  ar  
 29  14  29  1   
 30  15  30  1   
 31  15  31  1   
 32  15  32  1   
 33  16  33  1   
 34  16  34  1   
 35  16  35  1   
 36  17  20  ar  
 37  17  36  1   
 38  18  20  ar  
 39  18  37  1   
 40  19  38  1   
 41  20  39  1   
@<TRIPOS>SUBSTRUCTURE
  1 ****   6 GROUP 4 **** **** 0

# MOE 2024.06 (io_trps.svl 2023.06)
