@<TRIPOS>MOLECULE
NONAME
33 34 1 0 0 
SMALL
USER_CHARGES


@<TRIPOS>ATOM
  1 S       -0.1390    -0.6100     0.7880 S.o2  1 <1>   1.5760 
  2 O       -0.8770    -1.0440     1.9470 O.2   1 <1>  -0.6500 
  3 O        0.1400    -1.4880    -0.3220 O.2   1 <1>  -0.6500 
  4 N       -0.8380     0.8180     0.2250 N.am  1 <1>  -0.8490 
  5 N        1.3110     0.0380     1.4120 N.am  1 <1>  -0.7570 
  6 C       -2.3060     0.7400     0.2330 C.3   1 <1>   0.1960 
  7 C       -0.3810     1.1780    -1.1300 C.3   1 <1>   0.1960 
  8 C        2.3760     0.5320     0.6770 C.ar  1 <1>   0.1990 
  9 C       -2.9370     2.0430    -0.2910 C.3   1 <1>   0.1200 
 10 C       -1.0540     2.4740    -1.6150 C.3   1 <1>   0.1200 
 11 C        2.9720    -0.2050    -0.3390 C.ar  1 <1>  -0.1500 
 12 C        2.8670     1.8020     0.9500 C.ar  1 <1>  -0.1500 
 13 O       -2.4470     2.3510    -1.5660 O.3   1 <1>  -0.5600 
 14 C        4.0190     0.3200    -1.0740 C.ar  1 <1>  -0.1500 
 15 C        3.9150     2.3300     0.2180 C.ar  1 <1>  -0.1500 
 16 C        4.4970     1.5920    -0.8000 C.ar  1 <1>  -0.1430 
 17 C        5.6450     2.1670    -1.6080 C.3   1 <1>  -0.0970 
 18 H        1.0790     0.5130     2.2730 H     1 <1>   0.4200 
 19 H       -2.6550     0.5700     1.2380 H     1 <1>   0.0800 
 20 H       -2.6370    -0.0840    -0.3780 H     1 <1>   0.0800 
 21 H       -0.6130     0.3880    -1.8250 H     1 <1>   0.0800 
 22 H        0.6840     1.3200    -1.1350 H     1 <1>   0.0800 
 23 H       -2.7140     2.8620     0.3700 H     1 <1>   0.0800 
 24 H       -4.0040     1.9370    -0.3660 H     1 <1>   0.0800 
 25 H       -0.7770     2.6780    -2.6330 H     1 <1>   0.0800 
 26 H       -0.7570     3.3050    -0.9990 H     1 <1>   0.0800 
 27 H        2.6190    -1.1980    -0.5540 H     1 <1>   0.1500 
 28 H        2.4230     2.3840     1.7360 H     1 <1>   0.1500 
 29 H        4.4630    -0.2680    -1.8590 H     1 <1>   0.1500 
 30 H        4.2780     3.3180     0.4430 H     1 <1>   0.1500 
 31 H        6.3170     1.3860    -1.9140 H     1 <1>   0.0800 
 32 H        6.1990     2.8790    -1.0230 H     1 <1>   0.0800 
 33 H        5.2640     2.6600    -2.4850 H     1 <1>   0.0800 
@<TRIPOS>BOND
  1   1   2  2   
  2   1   3  2   
  3   1   4  am  
  4   1   5  am  
  5   4   6  1   
  6   4   7  1   
  7   5   8  1   
  8   5  18  1   
  9   6   9  1   
 10   6  19  1   
 11   6  20  1   
 12   7  10  1   
 13   7  21  1   
 14   7  22  1   
 15   8  11  ar  
 16   8  12  ar  
 17   9  13  1   
 18   9  23  1   
 19   9  24  1   
 20  10  13  1   
 21  10  25  1   
 22  10  26  1   
 23  11  14  ar  
 24  11  27  1   
 25  12  15  ar  
 26  12  28  1   
 27  14  16  ar  
 28  14  29  1   
 29  15  16  ar  
 30  15  30  1   
 31  16  17  1   
 32  17  31  1   
 33  17  32  1   
 34  17  33  1   
@<TRIPOS>SUBSTRUCTURE
  1 ****   8 GROUP 4 **** **** 0

# MOE 2024.06 (io_trps.svl 2023.06)
