@<TRIPOS>MOLECULE
NONAME
41 42 1 0 0 
SMALL
USER_CHARGES


@<TRIPOS>ATOM
  1 S       -0.6520     0.8720    -2.9810 S.3   1 <1>   0.1810 
  2 N       -2.1380     0.1950    -2.4980 N.2   1 <1>  -0.5100 
  3 C       -0.5020     1.9090    -1.5870 C.2   1 <1>   0.1040 
  4 C       -2.4690     0.7200    -1.3850 C.2   1 <1>   0.1080 
  5 N        0.5840     2.7540    -1.4140 N.am  1 <1>  -0.4940 
  6 C       -1.5930     1.7020    -0.7970 C.2   1 <1>  -0.0860 
  7 C       -3.7800     0.2780    -0.7580 C.3   1 <1>  -0.0590 
  8 C        1.7070     3.0210    -2.1700 C.2   1 <1>   0.5440 
  9 C       -1.8030     2.3960     0.4430 C.2   1 <1>   0.8060 
 10 O        1.9010     2.3960    -3.1940 O.2   1 <1>  -0.5700 
 11 C        2.6340     4.0680    -1.7730 C.ar  1 <1>   0.0860 
 12 O       -1.1430     3.3660     0.7740 O.2   1 <1>  -0.5700 
 13 O       -2.7450     1.9690     1.2890 O.3   1 <1>  -0.4300 
 14 C        2.8730     4.4360    -0.4370 C.ar  1 <1>   0.0830 
 15 C        3.3360     4.7610    -2.7640 C.ar  1 <1>  -0.1500 
 16 C       -2.9860     2.6070     2.5240 C.3   1 <1>   0.1200 
 17 O        2.2310     3.7570     0.5470 O.3   1 <1>  -0.3630 
 18 C        3.7610     5.4700    -0.1390 C.ar  1 <1>  -0.1500 
 19 C        4.2200     5.7780    -2.4630 C.ar  1 <1>  -0.1500 
 20 C       -4.1220     1.8670     3.2220 C.3   1 <1>  -0.2400 
 21 C        2.5650     3.8860     1.9110 C.3   1 <1>   0.1200 
 22 C        4.4310     6.1360    -1.1450 C.ar  1 <1>  -0.1500 
 23 C        1.7800     2.8390     2.6940 C.3   1 <1>  -0.2400 
 24 H        0.5820     3.2820    -0.5300 H     1 <1>   0.3700 
 25 H       -4.2980    -0.3980    -1.4150 H     1 <1>   0.0800 
 26 H       -4.4150     1.1270    -0.5820 H     1 <1>   0.0800 
 27 H       -3.5940    -0.2320     0.1690 H     1 <1>   0.0800 
 28 H        3.1810     4.4910    -3.7950 H     1 <1>   0.1500 
 29 H       -3.2530     3.6330     2.3340 H     1 <1>   0.0800 
 30 H       -2.0830     2.5690     3.1110 H     1 <1>   0.0800 
 31 H        3.9460     5.7740     0.8740 H     1 <1>   0.1500 
 32 H        4.7440     6.2910    -3.2520 H     1 <1>   0.1500 
 33 H       -5.0150     1.9050     2.6230 H     1 <1>   0.0800 
 34 H       -4.3280     2.3300     4.1700 H     1 <1>   0.0800 
 35 H       -3.8480     0.8420     3.3960 H     1 <1>   0.0800 
 36 H        2.3040     4.8790     2.2350 H     1 <1>   0.0800 
 37 H        3.6230     3.7220     2.0200 H     1 <1>   0.0800 
 38 H        5.1170     6.9320    -0.9070 H     1 <1>   0.1500 
 39 H        0.7260     3.0250     2.6070 H     1 <1>   0.0800 
 40 H        2.0490     2.8850     3.7330 H     1 <1>   0.0800 
 41 H        2.0050     1.8540     2.3240 H     1 <1>   0.0800 
@<TRIPOS>BOND
  1   1   2  1   
  2   1   3  1   
  3   2   4  2   
  4   3   5  1   
  5   3   6  2   
  6   4   6  1   
  7   4   7  1   
  8   5   8  am  
  9   5  24  1   
 10   6   9  1   
 11   7  25  1   
 12   7  26  1   
 13   7  27  1   
 14   8  10  2   
 15   8  11  1   
 16   9  12  2   
 17   9  13  1   
 18  11  14  ar  
 19  11  15  ar  
 20  13  16  1   
 21  14  17  1   
 22  14  18  ar  
 23  15  19  ar  
 24  15  28  1   
 25  16  20  1   
 26  16  29  1   
 27  16  30  1   
 28  17  21  1   
 29  18  22  ar  
 30  18  31  1   
 31  19  22  ar  
 32  19  32  1   
 33  20  33  1   
 34  20  34  1   
 35  20  35  1   
 36  21  23  1   
 37  21  36  1   
 38  21  37  1   
 39  22  38  1   
 40  23  39  1   
 41  23  40  1   
 42  23  41  1   
@<TRIPOS>SUBSTRUCTURE
  1 ****   5 GROUP 4 **** **** 0

# MOE 2024.06 (io_trps.svl 2023.06)
