@<TRIPOS>MOLECULE
NONAME
49 51 1 0 0 
SMALL
USER_CHARGES


@<TRIPOS>ATOM
  1 CL       1.2650    -0.0390    -2.3540 Cl    1 <1>  -0.1770 
  2 C        2.5650    -0.9400    -1.6100 C.ar  1 <1>   0.1770 
  3 C        3.6760    -1.2740    -2.3640 C.ar  1 <1>  -0.1500 
  4 C        2.4640    -1.3050    -0.2800 C.ar  1 <1>  -0.1500 
  5 C        4.7030    -1.9870    -1.7720 C.ar  1 <1>  -0.1500 
  6 C        3.4970    -2.0180     0.3020 C.ar  1 <1>  -0.1500 
  7 C        4.6240    -2.3660    -0.4340 C.ar  1 <1>   0.1000 
  8 N        5.6420    -3.0820     0.1820 N.pl3 1 <1>  -0.8380 
  9 C        5.8770    -4.4680    -0.3180 C.3   1 <1>   0.2090 
 10 C        6.9220    -2.3490     0.4060 C.3   1 <1>   0.2090 
 11 C        6.8470    -5.2310     0.6060 C.3   1 <1>   0.1100 
 12 C        7.8710    -3.1580     1.3110 C.3   1 <1>   0.1100 
 13 N        8.1340    -4.5190     0.7780 N.3   1 <1>  -0.8100 
 14 C        9.0340    -5.2800     1.6970 C.3   1 <1>   0.1710 
 15 C       10.4860    -4.7910     1.7160 C.2   1 <1>   0.5690 
 16 O       11.1620    -4.9730     2.7010 O.2   1 <1>  -0.5700 
 17 N       10.9700    -4.1730     0.6090 N.am  1 <1>  -0.7300 
 18 C       12.3330    -3.6210     0.4420 C.3   1 <1>   0.1400 
 19 C       13.1650    -4.5460    -0.4440 C.3   1 <1>  -0.0170 
 20 C       14.5520    -3.9620    -0.6580 C.ar  1 <1>  -0.1430 
 21 C       15.5440    -4.1600     0.2910 C.ar  1 <1>  -0.1500 
 22 C       14.8380    -3.2230    -1.7960 C.ar  1 <1>  -0.1500 
 23 C       16.8070    -3.6260     0.1050 C.ar  1 <1>  -0.1500 
 24 C       16.1020    -2.6890    -1.9840 C.ar  1 <1>  -0.1500 
 25 C       17.0870    -2.8900    -1.0330 C.ar  1 <1>  -0.1500 
 26 H        3.7300    -0.9780    -3.3950 H     1 <1>   0.1500 
 27 H        1.5920    -1.0350     0.2850 H     1 <1>   0.1500 
 28 H        5.5730    -2.2540    -2.3420 H     1 <1>   0.1500 
 29 H        3.4460    -2.3150     1.3340 H     1 <1>   0.1500 
 30 H        6.2900    -4.4310    -1.3100 H     1 <1>   0.0800 
 31 H        4.9380    -4.9910    -0.3630 H     1 <1>   0.0800 
 32 H        6.7100    -1.4000     0.8670 H     1 <1>   0.0800 
 33 H        7.4040    -2.1650    -0.5380 H     1 <1>   0.0800 
 34 H        7.0300    -6.2030     0.1820 H     1 <1>   0.0800 
 35 H        6.3720    -5.3660     1.5620 H     1 <1>   0.0800 
 36 H        7.4280    -3.2280     2.2900 H     1 <1>   0.0800 
 37 H        8.7970    -2.6190     1.4060 H     1 <1>   0.0800 
 38 H        9.0570    -6.3110     1.3920 H     1 <1>   0.0800 
 39 H        8.6470    -5.2440     2.7000 H     1 <1>   0.0800 
 40 H       10.3010    -4.0380    -0.1560 H     1 <1>   0.3700 
 41 H       12.8070    -3.5260     1.4060 H     1 <1>   0.0800 
 42 H       12.2720    -2.6420    -0.0010 H     1 <1>   0.0800 
 43 H       12.6770    -4.6770    -1.3930 H     1 <1>   0.0800 
 44 H       13.2520    -5.5090     0.0290 H     1 <1>   0.0800 
 45 H       15.3350    -4.7300     1.1800 H     1 <1>   0.1500 
 46 H       14.0810    -3.0600    -2.5420 H     1 <1>   0.1500 
 47 H       17.5720    -3.7840     0.8450 H     1 <1>   0.1500 
 48 H       16.3180    -2.1180    -2.8690 H     1 <1>   0.1500 
 49 H       18.0690    -2.4750    -1.1780 H     1 <1>   0.1500 
@<TRIPOS>BOND
  1   1   2  1   
  2   2   3  ar  
  3   2   4  ar  
  4   3   5  ar  
  5   3  26  1   
  6   4   6  ar  
  7   4  27  1   
  8   5   7  ar  
  9   5  28  1   
 10   6   7  ar  
 11   6  29  1   
 12   7   8  1   
 13   8   9  1   
 14   8  10  1   
 15   9  11  1   
 16   9  30  1   
 17   9  31  1   
 18  10  12  1   
 19  10  32  1   
 20  10  33  1   
 21  11  13  1   
 22  11  34  1   
 23  11  35  1   
 24  12  13  1   
 25  12  36  1   
 26  12  37  1   
 27  13  14  1   
 28  14  15  1   
 29  14  38  1   
 30  14  39  1   
 31  15  16  2   
 32  15  17  am  
 33  17  18  1   
 34  17  40  1   
 35  18  19  1   
 36  18  41  1   
 37  18  42  1   
 38  19  20  1   
 39  19  43  1   
 40  19  44  1   
 41  20  21  ar  
 42  20  22  ar  
 43  21  23  ar  
 44  21  45  1   
 45  22  24  ar  
 46  22  46  1   
 47  23  25  ar  
 48  23  47  1   
 49  24  25  ar  
 50  24  48  1   
 51  25  49  1   
@<TRIPOS>SUBSTRUCTURE
  1 ****  13 GROUP 4 **** **** 0

# MOE 2024.06 (io_trps.svl 2023.06)
