@<TRIPOS>MOLECULE
NONAME
40 40 1 0 0 
SMALL
USER_CHARGES


@<TRIPOS>ATOM
  1 O       -0.8450     0.4520     1.5260 O.2   1 <1>  -0.5700 
  2 C       -1.4240     1.0280     0.6350 C.2   1 <1>   0.4950 
  3 C       -1.1030     2.3370     0.1340 C.2   1 <1>   0.0290 
  4 C       -2.5920     0.2560     0.0440 C.3   1 <1>  -0.0990 
  5 C       -2.2310     3.0840    -0.3640 C.2   1 <1>   0.4950 
  6 C        0.1850     2.8670     0.0920 C.2   1 <1>  -0.0380 
  7 C       -3.8450     1.1270    -0.0870 C.3   1 <1>   0.0000 
  8 O       -2.2950     4.2930    -0.4300 O.2   1 <1>  -0.5700 
  9 C       -3.4640     2.3700    -0.8990 C.3   1 <1>  -0.0990 
 10 N        0.4260     4.1060    -0.4180 N.pl3 1 <1>  -0.8690 
 11 C        1.4260     2.0990     0.5690 C.3   1 <1>  -0.0220 
 12 C       -4.9460     0.3450    -0.8200 C.3   1 <1>  -0.2400 
 13 C       -4.3730     1.5310     1.3010 C.3   1 <1>  -0.2400 
 14 C        1.6820     4.8530    -0.6570 C.3   1 <1>   0.2090 
 15 C        1.9650     1.1880    -0.5380 C.3   1 <1>  -0.2400 
 16 C        1.8960     5.8330     0.4950 C.3   1 <1>  -0.1600 
 17 C        3.1840     6.6470     0.3160 C.3   1 <1>  -0.2400 
 18 H       -2.2910    -0.1150    -0.9180 H     1 <1>   0.0800 
 19 H       -2.8070    -0.5960     0.6660 H     1 <1>   0.0800 
 20 H       -4.2920     3.0570    -0.9120 H     1 <1>   0.0800 
 21 H       -3.2610     2.0970    -1.9190 H     1 <1>   0.0800 
 22 H       -0.4110     4.6720    -0.6560 H     1 <1>   0.4000 
 23 H        2.1960     2.7810     0.8760 H     1 <1>   0.0800 
 24 H        1.2240     1.5190     1.4470 H     1 <1>   0.0800 
 25 H       -4.6160     0.0380    -1.7970 H     1 <1>   0.0800 
 26 H       -5.8270     0.9510    -0.9360 H     1 <1>   0.0800 
 27 H       -5.2160    -0.5370    -0.2640 H     1 <1>   0.0800 
 28 H       -4.6230     0.6580     1.8780 H     1 <1>   0.0800 
 29 H       -5.2590     2.1340     1.2060 H     1 <1>   0.0800 
 30 H       -3.6460     2.0980     1.8570 H     1 <1>   0.0800 
 31 H        2.5170     4.1790    -0.7410 H     1 <1>   0.0800 
 32 H        1.5970     5.3910    -1.5860 H     1 <1>   0.0800 
 33 H        2.8590     0.6930    -0.2050 H     1 <1>   0.0800 
 34 H        1.2340     0.4430    -0.7940 H     1 <1>   0.0800 
 35 H        2.1920     1.7670    -1.4160 H     1 <1>   0.0800 
 36 H        1.9490     5.2840     1.4190 H     1 <1>   0.0800 
 37 H        1.0560     6.5040     0.5480 H     1 <1>   0.0800 
 38 H        3.3060     7.3260     1.1410 H     1 <1>   0.0800 
 39 H        3.1440     7.2190    -0.5950 H     1 <1>   0.0800 
 40 H        4.0390     5.9940     0.2810 H     1 <1>   0.0800 
@<TRIPOS>BOND
  1   1   2  2   
  2   2   3  1   
  3   2   4  1   
  4   3   5  1   
  5   3   6  2   
  6   4   7  1   
  7   4  18  1   
  8   4  19  1   
  9   5   8  2   
 10   5   9  1   
 11   6  10  1   
 12   6  11  1   
 13   7   9  1   
 14   7  12  1   
 15   7  13  1   
 16   9  20  1   
 17   9  21  1   
 18  10  14  1   
 19  10  22  1   
 20  11  15  1   
 21  11  23  1   
 22  11  24  1   
 23  12  25  1   
 24  12  26  1   
 25  12  27  1   
 26  13  28  1   
 27  13  29  1   
 28  13  30  1   
 29  14  16  1   
 30  14  31  1   
 31  14  32  1   
 32  15  33  1   
 33  15  34  1   
 34  15  35  1   
 35  16  17  1   
 36  16  36  1   
 37  16  37  1   
 38  17  38  1   
 39  17  39  1   
 40  17  40  1   
@<TRIPOS>SUBSTRUCTURE
  1 ****   3 GROUP 4 **** **** 0

# MOE 2024.06 (io_trps.svl 2023.06)
