@<TRIPOS>MOLECULE
NONAME
39 40 1 0 0 
SMALL
USER_CHARGES


@<TRIPOS>ATOM
  1 N        2.6570    -2.0950     0.3720 N.ar  1 <1>  -0.6200 
  2 C        2.6980    -3.2600    -0.2680 C.ar  1 <1>   0.1660 
  3 C        3.8300    -1.5030     0.5570 C.ar  1 <1>   0.1600 
  4 C        3.8640    -3.8600    -0.7210 C.ar  1 <1>  -0.1500 
  5 C        1.3530    -3.9460    -0.4880 C.3   1 <1>   0.4870 
  6 C        5.0440    -2.0210     0.1400 C.ar  1 <1>  -0.1500 
  7 C        5.0730    -3.2320    -0.5160 C.ar  1 <1>  -0.1500 
  8 N        0.4870    -3.6550     0.6850 N.4   1 <1>  -0.9060 
  9 C       -0.9620    -3.7070     0.4360 C.3   1 <1>   0.4230 
 10 C       -1.6760    -2.9440     1.5630 C.3   1 <1>  -0.1600 
 11 C       -1.4270    -5.1640     0.3060 C.3   1 <1>  -0.1600 
 12 C       -2.4120    -1.7110     1.0220 C.3   1 <1>  -0.1600 
 13 C       -2.6110    -5.3230    -0.6630 C.3   1 <1>  -0.1600 
 14 C       -3.7960    -2.0210     0.4260 C.3   1 <1>  -0.1600 
 15 C       -3.8660    -4.5090    -0.3050 C.3   1 <1>  -0.1600 
 16 C       -3.8260    -3.0270    -0.7390 C.3   1 <1>  -0.1600 
 17 H        3.8280    -0.5530     1.0670 H     1 <1>   0.1500 
 18 H        3.8440    -4.8070    -1.2330 H     1 <1>   0.1500 
 19 H        1.4840    -5.0070    -0.6140 H     1 <1>   0.0800 
 20 H        0.9080    -3.5380    -1.3800 H     1 <1>   0.0800 
 21 H        5.9550    -1.4800     0.3280 H     1 <1>   0.1500 
 22 H        6.0020    -3.6630    -0.8530 H     1 <1>   0.1500 
 23 H        0.7660    -2.6900     0.9380 H     1 <1>   0.4500 
 24 H        0.7560    -4.2310     1.4860 H     1 <1>   0.4500 
 25 H       -1.1620    -3.2030    -0.4960 H     1 <1>   0.0800 
 26 H       -0.9700    -2.6150     2.3060 H     1 <1>   0.0800 
 27 H       -2.3880    -3.5690     2.0740 H     1 <1>   0.0800 
 28 H       -1.7020    -5.5570     1.2700 H     1 <1>   0.0800 
 29 H       -0.6340    -5.7820    -0.0720 H     1 <1>   0.0800 
 30 H       -1.8060    -1.2010     0.2920 H     1 <1>   0.0800 
 31 H       -2.5620    -1.0230     1.8370 H     1 <1>   0.0800 
 32 H       -2.8880    -6.3650    -0.6660 H     1 <1>   0.0800 
 33 H       -2.3040    -5.0850    -1.6670 H     1 <1>   0.0800 
 34 H       -4.1990    -1.0900     0.0630 H     1 <1>   0.0800 
 35 H       -4.4610    -2.3520     1.2060 H     1 <1>   0.0800 
 36 H       -4.0940    -4.6070     0.7420 H     1 <1>   0.0800 
 37 H       -4.6910    -4.9650    -0.8290 H     1 <1>   0.0800 
 38 H       -3.0290    -2.8320    -1.4350 H     1 <1>   0.0800 
 39 H       -4.7390    -2.8390    -1.2800 H     1 <1>   0.0800 
@<TRIPOS>BOND
  1   1   2  ar  
  2   1   3  ar  
  3   2   4  ar  
  4   2   5  1   
  5   3   6  ar  
  6   3  17  1   
  7   4   7  ar  
  8   4  18  1   
  9   5   8  1   
 10   5  19  1   
 11   5  20  1   
 12   6   7  ar  
 13   6  21  1   
 14   7  22  1   
 15   8   9  1   
 16   8  23  1   
 17   8  24  1   
 18   9  10  1   
 19   9  11  1   
 20   9  25  1   
 21  10  12  1   
 22  10  26  1   
 23  10  27  1   
 24  11  13  1   
 25  11  28  1   
 26  11  29  1   
 27  12  14  1   
 28  12  30  1   
 29  12  31  1   
 30  13  15  1   
 31  13  32  1   
 32  13  33  1   
 33  14  16  1   
 34  14  34  1   
 35  14  35  1   
 36  15  16  1   
 37  15  36  1   
 38  15  37  1   
 39  16  38  1   
 40  16  39  1   
@<TRIPOS>SUBSTRUCTURE
  1 ****   8 GROUP 4 **** **** 0

# MOE 2024.06 (io_trps.svl 2023.06)
