@<TRIPOS>MOLECULE
NONAME
35 36 1 0 0 
SMALL
USER_CHARGES


@<TRIPOS>ATOM
  1 O        0.1940    -1.1020     0.4750 O.3   1 <1>  -0.3630 
  2 C       -1.0650    -1.1000    -0.0380 C.ar  1 <1>   0.0830 
  3 C        1.2690    -0.5040    -0.2030 C.3   1 <1>   0.1200 
  4 C       -2.0570    -1.7560     0.6870 C.ar  1 <1>  -0.1440 
  5 C       -1.3900    -0.4760    -1.2420 C.ar  1 <1>  -0.1500 
  6 C        2.5190    -0.7190     0.6540 C.3   1 <1>   0.3430 
  7 C       -3.3550    -1.7830     0.2020 C.ar  1 <1>  -0.1500 
  8 C       -1.7360    -2.4460     2.0060 C.3   1 <1>  -0.0960 
  9 C       -2.6900    -0.5100    -1.7150 C.ar  1 <1>  -0.1500 
 10 N        3.7520    -0.1290     0.0380 N.4   1 <1>  -0.9590 
 11 C       -3.6720    -1.1630    -0.9930 C.ar  1 <1>  -0.1500 
 12 C        4.1770    -0.7870    -1.2250 C.3   1 <1>   0.3430 
 13 C        4.9240    -0.2100     0.9440 C.3   1 <1>   0.3430 
 14 C        5.6440    -0.4070    -1.3760 C.3   1 <1>  -0.1600 
 15 C        6.1240    -0.0240     0.0270 C.3   1 <1>  -0.1600 
 16 H        1.0520     0.5440    -0.3130 H     1 <1>   0.0800 
 17 H        1.3640    -0.9850    -1.1600 H     1 <1>   0.0800 
 18 H       -0.6580     0.0420    -1.8280 H     1 <1>   0.1500 
 19 H        2.6600    -1.7770     0.8010 H     1 <1>   0.0800 
 20 H        2.3480    -0.2630     1.6160 H     1 <1>   0.0800 
 21 H       -4.1300    -2.2870     0.7530 H     1 <1>   0.1500 
 22 H       -2.6150    -2.8950     2.4320 H     1 <1>   0.0800 
 23 H       -1.0030    -3.2160     1.8460 H     1 <1>   0.0800 
 24 H       -1.3450    -1.7310     2.7060 H     1 <1>   0.0800 
 25 H       -2.9410    -0.0280    -2.6440 H     1 <1>   0.1500 
 26 H        3.5970     0.8690    -0.1620 H     1 <1>   0.4500 
 27 H       -4.6830    -1.1900    -1.3610 H     1 <1>   0.1500 
 28 H        3.5910    -0.4580    -2.0680 H     1 <1>   0.0800 
 29 H        4.0930    -1.8580    -1.1250 H     1 <1>   0.0800 
 30 H        4.9680    -1.1880     1.3980 H     1 <1>   0.0800 
 31 H        4.8890     0.5430     1.7160 H     1 <1>   0.0800 
 32 H        5.7380     0.4300    -2.0470 H     1 <1>   0.0800 
 33 H        6.2050    -1.2320    -1.7790 H     1 <1>   0.0800 
 34 H        6.9450    -0.6410     0.3520 H     1 <1>   0.0800 
 35 H        6.4440     1.0040     0.0480 H     1 <1>   0.0800 
@<TRIPOS>BOND
  1   1   2  1   
  2   1   3  1   
  3   2   4  ar  
  4   2   5  ar  
  5   3   6  1   
  6   3  16  1   
  7   3  17  1   
  8   4   7  ar  
  9   4   8  1   
 10   5   9  ar  
 11   5  18  1   
 12   6  10  1   
 13   6  19  1   
 14   6  20  1   
 15   7  11  ar  
 16   7  21  1   
 17   8  22  1   
 18   8  23  1   
 19   8  24  1   
 20   9  11  ar  
 21   9  25  1   
 22  10  12  1   
 23  10  13  1   
 24  10  26  1   
 25  11  27  1   
 26  12  14  1   
 27  12  28  1   
 28  12  29  1   
 29  13  15  1   
 30  13  30  1   
 31  13  31  1   
 32  14  15  1   
 33  14  32  1   
 34  14  33  1   
 35  15  34  1   
 36  15  35  1   
@<TRIPOS>SUBSTRUCTURE
  1 ****   3 GROUP 4 **** **** 0

# MOE 2024.06 (io_trps.svl 2023.06)
