@<TRIPOS>MOLECULE
NONAME
30 30 1 0 0 
SMALL
USER_CHARGES


@<TRIPOS>ATOM
  1 I       -0.1410     0.3180    -0.6890 I     1 <1>  -0.0810 
  2 C       -0.1320    -1.7930    -0.3260 C.ar  1 <1>   0.0810 
  3 C       -1.3290    -2.4960    -0.2310 C.ar  1 <1>   0.0820 
  4 C        1.1090    -2.3820    -0.1950 C.ar  1 <1>  -0.1500 
  5 O       -2.4830    -1.7810    -0.3700 O.3   1 <1>  -0.3630 
  6 C       -1.2400    -3.8800    -0.0070 C.ar  1 <1>   0.0830 
  7 C        1.2080    -3.7500     0.0520 C.ar  1 <1>   0.0860 
  8 C       -3.7300    -2.2150     0.1180 C.3   1 <1>   0.1200 
  9 O       -2.3750    -4.6360     0.0550 O.3   1 <1>  -0.3620 
 10 C        0.0150    -4.4710     0.1370 C.ar  1 <1>  -0.1500 
 11 C        2.4900    -4.4140     0.2130 C.2   1 <1>   0.5440 
 12 C       -4.6740    -1.0160     0.1310 C.3   1 <1>  -0.2400 
 13 C       -2.3490    -6.0420    -0.0340 C.3   1 <1>   0.1200 
 14 O        2.6080    -5.6110     0.0730 O.2   1 <1>  -0.5700 
 15 N        3.6180    -3.7430     0.5420 N.am  1 <1>  -0.8000 
 16 C       -3.7910    -6.5300    -0.1320 C.3   1 <1>  -0.2400 
 17 H        1.9940    -1.7810    -0.2910 H     1 <1>   0.1500 
 18 H       -3.5930    -2.6060     1.1120 H     1 <1>   0.0800 
 19 H       -4.1030    -2.9840    -0.5360 H     1 <1>   0.0800 
 20 H        0.1050    -5.5240     0.3240 H     1 <1>   0.1500 
 21 H       -4.2820    -0.2470     0.7730 H     1 <1>   0.0800 
 22 H       -5.6380    -1.3160     0.5000 H     1 <1>   0.0800 
 23 H       -4.7900    -0.6290    -0.8650 H     1 <1>   0.0800 
 24 H       -1.8770    -6.4340     0.8500 H     1 <1>   0.0800 
 25 H       -1.7930    -6.3210    -0.9130 H     1 <1>   0.0800 
 26 H        4.4800    -4.2770     0.6660 H     1 <1>   0.3700 
 27 H        3.6460    -2.7610     0.8110 H     1 <1>   0.3700 
 28 H       -4.3420    -6.2350     0.7430 H     1 <1>   0.0800 
 29 H       -3.8080    -7.6030    -0.2030 H     1 <1>   0.0800 
 30 H       -4.2600    -6.1210    -1.0090 H     1 <1>   0.0800 
@<TRIPOS>BOND
  1   1   2  1   
  2   2   3  ar  
  3   2   4  ar  
  4   3   5  1   
  5   3   6  ar  
  6   4   7  ar  
  7   4  17  1   
  8   5   8  1   
  9   6   9  1   
 10   6  10  ar  
 11   7  10  ar  
 12   7  11  1   
 13   8  12  1   
 14   8  18  1   
 15   8  19  1   
 16   9  13  1   
 17  10  20  1   
 18  11  14  2   
 19  11  15  am  
 20  12  21  1   
 21  12  22  1   
 22  12  23  1   
 23  13  16  1   
 24  13  24  1   
 25  13  25  1   
 26  15  26  1   
 27  15  27  1   
 28  16  28  1   
 29  16  29  1   
 30  16  30  1   
@<TRIPOS>SUBSTRUCTURE
  1 ****   6 GROUP 4 **** **** 0

# MOE 2024.06 (io_trps.svl 2023.06)
