@<TRIPOS>MOLECULE
NONAME
45 49 1 0 0 
SMALL
USER_CHARGES


@<TRIPOS>ATOM
  1 S        0.8700     2.0580    -2.2630 S.3   1 <1>  -0.0800 
  2 C        2.4040     1.3500    -1.7910 C.2   1 <1>   0.1660 
  3 C        0.5350     2.5060    -0.5980 C.2   1 <1>  -0.1400 
  4 N        3.2360     0.7690    -2.6920 N.2   1 <1>  -0.5760 
  5 C        2.6170     1.4700    -0.4520 C.2   1 <1>  -0.0860 
  6 C        1.5360     2.1450     0.2200 C.2   1 <1>  -0.1810 
  7 C       -0.7540     3.2110    -0.2370 C.3   1 <1>   0.0200 
  8 C        4.3220     0.2850    -2.2020 C.2   1 <1>   0.4500 
  9 C        3.8340     0.9230     0.0440 C.2   1 <1>   0.7160 
 10 C        1.4860     2.4340     1.7130 C.3   1 <1>   0.0210 
 11 C       -0.9350     3.1750     1.2920 C.3   1 <1>  -0.1600 
 12 N        4.6710     0.3160    -0.8700 N.am  1 <1>  -0.4200 
 13 O        4.1660     0.9850     1.2210 O.2   1 <1>  -0.5700 
 14 C        0.3850     3.4640     2.0380 C.3   1 <1>  -0.1600 
 15 C        5.9570    -0.3120    -0.4430 C.3   1 <1>   0.2010 
 16 C        7.1750     0.4110    -1.0120 C.2   1 <1>   0.5690 
 17 O        7.6540    -0.0700    -2.0110 O.2   1 <1>  -0.5700 
 18 N        7.6770     1.5450    -0.4010 N.am  1 <1>  -0.4770 
 19 C        8.8200     2.2850    -0.7380 C.ar  1 <1>   0.1170 
 20 C        7.0220     2.2040     0.7690 C.3   1 <1>   0.1400 
 21 C        9.0210     3.3340     0.1350 C.ar  1 <1>  -0.1430 
 22 C        9.7180     2.0970    -1.7830 C.ar  1 <1>  -0.1500 
 23 C        7.9450     3.3580     1.1870 C.3   1 <1>  -0.0170 
 24 C       10.0880     4.2010    -0.0010 C.ar  1 <1>  -0.1500 
 25 C       10.7930     2.9580    -1.9320 C.ar  1 <1>  -0.1500 
 26 C       10.9790     4.0080    -1.0440 C.ar  1 <1>  -0.1500 
 27 H       -1.5870     2.7280    -0.7170 H     1 <1>   0.0800 
 28 H       -0.7020     4.2290    -0.5820 H     1 <1>   0.0800 
 29 H        5.0230    -0.1880    -2.8690 H     1 <1>   0.0600 
 30 H        2.4350     2.8170     2.0470 H     1 <1>   0.0800 
 31 H        1.2930     1.5140     2.2360 H     1 <1>   0.0800 
 32 H       -1.2840     2.1980     1.5760 H     1 <1>   0.0800 
 33 H       -1.6850     3.8900     1.5800 H     1 <1>   0.0800 
 34 H        0.7330     4.4430     1.7560 H     1 <1>   0.0800 
 35 H        0.2090     3.4730     3.1000 H     1 <1>   0.0800 
 36 H        5.9740    -1.3250    -0.8010 H     1 <1>   0.0800 
 37 H        6.0330    -0.3580     0.6270 H     1 <1>   0.0800 
 38 H        6.8980     1.5080     1.5800 H     1 <1>   0.0800 
 39 H        6.0660     2.5970     0.4710 H     1 <1>   0.0800 
 40 H        9.5860     1.2890    -2.4780 H     1 <1>   0.1500 
 41 H        8.3610     3.1790     2.1620 H     1 <1>   0.0800 
 42 H        7.4160     4.2940     1.1830 H     1 <1>   0.0800 
 43 H       10.2270     5.0130     0.6910 H     1 <1>   0.1500 
 44 H       11.4860     2.8110    -2.7410 H     1 <1>   0.1500 
 45 H       11.8170     4.6720    -1.1660 H     1 <1>   0.1500 
@<TRIPOS>BOND
  1   1   2  1   
  2   1   3  1   
  3   2   4  1   
  4   2   5  2   
  5   3   6  2   
  6   3   7  1   
  7   4   8  2   
  8   5   6  1   
  9   5   9  1   
 10   6  10  1   
 11   7  11  1   
 12   7  27  1   
 13   7  28  1   
 14   8  12  1   
 15   8  29  1   
 16   9  12  am  
 17   9  13  2   
 18  10  14  1   
 19  10  30  1   
 20  10  31  1   
 21  11  14  1   
 22  11  32  1   
 23  11  33  1   
 24  12  15  1   
 25  14  34  1   
 26  14  35  1   
 27  15  16  1   
 28  15  36  1   
 29  15  37  1   
 30  16  17  2   
 31  16  18  am  
 32  18  19  1   
 33  18  20  1   
 34  19  21  ar  
 35  19  22  ar  
 36  20  23  1   
 37  20  38  1   
 38  20  39  1   
 39  21  23  1   
 40  21  24  ar  
 41  22  25  ar  
 42  22  40  1   
 43  23  41  1   
 44  23  42  1   
 45  24  26  ar  
 46  24  43  1   
 47  25  26  ar  
 48  25  44  1   
 49  26  45  1   
@<TRIPOS>SUBSTRUCTURE
  1 ****   9 GROUP 4 **** **** 0

# MOE 2024.06 (io_trps.svl 2023.06)
