@<TRIPOS>MOLECULE
NONAME
23 24 1 0 0 
SMALL
USER_CHARGES


@<TRIPOS>ATOM
  1 S       -3.6100     3.4430     0.0340 S.3   1 <1>  -0.2320 
  2 C       -3.6550     1.7280     0.0050 C.cat 1 <1>   0.8400 
  3 C       -1.8160     3.4410     0.0860 C.2   1 <1>   0.1150 
  4 N       -4.6410     0.8790    -0.0400 N.pl3 1 <1>  -0.7940 
  5 N       -2.4520     1.2130     0.0340 N.pl3 1 <1>  -0.6850 
  6 C       -1.4080     2.1390     0.0900 C.2   1 <1>   0.2030 
  7 C       -1.1770     4.7300     0.1090 C.2   1 <1>   0.4950 
  8 C       -4.1000    -0.5050    -0.0440 C.3   1 <1>   0.3290 
  9 C       -2.5610    -0.2730     0.0090 C.3   1 <1>   0.3300 
 10 C       -0.0010     1.5670     0.1600 C.3   1 <1>  -0.1020 
 11 O       -1.7760     5.7470     0.3440 O.2   1 <1>  -0.5700 
 12 C        0.3010     4.8850    -0.1810 C.3   1 <1>  -0.1790 
 13 H       -5.6390     1.1090    -0.0660 H     1 <1>   0.4500 
 14 H       -4.3820    -1.0260    -0.9440 H     1 <1>   0.0800 
 15 H       -4.4390    -1.0540     0.8190 H     1 <1>   0.0800 
 16 H       -2.1360    -0.7030     0.9000 H     1 <1>   0.0800 
 17 H       -2.0770    -0.6780    -0.8630 H     1 <1>   0.0800 
 18 H        0.0590     0.8370     0.9480 H     1 <1>   0.0800 
 19 H        0.7310     2.3210     0.3670 H     1 <1>   0.0800 
 20 H        0.2500     1.0920    -0.7710 H     1 <1>   0.0800 
 21 H        0.5990     4.2490    -0.9930 H     1 <1>   0.0800 
 22 H        0.8740     4.6600     0.6990 H     1 <1>   0.0800 
 23 H        0.5060     5.9030    -0.4630 H     1 <1>   0.0800 
@<TRIPOS>BOND
  1   1   2  1   
  2   1   3  1   
  3   2   4  ar  
  4   2   5  ar  
  5   3   6  2   
  6   3   7  1   
  7   4   8  1   
  8   4  13  1   
  9   5   6  1   
 10   5   9  1   
 11   6  10  1   
 12   7  11  2   
 13   7  12  1   
 14   8   9  1   
 15   8  14  1   
 16   8  15  1   
 17   9  16  1   
 18   9  17  1   
 19  10  18  1   
 20  10  19  1   
 21  10  20  1   
 22  12  21  1   
 23  12  22  1   
 24  12  23  1   
@<TRIPOS>SUBSTRUCTURE
  1 ****   6 GROUP 4 **** **** 0

# MOE 2024.06 (io_trps.svl 2023.06)
