@<TRIPOS>MOLECULE
NONAME
46 48 1 0 0 
SMALL
USER_CHARGES


@<TRIPOS>ATOM
  1 CL      -0.1840    -0.4410    -1.5820 Cl    1 <1>  -0.1770 
  2 C       -1.7380    -1.0500    -1.0660 C.ar  1 <1>   0.1770 
  3 C       -1.8150    -2.2960    -0.4730 C.ar  1 <1>  -0.1500 
  4 C       -2.8660    -0.2790    -1.2550 C.ar  1 <1>  -0.1500 
  5 C       -3.0430    -2.7900    -0.0600 C.ar  1 <1>  -0.1440 
  6 C       -4.0910    -0.7690    -0.8420 C.ar  1 <1>  -0.1500 
  7 C       -4.2000    -2.0240    -0.2450 C.ar  1 <1>   0.1170 
  8 C       -3.0970    -4.1710     0.5830 C.3   1 <1>  -0.0960 
  9 N       -5.4380    -2.5250     0.1940 N.am  1 <1>  -0.5470 
 10 C       -6.7150    -2.2680    -0.2250 C.2   1 <1>   0.5690 
 11 O       -6.9760    -1.5170    -1.1330 O.2   1 <1>  -0.5700 
 12 C       -7.8470    -2.9970     0.5030 C.3   1 <1>  -0.0190 
 13 C       -8.0170    -4.4300    -0.0350 C.3   1 <1>  -0.1600 
 14 C       -9.1930    -2.2470     0.4210 C.3   1 <1>  -0.1600 
 15 C       -9.1440    -5.1740     0.6860 C.3   1 <1>   0.1400 
 16 C      -10.3170    -3.0060     1.1320 C.3   1 <1>   0.1400 
 17 N      -10.4060    -4.3890     0.5860 N.am  1 <1>  -0.6600 
 18 C      -11.4990    -4.8680    -0.1110 C.2   1 <1>   0.5440 
 19 O      -11.3860    -5.8900    -0.7610 O.2   1 <1>  -0.5700 
 20 C      -12.7800    -4.1870    -0.0990 C.ar  1 <1>   0.0860 
 21 C      -13.4700    -3.9570     1.0950 C.ar  1 <1>  -0.1500 
 22 C      -13.3620    -3.7490    -1.2920 C.ar  1 <1>  -0.1500 
 23 C      -14.6880    -3.3010     1.1070 C.ar  1 <1>  -0.1500 
 24 C      -14.5800    -3.0910    -1.2990 C.ar  1 <1>  -0.1500 
 25 C      -15.2220    -2.8760    -0.0950 C.ar  1 <1>   0.1900 
 26 F      -16.3670    -2.2540    -0.0920 F     1 <1>  -0.1900 
 27 H       -0.9120    -2.8640    -0.3440 H     1 <1>   0.1500 
 28 H       -2.7850     0.6880    -1.7180 H     1 <1>   0.1500 
 29 H       -4.9680    -0.1630    -0.9860 H     1 <1>   0.1500 
 30 H       -2.1300    -4.6410     0.5660 H     1 <1>   0.0800 
 31 H       -3.7830    -4.8020     0.0460 H     1 <1>   0.0800 
 32 H       -3.4140    -4.0910     1.6070 H     1 <1>   0.0800 
 33 H       -5.3560    -3.2500     0.9010 H     1 <1>   0.3700 
 34 H       -7.5760    -3.0570     1.5420 H     1 <1>   0.0800 
 35 H       -7.1020    -4.9820     0.0820 H     1 <1>   0.0800 
 36 H       -8.2450    -4.3980    -1.0880 H     1 <1>   0.0800 
 37 H       -9.4720    -2.1110    -0.6100 H     1 <1>   0.0800 
 38 H       -9.0900    -1.2700     0.8590 H     1 <1>   0.0800 
 39 H       -8.8970    -5.3040     1.7260 H     1 <1>   0.0800 
 40 H       -9.2660    -6.1530     0.2530 H     1 <1>   0.0800 
 41 H      -11.2400    -2.4720     0.9920 H     1 <1>   0.0800 
 42 H      -10.1160    -3.0570     2.1880 H     1 <1>   0.0800 
 43 H      -13.0400    -4.3050     2.0180 H     1 <1>   0.1500 
 44 H      -12.8450    -3.9360    -2.2180 H     1 <1>   0.1500 
 45 H      -15.2200    -3.1220     2.0240 H     1 <1>   0.1500 
 46 H      -15.0270    -2.7520    -2.2170 H     1 <1>   0.1500 
@<TRIPOS>BOND
  1   1   2  1   
  2   2   3  ar  
  3   2   4  ar  
  4   3   5  ar  
  5   3  27  1   
  6   4   6  ar  
  7   4  28  1   
  8   5   7  ar  
  9   5   8  1   
 10   6   7  ar  
 11   6  29  1   
 12   7   9  1   
 13   8  30  1   
 14   8  31  1   
 15   8  32  1   
 16   9  10  am  
 17   9  33  1   
 18  10  11  2   
 19  10  12  1   
 20  12  13  1   
 21  12  14  1   
 22  12  34  1   
 23  13  15  1   
 24  13  35  1   
 25  13  36  1   
 26  14  16  1   
 27  14  37  1   
 28  14  38  1   
 29  15  17  1   
 30  15  39  1   
 31  15  40  1   
 32  16  17  1   
 33  16  41  1   
 34  16  42  1   
 35  17  18  am  
 36  18  19  2   
 37  18  20  1   
 38  20  21  ar  
 39  20  22  ar  
 40  21  23  ar  
 41  21  43  1   
 42  22  24  ar  
 43  22  44  1   
 44  23  25  ar  
 45  23  45  1   
 46  24  25  ar  
 47  24  46  1   
 48  25  26  1   
@<TRIPOS>SUBSTRUCTURE
  1 ****  12 GROUP 4 **** **** 0

# MOE 2024.06 (io_trps.svl 2023.06)
