@<TRIPOS>MOLECULE
NONAME
40 42 1 0 0 
SMALL
USER_CHARGES


@<TRIPOS>ATOM
  1 F        0.7280    -1.5280    -0.7710 F     1 <1>  -0.3400 
  2 C        0.6760    -1.7700     0.5400 C.3   1 <1>   1.0200 
  3 F        0.6120    -3.0970     0.6520 F     1 <1>  -0.3400 
  4 F       -0.5110    -1.3250     0.9450 F     1 <1>  -0.3400 
  5 C        1.8960    -1.1590     1.3220 C.3   1 <1>   0.5870 
  6 O        1.8910    -1.3870     2.7000 O.3   1 <1>  -0.6800 
  7 N        3.2380    -1.6690     0.9510 N.2   1 <1>  -0.6960 
  8 C        1.9950     0.3180     0.9660 C.2   1 <1>   0.5690 
  9 C        3.9190    -0.6990     0.4810 C.2   1 <1>   0.4240 
 10 O        1.1270     1.1530     1.0870 O.2   1 <1>  -0.5700 
 11 N        3.2460     0.5180     0.4710 N.am  1 <1>  -0.4200 
 12 C        5.2780    -0.8240    -0.0050 C.ar  1 <1>   0.0860 
 13 C        3.8460     1.8290     0.1020 C.3   1 <1>   0.2200 
 14 C        6.3220    -1.1320     0.8640 C.ar  1 <1>  -0.1500 
 15 C        5.5840    -0.6370    -1.3520 C.ar  1 <1>  -0.1500 
 16 C        3.8700     2.7870     1.3030 C.3   1 <1>  -0.1600 
 17 C        3.1140     2.4490    -1.0970 C.3   1 <1>  -0.1600 
 18 C        7.6240    -1.2350     0.4110 C.ar  1 <1>  -0.1500 
 19 C        6.8850    -0.7370    -1.8110 C.ar  1 <1>  -0.1500 
 20 C        4.5020     4.1320     0.9140 C.3   1 <1>  -0.1600 
 21 C        3.7440     3.7940    -1.4860 C.3   1 <1>  -0.1600 
 22 C        7.9080    -1.0350    -0.9280 C.ar  1 <1>  -0.1500 
 23 C        3.7800     4.7550    -0.2890 C.3   1 <1>  -0.1600 
 24 H        2.4270    -2.1910     2.8380 H     1 <1>   0.4000 
 25 H        4.8690     1.6750    -0.1920 H     1 <1>   0.0800 
 26 H        6.1040    -1.2940     1.9060 H     1 <1>   0.1500 
 27 H        4.7930    -0.4130    -2.0470 H     1 <1>   0.1500 
 28 H        4.4340     2.3480     2.1060 H     1 <1>   0.0800 
 29 H        2.8680     2.9690     1.6500 H     1 <1>   0.0800 
 30 H        2.0800     2.6140    -0.8480 H     1 <1>   0.0800 
 31 H        3.1590     1.7790    -1.9370 H     1 <1>   0.0800 
 32 H        8.4190    -1.4720     1.0990 H     1 <1>   0.1500 
 33 H        7.1050    -0.5880    -2.8550 H     1 <1>   0.1500 
 34 H        5.5410     3.9850     0.6710 H     1 <1>   0.0800 
 35 H        4.4530     4.8080     1.7510 H     1 <1>   0.0800 
 36 H        3.1770     4.2390    -2.2860 H     1 <1>   0.0800 
 37 H        4.7470     3.6330    -1.8440 H     1 <1>   0.0800 
 38 H        8.9220    -1.1140    -1.2830 H     1 <1>   0.1500 
 39 H        4.2750     5.6680    -0.5740 H     1 <1>   0.0800 
 40 H        2.7710     5.0050    -0.0060 H     1 <1>   0.0800 
@<TRIPOS>BOND
  1   1   2  1   
  2   2   3  1   
  3   2   4  1   
  4   2   5  1   
  5   5   6  1   
  6   5   7  1   
  7   5   8  1   
  8   6  24  1   
  9   7   9  2   
 10   8  10  2   
 11   8  11  am  
 12   9  11  1   
 13   9  12  1   
 14  11  13  1   
 15  12  14  ar  
 16  12  15  ar  
 17  13  16  1   
 18  13  17  1   
 19  13  25  1   
 20  14  18  ar  
 21  14  26  1   
 22  15  19  ar  
 23  15  27  1   
 24  16  20  1   
 25  16  28  1   
 26  16  29  1   
 27  17  21  1   
 28  17  30  1   
 29  17  31  1   
 30  18  22  ar  
 31  18  32  1   
 32  19  22  ar  
 33  19  33  1   
 34  20  23  1   
 35  20  34  1   
 36  20  35  1   
 37  21  23  1   
 38  21  36  1   
 39  21  37  1   
 40  22  38  1   
 41  23  39  1   
 42  23  40  1   
@<TRIPOS>SUBSTRUCTURE
  1 ****  11 GROUP 4 **** **** 0

# MOE 2024.06 (io_trps.svl 2023.06)
