@<TRIPOS>MOLECULE
NONAME
49 51 1 0 0 
SMALL
USER_CHARGES


@<TRIPOS>ATOM
  1 CL       1.5540     1.4990     2.8730 Cl    1 <1>  -0.1770 
  2 C        2.3440     1.4890     1.3180 C.ar  1 <1>   0.1770 
  3 C        3.5860     0.9000     1.1940 C.ar  1 <1>  -0.1500 
  4 C        1.7110     2.0720     0.2370 C.ar  1 <1>  -0.1500 
  5 C        4.2390     0.8860    -0.0370 C.ar  1 <1>   0.0860 
  6 C        2.3400     2.0580    -0.9960 C.ar  1 <1>  -0.1500 
  7 C        5.5470     0.2750    -0.1750 C.2   1 <1>   0.5440 
  8 C        3.5860     1.4690    -1.1260 C.ar  1 <1>  -0.1500 
  9 O        5.6780    -0.8960     0.1270 O.2   1 <1>  -0.5700 
 10 N        6.6420     0.9810    -0.6330 N.am  1 <1>  -0.6600 
 11 C        6.6920     2.4680    -0.7170 C.3   1 <1>   0.1400 
 12 C        7.9340     0.3020    -0.9330 C.3   1 <1>   0.1400 
 13 C        7.7770     3.0010     0.2210 C.3   1 <1>  -0.1600 
 14 C        9.0220     0.8200     0.0100 C.3   1 <1>  -0.1600 
 15 C        9.1490     2.3530    -0.0590 C.3   1 <1>  -0.0190 
 16 C       10.2480     2.8540     0.8790 C.2   1 <1>   0.5690 
 17 O        9.9710     3.3270     1.9550 O.2   1 <1>  -0.5700 
 18 N       11.5340     2.7450     0.4700 N.am  1 <1>  -0.7300 
 19 C       12.7000     3.0860     1.2960 C.3   1 <1>   0.2840 
 20 C       13.8800     2.2900     0.7720 C.ar  1 <1>  -0.1430 
 21 C       14.7640     2.8540    -0.1350 C.ar  1 <1>  -0.1500 
 22 C       14.0780     0.9830     1.1880 C.ar  1 <1>  -0.1500 
 23 C       15.8340     2.1190    -0.6170 C.ar  1 <1>  -0.1500 
 24 C       15.1480     0.2490     0.7060 C.ar  1 <1>  -0.1500 
 25 C       16.0330     0.8140    -0.1980 C.ar  1 <1>  -0.1430 
 26 C       17.2070     0.0110    -0.7280 C.3   1 <1>  -0.0970 
 27 H        4.0540     0.4470     2.0490 H     1 <1>   0.1500 
 28 H        0.7430     2.5230     0.3620 H     1 <1>   0.1500 
 29 H        1.8570     2.5020    -1.8510 H     1 <1>   0.1500 
 30 H        4.0700     1.4520    -2.0870 H     1 <1>   0.1500 
 31 H        5.7480     2.9040    -0.4400 H     1 <1>   0.0800 
 32 H        6.9090     2.7540    -1.7320 H     1 <1>   0.0800 
 33 H        8.2050     0.5050    -1.9550 H     1 <1>   0.0800 
 34 H        7.8420    -0.7650    -0.8250 H     1 <1>   0.0800 
 35 H        7.4820     2.8030     1.2370 H     1 <1>   0.0800 
 36 H        7.8540     4.0680     0.1090 H     1 <1>   0.0800 
 37 H        9.9600     0.3620    -0.2490 H     1 <1>   0.0800 
 38 H        8.7800     0.5200     1.0160 H     1 <1>   0.0800 
 39 H        9.4380     2.6220    -1.0590 H     1 <1>   0.0800 
 40 H       11.7730     2.2940    -0.4140 H     1 <1>   0.3700 
 41 H       12.5060     2.8410     2.3270 H     1 <1>   0.0800 
 42 H       12.8940     4.1430     1.2260 H     1 <1>   0.0800 
 43 H       14.6240     3.8660    -0.4710 H     1 <1>   0.1500 
 44 H       13.3970     0.5310     1.8890 H     1 <1>   0.1500 
 45 H       16.5130     2.5690    -1.3200 H     1 <1>   0.1500 
 46 H       15.2890    -0.7640     1.0390 H     1 <1>   0.1500 
 47 H       18.0460     0.6540    -0.9180 H     1 <1>   0.0800 
 48 H       16.9280    -0.4780    -1.6440 H     1 <1>   0.0800 
 49 H       17.5070    -0.7350    -0.0140 H     1 <1>   0.0800 
@<TRIPOS>BOND
  1   1   2  1   
  2   2   3  ar  
  3   2   4  ar  
  4   3   5  ar  
  5   3  27  1   
  6   4   6  ar  
  7   4  28  1   
  8   5   7  1   
  9   5   8  ar  
 10   6   8  ar  
 11   6  29  1   
 12   7   9  2   
 13   7  10  am  
 14   8  30  1   
 15  10  11  1   
 16  10  12  1   
 17  11  13  1   
 18  11  31  1   
 19  11  32  1   
 20  12  14  1   
 21  12  33  1   
 22  12  34  1   
 23  13  15  1   
 24  13  35  1   
 25  13  36  1   
 26  14  15  1   
 27  14  37  1   
 28  14  38  1   
 29  15  16  1   
 30  15  39  1   
 31  16  17  2   
 32  16  18  am  
 33  18  19  1   
 34  18  40  1   
 35  19  20  1   
 36  19  41  1   
 37  19  42  1   
 38  20  21  ar  
 39  20  22  ar  
 40  21  23  ar  
 41  21  43  1   
 42  22  24  ar  
 43  22  44  1   
 44  23  25  ar  
 45  23  45  1   
 46  24  25  ar  
 47  24  46  1   
 48  25  26  1   
 49  26  47  1   
 50  26  48  1   
 51  26  49  1   
@<TRIPOS>SUBSTRUCTURE
  1 ****  14 GROUP 4 **** **** 0

# MOE 2024.06 (io_trps.svl 2023.06)
