@<TRIPOS>MOLECULE
NONAME
49 51 1 0 0 
SMALL
USER_CHARGES


@<TRIPOS>ATOM
  1 F        0.8480    -1.2560    -2.3400 F     1 <1>  -0.1900 
  2 C        1.9590    -1.6360    -1.7700 C.ar  1 <1>   0.1900 
  3 C        2.4220    -2.9180    -1.9940 C.ar  1 <1>  -0.1500 
  4 C        2.6360    -0.7450    -0.9630 C.ar  1 <1>  -0.1500 
  5 C        3.6010    -3.3140    -1.3860 C.ar  1 <1>  -0.1500 
  6 C        3.8130    -1.1580    -0.3620 C.ar  1 <1>  -0.1500 
  7 C        4.3160    -2.4450    -0.5580 C.ar  1 <1>   0.0280 
  8 C        5.5480    -2.8490     0.0880 C.2   1 <1>  -0.1670 
  9 C        6.6630    -2.0980     0.1290 C.2   1 <1>  -0.2880 
 10 C        5.5310    -4.2120     0.7700 C.3   1 <1>  -0.0220 
 11 C        7.9720    -2.4730     0.7910 C.3   1 <1>   0.4810 
 12 C        6.7100    -4.3780     1.7340 C.3   1 <1>   0.3430 
 13 N        7.9740    -3.9360     1.0780 N.4   1 <1>  -0.9590 
 14 C        9.1870    -4.3520     1.8300 C.3   1 <1>   0.4860 
 15 C       10.4140    -3.9780     1.0200 C.ar  1 <1>  -0.1430 
 16 C       10.8110    -4.7030    -0.1000 C.ar  1 <1>  -0.1430 
 17 C       11.1440    -2.8640     1.4120 C.ar  1 <1>  -0.1500 
 18 C       11.9170    -4.2830    -0.8200 C.ar  1 <1>  -0.1500 
 19 C       10.0790    -5.9550    -0.5720 C.3   1 <1>  -0.0970 
 20 C       12.2490    -2.4470     0.6940 C.ar  1 <1>  -0.1430 
 21 C       12.6390    -3.1570    -0.4360 C.ar  1 <1>   0.0830 
 22 C       13.0340    -1.2220     1.1430 C.3   1 <1>  -0.0970 
 23 O       13.7270    -2.7080    -1.1160 O.3   1 <1>  -0.3630 
 24 C       14.2530    -3.3970    -2.2280 C.3   1 <1>   0.0400 
 25 H        1.8680    -3.5830    -2.6320 H     1 <1>   0.1500 
 26 H        2.2460     0.2460    -0.8120 H     1 <1>   0.1500 
 27 H        3.9660    -4.3070    -1.5690 H     1 <1>   0.1500 
 28 H        4.3440    -0.4710     0.2720 H     1 <1>   0.1500 
 29 H        6.7080    -1.1230    -0.3280 H     1 <1>   0.1500 
 30 H        5.5620    -4.9920     0.0300 H     1 <1>   0.0800 
 31 H        4.6160    -4.3250     1.3260 H     1 <1>   0.0800 
 32 H        8.0930    -1.9080     1.7010 H     1 <1>   0.0800 
 33 H        8.7920    -2.2340     0.1290 H     1 <1>   0.0800 
 34 H        6.7810    -5.4110     2.0330 H     1 <1>   0.0800 
 35 H        6.5330    -3.7800     2.6140 H     1 <1>   0.0800 
 36 H        8.0310    -4.3780     0.1550 H     1 <1>   0.4500 
 37 H        9.1790    -5.4170     1.9950 H     1 <1>   0.0800 
 38 H        9.2190    -3.8600     2.7890 H     1 <1>   0.0800 
 39 H       10.8590    -2.3070     2.2880 H     1 <1>   0.1500 
 40 H       12.2160    -4.8410    -1.6870 H     1 <1>   0.1500 
 41 H        9.1890    -5.6890    -1.1130 H     1 <1>   0.0800 
 42 H        9.8220    -6.5900     0.2560 H     1 <1>   0.0800 
 43 H       10.7060    -6.5300    -1.2310 H     1 <1>   0.0800 
 44 H       12.6170    -0.7870     2.0320 H     1 <1>   0.0800 
 45 H       13.0310    -0.4810     0.3630 H     1 <1>   0.0800 
 46 H       14.0540    -1.4990     1.3440 H     1 <1>   0.0800 
 47 H       15.1230    -2.8650    -2.5690 H     1 <1>   0.0800 
 48 H       13.5120    -3.4220    -3.0070 H     1 <1>   0.0800 
 49 H       14.5300    -4.3910    -1.9240 H     1 <1>   0.0800 
@<TRIPOS>BOND
  1   1   2  1   
  2   2   3  ar  
  3   2   4  ar  
  4   3   5  ar  
  5   3  25  1   
  6   4   6  ar  
  7   4  26  1   
  8   5   7  ar  
  9   5  27  1   
 10   6   7  ar  
 11   6  28  1   
 12   7   8  1   
 13   8   9  2   
 14   8  10  1   
 15   9  11  1   
 16   9  29  1   
 17  10  12  1   
 18  10  30  1   
 19  10  31  1   
 20  11  13  1   
 21  11  32  1   
 22  11  33  1   
 23  12  13  1   
 24  12  34  1   
 25  12  35  1   
 26  13  14  1   
 27  13  36  1   
 28  14  15  1   
 29  14  37  1   
 30  14  38  1   
 31  15  16  ar  
 32  15  17  ar  
 33  16  18  ar  
 34  16  19  1   
 35  17  20  ar  
 36  17  39  1   
 37  18  21  ar  
 38  18  40  1   
 39  19  41  1   
 40  19  42  1   
 41  19  43  1   
 42  20  21  ar  
 43  20  22  1   
 44  21  23  1   
 45  22  44  1   
 46  22  45  1   
 47  22  46  1   
 48  23  24  1   
 49  24  47  1   
 50  24  48  1   
 51  24  49  1   
@<TRIPOS>SUBSTRUCTURE
  1 ****  11 GROUP 4 **** **** 0

# MOE 2024.06 (io_trps.svl 2023.06)
