@<TRIPOS>MOLECULE
NONAME
41 44 1 0 0 
SMALL
USER_CHARGES


@<TRIPOS>ATOM
  1 S       -0.4260     0.5950    -1.1530 S.o2  1 <1>   1.4470 
  2 O        0.4680     0.1970    -2.2190 O.2   1 <1>  -0.6500 
  3 O       -1.1690     1.8300    -1.2760 O.2   1 <1>  -0.6500 
  4 N       -1.5440    -0.6600    -0.9580 N.am  1 <1>  -0.8490 
  5 C        0.4520     0.5790     0.4380 C.ar  1 <1>  -0.0090 
  6 C       -2.7970    -0.4750    -1.7030 C.3   1 <1>   0.1960 
  7 C       -0.9750    -1.9960    -1.1480 C.3   1 <1>   0.1960 
  8 C       -0.2150     0.2630     1.6220 C.ar  1 <1>  -0.1500 
  9 C        1.8080     0.8910     0.5080 C.ar  1 <1>  -0.1500 
 10 C       -3.8330    -1.5510    -1.3180 C.3   1 <1>   0.0580 
 11 C       -1.9900    -3.0920    -0.7650 C.3   1 <1>  -0.0800 
 12 C        0.4460     0.2440     2.8390 C.ar  1 <1>  -0.1500 
 13 C        2.4870     0.8820     1.7160 C.ar  1 <1>  -0.1500 
 14 C       -4.1860    -1.4150     0.1650 C.2   1 <1>  -0.0290 
 15 C       -3.2670    -2.9460    -1.6020 C.3   1 <1>  -0.1600 
 16 C       -2.3310    -3.0510     0.7380 C.3   1 <1>   0.1400 
 17 C        1.7910     0.5560     2.8630 C.ar  1 <1>   0.1900 
 18 N       -3.4030    -2.0720     1.1140 N.am  1 <1>  -0.4690 
 19 C       -5.2370    -0.6420     0.5570 C.2   1 <1>  -0.1500 
 20 F        2.4240     0.5420     4.0030 F     1 <1>  -0.1900 
 21 C       -3.6550    -1.8940     2.4660 C.2   1 <1>   0.6160 
 22 C       -5.5420    -0.4740     1.9270 C.2   1 <1>  -0.1500 
 23 O       -2.9390    -2.4240     3.3090 O.2   1 <1>  -0.5700 
 24 C       -4.7580    -1.0870     2.8520 C.2   1 <1>  -0.1360 
 25 H       -2.5970    -0.5130    -2.7610 H     1 <1>   0.0800 
 26 H       -3.2130     0.4920    -1.4740 H     1 <1>   0.0800 
 27 H       -0.0920    -2.1010    -0.5390 H     1 <1>   0.0800 
 28 H       -0.6830    -2.1190    -2.1780 H     1 <1>   0.0800 
 29 H       -1.2670     0.0260     1.5930 H     1 <1>   0.1500 
 30 H        2.3380     1.1430    -0.3960 H     1 <1>   0.1500 
 31 H       -4.7180    -1.4020    -1.9110 H     1 <1>   0.0800 
 32 H       -1.5350    -4.0430    -0.9760 H     1 <1>   0.0800 
 33 H       -0.0710    -0.0070     3.7490 H     1 <1>   0.1500 
 34 H        3.5340     1.1220     1.7710 H     1 <1>   0.1500 
 35 H       -3.0440    -3.0520    -2.6490 H     1 <1>   0.0800 
 36 H       -3.9850    -3.7000    -1.3270 H     1 <1>   0.0800 
 37 H       -1.4410    -2.8320     1.3030 H     1 <1>   0.0800 
 38 H       -2.6700    -4.0270     1.0400 H     1 <1>   0.0800 
 39 H       -5.8560    -0.1290    -0.1580 H     1 <1>   0.1500 
 40 H       -6.3820     0.1390     2.2040 H     1 <1>   0.1500 
 41 H       -4.9320    -0.9930     3.9060 H     1 <1>   0.1500 
@<TRIPOS>BOND
  1   1   2  2   
  2   1   3  2   
  3   1   4  am  
  4   1   5  1   
  5   4   6  1   
  6   4   7  1   
  7   5   8  ar  
  8   5   9  ar  
  9   6  10  1   
 10   6  25  1   
 11   6  26  1   
 12   7  11  1   
 13   7  27  1   
 14   7  28  1   
 15   8  12  ar  
 16   8  29  1   
 17   9  13  ar  
 18   9  30  1   
 19  10  14  1   
 20  10  15  1   
 21  10  31  1   
 22  11  15  1   
 23  11  16  1   
 24  11  32  1   
 25  12  17  ar  
 26  12  33  1   
 27  13  17  ar  
 28  13  34  1   
 29  14  18  1   
 30  14  19  2   
 31  15  35  1   
 32  15  36  1   
 33  16  18  1   
 34  16  37  1   
 35  16  38  1   
 36  17  20  1   
 37  18  21  am  
 38  19  22  1   
 39  19  39  1   
 40  21  23  2   
 41  21  24  1   
 42  22  24  2   
 43  22  40  1   
 44  24  41  1   
@<TRIPOS>SUBSTRUCTURE
  1 ****   4 GROUP 4 **** **** 0

# MOE 2024.06 (io_trps.svl 2023.06)
