@<TRIPOS>MOLECULE
NONAME
53 56 1 0 0 
SMALL
USER_CHARGES


@<TRIPOS>ATOM
  1 O       -3.4510     1.8130    -3.0740 O.2   1 <1>  -0.5700 
  2 C       -2.4820     1.6960    -2.3680 C.2   1 <1>   0.5690 
  3 N       -2.5330     1.2640    -1.0730 N.am  1 <1>  -0.5470 
  4 C       -1.1300     2.0590    -2.9280 C.3   1 <1>  -0.1790 
  5 C       -3.6370     0.8420    -0.3210 C.ar  1 <1>   0.1170 
  6 C       -3.6530     1.0620     1.0500 C.ar  1 <1>  -0.1500 
  7 C       -4.7240     0.1970    -0.8990 C.ar  1 <1>  -0.1500 
  8 C       -4.7350     0.6740     1.8200 C.ar  1 <1>  -0.1500 
  9 C       -5.8070    -0.1960    -0.1360 C.ar  1 <1>  -0.1500 
 10 C       -5.8260     0.0520     1.2290 C.ar  1 <1>  -0.1430 
 11 C       -7.0370    -0.3290     2.0580 C.3   1 <1>   0.4860 
 12 N       -8.1780     0.5190     1.6300 N.4   1 <1>  -0.9590 
 13 C       -7.9250     1.9970     1.7130 C.3   1 <1>   0.3430 
 14 C       -9.4970     0.1610     2.2380 C.3   1 <1>   0.3430 
 15 C       -9.0920     2.7910     1.0720 C.3   1 <1>   0.1100 
 16 C      -10.6380     0.9670     1.5710 C.3   1 <1>   0.1100 
 17 N      -10.1350     1.8950     0.5230 N.3   1 <1>  -0.8100 
 18 C      -11.2210     2.6430    -0.1380 C.3   1 <1>   0.2530 
 19 C      -12.1480     1.6760    -0.8570 C.ar  1 <1>  -0.1430 
 20 C      -13.4430     1.4690    -0.3910 C.ar  1 <1>  -0.1500 
 21 C      -11.6910     0.9830    -1.9790 C.ar  1 <1>  -0.1500 
 22 C      -14.2380     0.5610    -1.0620 C.ar  1 <1>   0.0830 
 23 C      -12.5080     0.0770    -2.6430 C.ar  1 <1>  -0.1500 
 24 O      -15.4950     0.2000    -0.7850 O.3   1 <1>  -0.3630 
 25 C      -13.7850    -0.1160    -2.1560 C.ar  1 <1>   0.0830 
 26 C      -15.8690    -0.7610    -1.7700 C.3   1 <1>   0.4000 
 27 O      -14.7360    -0.9330    -2.6190 O.3   1 <1>  -0.3620 
 28 H       -1.6490     1.2980    -0.5700 H     1 <1>   0.3700 
 29 H       -0.7260     2.8960    -2.3910 H     1 <1>   0.0800 
 30 H       -1.2280     2.3270    -3.9640 H     1 <1>   0.0800 
 31 H       -0.4630     1.2210    -2.8490 H     1 <1>   0.0800 
 32 H       -2.8140     1.5470     1.5170 H     1 <1>   0.1500 
 33 H       -4.7230     0.0010    -1.9580 H     1 <1>   0.1500 
 34 H       -4.7150     0.8660     2.8800 H     1 <1>   0.1500 
 35 H       -6.6280    -0.6920    -0.6250 H     1 <1>   0.1500 
 36 H       -6.8310    -0.1770     3.1040 H     1 <1>   0.0800 
 37 H       -7.2670    -1.3700     1.8980 H     1 <1>   0.0800 
 38 H       -8.3260     0.3780     0.6190 H     1 <1>   0.4500 
 39 H       -7.0150     2.2450     1.1910 H     1 <1>   0.0800 
 40 H       -7.8080     2.2990     2.7400 H     1 <1>   0.0800 
 41 H       -9.4870     0.3650     3.2960 H     1 <1>   0.0800 
 42 H       -9.6920    -0.8910     2.1050 H     1 <1>   0.0800 
 43 H       -8.6950     3.4050     0.2800 H     1 <1>   0.0800 
 44 H       -9.5210     3.4490     1.8090 H     1 <1>   0.0800 
 45 H      -11.1740     1.5190     2.3250 H     1 <1>   0.0800 
 46 H      -11.3300     0.2660     1.1350 H     1 <1>   0.0800 
 47 H      -10.8030     3.3210    -0.8630 H     1 <1>   0.0800 
 48 H      -11.7700     3.2210     0.5860 H     1 <1>   0.0800 
 49 H      -13.8350     1.9860     0.4650 H     1 <1>   0.1500 
 50 H      -10.6890     1.1490    -2.3350 H     1 <1>   0.1500 
 51 H      -12.1710    -0.4620    -3.5090 H     1 <1>   0.1500 
 52 H      -16.6960    -0.3850    -2.3450 H     1 <1>   0.0800 
 53 H      -16.1070    -1.6950    -1.2920 H     1 <1>   0.0800 
@<TRIPOS>BOND
  1   1   2  2   
  2   2   3  am  
  3   2   4  1   
  4   3   5  1   
  5   3  28  1   
  6   4  29  1   
  7   4  30  1   
  8   4  31  1   
  9   5   6  ar  
 10   5   7  ar  
 11   6   8  ar  
 12   6  32  1   
 13   7   9  ar  
 14   7  33  1   
 15   8  10  ar  
 16   8  34  1   
 17   9  10  ar  
 18   9  35  1   
 19  10  11  1   
 20  11  12  1   
 21  11  36  1   
 22  11  37  1   
 23  12  13  1   
 24  12  14  1   
 25  12  38  1   
 26  13  15  1   
 27  13  39  1   
 28  13  40  1   
 29  14  16  1   
 30  14  41  1   
 31  14  42  1   
 32  15  17  1   
 33  15  43  1   
 34  15  44  1   
 35  16  17  1   
 36  16  45  1   
 37  16  46  1   
 38  17  18  1   
 39  18  19  1   
 40  18  47  1   
 41  18  48  1   
 42  19  20  ar  
 43  19  21  ar  
 44  20  22  ar  
 45  20  49  1   
 46  21  23  ar  
 47  21  50  1   
 48  22  24  1   
 49  22  25  ar  
 50  23  25  ar  
 51  23  51  1   
 52  24  26  1   
 53  25  27  1   
 54  26  27  1   
 55  26  52  1   
 56  26  53  1   
@<TRIPOS>SUBSTRUCTURE
  1 ****  17 GROUP 4 **** **** 0

# MOE 2024.06 (io_trps.svl 2023.06)
