@<TRIPOS>MOLECULE
NONAME
39 41 1 0 0 
SMALL
USER_CHARGES


@<TRIPOS>ATOM
  1 S       -0.1490    -0.0890     0.5410 S.o2  1 <1>   1.4470 
  2 O       -0.0930     0.0610     1.9800 O.2   1 <1>  -0.6500 
  3 O       -1.2860     0.4360    -0.1840 O.2   1 <1>  -0.6500 
  4 N        1.2260     0.6740    -0.0870 N.am  1 <1>  -0.8490 
  5 C        0.1090    -1.8240     0.0780 C.ar  1 <1>  -0.0090 
  6 C        1.0710     2.1370    -0.0930 C.3   1 <1>   0.1960 
  7 C        2.4510     0.3210     0.6510 C.3   1 <1>   0.1960 
  8 C        0.1900    -2.8260     1.0390 C.ar  1 <1>  -0.1500 
  9 C        0.2470    -2.1910    -1.2560 C.ar  1 <1>  -0.1500 
 10 C        2.3040     2.8330    -0.7010 C.3   1 <1>   0.1100 
 11 C        3.6900     0.9960     0.0340 C.3   1 <1>   0.1100 
 12 C        0.4050    -4.1470     0.6830 C.ar  1 <1>  -0.1500 
 13 C        0.4620    -3.5090    -1.6210 C.ar  1 <1>  -0.1500 
 14 N        3.5490     2.4640     0.0120 N.3   1 <1>  -0.8100 
 15 C        0.5420    -4.4880    -0.6490 C.ar  1 <1>  -0.1500 
 16 C        4.7270     3.0990    -0.6110 C.3   1 <1>   0.2900 
 17 C        4.7840     4.5940    -0.3350 C.2   1 <1>  -0.0400 
 18 O        5.5860     5.3380    -1.0740 O.3   1 <1>  -0.2800 
 19 C        4.1440     5.3590     0.5780 C.2   1 <1>  -0.1500 
 20 C        5.4740     6.5840    -0.6560 C.2   1 <1>  -0.0100 
 21 C        4.5960     6.6670     0.3660 C.2   1 <1>  -0.1500 
 22 H        0.9220     2.4960     0.9130 H     1 <1>   0.0800 
 23 H        0.2050     2.4060    -0.6740 H     1 <1>   0.0800 
 24 H        2.5920    -0.7460     0.6300 H     1 <1>   0.0800 
 25 H        2.3670     0.6270     1.6810 H     1 <1>   0.0800 
 26 H        0.0830    -2.5710     2.0810 H     1 <1>   0.1500 
 27 H        0.1840    -1.4300    -2.0160 H     1 <1>   0.1500 
 28 H        2.1580     3.8970    -0.6500 H     1 <1>   0.0800 
 29 H        2.3770     2.5570    -1.7390 H     1 <1>   0.0800 
 30 H        3.8300     0.6220    -0.9660 H     1 <1>   0.0800 
 31 H        4.5550     0.7310     0.6180 H     1 <1>   0.0800 
 32 H        0.4650    -4.9070     1.4430 H     1 <1>   0.1500 
 33 H        0.5640    -3.7710    -2.6610 H     1 <1>   0.1500 
 34 H        0.7090    -5.5140    -0.9300 H     1 <1>   0.1500 
 35 H        4.7110     2.9340    -1.6750 H     1 <1>   0.0800 
 36 H        5.6270     2.6590    -0.2180 H     1 <1>   0.0800 
 37 H        3.4350     5.0460     1.3240 H     1 <1>   0.1500 
 38 H        6.0550     7.3480    -1.1410 H     1 <1>   0.1500 
 39 H        4.2870     7.5340     0.9230 H     1 <1>   0.1500 
@<TRIPOS>BOND
  1   1   2  2   
  2   1   3  2   
  3   1   4  am  
  4   1   5  1   
  5   4   6  1   
  6   4   7  1   
  7   5   8  ar  
  8   5   9  ar  
  9   6  10  1   
 10   6  22  1   
 11   6  23  1   
 12   7  11  1   
 13   7  24  1   
 14   7  25  1   
 15   8  12  ar  
 16   8  26  1   
 17   9  13  ar  
 18   9  27  1   
 19  10  14  1   
 20  10  28  1   
 21  10  29  1   
 22  11  14  1   
 23  11  30  1   
 24  11  31  1   
 25  12  15  ar  
 26  12  32  1   
 27  13  15  ar  
 28  13  33  1   
 29  14  16  1   
 30  15  34  1   
 31  16  17  1   
 32  16  35  1   
 33  16  36  1   
 34  17  18  1   
 35  17  19  2   
 36  18  20  1   
 37  19  21  1   
 38  19  37  1   
 39  20  21  2   
 40  20  38  1   
 41  21  39  1   
@<TRIPOS>SUBSTRUCTURE
  1 ****   4 GROUP 4 **** **** 0

# MOE 2024.06 (io_trps.svl 2023.06)
