@<TRIPOS>MOLECULE
NONAME
34 36 1 0 0 
SMALL
USER_CHARGES


@<TRIPOS>ATOM
  1 O       -0.1810     0.2360    -0.3210 O.2   1 <1>  -0.5700 
  2 C       -1.1930     0.9280    -0.2470 C.2   1 <1>   0.7670 
  3 N       -2.3780     0.2870    -0.3850 N.2   1 <1>  -0.6610 
  4 C       -1.1020     2.3300    -0.0240 C.2   1 <1>   0.0790 
  5 C       -3.4550     0.9960    -0.3110 C.2   1 <1>   0.5500 
  6 C        0.1980     2.8920     0.0930 C.1   1 <1>   0.4920 
  7 C       -2.2590     3.0530     0.0670 C.2   1 <1>   0.1450 
  8 N       -3.4130     2.3280    -0.0810 N.pl3 1 <1>  -0.5500 
  9 N       -4.6820     0.4250    -0.4510 N.pl3 1 <1>  -0.7880 
 10 N        1.2120     3.4060     0.1970 N.1   1 <1>  -0.5570 
 11 C       -2.4200     4.4700     0.3010 C.2   1 <1>   0.0950 
 12 C       -4.8880    -1.0350    -0.2240 C.3   1 <1>   0.2090 
 13 C       -5.8760     1.1160    -1.0150 C.3   1 <1>   0.2090 
 14 O       -3.6530     4.9670     0.3570 O.3   1 <1>  -0.2800 
 15 C       -1.5440     5.4990     0.4920 C.2   1 <1>  -0.1500 
 16 C       -6.0720    -1.2390     0.7280 C.3   1 <1>  -0.1600 
 17 C       -7.0580     0.9490    -0.0560 C.3   1 <1>  -0.1600 
 18 C       -3.5890     6.2600     0.5760 C.2   1 <1>  -0.0100 
 19 C       -2.3030     6.6550     0.6700 C.2   1 <1>  -0.1500 
 20 C       -7.3420    -0.5340     0.2290 C.3   1 <1>  -0.1600 
 21 H       -4.3060     2.8020     0.0490 H     1 <1>   0.4000 
 22 H       -4.0080    -1.4840     0.2060 H     1 <1>   0.0800 
 23 H       -5.0810    -1.5150    -1.1680 H     1 <1>   0.0800 
 24 H       -6.1160     0.6690    -1.9650 H     1 <1>   0.0800 
 25 H       -5.6820     2.1600    -1.1850 H     1 <1>   0.0800 
 26 H       -0.4690     5.4860     0.5130 H     1 <1>   0.1500 
 27 H       -5.8010    -0.8550     1.6960 H     1 <1>   0.0800 
 28 H       -6.2610    -2.2920     0.8350 H     1 <1>   0.0800 
 29 H       -7.9320     1.4070    -0.4850 H     1 <1>   0.0800 
 30 H       -6.8360     1.4600     0.8640 H     1 <1>   0.0800 
 31 H       -4.5000     6.8280     0.6520 H     1 <1>   0.1500 
 32 H       -1.9140     7.6430     0.8450 H     1 <1>   0.1500 
 33 H       -8.1210    -0.6210     0.9670 H     1 <1>   0.0800 
 34 H       -7.6840    -1.0120    -0.6730 H     1 <1>   0.0800 
@<TRIPOS>BOND
  1   1   2  2   
  2   2   3  1   
  3   2   4  1   
  4   3   5  2   
  5   4   6  1   
  6   4   7  2   
  7   5   8  1   
  8   5   9  1   
  9   6  10  3   
 10   7   8  1   
 11   7  11  1   
 12   8  21  1   
 13   9  12  1   
 14   9  13  1   
 15  11  14  1   
 16  11  15  2   
 17  12  16  1   
 18  12  22  1   
 19  12  23  1   
 20  13  17  1   
 21  13  24  1   
 22  13  25  1   
 23  14  18  1   
 24  15  19  1   
 25  15  26  1   
 26  16  20  1   
 27  16  27  1   
 28  16  28  1   
 29  17  20  1   
 30  17  29  1   
 31  17  30  1   
 32  18  19  2   
 33  18  31  1   
 34  19  32  1   
 35  20  33  1   
 36  20  34  1   
@<TRIPOS>SUBSTRUCTURE
  1 ****   8 GROUP 4 **** **** 0

# MOE 2024.06 (io_trps.svl 2023.06)
