@<TRIPOS>MOLECULE
NONAME
26 27 1 0 0 
SMALL
USER_CHARGES


@<TRIPOS>ATOM
  1 O       -0.5100    -2.6200    -1.5300 O.2   1 <1>  -0.5700 
  2 C       -1.4290    -2.2680    -0.8370 C.2   1 <1>   0.6590 
  3 O       -1.5990    -2.7160     0.4020 O.3   1 <1>  -0.4300 
  4 C       -2.4300    -1.2520    -1.3190 C.3   1 <1>   0.1570 
  5 C       -0.7390    -3.6630     0.9990 C.3   1 <1>   0.1200 
  6 N       -3.7490    -1.8760    -1.4440 N.pl3 1 <1>   0.3140 
  7 C        0.4270    -2.9240     1.6530 C.3   1 <1>  -0.2400 
  8 N       -4.2660    -2.2370    -2.6290 N.2   1 <1>  -0.4180 
  9 C       -4.6570    -2.0830    -0.4610 C.ar  1 <1>  -0.1520 
 10 N       -5.4540    -2.6750    -2.4470 N.2   1 <1>  -0.2270 
 11 C       -5.7400    -2.5980    -1.1260 C.ar  1 <1>   0.2270 
 12 C       -4.6810    -1.8880     0.9250 C.ar  1 <1>  -0.1500 
 13 C       -6.8970    -2.9420    -0.4230 C.ar  1 <1>  -0.1500 
 14 C       -5.8230    -2.2270     1.6150 C.ar  1 <1>  -0.1500 
 15 C       -6.9340    -2.7550     0.9410 C.ar  1 <1>  -0.1500 
 16 H       -2.1290    -0.8810    -2.2800 H     1 <1>   0.0800 
 17 H       -2.4880    -0.4370    -0.6250 H     1 <1>   0.0800 
 18 H       -0.3970    -4.3570     0.2490 H     1 <1>   0.0800 
 19 H       -1.3080    -4.1990     1.7390 H     1 <1>   0.0800 
 20 H        1.0030    -2.4030     0.9090 H     1 <1>   0.0800 
 21 H        1.0710    -3.6320     2.1430 H     1 <1>   0.0800 
 22 H        0.0640    -2.2280     2.3870 H     1 <1>   0.0800 
 23 H       -3.8240    -1.4870     1.4380 H     1 <1>   0.1500 
 24 H       -7.7320    -3.3440    -0.9660 H     1 <1>   0.1500 
 25 H       -5.8760    -2.0910     2.6810 H     1 <1>   0.1500 
 26 H       -7.8150    -3.0130     1.5020 H     1 <1>   0.1500 
@<TRIPOS>BOND
  1   1   2  2   
  2   2   3  1   
  3   2   4  1   
  4   3   5  1   
  5   4   6  1   
  6   4  16  1   
  7   4  17  1   
  8   5   7  1   
  9   5  18  1   
 10   5  19  1   
 11   6   8  1   
 12   6   9  1   
 13   7  20  1   
 14   7  21  1   
 15   7  22  1   
 16   8  10  2   
 17   9  11  ar  
 18   9  12  ar  
 19  10  11  1   
 20  11  13  ar  
 21  12  14  ar  
 22  12  23  1   
 23  13  15  ar  
 24  13  24  1   
 25  14  15  ar  
 26  14  25  1   
 27  15  26  1   
@<TRIPOS>SUBSTRUCTURE
  1 ****   9 GROUP 4 **** **** 0

# MOE 2024.06 (io_trps.svl 2023.06)
