@<TRIPOS>MOLECULE
NONAME
42 44 1 0 0 
SMALL
USER_CHARGES


@<TRIPOS>ATOM
  1 O       -0.9750     0.6680    -0.0480 O.2   1 <1>  -0.5700 
  2 C       -1.1780     1.7960    -0.4610 C.2   1 <1>   0.7150 
  3 N       -2.4130     2.0210    -1.0400 N.am  1 <1>  -0.6600 
  4 C       -0.1860     2.8460    -0.3060 C.2   1 <1>   0.0550 
  5 C       -3.1880     0.8890    -1.6270 C.3   1 <1>   0.1400 
  6 C       -3.2440     3.2050    -0.6780 C.3   1 <1>   0.1400 
  7 O       -0.3330     3.9930    -0.9920 O.3   1 <1>  -0.2800 
  8 C        0.9560     2.9180     0.4360 C.2   1 <1>  -0.1810 
  9 C       -4.3030     0.4600    -0.6580 C.3   1 <1>   0.3430 
 10 C       -4.4000     2.7840     0.2550 C.3   1 <1>   0.3430 
 11 C        0.6910     4.7910    -0.7060 C.ar  1 <1>   0.1400 
 12 C        1.5390     4.1750     0.1910 C.ar  1 <1>   0.0000 
 13 C        1.5870     1.9040     1.3770 C.3   1 <1>  -0.0590 
 14 N       -5.1930     1.6180    -0.2850 N.4   1 <1>  -0.9590 
 15 C        0.9350     6.0670    -1.1970 C.ar  1 <1>  -0.1500 
 16 C        2.6810     4.8520     0.6260 C.ar  1 <1>  -0.1500 
 17 C       -6.2560     1.1870     0.6480 C.3   1 <1>   0.4810 
 18 C        2.0650     6.7300    -0.7630 C.ar  1 <1>  -0.1500 
 19 C        2.9350     6.1210     0.1480 C.ar  1 <1>  -0.1500 
 20 C       -7.3370     2.2420     0.6070 C.2   1 <1>  -0.2880 
 21 C       -8.5090     2.1190    -0.0260 C.2   1 <1>  -0.3000 
 22 H       -2.5370     0.0520    -1.8190 H     1 <1>   0.0800 
 23 H       -3.6100     1.1930    -2.5690 H     1 <1>   0.0800 
 24 H       -3.6340     3.6560    -1.5740 H     1 <1>   0.0800 
 25 H       -2.6500     3.9460    -0.1720 H     1 <1>   0.0800 
 26 H       -3.8390     0.0530     0.2260 H     1 <1>   0.0800 
 27 H       -4.8860    -0.3220    -1.1170 H     1 <1>   0.0800 
 28 H       -5.0500     3.6310     0.4070 H     1 <1>   0.0800 
 29 H       -3.9790     2.5180     1.2100 H     1 <1>   0.0800 
 30 H        0.9770     1.0260     1.4800 H     1 <1>   0.0800 
 31 H        1.7210     2.3420     2.3490 H     1 <1>   0.0800 
 32 H        2.5480     1.6060     0.9970 H     1 <1>   0.0800 
 33 H       -5.6810     1.9380    -1.1320 H     1 <1>   0.4500 
 34 H        0.2530     6.5110    -1.8980 H     1 <1>   0.1500 
 35 H        3.3460     4.3770     1.3240 H     1 <1>   0.1500 
 36 H       -5.8730     1.0640     1.6490 H     1 <1>   0.0800 
 37 H       -6.6720     0.2480     0.3190 H     1 <1>   0.0800 
 38 H        2.2860     7.7200    -1.1230 H     1 <1>   0.1500 
 39 H        3.8110     6.6550     0.4740 H     1 <1>   0.1500 
 40 H       -7.0820     3.1320     1.1580 H     1 <1>   0.1500 
 41 H       -9.2680     2.8860    -0.0350 H     1 <1>   0.1500 
 42 H       -8.8260     1.2540    -0.5850 H     1 <1>   0.1500 
@<TRIPOS>BOND
  1   1   2  2   
  2   2   3  am  
  3   2   4  1   
  4   3   5  1   
  5   3   6  1   
  6   4   7  1   
  7   4   8  2   
  8   5   9  1   
  9   5  22  1   
 10   5  23  1   
 11   6  10  1   
 12   6  24  1   
 13   6  25  1   
 14   7  11  1   
 15   8  12  1   
 16   8  13  1   
 17   9  14  1   
 18   9  26  1   
 19   9  27  1   
 20  10  14  1   
 21  10  28  1   
 22  10  29  1   
 23  11  12  ar  
 24  11  15  ar  
 25  12  16  ar  
 26  13  30  1   
 27  13  31  1   
 28  13  32  1   
 29  14  17  1   
 30  14  33  1   
 31  15  18  ar  
 32  15  34  1   
 33  16  19  ar  
 34  16  35  1   
 35  17  20  1   
 36  17  36  1   
 37  17  37  1   
 38  18  19  ar  
 39  18  38  1   
 40  19  39  1   
 41  20  21  2   
 42  20  40  1   
 43  21  41  1   
 44  21  42  1   
@<TRIPOS>SUBSTRUCTURE
  1 ****   2 GROUP 4 **** **** 0

# MOE 2024.06 (io_trps.svl 2023.06)
