@<TRIPOS>MOLECULE
NONAME
44 45 1 0 0 
SMALL
USER_CHARGES


@<TRIPOS>ATOM
  1 O       -0.5620    -0.0120     0.1120 O.2   1 <1>  -0.5700 
  2 C       -0.8340    -1.1910     0.2440 C.2   1 <1>   0.6900 
  3 N       -2.1290    -1.6170     0.3710 N.am  1 <1>  -0.6600 
  4 N        0.1290    -2.1550     0.2470 N.am  1 <1>  -0.5470 
  5 C       -3.1870    -0.7930     1.0170 C.3   1 <1>   0.2200 
  6 C       -2.6450    -2.5740    -0.6490 C.3   1 <1>   0.2200 
  7 C        1.5230    -2.1750     0.0680 C.ar  1 <1>   0.1170 
  8 C       -3.8200     0.1350    -0.0340 C.3   1 <1>  -0.1600 
  9 C       -2.6990    -0.0480     2.2610 C.3   1 <1>  -0.2400 
 10 C       -3.9640    -2.0790    -1.2820 C.3   1 <1>  -0.1600 
 11 C       -2.8150    -3.9500    -0.0070 C.3   1 <1>  -0.2400 
 12 C        2.1820    -3.4040     0.1910 C.ar  1 <1>   0.0830 
 13 C        2.2710    -1.0410    -0.2270 C.ar  1 <1>  -0.1500 
 14 C       -3.9940    -0.5470    -1.4080 C.3   1 <1>  -0.1600 
 15 O        1.4140    -4.5010     0.4770 O.3   1 <1>  -0.3630 
 16 C        3.5610    -3.4720     0.0230 C.ar  1 <1>  -0.1500 
 17 C        3.6440    -1.1100    -0.3960 C.ar  1 <1>  -0.1430 
 18 C        1.9980    -5.7720     0.6650 C.3   1 <1>   0.0400 
 19 C        4.2860    -2.3290    -0.2680 C.ar  1 <1>  -0.1500 
 20 C        4.4330     0.1470    -0.7140 C.3   1 <1>  -0.0970 
 21 H       -0.2460    -3.0710     0.4760 H     1 <1>   0.3700 
 22 H       -3.9500    -1.4750     1.3540 H     1 <1>   0.0800 
 23 H       -1.9150    -2.6500    -1.4400 H     1 <1>   0.0800 
 24 H       -3.2060     1.0110    -0.1540 H     1 <1>   0.0800 
 25 H       -4.7760     0.4590     0.3330 H     1 <1>   0.0800 
 26 H       -2.0180     0.7420     2.0030 H     1 <1>   0.0800 
 27 H       -2.2120    -0.7310     2.9330 H     1 <1>   0.0800 
 28 H       -3.5370     0.3920     2.7700 H     1 <1>   0.0800 
 29 H       -4.8010    -2.3980    -0.6850 H     1 <1>   0.0800 
 30 H       -4.0770    -2.5280    -2.2530 H     1 <1>   0.0800 
 31 H       -3.5190    -3.9040     0.8040 H     1 <1>   0.0800 
 32 H       -1.8730    -4.3090     0.3640 H     1 <1>   0.0800 
 33 H       -3.1770    -4.6510    -0.7370 H     1 <1>   0.0800 
 34 H        1.7810    -0.0920    -0.3260 H     1 <1>   0.1500 
 35 H       -3.1810    -0.2430    -2.0460 H     1 <1>   0.0800 
 36 H       -4.9120    -0.2230    -1.8680 H     1 <1>   0.0800 
 37 H        4.0930    -4.3990     0.1130 H     1 <1>   0.1500 
 38 H        1.2130    -6.4690     0.8960 H     1 <1>   0.0800 
 39 H        2.6930    -5.7190     1.4840 H     1 <1>   0.0800 
 40 H        2.4920    -6.0670    -0.2440 H     1 <1>   0.0800 
 41 H        5.3520    -2.3940    -0.3940 H     1 <1>   0.1500 
 42 H        3.8450     0.8130    -1.3200 H     1 <1>   0.0800 
 43 H        5.3320    -0.0950    -1.2510 H     1 <1>   0.0800 
 44 H        4.6960     0.6510     0.1980 H     1 <1>   0.0800 
@<TRIPOS>BOND
  1   1   2  2   
  2   2   3  am  
  3   2   4  am  
  4   3   5  1   
  5   3   6  1   
  6   4   7  1   
  7   4  21  1   
  8   5   8  1   
  9   5   9  1   
 10   5  22  1   
 11   6  10  1   
 12   6  11  1   
 13   6  23  1   
 14   7  12  ar  
 15   7  13  ar  
 16   8  14  1   
 17   8  24  1   
 18   8  25  1   
 19   9  26  1   
 20   9  27  1   
 21   9  28  1   
 22  10  14  1   
 23  10  29  1   
 24  10  30  1   
 25  11  31  1   
 26  11  32  1   
 27  11  33  1   
 28  12  15  1   
 29  12  16  ar  
 30  13  17  ar  
 31  13  34  1   
 32  14  35  1   
 33  14  36  1   
 34  15  18  1   
 35  16  19  ar  
 36  16  37  1   
 37  17  19  ar  
 38  17  20  1   
 39  18  38  1   
 40  18  39  1   
 41  18  40  1   
 42  19  41  1   
 43  20  42  1   
 44  20  43  1   
 45  20  44  1   
@<TRIPOS>SUBSTRUCTURE
  1 ****   4 GROUP 4 **** **** 0

# MOE 2024.06 (io_trps.svl 2023.06)
