@<TRIPOS>MOLECULE
NONAME
46 49 1 0 0 
SMALL
USER_CHARGES


@<TRIPOS>ATOM
  1 O        0.8630     4.9040     3.0750 O.2   1 <1>  -0.5700 
  2 C        1.1540     5.4680     2.0460 C.2   1 <1>   0.5180 
  3 N        2.3780     5.3660     1.4080 N.pl3 1 <1>   0.2940 
  4 C        0.0590     6.2520     1.3210 C.3   1 <1>   0.4040 
  5 C        2.9140     6.4250     0.6680 C.ar  1 <1>  -0.1520 
  6 C        2.6850     4.2080     0.6910 C.ar  1 <1>  -0.1520 
  7 N       -1.0640     5.3790     0.8080 N.4   1 <1>  -0.9590 
  8 C        3.4600     5.9490    -0.5150 C.ar  1 <1>   0.0000 
  9 C        2.9440     7.7880     0.9650 C.ar  1 <1>  -0.1500 
 10 C        3.3140     4.5360    -0.5010 C.ar  1 <1>   0.0000 
 11 C        2.4190     2.8770     1.0100 C.ar  1 <1>  -0.1500 
 12 C       -0.6000     4.4330    -0.2570 C.3   1 <1>   0.3430 
 13 C       -2.2270     6.1960     0.3560 C.3   1 <1>   0.3430 
 14 C        4.0110     6.8360    -1.4360 C.ar  1 <1>  -0.1500 
 15 C        3.4930     8.6600     0.0480 C.ar  1 <1>  -0.1500 
 16 C        3.6620     3.5360    -1.4040 C.ar  1 <1>  -0.1500 
 17 C        2.7670     1.8910     0.1100 C.ar  1 <1>  -0.1500 
 18 C       -1.7370     3.4870    -0.6390 C.3   1 <1>  -0.1600 
 19 C       -3.3910     5.2760    -0.0140 C.3   1 <1>  -0.1600 
 20 C        4.0200     8.1860    -1.1520 C.ar  1 <1>  -0.1500 
 21 C        3.3840     2.2200    -1.0960 C.ar  1 <1>  -0.1500 
 22 C       -2.9880     4.2550    -1.0880 C.3   1 <1>  -0.0800 
 23 C       -4.1410     3.2880    -1.3730 C.3   1 <1>  -0.2400 
 24 H        0.4910     6.8000     0.5000 H     1 <1>   0.0800 
 25 H       -0.3410     6.9670     2.0210 H     1 <1>   0.0800 
 26 H       -1.3810     4.8000     1.6030 H     1 <1>   0.4500 
 27 H        2.5610     8.1650     1.8990 H     1 <1>   0.1500 
 28 H        1.9550     2.6170     1.9480 H     1 <1>   0.1500 
 29 H        0.2340     3.8480     0.0960 H     1 <1>   0.0800 
 30 H       -0.2820     4.9840    -1.1270 H     1 <1>   0.0800 
 31 H       -1.9490     6.7840    -0.5040 H     1 <1>   0.0800 
 32 H       -2.5390     6.8660     1.1410 H     1 <1>   0.0800 
 33 H        4.4290     6.4620    -2.3540 H     1 <1>   0.1500 
 34 H        3.5280     9.7170     0.2550 H     1 <1>   0.1500 
 35 H        4.1480     3.7950    -2.3280 H     1 <1>   0.1500 
 36 H        2.5730     0.8560     0.3370 H     1 <1>   0.1500 
 37 H       -1.9670     2.8530     0.1990 H     1 <1>   0.0800 
 38 H       -1.4020     2.8500    -1.4400 H     1 <1>   0.0800 
 39 H       -4.2040     5.8770    -0.3820 H     1 <1>   0.0800 
 40 H       -3.7400     4.7710     0.8700 H     1 <1>   0.0800 
 41 H        4.4460     8.8820    -1.8550 H     1 <1>   0.1500 
 42 H        3.6520     1.4360    -1.7850 H     1 <1>   0.1500 
 43 H       -2.7610     4.7830    -2.0000 H     1 <1>   0.0800 
 44 H       -4.4090     2.7330    -0.4900 H     1 <1>   0.0800 
 45 H       -3.8630     2.5890    -2.1430 H     1 <1>   0.0800 
 46 H       -5.0090     3.8270    -1.7120 H     1 <1>   0.0800 
@<TRIPOS>BOND
  1   1   2  2   
  2   2   3  1   
  3   2   4  1   
  4   3   5  1   
  5   3   6  1   
  6   4   7  1   
  7   4  24  1   
  8   4  25  1   
  9   5   8  ar  
 10   5   9  ar  
 11   6  10  ar  
 12   6  11  ar  
 13   7  12  1   
 14   7  13  1   
 15   7  26  1   
 16   8  10  1   
 17   8  14  ar  
 18   9  15  ar  
 19   9  27  1   
 20  10  16  ar  
 21  11  17  ar  
 22  11  28  1   
 23  12  18  1   
 24  12  29  1   
 25  12  30  1   
 26  13  19  1   
 27  13  31  1   
 28  13  32  1   
 29  14  20  ar  
 30  14  33  1   
 31  15  20  ar  
 32  15  34  1   
 33  16  21  ar  
 34  16  35  1   
 35  17  21  ar  
 36  17  36  1   
 37  18  22  1   
 38  18  37  1   
 39  18  38  1   
 40  19  22  1   
 41  19  39  1   
 42  19  40  1   
 43  20  41  1   
 44  21  42  1   
 45  22  23  1   
 46  22  43  1   
 47  23  44  1   
 48  23  45  1   
 49  23  46  1   
@<TRIPOS>SUBSTRUCTURE
  1 ****   3 GROUP 4 **** **** 0

# MOE 2024.06 (io_trps.svl 2023.06)
