@<TRIPOS>MOLECULE
NONAME
40 41 1 0 0 
SMALL
USER_CHARGES


@<TRIPOS>ATOM
  1 S       -0.9340     0.3230     0.7210 S.o2  1 <1>   1.3330 
  2 O       -1.3490     1.4460    -0.0830 O.2   1 <1>  -0.6500 
  3 O       -1.5520     0.0730     2.0000 O.2   1 <1>  -0.6500 
  4 N       -1.1810    -1.0880    -0.2500 N.am  1 <1>  -0.6930 
  5 C        0.8370     0.3760     0.8850 C.3   1 <1>  -0.1350 
  6 C       -0.6570    -2.3450     0.0570 C.ar  1 <1>   0.1990 
  7 C       -2.2570    -0.9700    -1.2930 C.3   1 <1>   0.2570 
  8 C       -0.7370    -2.8810     1.3410 C.ar  1 <1>  -0.1500 
  9 C       -0.0460    -3.0950    -0.9510 C.ar  1 <1>  -0.1500 
 10 C       -3.1000    -2.2370    -1.4970 C.2   1 <1>   0.5690 
 11 C       -0.2070    -4.1320     1.5860 C.ar  1 <1>   0.1900 
 12 C        0.4850    -4.3520    -0.7030 C.ar  1 <1>  -0.1500 
 13 O       -2.9470    -2.8290    -2.5430 O.2   1 <1>  -0.5700 
 14 N       -3.9810    -2.6790    -0.5360 N.am  1 <1>  -0.6600 
 15 F       -0.2880    -4.6230     2.7970 F     1 <1>  -0.1900 
 16 C        0.3990    -4.8620     0.5780 C.ar  1 <1>   0.1900 
 17 C       -4.7810    -3.9210    -0.7330 C.3   1 <1>   0.1400 
 18 C       -4.2110    -2.0180     0.7820 C.3   1 <1>   0.1400 
 19 F        0.9010    -6.0480     0.8230 F     1 <1>  -0.1900 
 20 C       -6.2730    -3.6030    -0.5890 C.3   1 <1>  -0.1600 
 21 C       -5.6970    -1.6810     0.9390 C.3   1 <1>  -0.1600 
 22 C       -6.5810    -2.9220     0.7520 C.3   1 <1>  -0.1600 
 23 H        1.2960     0.4280    -0.0820 H     1 <1>   0.0800 
 24 H        1.1920    -0.4990     1.3920 H     1 <1>   0.0800 
 25 H        1.1270     1.2410     1.4500 H     1 <1>   0.0800 
 26 H       -1.7980    -0.7110    -2.2300 H     1 <1>   0.0800 
 27 H       -2.9330    -0.1740    -1.0380 H     1 <1>   0.0800 
 28 H       -1.2130    -2.3480     2.1410 H     1 <1>   0.1500 
 29 H        0.0060    -2.6890    -1.9470 H     1 <1>   0.1500 
 30 H        0.9510    -4.9260    -1.4850 H     1 <1>   0.1500 
 31 H       -4.4870    -4.6460     0.0060 H     1 <1>   0.0800 
 32 H       -4.5960    -4.3450    -1.7050 H     1 <1>   0.0800 
 33 H       -3.6350    -1.1170     0.8810 H     1 <1>   0.0800 
 34 H       -3.9060    -2.6910     1.5660 H     1 <1>   0.0800 
 35 H       -6.8380    -4.5140    -0.6710 H     1 <1>   0.0800 
 36 H       -6.5680    -2.9610    -1.4010 H     1 <1>   0.0800 
 37 H       -5.9620    -0.9320     0.2140 H     1 <1>   0.0800 
 38 H       -5.8630    -1.2640     1.9170 H     1 <1>   0.0800 
 39 H       -6.3970    -3.6160     1.5540 H     1 <1>   0.0800 
 40 H       -7.6190    -2.6390     0.7870 H     1 <1>   0.0800 
@<TRIPOS>BOND
  1   1   2  2   
  2   1   3  2   
  3   1   4  am  
  4   1   5  1   
  5   4   6  1   
  6   4   7  1   
  7   5  23  1   
  8   5  24  1   
  9   5  25  1   
 10   6   8  ar  
 11   6   9  ar  
 12   7  10  1   
 13   7  26  1   
 14   7  27  1   
 15   8  11  ar  
 16   8  28  1   
 17   9  12  ar  
 18   9  29  1   
 19  10  13  2   
 20  10  14  am  
 21  11  15  1   
 22  11  16  ar  
 23  12  16  ar  
 24  12  30  1   
 25  14  17  1   
 26  14  18  1   
 27  16  19  1   
 28  17  20  1   
 29  17  31  1   
 30  17  32  1   
 31  18  21  1   
 32  18  33  1   
 33  18  34  1   
 34  20  22  1   
 35  20  35  1   
 36  20  36  1   
 37  21  22  1   
 38  21  37  1   
 39  21  38  1   
 40  22  39  1   
 41  22  40  1   
@<TRIPOS>SUBSTRUCTURE
  1 ****   6 GROUP 4 **** **** 0

# MOE 2024.06 (io_trps.svl 2023.06)
