@<TRIPOS>MOLECULE
NONAME
39 41 1 0 0 
SMALL
USER_CHARGES


@<TRIPOS>ATOM
  1 F       -0.4350    -2.2080    -0.3650 F     1 <1>  -0.1900 
  2 C        0.7780    -2.2890     0.1130 C.ar  1 <1>   0.1900 
  3 C        1.8340    -2.4130    -0.7690 C.ar  1 <1>  -0.1500 
  4 C        0.9570    -2.2460     1.4820 C.ar  1 <1>  -0.1500 
  5 C        3.1260    -2.4920    -0.2690 C.ar  1 <1>  -0.1440 
  6 C        2.2450    -2.3310     1.9810 C.ar  1 <1>  -0.1500 
  7 C        3.3180    -2.4550     1.1100 C.ar  1 <1>  -0.1500 
  8 C        4.3060    -2.6160    -1.2360 C.3   1 <1>   0.3640 
  9 N        5.2310    -3.6850    -0.8220 N.am  1 <1>  -0.2980 
 10 C        5.1920    -1.3760    -1.1890 C.3   1 <1>  -0.0990 
 11 N        6.4330    -3.1720    -0.3880 N.2   1 <1>  -0.5120 
 12 C        4.8850    -5.0140    -0.9570 C.2   1 <1>   0.5690 
 13 C        6.4570    -1.9070    -0.5540 C.2   1 <1>   0.4740 
 14 O        3.8680    -5.3540    -1.5200 O.2   1 <1>  -0.5700 
 15 C        5.8370    -6.0720    -0.4070 C.3   1 <1>  -0.0990 
 16 C        7.5130    -0.9890    -0.2230 C.2   1 <1>   0.0550 
 17 C        5.2250    -7.4770    -0.2630 C.3   1 <1>  -0.2400 
 18 O        8.6360    -1.4220     0.3410 O.3   1 <1>  -0.2800 
 19 C        7.6080     0.3630    -0.3820 C.2   1 <1>  -0.1500 
 20 C        9.4360    -0.3970     0.5440 C.2   1 <1>  -0.0400 
 21 C        8.8550     0.7420     0.1160 C.2   1 <1>  -0.1500 
 22 C       10.7850    -0.6460     1.1810 C.3   1 <1>  -0.0600 
 23 H        1.6350    -2.4520    -1.8250 H     1 <1>   0.1500 
 24 H        0.1090    -2.1500     2.1360 H     1 <1>   0.1500 
 25 H        2.4150    -2.3060     3.0430 H     1 <1>   0.1500 
 26 H        4.3130    -2.5280     1.5180 H     1 <1>   0.1500 
 27 H        3.9650    -2.8080    -2.2390 H     1 <1>   0.0800 
 28 H        4.7550    -0.5920    -0.6000 H     1 <1>   0.0800 
 29 H        5.3950    -1.0210    -2.1820 H     1 <1>   0.0800 
 30 H        6.1820    -5.7460     0.5580 H     1 <1>   0.0800 
 31 H        6.6900    -6.1200    -1.0590 H     1 <1>   0.0800 
 32 H        4.3700    -7.4420     0.3890 H     1 <1>   0.0800 
 33 H        5.9480    -8.1580     0.1470 H     1 <1>   0.0800 
 34 H        4.9080    -7.8440    -1.2240 H     1 <1>   0.0800 
 35 H        6.8870     1.0390    -0.8030 H     1 <1>   0.1500 
 36 H        9.2460     1.7440     0.1400 H     1 <1>   0.1500 
 37 H       11.3540    -1.3210     0.5690 H     1 <1>   0.0800 
 38 H       10.6510    -1.0850     2.1530 H     1 <1>   0.0800 
 39 H       11.3260     0.2770     1.2830 H     1 <1>   0.0800 
@<TRIPOS>BOND
  1   1   2  1   
  2   2   3  ar  
  3   2   4  ar  
  4   3   5  ar  
  5   3  23  1   
  6   4   6  ar  
  7   4  24  1   
  8   5   7  ar  
  9   5   8  1   
 10   6   7  ar  
 11   6  25  1   
 12   7  26  1   
 13   8   9  1   
 14   8  10  1   
 15   8  27  1   
 16   9  11  1   
 17   9  12  am  
 18  10  13  1   
 19  10  28  1   
 20  10  29  1   
 21  11  13  2   
 22  12  14  2   
 23  12  15  1   
 24  13  16  1   
 25  15  17  1   
 26  15  30  1   
 27  15  31  1   
 28  16  18  1   
 29  16  19  2   
 30  17  32  1   
 31  17  33  1   
 32  17  34  1   
 33  18  20  1   
 34  19  21  1   
 35  19  35  1   
 36  20  21  2   
 37  20  22  1   
 38  21  36  1   
 39  22  37  1   
 40  22  38  1   
 41  22  39  1   
@<TRIPOS>SUBSTRUCTURE
  1 ****   9 GROUP 4 **** **** 0

# MOE 2024.06 (io_trps.svl 2023.06)
