@<TRIPOS>MOLECULE
NONAME
32 34 1 0 0 
SMALL
USER_CHARGES


@<TRIPOS>ATOM
  1 O       -0.8830    -0.4380     1.3130 O.co2 1 <1>  -0.9000 
  2 C       -1.1360     0.7090     0.9190 C.2   1 <1>   0.9060 
  3 O       -0.2560     1.5790     0.8610 O.co2 1 <1>  -0.9000 
  4 C       -2.5870     1.0450     0.5030 C.3   1 <1>  -0.1060 
  5 C       -3.0820     0.0350    -0.5640 C.3   1 <1>  -0.1600 
  6 C       -2.7190     2.4720    -0.0960 C.3   1 <1>  -0.1600 
  7 C       -3.5250     0.9570     1.7340 C.3   1 <1>  -0.1600 
  8 C       -4.5340     0.3430    -0.9460 C.3   1 <1>   0.2800 
  9 C       -4.1750     2.7880    -0.5030 C.3   1 <1>   0.0000 
 10 C       -4.9860     1.2520     1.3430 C.3   1 <1>  -0.0800 
 11 O       -4.9490    -0.5740    -1.8840 O.3   1 <1>  -0.6800 
 12 C       -4.6360     1.7500    -1.5480 C.3   1 <1>  -0.1600 
 13 C       -5.4410     0.2280     0.2870 C.3   1 <1>  -0.1600 
 14 C       -5.0730     2.6700     0.7480 C.3   1 <1>  -0.1600 
 15 C       -4.2650     4.2030    -1.0880 C.3   1 <1>  -0.2400 
 16 H       -3.0060    -0.9610    -0.1630 H     1 <1>   0.0800 
 17 H       -2.4480     0.1000    -1.4300 H     1 <1>   0.0800 
 18 H       -2.0690     2.5550    -0.9500 H     1 <1>   0.0800 
 19 H       -2.3760     3.1890     0.6300 H     1 <1>   0.0800 
 20 H       -3.4520    -0.0270     2.1650 H     1 <1>   0.0800 
 21 H       -3.1950     1.6580     2.4800 H     1 <1>   0.0800 
 22 H       -5.6140     1.1820     2.2140 H     1 <1>   0.0800 
 23 H       -4.6820    -1.4580    -1.5770 H     1 <1>   0.4000 
 24 H       -4.0100     1.8110    -2.4200 H     1 <1>   0.0800 
 25 H       -5.6520     1.9450    -1.8380 H     1 <1>   0.0800 
 26 H       -5.3760    -0.7630     0.7000 H     1 <1>   0.0800 
 27 H       -6.4610     0.4210     0.0090 H     1 <1>   0.0800 
 28 H       -6.0930     2.8910     0.4890 H     1 <1>   0.0800 
 29 H       -4.7590     3.3860     1.4870 H     1 <1>   0.0800 
 30 H       -3.6360     4.2870    -1.9560 H     1 <1>   0.0800 
 31 H       -3.9400     4.9270    -0.3620 H     1 <1>   0.0800 
 32 H       -5.2760     4.4300    -1.3730 H     1 <1>   0.0800 
@<TRIPOS>BOND
  1   1   2  ar  
  2   2   3  ar  
  3   2   4  1   
  4   4   5  1   
  5   4   6  1   
  6   4   7  1   
  7   5   8  1   
  8   5  16  1   
  9   5  17  1   
 10   6   9  1   
 11   6  18  1   
 12   6  19  1   
 13   7  10  1   
 14   7  20  1   
 15   7  21  1   
 16   8  11  1   
 17   8  12  1   
 18   8  13  1   
 19   9  12  1   
 20   9  14  1   
 21   9  15  1   
 22  10  13  1   
 23  10  14  1   
 24  10  22  1   
 25  11  23  1   
 26  12  24  1   
 27  12  25  1   
 28  13  26  1   
 29  13  27  1   
 30  14  28  1   
 31  14  29  1   
 32  15  30  1   
 33  15  31  1   
 34  15  32  1   
@<TRIPOS>SUBSTRUCTURE
  1 ****   4 GROUP 4 **** **** 0

# MOE 2024.06 (io_trps.svl 2023.06)
