@<TRIPOS>MOLECULE
NONAME
41 43 1 0 0 
SMALL
USER_CHARGES


@<TRIPOS>ATOM
  1 O        0.2450     1.4540    -1.6540 O.2   1 <1>  -0.5700 
  2 C        0.0760     2.1260    -0.6520 C.2   1 <1>   0.5440 
  3 N        1.1610     2.4490     0.1120 N.am  1 <1>  -0.7300 
  4 C       -1.2360     2.6030    -0.2780 C.ar  1 <1>   0.0860 
  5 C        2.5600     2.1090    -0.1990 C.3   1 <1>   0.2200 
  6 C       -1.5140     3.9770    -0.2400 C.ar  1 <1>   0.0830 
  7 C       -2.2620     1.7080     0.0550 C.ar  1 <1>   0.0830 
  8 C        3.3220     1.7810     1.0970 C.3   1 <1>  -0.0800 
  9 C        3.2990     3.3530    -0.7220 C.3   1 <1>  -0.1600 
 10 O       -0.5060     4.8390    -0.5320 O.3   1 <1>  -0.3630 
 11 C       -2.7880     4.4310     0.0900 C.ar  1 <1>  -0.1500 
 12 O       -1.9700     0.3830     0.0650 O.3   1 <1>  -0.3630 
 13 C       -3.5310     2.1770     0.3800 C.ar  1 <1>  -0.1500 
 14 C        3.7090     3.1630     1.6070 C.3   1 <1>  -0.1600 
 15 C        4.6970     1.2120     0.7060 C.3   1 <1>  -0.1600 
 16 C        4.4080     3.5740     0.3220 C.3   1 <1>  -0.0800 
 17 C       -0.7130     6.2210    -0.7230 C.3   1 <1>   0.0400 
 18 C       -3.7920     3.5330     0.3950 C.ar  1 <1>  -0.1500 
 19 C       -2.9580    -0.6180     0.1580 C.3   1 <1>   0.0400 
 20 C        5.4430     2.4470     0.1690 C.3   1 <1>  -0.1600 
 21 H        1.0400     3.1570     0.8340 H     1 <1>   0.3700 
 22 H        2.6010     1.2920    -0.9010 H     1 <1>   0.0800 
 23 H        2.7730     1.1570     1.7800 H     1 <1>   0.0800 
 24 H        2.6420     4.2050    -0.7650 H     1 <1>   0.0800 
 25 H        3.7070     3.1750    -1.7010 H     1 <1>   0.0800 
 26 H       -3.0190     5.4790     0.1190 H     1 <1>   0.1500 
 27 H       -4.3270     1.5020     0.6310 H     1 <1>   0.1500 
 28 H        4.3760     3.1240     2.4520 H     1 <1>   0.0800 
 29 H        2.8600     3.7850     1.8350 H     1 <1>   0.0800 
 30 H        4.6130     0.4360    -0.0350 H     1 <1>   0.0800 
 31 H        5.2000     0.8200     1.5740 H     1 <1>   0.0800 
 32 H        4.8290     4.5650     0.3190 H     1 <1>   0.0800 
 33 H        0.2210     6.6580    -1.0280 H     1 <1>   0.0800 
 34 H       -1.0370     6.6590     0.2040 H     1 <1>   0.0800 
 35 H       -1.4490     6.3600    -1.4960 H     1 <1>   0.0800 
 36 H       -4.7770     3.8890     0.6470 H     1 <1>   0.1500 
 37 H       -2.4740    -1.5710     0.0400 H     1 <1>   0.0800 
 38 H       -3.6750    -0.4740    -0.6300 H     1 <1>   0.0800 
 39 H       -3.4240    -0.5620     1.1250 H     1 <1>   0.0800 
 40 H        5.7510     2.3190    -0.8550 H     1 <1>   0.0800 
 41 H        6.3100     2.6510     0.7750 H     1 <1>   0.0800 
@<TRIPOS>BOND
  1   1   2  2   
  2   2   3  am  
  3   2   4  1   
  4   3   5  1   
  5   3  21  1   
  6   4   6  ar  
  7   4   7  ar  
  8   5   8  1   
  9   5   9  1   
 10   5  22  1   
 11   6  10  1   
 12   6  11  ar  
 13   7  12  1   
 14   7  13  ar  
 15   8  14  1   
 16   8  15  1   
 17   8  23  1   
 18   9  16  1   
 19   9  24  1   
 20   9  25  1   
 21  10  17  1   
 22  11  18  ar  
 23  11  26  1   
 24  12  19  1   
 25  13  18  ar  
 26  13  27  1   
 27  14  16  1   
 28  14  28  1   
 29  14  29  1   
 30  15  20  1   
 31  15  30  1   
 32  15  31  1   
 33  16  20  1   
 34  16  32  1   
 35  17  33  1   
 36  17  34  1   
 37  17  35  1   
 38  18  36  1   
 39  19  37  1   
 40  19  38  1   
 41  19  39  1   
 42  20  40  1   
 43  20  41  1   
@<TRIPOS>SUBSTRUCTURE
  1 ****   3 GROUP 4 **** **** 0

# MOE 2024.06 (io_trps.svl 2023.06)
