@<TRIPOS>MOLECULE
NONAME
47 50 1 0 0 
SMALL
USER_CHARGES


@<TRIPOS>ATOM
  1 O       -0.0280    -0.3980    -0.2410 O.2   1 <1>  -0.5700 
  2 C        0.0990    -1.6030    -0.1930 C.2   1 <1>   0.5690 
  3 N        1.3770    -2.1320    -0.1270 N.am  1 <1>  -0.6600 
  4 C       -1.2110    -2.4500    -0.2140 C.3   1 <1>   0.0610 
  5 C        1.8090    -3.5650    -0.1620 C.3   1 <1>   0.1400 
  6 C        2.5700    -1.2250    -0.0520 C.3   1 <1>   0.1400 
  7 C       -2.4640    -1.5240    -0.1610 C.3   1 <1>  -0.1600 
  8 C       -1.3190    -3.3860     1.0220 C.3   1 <1>  -0.1600 
  9 C       -1.3370    -3.2680    -1.5290 C.3   1 <1>  -0.1600 
 10 C        2.8560    -3.7890    -1.2670 C.3   1 <1>   0.1200 
 11 C        3.5810    -1.5620    -1.1590 C.3   1 <1>   0.1200 
 12 C       -3.7870    -2.3160    -0.1870 C.3   1 <1>   0.0000 
 13 C       -2.6120    -4.2240     0.9900 C.3   1 <1>   0.0000 
 14 C       -2.6310    -4.1010    -1.5420 C.3   1 <1>  -0.0800 
 15 O        3.9360    -2.9150    -1.1080 O.3   1 <1>  -0.5600 
 16 C       -3.8190    -3.2680     1.0230 C.3   1 <1>  -0.1600 
 17 C       -3.8390    -3.1530    -1.4780 C.3   1 <1>  -0.1600 
 18 C       -4.9820    -1.3550    -0.1330 C.3   1 <1>  -0.2400 
 19 C       -2.6510    -5.0380    -0.3210 C.3   1 <1>  -0.1600 
 20 C       -2.6580    -5.1680     2.1980 C.3   1 <1>  -0.2400 
 21 H        0.9930    -4.2310    -0.3330 H     1 <1>   0.0800 
 22 H        2.2460    -3.8220     0.7880 H     1 <1>   0.0800 
 23 H        3.0430    -1.3430     0.9070 H     1 <1>   0.0800 
 24 H        2.2860    -0.1920    -0.1470 H     1 <1>   0.0800 
 25 H       -2.4440    -0.8470    -0.9980 H     1 <1>   0.0800 
 26 H       -2.4250    -0.9240     0.7320 H     1 <1>   0.0800 
 27 H       -1.3000    -2.7860     1.9150 H     1 <1>   0.0800 
 28 H       -0.4870    -4.0540     1.0840 H     1 <1>   0.0800 
 29 H       -0.5080    -3.9280    -1.6690 H     1 <1>   0.0800 
 30 H       -1.3380    -2.5910    -2.3660 H     1 <1>   0.0800 
 31 H        2.4210    -3.6280    -2.2380 H     1 <1>   0.0800 
 32 H        3.2380    -4.7930    -1.2190 H     1 <1>   0.0800 
 33 H        4.4770    -0.9820    -1.0320 H     1 <1>   0.0800 
 34 H        3.1630    -1.3480    -2.1280 H     1 <1>   0.0800 
 35 H       -2.6780    -4.6820    -2.4470 H     1 <1>   0.0800 
 36 H       -3.8030    -2.6950     1.9340 H     1 <1>   0.0800 
 37 H       -4.7330    -3.8360     1.0130 H     1 <1>   0.0800 
 38 H       -3.8340    -2.5040    -2.3360 H     1 <1>   0.0800 
 39 H       -4.7500    -3.7260    -1.5080 H     1 <1>   0.0800 
 40 H       -4.9510    -0.7670     0.7670 H     1 <1>   0.0800 
 41 H       -5.9070    -1.9030    -0.1510 H     1 <1>   0.0800 
 42 H       -4.9640    -0.6870    -0.9760 H     1 <1>   0.0800 
 43 H       -3.5440    -5.6380    -0.3490 H     1 <1>   0.0800 
 44 H       -1.8090    -5.7060    -0.3640 H     1 <1>   0.0800 
 45 H       -2.6270    -4.6070     3.1150 H     1 <1>   0.0800 
 46 H       -1.8220    -5.8440     2.1830 H     1 <1>   0.0800 
 47 H       -3.5640    -5.7490     2.1870 H     1 <1>   0.0800 
@<TRIPOS>BOND
  1   1   2  2   
  2   2   3  am  
  3   2   4  1   
  4   3   5  1   
  5   3   6  1   
  6   4   7  1   
  7   4   8  1   
  8   4   9  1   
  9   5  10  1   
 10   5  21  1   
 11   5  22  1   
 12   6  11  1   
 13   6  23  1   
 14   6  24  1   
 15   7  12  1   
 16   7  25  1   
 17   7  26  1   
 18   8  13  1   
 19   8  27  1   
 20   8  28  1   
 21   9  14  1   
 22   9  29  1   
 23   9  30  1   
 24  10  15  1   
 25  10  31  1   
 26  10  32  1   
 27  11  15  1   
 28  11  33  1   
 29  11  34  1   
 30  12  16  1   
 31  12  17  1   
 32  12  18  1   
 33  13  16  1   
 34  13  19  1   
 35  13  20  1   
 36  14  17  1   
 37  14  19  1   
 38  14  35  1   
 39  16  36  1   
 40  16  37  1   
 41  17  38  1   
 42  17  39  1   
 43  18  40  1   
 44  18  41  1   
 45  18  42  1   
 46  19  43  1   
 47  19  44  1   
 48  20  45  1   
 49  20  46  1   
 50  20  47  1   
@<TRIPOS>SUBSTRUCTURE
  1 ****   4 GROUP 4 **** **** 0

# MOE 2024.06 (io_trps.svl 2023.06)
