@<TRIPOS>MOLECULE
NONAME
42 45 1 0 0 
SMALL
USER_CHARGES


@<TRIPOS>ATOM
  1 O        0.5260    -1.0980    -0.7840 O.3   1 <1>  -0.3630 
  2 C        1.7550    -0.8610    -0.3130 C.ar  1 <1>   0.0830 
  3 C       -0.2670    -1.5020     0.3310 C.3   1 <1>   0.4000 
  4 C        1.7950    -1.0910     1.0310 C.ar  1 <1>   0.0830 
  5 C        2.8710    -0.4460    -1.0090 C.ar  1 <1>  -0.1500 
  6 O        0.5940    -1.4830     1.4670 O.3   1 <1>  -0.3630 
  7 C        2.9570    -0.9190     1.7540 C.ar  1 <1>  -0.1500 
  8 C        4.0590    -0.2650    -0.3060 C.ar  1 <1>  -0.1440 
  9 C        4.0920    -0.5020     1.0710 C.ar  1 <1>  -0.1500 
 10 C        5.3080     0.1920    -1.0540 C.3   1 <1>   0.2390 
 11 N        6.5300    -0.5380    -0.6070 N.pl3 1 <1>   0.0480 
 12 C        6.7990    -1.8430    -0.8480 C.2   1 <1>  -0.3320 
 13 C        7.5560    -0.0210     0.1120 C.2   1 <1>  -0.3320 
 14 C        8.0110    -2.1780    -0.2750 C.ar  1 <1>   0.0000 
 15 C        5.8280    -2.7230    -1.6320 C.3   1 <1>  -0.0600 
 16 C        8.5100    -0.9990     0.3200 C.ar  1 <1>   0.0000 
 17 C        7.5560     1.4320     0.5800 C.3   1 <1>  -0.0600 
 18 C        8.8170    -3.3430    -0.1310 C.ar  1 <1>   0.1670 
 19 C        9.7900    -1.1040     0.9370 C.ar  1 <1>   0.1670 
 20 N        9.9620    -3.3440     0.4700 N.ar  1 <1>  -0.3100 
 21 C        8.3460    -4.6750    -0.6800 C.3   1 <1>  -0.0970 
 22 N       10.4590    -2.2090     1.0010 N.ar  1 <1>  -0.3100 
 23 C       10.4490     0.1150     1.5510 C.3   1 <1>  -0.0970 
 24 H       -0.6320    -2.5010     0.1710 H     1 <1>   0.0800 
 25 H       -1.0710    -0.8020     0.4750 H     1 <1>   0.0800 
 26 H        2.8000    -0.2740    -2.0680 H     1 <1>   0.1500 
 27 H        2.9720    -1.1070     2.8120 H     1 <1>   0.1500 
 28 H        5.0090    -0.3700     1.6200 H     1 <1>   0.1500 
 29 H        5.4410     1.2460    -0.9110 H     1 <1>   0.0800 
 30 H        5.1880     0.0250    -2.1080 H     1 <1>   0.0800 
 31 H        5.5210    -2.2310    -2.5360 H     1 <1>   0.0800 
 32 H        4.9560    -2.9250    -1.0340 H     1 <1>   0.0800 
 33 H        6.2660    -3.6570    -1.9150 H     1 <1>   0.0800 
 34 H        7.7220     2.0870    -0.2560 H     1 <1>   0.0800 
 35 H        8.3130     1.6190     1.3130 H     1 <1>   0.0800 
 36 H        6.6130     1.6760     1.0350 H     1 <1>   0.0800 
 37 H        7.3690    -4.9020    -0.2970 H     1 <1>   0.0800 
 38 H        9.0160    -5.4620    -0.3820 H     1 <1>   0.0800 
 39 H        8.3240    -4.6370    -1.7520 H     1 <1>   0.0800 
 40 H        9.9090     0.4170     2.4280 H     1 <1>   0.0800 
 41 H       10.4750     0.9160     0.8360 H     1 <1>   0.0800 
 42 H       11.4610    -0.1110     1.8390 H     1 <1>   0.0800 
@<TRIPOS>BOND
  1   1   2  1   
  2   1   3  1   
  3   2   4  ar  
  4   2   5  ar  
  5   3   6  1   
  6   3  24  1   
  7   3  25  1   
  8   4   6  1   
  9   4   7  ar  
 10   5   8  ar  
 11   5  26  1   
 12   7   9  ar  
 13   7  27  1   
 14   8   9  ar  
 15   8  10  1   
 16   9  28  1   
 17  10  11  1   
 18  10  29  1   
 19  10  30  1   
 20  11  12  1   
 21  11  13  1   
 22  12  14  2   
 23  12  15  1   
 24  13  16  2   
 25  13  17  1   
 26  14  16  ar  
 27  14  18  ar  
 28  15  31  1   
 29  15  32  1   
 30  15  33  1   
 31  16  19  ar  
 32  17  34  1   
 33  17  35  1   
 34  17  36  1   
 35  18  20  ar  
 36  18  21  1   
 37  19  22  ar  
 38  19  23  1   
 39  20  22  ar  
 40  21  37  1   
 41  21  38  1   
 42  21  39  1   
 43  23  40  1   
 44  23  41  1   
 45  23  42  1   
@<TRIPOS>SUBSTRUCTURE
  1 ****  11 GROUP 4 **** **** 0

# MOE 2024.06 (io_trps.svl 2023.06)
