@<TRIPOS>MOLECULE
NONAME
44 47 1 0 0 
SMALL
USER_CHARGES


@<TRIPOS>ATOM
  1 S        2.3010     0.0650    -0.5690 S.o2  1 <1>   1.4470 
  2 O        3.5860     0.3860     0.0110 O.2   1 <1>  -0.6500 
  3 O        1.5720     1.0050    -1.3860 O.2   1 <1>  -0.6500 
  4 N        2.4820    -1.4050    -1.4750 N.am  1 <1>  -0.6930 
  5 C        1.2560    -0.7370     0.6450 C.ar  1 <1>  -0.0090 
  6 C        1.8500    -2.4760    -0.8440 C.ar  1 <1>   0.1990 
  7 C        3.6530    -1.6200    -2.3780 C.3   1 <1>   0.3370 
  8 C        1.1600    -2.0880     0.3200 C.ar  1 <1>   0.0000 
  9 C        0.6120    -0.2570     1.7560 C.ar  1 <1>  -0.1500 
 10 C        1.8380    -3.8020    -1.2100 C.ar  1 <1>  -0.1500 
 11 C        4.8410    -2.2980    -1.6630 C.2   1 <1>   0.5690 
 12 C        4.0570    -0.3350    -3.1140 C.3   1 <1>  -0.2400 
 13 C        0.4410    -2.9950     1.1050 C.ar  1 <1>   0.0000 
 14 C       -0.1330    -1.1400     2.5560 C.ar  1 <1>  -0.1500 
 15 C        1.1310    -4.7330    -0.4370 C.ar  1 <1>  -0.1500 
 16 O        5.2910    -3.3190    -2.1310 O.2   1 <1>  -0.5700 
 17 N        5.3270    -1.7690    -0.5110 N.am  1 <1>  -0.7300 
 18 C       -0.2140    -2.4740     2.2400 C.ar  1 <1>  -0.1500 
 19 C        0.4470    -4.3410     0.6890 C.ar  1 <1>  -0.1500 
 20 C        6.2470    -2.4330     0.4190 C.3   1 <1>   0.2200 
 21 C        5.4250    -3.0680     1.5340 C.3   1 <1>  -0.1600 
 22 C        7.0540    -1.3660     1.1460 C.3   1 <1>  -0.1600 
 23 C        5.0790    -1.9230     2.4930 C.3   1 <1>  -0.1600 
 24 C        6.1410    -0.8400     2.2600 C.3   1 <1>  -0.1600 
 25 H        3.3310    -2.3100    -3.1380 H     1 <1>   0.0800 
 26 H        0.6700     0.7840     2.0250 H     1 <1>   0.1500 
 27 H        2.3640    -4.1410    -2.0840 H     1 <1>   0.1500 
 28 H        4.5120     0.3740    -2.4460 H     1 <1>   0.0800 
 29 H        3.2010     0.1100    -3.5900 H     1 <1>   0.0800 
 30 H        4.7790    -0.5760    -3.8730 H     1 <1>   0.0800 
 31 H       -0.6370    -0.7520     3.4250 H     1 <1>   0.1500 
 32 H        1.1320    -5.7660    -0.7410 H     1 <1>   0.1500 
 33 H        4.8960    -0.9140    -0.1300 H     1 <1>   0.3700 
 34 H       -0.7820    -3.1480     2.8570 H     1 <1>   0.1500 
 35 H       -0.0960    -5.0620     1.2760 H     1 <1>   0.1500 
 36 H        6.8650    -3.1470    -0.1010 H     1 <1>   0.0800 
 37 H        6.0430    -3.7820     2.0480 H     1 <1>   0.0800 
 38 H        4.5520    -3.5740     1.1590 H     1 <1>   0.0800 
 39 H        7.3910    -0.5880     0.4820 H     1 <1>   0.0800 
 40 H        7.9140    -1.8340     1.5910 H     1 <1>   0.0800 
 41 H        5.0740    -2.2620     3.5140 H     1 <1>   0.0800 
 42 H        4.1050    -1.5300     2.2520 H     1 <1>   0.0800 
 43 H        5.6620     0.0720     1.9420 H     1 <1>   0.0800 
 44 H        6.7040    -0.6410     3.1560 H     1 <1>   0.0800 
@<TRIPOS>BOND
  1   1   2  2   
  2   1   3  2   
  3   1   4  am  
  4   1   5  1   
  5   4   6  1   
  6   4   7  1   
  7   5   8  ar  
  8   5   9  ar  
  9   6   8  ar  
 10   6  10  ar  
 11   7  11  1   
 12   7  12  1   
 13   7  25  1   
 14   8  13  ar  
 15   9  14  ar  
 16   9  26  1   
 17  10  15  ar  
 18  10  27  1   
 19  11  16  2   
 20  11  17  am  
 21  12  28  1   
 22  12  29  1   
 23  12  30  1   
 24  13  18  ar  
 25  13  19  ar  
 26  14  18  ar  
 27  14  31  1   
 28  15  19  ar  
 29  15  32  1   
 30  17  20  1   
 31  17  33  1   
 32  18  34  1   
 33  19  35  1   
 34  20  21  1   
 35  20  22  1   
 36  20  36  1   
 37  21  23  1   
 38  21  37  1   
 39  21  38  1   
 40  22  24  1   
 41  22  39  1   
 42  22  40  1   
 43  23  24  1   
 44  23  41  1   
 45  23  42  1   
 46  24  43  1   
 47  24  44  1   
@<TRIPOS>SUBSTRUCTURE
  1 ****   6 GROUP 4 **** **** 0

# MOE 2024.06 (io_trps.svl 2023.06)
