@<TRIPOS>MOLECULE
NONAME
36 37 1 0 0 
SMALL
USER_CHARGES


@<TRIPOS>ATOM
  1 CL      -0.2940     0.5350    -1.3590 Cl    1 <1>  -0.1770 
  2 C        0.5880     1.7290    -0.4290 C.ar  1 <1>   0.1770 
  3 C       -0.0820     2.8660     0.0290 C.ar  1 <1>   0.1170 
  4 C        1.9280     1.5060    -0.1770 C.ar  1 <1>  -0.1500 
  5 N       -1.4510     3.0190    -0.2730 N.am  1 <1>  -0.5470 
  6 C        0.6560     3.7980     0.7590 C.ar  1 <1>  -0.1500 
  7 C        2.6230     2.4490     0.5530 C.ar  1 <1>   0.1770 
  8 C       -2.4050     3.8850     0.1880 C.2   1 <1>   0.5690 
  9 C        2.0010     3.5920     1.0220 C.ar  1 <1>  -0.1500 
 10 CL       4.3170     2.1950     0.8870 Cl    1 <1>  -0.1770 
 11 O       -2.1830     4.7340     1.0150 O.2   1 <1>  -0.5700 
 12 C       -3.8160     3.7350    -0.3840 C.3   1 <1>  -0.0190 
 13 C       -4.6180     5.0530    -0.3550 C.3   1 <1>  -0.1600 
 14 C       -4.5960     2.6320     0.3580 C.3   1 <1>  -0.1600 
 15 C       -6.0330     4.8670    -0.9060 C.3   1 <1>   0.1400 
 16 C       -6.0150     2.4710    -0.1960 C.3   1 <1>   0.1400 
 17 N       -6.7200     3.7810    -0.1530 N.am  1 <1>  -0.6600 
 18 C       -7.8860     3.9290     0.5550 C.2   1 <1>   0.5690 
 19 O       -8.4170     3.0050     1.1230 O.2   1 <1>  -0.5700 
 20 C       -8.5650     5.2750     0.6530 C.3   1 <1>  -0.1790 
 21 H        2.4200     0.6220    -0.5390 H     1 <1>   0.1500 
 22 H       -1.7990     2.3080    -0.9170 H     1 <1>   0.3700 
 23 H        0.1910     4.6940     1.1280 H     1 <1>   0.1500 
 24 H        2.5650     4.3130     1.5870 H     1 <1>   0.1500 
 25 H       -3.7190     3.4410    -1.4140 H     1 <1>   0.0800 
 26 H       -4.1040     5.8010    -0.9330 H     1 <1>   0.0800 
 27 H       -4.6880     5.4160     0.6570 H     1 <1>   0.0800 
 28 H       -4.6610     2.8760     1.4050 H     1 <1>   0.0800 
 29 H       -4.0790     1.6930     0.2740 H     1 <1>   0.0800 
 30 H       -5.9870     4.5940    -1.9470 H     1 <1>   0.0800 
 31 H       -6.5680     5.7960    -0.8340 H     1 <1>   0.0800 
 32 H       -6.5440     1.7340     0.3860 H     1 <1>   0.0800 
 33 H       -5.9820     2.1240    -1.2140 H     1 <1>   0.0800 
 34 H       -8.8610     5.6070    -0.3230 H     1 <1>   0.0800 
 35 H       -7.8980     5.9880     1.0990 H     1 <1>   0.0800 
 36 H       -9.4420     5.1940     1.2690 H     1 <1>   0.0800 
@<TRIPOS>BOND
  1   1   2  1   
  2   2   3  ar  
  3   2   4  ar  
  4   3   5  1   
  5   3   6  ar  
  6   4   7  ar  
  7   4  21  1   
  8   5   8  am  
  9   5  22  1   
 10   6   9  ar  
 11   6  23  1   
 12   7   9  ar  
 13   7  10  1   
 14   8  11  2   
 15   8  12  1   
 16   9  24  1   
 17  12  13  1   
 18  12  14  1   
 19  12  25  1   
 20  13  15  1   
 21  13  26  1   
 22  13  27  1   
 23  14  16  1   
 24  14  28  1   
 25  14  29  1   
 26  15  17  1   
 27  15  30  1   
 28  15  31  1   
 29  16  17  1   
 30  16  32  1   
 31  16  33  1   
 32  17  18  am  
 33  18  19  2   
 34  18  20  1   
 35  20  34  1   
 36  20  35  1   
 37  20  36  1   
@<TRIPOS>SUBSTRUCTURE
  1 ****   8 GROUP 4 **** **** 0

# MOE 2024.06 (io_trps.svl 2023.06)
