@<TRIPOS>MOLECULE
NONAME
51 52 1 0 0 
SMALL
USER_CHARGES


@<TRIPOS>ATOM
  1 O       -0.0850     0.5100    -2.8010 O.2   1 <1>  -0.5700 
  2 C       -0.1140     1.4080    -1.9970 C.2   1 <1>   0.5690 
  3 N        0.8960     1.6770    -1.1140 N.am  1 <1>  -0.5470 
  4 C       -1.3650     2.2950    -1.9300 C.3   1 <1>   0.1710 
  5 C        2.0850     1.0050    -0.7770 C.ar  1 <1>   0.1170 
  6 N       -2.4570     1.7680    -1.0560 N.3   1 <1>  -0.8100 
  7 C        2.7800     1.4480     0.3540 C.ar  1 <1>   0.0830 
  8 C        2.5970    -0.0630    -1.5030 C.ar  1 <1>  -0.1500 
  9 C       -2.0380     1.4930     0.3420 C.3   1 <1>   0.1100 
 10 C       -3.6800     2.5990    -1.1000 C.3   1 <1>   0.1100 
 11 O        2.2410     2.5040     1.0440 O.3   1 <1>  -0.3630 
 12 C        3.9610     0.8200     0.7370 C.ar  1 <1>  -0.1500 
 13 C        3.7710    -0.6900    -1.1230 C.ar  1 <1>   0.0830 
 14 C       -3.1960     0.9310     1.2030 C.3   1 <1>   0.3430 
 15 C       -4.8480     1.9480    -0.3160 C.3   1 <1>   0.3430 
 16 C        2.9710     3.1390     2.0730 C.3   1 <1>   0.0400 
 17 C        4.4550    -0.2440     0.0030 C.ar  1 <1>  -0.1500 
 18 O        4.1870    -1.7270    -1.8960 O.3   1 <1>  -0.3630 
 19 N       -4.4140     0.6800     0.3650 N.4   1 <1>  -0.9590 
 20 C        5.3610    -2.4440    -1.5880 C.3   1 <1>   0.0400 
 21 C       -5.4860    -0.0380     1.1000 C.3   1 <1>   0.3430 
 22 C       -6.5270    -0.5910     0.1250 C.3   1 <1>  -0.1600 
 23 C       -7.5710    -1.4380     0.8600 C.3   1 <1>  -0.2400 
 24 H        0.7650     2.4910    -0.5130 H     1 <1>   0.3700 
 25 H       -1.7400     2.3870    -2.9350 H     1 <1>   0.0800 
 26 H       -1.0780     3.2770    -1.6000 H     1 <1>   0.0800 
 27 H        2.0920    -0.4240    -2.3790 H     1 <1>   0.1500 
 28 H       -1.6560     2.3900     0.7990 H     1 <1>   0.0800 
 29 H       -1.2430     0.7650     0.3400 H     1 <1>   0.0800 
 30 H       -3.9860     2.7340    -2.1240 H     1 <1>   0.0800 
 31 H       -3.4760     3.5740    -0.6910 H     1 <1>   0.0800 
 32 H        4.5110     1.1370     1.6030 H     1 <1>   0.1500 
 33 H       -3.4280     1.6310     1.9870 H     1 <1>   0.0800 
 34 H       -2.8700     0.0140     1.6660 H     1 <1>   0.0800 
 35 H       -5.6470     1.7360    -1.0080 H     1 <1>   0.0800 
 36 H       -5.2230     2.6490     0.4100 H     1 <1>   0.0800 
 37 H        2.4030     3.9840     2.4170 H     1 <1>   0.0800 
 38 H        3.9150     3.4720     1.6780 H     1 <1>   0.0800 
 39 H        3.1160     2.4440     2.8810 H     1 <1>   0.0800 
 40 H        5.3670    -0.7110     0.3220 H     1 <1>   0.1500 
 41 H       -4.0570     0.0910    -0.4070 H     1 <1>   0.4500 
 42 H        5.4840    -3.2150    -2.3280 H     1 <1>   0.0800 
 43 H        5.2550    -2.8870    -0.6140 H     1 <1>   0.0800 
 44 H        6.2000    -1.7720    -1.6180 H     1 <1>   0.0800 
 45 H       -5.9600     0.6240     1.8070 H     1 <1>   0.0800 
 46 H       -5.0560    -0.8620     1.6470 H     1 <1>   0.0800 
 47 H       -6.0420    -1.2090    -0.6120 H     1 <1>   0.0800 
 48 H       -7.0360     0.2130    -0.3760 H     1 <1>   0.0800 
 49 H       -7.1080    -2.2760     1.3540 H     1 <1>   0.0800 
 50 H       -8.2940    -1.8210     0.1590 H     1 <1>   0.0800 
 51 H       -8.0960    -0.8500     1.5940 H     1 <1>   0.0800 
@<TRIPOS>BOND
  1   1   2  2   
  2   2   3  am  
  3   2   4  1   
  4   3   5  1   
  5   3  24  1   
  6   4   6  1   
  7   4  25  1   
  8   4  26  1   
  9   5   7  ar  
 10   5   8  ar  
 11   6   9  1   
 12   6  10  1   
 13   7  11  1   
 14   7  12  ar  
 15   8  13  ar  
 16   8  27  1   
 17   9  14  1   
 18   9  28  1   
 19   9  29  1   
 20  10  15  1   
 21  10  30  1   
 22  10  31  1   
 23  11  16  1   
 24  12  17  ar  
 25  12  32  1   
 26  13  17  ar  
 27  13  18  1   
 28  14  19  1   
 29  14  33  1   
 30  14  34  1   
 31  15  19  1   
 32  15  35  1   
 33  15  36  1   
 34  16  37  1   
 35  16  38  1   
 36  16  39  1   
 37  17  40  1   
 38  18  20  1   
 39  19  21  1   
 40  19  41  1   
 41  20  42  1   
 42  20  43  1   
 43  20  44  1   
 44  21  22  1   
 45  21  45  1   
 46  21  46  1   
 47  22  23  1   
 48  22  47  1   
 49  22  48  1   
 50  23  49  1   
 51  23  50  1   
 52  23  51  1   
@<TRIPOS>SUBSTRUCTURE
  1 ****   3 GROUP 4 **** **** 0

# MOE 2024.06 (io_trps.svl 2023.06)
