@<TRIPOS>MOLECULE
NONAME
39 40 1 0 0 
SMALL
USER_CHARGES


@<TRIPOS>ATOM
  1 S       -0.0270    -0.9090     1.4950 S.3   1 <1>  -0.3710 
  2 C       -0.8270     0.2580     0.3990 C.2   1 <1>   0.6510 
  3 C        1.4490     0.0250     2.1580 C.3   1 <1>   0.1310 
  4 N       -0.3890     1.4550     0.4430 N.2   1 <1>  -0.6210 
  5 N       -1.8430    -0.2090    -0.4050 N.am  1 <1>  -0.4200 
  6 C        2.6510    -0.1090     1.2220 C.2   1 <1>   0.5690 
  7 C       -0.9270     2.3700    -0.4090 C.2   1 <1>   0.0210 
  8 C       -2.4330     0.7120    -1.2610 C.2   1 <1>   0.6160 
  9 C       -2.2870    -1.6200    -0.4100 C.3   1 <1>   0.2780 
 10 O        3.2100    -1.1850     1.2400 O.2   1 <1>  -0.5700 
 11 N        3.1170     0.9140     0.4240 N.am  1 <1>  -0.6600 
 12 O       -0.4360     3.5000    -0.3920 O.3   1 <1>  -0.8500 
 13 C       -1.9590     2.0120    -1.2540 C.2   1 <1>  -0.1360 
 14 O       -3.3500     0.3380    -2.0150 O.2   1 <1>  -0.5700 
 15 C       -3.3080    -1.8460     0.6930 C.2   1 <1>  -0.2880 
 16 C        2.5160     2.2860     0.3250 C.3   1 <1>   0.1400 
 17 C        4.1710     0.6630    -0.5970 C.3   1 <1>   0.1400 
 18 C       -4.5850    -2.1910     0.5010 C.2   1 <1>  -0.3000 
 19 C        3.6090     3.3550     0.4220 C.3   1 <1>  -0.1600 
 20 C        5.2850     1.7090    -0.4790 C.3   1 <1>  -0.1600 
 21 C        4.7260     3.1320    -0.6050 C.3   1 <1>  -0.1600 
 22 H        1.6900    -0.4330     3.0970 H     1 <1>   0.0800 
 23 H        1.1560     1.0380     2.3420 H     1 <1>   0.0800 
 24 H       -1.4450    -2.2760    -0.2770 H     1 <1>   0.0800 
 25 H       -2.7230    -1.8630    -1.3630 H     1 <1>   0.0800 
 26 H       -2.3790     2.7460    -1.9080 H     1 <1>   0.1500 
 27 H       -2.8910    -1.6910     1.6740 H     1 <1>   0.1500 
 28 H        1.8010     2.4730     1.1020 H     1 <1>   0.0800 
 29 H        1.9950     2.3790    -0.6140 H     1 <1>   0.0800 
 30 H        3.7210     0.7180    -1.5740 H     1 <1>   0.0800 
 31 H        4.5920    -0.3210    -0.4810 H     1 <1>   0.0800 
 32 H       -5.2930    -2.3430     1.2970 H     1 <1>   0.1500 
 33 H       -5.0300    -2.3410    -0.4680 H     1 <1>   0.1500 
 34 H        4.0160     3.3420     1.4170 H     1 <1>   0.0800 
 35 H        3.1560     4.3180     0.2630 H     1 <1>   0.0800 
 36 H        6.0150     1.5370    -1.2490 H     1 <1>   0.0800 
 37 H        5.7720     1.5880     0.4730 H     1 <1>   0.0800 
 38 H        5.5110     3.8510    -0.4530 H     1 <1>   0.0800 
 39 H        4.3260     3.2730    -1.5940 H     1 <1>   0.0800 
@<TRIPOS>BOND
  1   1   2  1   
  2   1   3  1   
  3   2   4  2   
  4   2   5  1   
  5   3   6  1   
  6   3  22  1   
  7   3  23  1   
  8   4   7  1   
  9   5   8  am  
 10   5   9  1   
 11   6  10  2   
 12   6  11  am  
 13   7  12  1   
 14   7  13  2   
 15   8  13  1   
 16   8  14  2   
 17   9  15  1   
 18   9  24  1   
 19   9  25  1   
 20  11  16  1   
 21  11  17  1   
 22  13  26  1   
 23  15  18  2   
 24  15  27  1   
 25  16  19  1   
 26  16  28  1   
 27  16  29  1   
 28  17  20  1   
 29  17  30  1   
 30  17  31  1   
 31  18  32  1   
 32  18  33  1   
 33  19  21  1   
 34  19  34  1   
 35  19  35  1   
 36  20  21  1   
 37  20  36  1   
 38  20  37  1   
 39  21  38  1   
 40  21  39  1   
@<TRIPOS>SUBSTRUCTURE
  1 ****   4 GROUP 4 **** **** 0

# MOE 2024.06 (io_trps.svl 2023.06)
