@<TRIPOS>MOLECULE
NONAME
43 45 1 0 0 
SMALL
USER_CHARGES


@<TRIPOS>ATOM
  1 S       -0.3890    -0.2270    -0.4080 S.3   1 <1>  -0.0800 
  2 C        1.0160     0.8000    -0.1620 C.2   1 <1>   0.1040 
  3 C       -1.4690     1.1420    -0.2630 C.2   1 <1>  -0.1400 
  4 N        2.2930     0.2630    -0.1200 N.am  1 <1>  -0.4940 
  5 C        0.6490     2.1120    -0.0150 C.2   1 <1>  -0.0860 
  6 C       -0.7890     2.2790    -0.0460 C.2   1 <1>  -0.1810 
  7 C       -2.9630     0.9300    -0.3630 C.3   1 <1>   0.0200 
  8 C        2.8250    -0.9860    -0.3380 C.2   1 <1>   0.7150 
  9 C        1.6170     3.1690     0.1410 C.2   1 <1>   0.7160 
 10 C       -1.5450     3.5860     0.1710 C.3   1 <1>   0.0210 
 11 C       -3.6630     2.2970    -0.4630 C.3   1 <1>  -0.1600 
 12 O        2.1330    -1.8910    -0.7600 O.2   1 <1>  -0.5700 
 13 C        4.2280    -1.1710    -0.0650 C.2   1 <1>  -0.0450 
 14 O        2.7240     2.9400     0.6060 O.2   1 <1>  -0.5700 
 15 N        1.3420     4.4370    -0.2780 N.am  1 <1>  -0.7300 
 16 C       -3.0320     3.3320     0.4900 C.3   1 <1>  -0.1600 
 17 S        4.9700    -2.7430    -0.3900 S.3   1 <1>  -0.0800 
 18 C        5.1860    -0.3380     0.4260 C.2   1 <1>  -0.1500 
 19 C        2.2280     5.6010    -0.1810 C.3   1 <1>   0.2200 
 20 C        6.5410    -2.2010     0.1530 C.2   1 <1>  -0.1100 
 21 C        6.4830    -0.9170     0.5480 C.2   1 <1>  -0.1500 
 22 C        1.4560     6.7270     0.4970 C.3   1 <1>  -0.2400 
 23 C        2.6570     5.9920    -1.5900 C.3   1 <1>  -0.2400 
 24 H        2.9940     0.9530     0.1600 H     1 <1>   0.3700 
 25 H       -3.2960     0.4070     0.5160 H     1 <1>   0.0800 
 26 H       -3.1960     0.3320    -1.2260 H     1 <1>   0.0800 
 27 H       -1.4750     4.1830    -0.7210 H     1 <1>   0.0800 
 28 H       -1.1060     4.1330     0.9880 H     1 <1>   0.0800 
 29 H       -4.7090     2.1800    -0.2410 H     1 <1>   0.0800 
 30 H       -3.5770     2.6570    -1.4730 H     1 <1>   0.0800 
 31 H        0.4910     4.5790    -0.8170 H     1 <1>   0.3700 
 32 H       -3.5740     4.2590     0.4310 H     1 <1>   0.0800 
 33 H       -3.1140     2.9680     1.5000 H     1 <1>   0.0800 
 34 H        5.0270     0.6860     0.7180 H     1 <1>   0.1500 
 35 H        3.0980     5.3570     0.4080 H     1 <1>   0.0800 
 36 H        7.3510    -2.9080     0.1190 H     1 <1>   0.1500 
 37 H        7.3140    -0.3450     0.9260 H     1 <1>   0.1500 
 38 H        0.5850     6.9960    -0.0750 H     1 <1>   0.0800 
 39 H        2.0840     7.5950     0.5890 H     1 <1>   0.0800 
 40 H        1.1560     6.4240     1.4840 H     1 <1>   0.0800 
 41 H        1.8050     6.2440    -2.1960 H     1 <1>   0.0800 
 42 H        3.1930     5.1790    -2.0480 H     1 <1>   0.0800 
 43 H        3.3120     6.8430    -1.5490 H     1 <1>   0.0800 
@<TRIPOS>BOND
  1   1   2  1   
  2   1   3  1   
  3   2   4  1   
  4   2   5  2   
  5   3   6  2   
  6   3   7  1   
  7   4   8  am  
  8   4  24  1   
  9   5   6  1   
 10   5   9  1   
 11   6  10  1   
 12   7  11  1   
 13   7  25  1   
 14   7  26  1   
 15   8  12  2   
 16   8  13  1   
 17   9  14  2   
 18   9  15  am  
 19  10  16  1   
 20  10  27  1   
 21  10  28  1   
 22  11  16  1   
 23  11  29  1   
 24  11  30  1   
 25  13  17  1   
 26  13  18  2   
 27  15  19  1   
 28  15  31  1   
 29  16  32  1   
 30  16  33  1   
 31  17  20  1   
 32  18  21  1   
 33  18  34  1   
 34  19  22  1   
 35  19  23  1   
 36  19  35  1   
 37  20  21  2   
 38  20  36  1   
 39  21  37  1   
 40  22  38  1   
 41  22  39  1   
 42  22  40  1   
 43  23  41  1   
 44  23  42  1   
 45  23  43  1   
@<TRIPOS>SUBSTRUCTURE
  1 ****   2 GROUP 4 **** **** 0

# MOE 2024.06 (io_trps.svl 2023.06)
