@<TRIPOS>MOLECULE
NONAME
35 35 1 0 0 
SMALL
USER_CHARGES


@<TRIPOS>ATOM
  1 O       -1.3960    -1.0610    -1.3340 O.2   1 <1>  -0.5700 
  2 C       -1.2360    -1.7750    -0.3770 C.2   1 <1>   0.5690 
  3 N       -2.1630    -2.7160    -0.0900 N.am  1 <1>  -0.7300 
  4 C        0.0010    -1.5840     0.4850 C.3   1 <1>  -0.0990 
  5 C       -2.1850    -3.7230     0.9870 C.3   1 <1>   0.2840 
  6 C        1.1270    -2.5950     0.1860 C.3   1 <1>  -0.0800 
  7 C       -2.5790    -5.0660     0.3980 C.ar  1 <1>  -0.1440 
  8 C        2.2830    -2.4070     1.1750 C.3   1 <1>  -0.2400 
  9 C        1.6480    -2.4500    -1.2500 C.3   1 <1>  -0.2400 
 10 C       -3.7290    -5.7150     0.8280 C.ar  1 <1>  -0.1500 
 11 C       -1.7900    -5.6610    -0.5750 C.ar  1 <1>  -0.1500 
 12 C       -4.0840    -6.9420     0.2960 C.ar  1 <1>  -0.1500 
 13 C       -2.1430    -6.8880    -1.1080 C.ar  1 <1>  -0.1500 
 14 C       -3.2880    -7.5380    -0.6780 C.ar  1 <1>   0.0820 
 15 O       -3.5620    -8.7370    -1.2500 O.3   1 <1>  -0.3620 
 16 C       -4.7020    -9.4810    -0.8840 C.3   1 <1>   0.0400 
 17 H       -2.9280    -2.8000    -0.7620 H     1 <1>   0.3700 
 18 H       -0.2870    -1.6480     1.5170 H     1 <1>   0.0800 
 19 H        0.3690    -0.5860     0.3220 H     1 <1>   0.0800 
 20 H       -2.8980    -3.4200     1.7340 H     1 <1>   0.0800 
 21 H       -1.2210    -3.8060     1.4550 H     1 <1>   0.0800 
 22 H        0.7440    -3.5950     0.3040 H     1 <1>   0.0800 
 23 H        2.7030    -1.4200     1.0830 H     1 <1>   0.0800 
 24 H        3.0580    -3.1280     0.9850 H     1 <1>   0.0800 
 25 H        1.9400    -2.5410     2.1860 H     1 <1>   0.0800 
 26 H        2.0240    -1.4560    -1.4190 H     1 <1>   0.0800 
 27 H        0.8630    -2.6410    -1.9600 H     1 <1>   0.0800 
 28 H        2.4410    -3.1530    -1.4340 H     1 <1>   0.0800 
 29 H       -4.3560    -5.2680     1.5790 H     1 <1>   0.1500 
 30 H       -0.8990    -5.1680    -0.9250 H     1 <1>   0.1500 
 31 H       -4.9790    -7.4180     0.6490 H     1 <1>   0.1500 
 32 H       -1.5320    -7.3490    -1.8620 H     1 <1>   0.1500 
 33 H       -4.7090   -10.3870    -1.4640 H     1 <1>   0.0800 
 34 H       -5.5820    -8.9020    -1.1010 H     1 <1>   0.0800 
 35 H       -4.6430    -9.7190     0.1630 H     1 <1>   0.0800 
@<TRIPOS>BOND
  1   1   2  2   
  2   2   3  am  
  3   2   4  1   
  4   3   5  1   
  5   3  17  1   
  6   4   6  1   
  7   4  18  1   
  8   4  19  1   
  9   5   7  1   
 10   5  20  1   
 11   5  21  1   
 12   6   8  1   
 13   6   9  1   
 14   6  22  1   
 15   7  10  ar  
 16   7  11  ar  
 17   8  23  1   
 18   8  24  1   
 19   8  25  1   
 20   9  26  1   
 21   9  27  1   
 22   9  28  1   
 23  10  12  ar  
 24  10  29  1   
 25  11  13  ar  
 26  11  30  1   
 27  12  14  ar  
 28  12  31  1   
 29  13  14  ar  
 30  13  32  1   
 31  14  15  1   
 32  15  16  1   
 33  16  33  1   
 34  16  34  1   
 35  16  35  1   
@<TRIPOS>SUBSTRUCTURE
  1 ****  11 GROUP 4 **** **** 0

# MOE 2024.06 (io_trps.svl 2023.06)
