@<TRIPOS>MOLECULE
NONAME
45 47 1 0 0 
SMALL
USER_CHARGES


@<TRIPOS>ATOM
  1 O       -0.3690     0.2860    -1.5150 O.2   1 <1>  -0.5700 
  2 C       -1.2860     0.8800    -0.9690 C.2   1 <1>   0.5440 
  3 N       -2.1960     0.1530    -0.2240 N.am  1 <1>  -0.6600 
  4 C       -1.3600     2.3240    -1.0900 C.ar  1 <1>   0.0860 
  5 C       -2.9460     0.7490     0.9210 C.3   1 <1>   0.1400 
  6 C       -2.3170    -1.3220    -0.3950 C.3   1 <1>   0.1400 
  7 C       -0.2390     3.1280    -0.8210 C.ar  1 <1>   0.1170 
  8 C       -2.5470     2.9460    -1.4820 C.ar  1 <1>  -0.1500 
  9 C       -4.3670     0.1890     1.0970 C.3   1 <1>  -0.1600 
 10 C       -3.4460    -1.6280    -1.3830 C.3   1 <1>  -0.1600 
 11 N        0.9730     2.5030    -0.4970 N.am  1 <1>  -0.5470 
 12 C       -0.3560     4.5130    -0.9160 C.ar  1 <1>  -0.1500 
 13 C       -2.6470     4.3200    -1.5750 C.ar  1 <1>  -0.1500 
 14 C       -5.1440    -0.0620    -0.2070 C.3   1 <1>  -0.1600 
 15 C       -4.8610    -1.4480    -0.8100 C.3   1 <1>  -0.1600 
 16 C        2.1240     2.9170     0.1270 C.2   1 <1>   0.5440 
 17 C       -1.5470     5.1060    -1.2850 C.ar  1 <1>  -0.1500 
 18 O        2.1830     4.0270     0.6160 O.2   1 <1>  -0.5700 
 19 C        3.2560     2.0090     0.2200 C.ar  1 <1>   0.0860 
 20 C        4.3600     2.2950     1.0130 C.ar  1 <1>  -0.1500 
 21 C        3.3370     0.7980    -0.4600 C.ar  1 <1>  -0.1500 
 22 C        5.4210     1.4140     1.0920 C.ar  1 <1>   0.1600 
 23 C        4.4440    -0.0160    -0.3150 C.ar  1 <1>   0.1600 
 24 N        5.4880     0.2620     0.4470 N.ar  1 <1>  -0.6200 
 25 H       -3.0180     1.8140     0.7980 H     1 <1>   0.0800 
 26 H       -2.3870     0.5740     1.8250 H     1 <1>   0.0800 
 27 H       -2.5000    -1.7970     0.5530 H     1 <1>   0.0800 
 28 H       -1.3960    -1.7230    -0.7820 H     1 <1>   0.0800 
 29 H       -3.4010     2.3350    -1.7150 H     1 <1>   0.1500 
 30 H       -4.9160     0.9000     1.6890 H     1 <1>   0.0800 
 31 H       -4.3250    -0.7160     1.6770 H     1 <1>   0.0800 
 32 H       -3.3440    -2.6510    -1.6990 H     1 <1>   0.0800 
 33 H       -3.3210    -1.0130    -2.2570 H     1 <1>   0.0800 
 34 H        0.9650     1.5110    -0.7630 H     1 <1>   0.3700 
 35 H        0.4940     5.1370    -0.7090 H     1 <1>   0.1500 
 36 H       -3.5740     4.7800    -1.8720 H     1 <1>   0.1500 
 37 H       -4.9360     0.7090    -0.9270 H     1 <1>   0.0800 
 38 H       -6.1950    -0.0150     0.0170 H     1 <1>   0.0800 
 39 H       -5.0380    -2.2010    -0.0620 H     1 <1>   0.0800 
 40 H       -5.5660    -1.6220    -1.6050 H     1 <1>   0.0800 
 41 H       -1.6160     6.1790    -1.3520 H     1 <1>   0.1500 
 42 H        4.3880     3.2130     1.5740 H     1 <1>   0.1500 
 43 H        2.5460     0.4730    -1.1120 H     1 <1>   0.1500 
 44 H        6.2590     1.6680     1.7180 H     1 <1>   0.1500 
 45 H        4.4750    -0.9480    -0.8550 H     1 <1>   0.1500 
@<TRIPOS>BOND
  1   1   2  2   
  2   2   3  am  
  3   2   4  1   
  4   3   5  1   
  5   3   6  1   
  6   4   7  ar  
  7   4   8  ar  
  8   5   9  1   
  9   5  25  1   
 10   5  26  1   
 11   6  10  1   
 12   6  27  1   
 13   6  28  1   
 14   7  11  1   
 15   7  12  ar  
 16   8  13  ar  
 17   8  29  1   
 18   9  14  1   
 19   9  30  1   
 20   9  31  1   
 21  10  15  1   
 22  10  32  1   
 23  10  33  1   
 24  11  16  am  
 25  11  34  1   
 26  12  17  ar  
 27  12  35  1   
 28  13  17  ar  
 29  13  36  1   
 30  14  15  1   
 31  14  37  1   
 32  14  38  1   
 33  15  39  1   
 34  15  40  1   
 35  16  18  2   
 36  16  19  1   
 37  17  41  1   
 38  19  20  ar  
 39  19  21  ar  
 40  20  22  ar  
 41  20  42  1   
 42  21  23  ar  
 43  21  43  1   
 44  22  24  ar  
 45  22  44  1   
 46  23  24  ar  
 47  23  45  1   
@<TRIPOS>SUBSTRUCTURE
  1 ****   2 GROUP 4 **** **** 0

# MOE 2024.06 (io_trps.svl 2023.06)
