@<TRIPOS>MOLECULE
NONAME
38 39 1 0 0 
SMALL
USER_CHARGES


@<TRIPOS>ATOM
  1 O        0.1560     0.3510     1.1090 O.2   1 <1>  -0.5700 
  2 C        0.8300     1.2340     0.6340 C.2   1 <1>   0.5770 
  3 N        2.0220     0.9750     0.0430 N.am  1 <1>  -0.7300 
  4 C        0.3470     2.6760     0.7160 C.3   1 <1>   0.0530 
  5 C        2.6570    -0.3430    -0.0150 C.3   1 <1>   0.3640 
  6 C       -1.1780     2.8800     0.5000 C.3   1 <1>   0.0000 
  7 C        0.5550     3.5220    -0.5710 C.3   1 <1>   0.0000 
  8 C        4.1670    -0.1330    -0.0340 C.ar  1 <1>  -0.1440 
  9 C        2.1610    -1.0810    -1.2560 C.3   1 <1>  -0.2400 
 10 C       -0.8150     4.1790    -0.2660 C.3   1 <1>   0.0000 
 11 C        4.9350    -0.5810     1.0310 C.ar  1 <1>  -0.1500 
 12 C        4.7990     0.5100    -1.0900 C.ar  1 <1>  -0.1500 
 13 C        6.3060    -0.3940     1.0380 C.ar  1 <1>  -0.1500 
 14 C        6.1700     0.6970    -1.0820 C.ar  1 <1>  -0.1500 
 15 C        6.9330     0.2450    -0.0190 C.ar  1 <1>  -0.1430 
 16 C        8.4390     0.4500    -0.0100 C.3   1 <1>  -0.0170 
 17 C        8.7960     1.7840     0.6490 C.3   1 <1>  -0.2400 
 18 H        2.6250     1.7340    -0.2700 H     1 <1>   0.3700 
 19 H        0.7010     3.1880     1.5960 H     1 <1>   0.0000 
 20 H        2.3790    -0.9070     0.8600 H     1 <1>   0.0800 
 21 H       -1.7280     3.0490     1.4080 H     1 <1>   0.0000 
 22 H       -1.6210     2.1370    -0.1410 H     1 <1>   0.0000 
 23 H        0.5360     2.9360    -1.4750 H     1 <1>   0.0000 
 24 H        1.3860     4.2030    -0.5160 H     1 <1>   0.0000 
 25 H        2.3450    -0.5120    -2.1470 H     1 <1>   0.0800 
 26 H        1.1060    -1.2680    -1.1670 H     1 <1>   0.0800 
 27 H        2.6670    -2.0250    -1.3370 H     1 <1>   0.0800 
 28 H       -0.7320     5.0350     0.3830 H     1 <1>   0.0000 
 29 H       -1.4190     4.3540    -1.1380 H     1 <1>   0.0000 
 30 H        4.4690    -1.0780     1.8640 H     1 <1>   0.1500 
 31 H        4.2290     0.8700    -1.9280 H     1 <1>   0.1500 
 32 H        6.8850    -0.7470     1.8740 H     1 <1>   0.1500 
 33 H        6.6430     1.1970    -1.9090 H     1 <1>   0.1500 
 34 H        8.8130     0.4330    -1.0180 H     1 <1>   0.0800 
 35 H        8.9110    -0.3550     0.5260 H     1 <1>   0.0800 
 36 H        8.3410     2.5970     0.1100 H     1 <1>   0.0800 
 37 H        9.8620     1.9230     0.6530 H     1 <1>   0.0800 
 38 H        8.4390     1.8030     1.6640 H     1 <1>   0.0800 
@<TRIPOS>BOND
  1   1   2  2   
  2   2   3  am  
  3   2   4  1   
  4   3   5  1   
  5   3  18  1   
  6   4   6  1   
  7   4   7  1   
  8   4  19  1   
  9   5   8  1   
 10   5   9  1   
 11   5  20  1   
 12   6  10  1   
 13   6  21  1   
 14   6  22  1   
 15   7  10  1   
 16   7  23  1   
 17   7  24  1   
 18   8  11  ar  
 19   8  12  ar  
 20   9  25  1   
 21   9  26  1   
 22   9  27  1   
 23  10  28  1   
 24  10  29  1   
 25  11  13  ar  
 26  11  30  1   
 27  12  14  ar  
 28  12  31  1   
 29  13  15  ar  
 30  13  32  1   
 31  14  15  ar  
 32  14  33  1   
 33  15  16  1   
 34  16  17  1   
 35  16  34  1   
 36  16  35  1   
 37  17  36  1   
 38  17  37  1   
 39  17  38  1   
@<TRIPOS>SUBSTRUCTURE
  1 ****   3 GROUP 4 **** **** 0

# MOE 2024.06 (io_trps.svl 2023.06)
