@<TRIPOS>MOLECULE
NONAME
34 36 1 0 0 
SMALL
USER_CHARGES


@<TRIPOS>ATOM
  1 O        0.3190     0.2700    -0.1120 O.2   1 <1>  -0.5700 
  2 C        0.2880    -0.9070    -0.3830 C.2   1 <1>   0.5690 
  3 N        1.3680    -1.7480    -0.4490 N.am  1 <1>  -0.2370 
  4 C       -1.0090    -1.6500    -0.7250 C.3   1 <1>   0.2510 
  5 C        2.7040    -1.3900    -0.1480 C.ar  1 <1>   0.1170 
  6 C        0.9580    -2.9890    -0.8600 C.2   1 <1>   0.5690 
  7 N       -1.9670    -1.7790     0.3900 N.3   1 <1>  -0.7880 
  8 C       -0.5230    -3.0420    -1.1310 C.3   1 <1>  -0.0990 
  9 C        3.2640    -0.2210    -0.6520 C.ar  1 <1>  -0.1500 
 10 C        3.4950    -2.2010     0.6600 C.ar  1 <1>  -0.1500 
 11 O        1.6530    -3.9600    -1.0100 O.2   1 <1>  -0.5700 
 12 C       -2.7190    -0.5590     0.5930 C.3   1 <1>   0.0580 
 13 C        4.5700     0.1270    -0.3580 C.ar  1 <1>  -0.1500 
 14 C        4.8010    -1.8550     0.9550 C.ar  1 <1>  -0.1500 
 15 C       -4.0520    -0.6730     1.2440 C.3   1 <1>  -0.2000 
 16 C       -3.9490    -0.3460    -0.2190 C.3   1 <1>  -0.2000 
 17 C        5.3480    -0.6890     0.4460 C.ar  1 <1>  -0.1430 
 18 C        6.7810    -0.3080     0.7690 C.3   1 <1>  -0.0970 
 19 H       -1.4870    -1.1720    -1.5630 H     1 <1>   0.0800 
 20 H       -1.4600    -1.9810     1.2620 H     1 <1>   0.3600 
 21 H       -0.6840    -3.2110    -2.1800 H     1 <1>   0.0800 
 22 H       -0.9830    -3.8260    -0.5580 H     1 <1>   0.0800 
 23 H        2.6760     0.4280    -1.2760 H     1 <1>   0.1500 
 24 H        3.0900    -3.1140     1.0600 H     1 <1>   0.1500 
 25 H       -2.1070     0.2950     0.8420 H     1 <1>   0.1000 
 26 H        4.9790     1.0390    -0.7580 H     1 <1>   0.1500 
 27 H        5.3920    -2.5000     1.5810 H     1 <1>   0.1500 
 28 H       -4.3720     0.1030     1.9160 H     1 <1>   0.1000 
 29 H       -4.4030    -1.6480     1.5330 H     1 <1>   0.1000 
 30 H       -4.2340    -1.0970    -0.9350 H     1 <1>   0.1000 
 31 H       -4.1970     0.6510    -0.5360 H     1 <1>   0.1000 
 32 H        6.8060     0.2850     1.6660 H     1 <1>   0.0800 
 33 H        7.2100     0.2610    -0.0360 H     1 <1>   0.0800 
 34 H        7.3800    -1.1890     0.9180 H     1 <1>   0.0800 
@<TRIPOS>BOND
  1   1   2  2   
  2   2   3  am  
  3   2   4  1   
  4   3   5  1   
  5   3   6  am  
  6   4   7  1   
  7   4   8  1   
  8   4  19  1   
  9   5   9  ar  
 10   5  10  ar  
 11   6   8  1   
 12   6  11  2   
 13   7  12  1   
 14   7  20  1   
 15   8  21  1   
 16   8  22  1   
 17   9  13  ar  
 18   9  23  1   
 19  10  14  ar  
 20  10  24  1   
 21  12  15  1   
 22  12  16  1   
 23  12  25  1   
 24  13  17  ar  
 25  13  26  1   
 26  14  17  ar  
 27  14  27  1   
 28  15  16  1   
 29  15  28  1   
 30  15  29  1   
 31  16  30  1   
 32  16  31  1   
 33  17  18  1   
 34  18  32  1   
 35  18  33  1   
 36  18  34  1   
@<TRIPOS>SUBSTRUCTURE
  1 ****   3 GROUP 4 **** **** 0

# MOE 2024.06 (io_trps.svl 2023.06)
