@<TRIPOS>MOLECULE
NONAME
46 46 1 0 0 
SMALL
USER_CHARGES


@<TRIPOS>ATOM
  1 O        0.4650     0.3720     0.4670 O.2   1 <1>  -0.5700 
  2 C        0.4180     1.5780     0.3200 C.2   1 <1>   0.6160 
  3 N       -0.7970     2.1950     0.1580 N.am  1 <1>  -0.7300 
  4 C        1.6390     2.3770     0.3050 C.2   1 <1>   0.1230 
  5 C       -2.1460     1.6230     0.1350 C.3   1 <1>   0.3000 
  6 N        1.4800     3.7750     0.4350 N.am  1 <1>  -0.5390 
  7 C        2.8720     1.8100     0.1700 C.2   1 <1>  -0.1780 
  8 C       -2.2770     0.6520    -1.0390 C.3   1 <1>  -0.2400 
  9 C       -3.1060     2.7940    -0.0610 C.3   1 <1>  -0.2400 
 10 C       -2.4450     0.9360     1.4680 C.3   1 <1>  -0.2400 
 11 C        1.8210     4.7890    -0.4010 C.2   1 <1>   0.5690 
 12 C        4.1840     2.3950     0.1850 C.ar  1 <1>   0.0280 
 13 O        1.5350     5.9170    -0.1020 O.2   1 <1>  -0.5700 
 14 C        2.5170     4.5330    -1.7180 C.3   1 <1>  -0.1790 
 15 C        4.5340     3.4640     1.0120 C.ar  1 <1>  -0.1500 
 16 C        5.1750     1.8830    -0.6520 C.ar  1 <1>  -0.1500 
 17 C        5.8020     4.0140     0.9890 C.ar  1 <1>  -0.1500 
 18 C        6.4450     2.4250    -0.6790 C.ar  1 <1>  -0.1500 
 19 C        6.7710     3.4970     0.1350 C.ar  1 <1>   0.0830 
 20 O        8.0350     3.9750     0.0440 O.3   1 <1>  -0.3630 
 21 C        8.4710     5.0610     0.8270 C.3   1 <1>   0.1200 
 22 C        9.9300     5.3400     0.4770 C.3   1 <1>  -0.2400 
 23 H       -0.7810     3.1860    -0.0780 H     1 <1>   0.3700 
 24 H        0.9470     4.0990     1.2440 H     1 <1>   0.3700 
 25 H        2.9030     0.7440     0.0240 H     1 <1>   0.1500 
 26 H       -3.2870     0.2910    -1.1090 H     1 <1>   0.0800 
 27 H       -1.6330    -0.1980    -0.9020 H     1 <1>   0.0800 
 28 H       -2.0230     1.1390    -1.9620 H     1 <1>   0.0800 
 29 H       -4.1210     2.4380    -0.0850 H     1 <1>   0.0800 
 30 H       -2.9080     3.2970    -0.9910 H     1 <1>   0.0800 
 31 H       -3.0190     3.4960     0.7490 H     1 <1>   0.0800 
 32 H       -2.3020     1.6190     2.2850 H     1 <1>   0.0800 
 33 H       -1.8050     0.0840     1.6090 H     1 <1>   0.0800 
 34 H       -3.4610     0.5890     1.4860 H     1 <1>   0.0800 
 35 H        2.2260     3.5840    -2.1270 H     1 <1>   0.0800 
 36 H        3.5800     4.5490    -1.5710 H     1 <1>   0.0800 
 37 H        2.2550     5.3060    -2.4170 H     1 <1>   0.0800 
 38 H        3.8040     3.8680     1.6890 H     1 <1>   0.1500 
 39 H        4.9440     1.0510    -1.2930 H     1 <1>   0.1500 
 40 H        6.0180     4.8390     1.6410 H     1 <1>   0.1500 
 41 H        7.1980     2.0230    -1.3330 H     1 <1>   0.1500 
 42 H        7.8560     5.9150     0.6000 H     1 <1>   0.0800 
 43 H        8.3730     4.7940     1.8650 H     1 <1>   0.0800 
 44 H       10.0170     5.5890    -0.5650 H     1 <1>   0.0800 
 45 H       10.5320     4.4750     0.6920 H     1 <1>   0.0800 
 46 H       10.2930     6.1660     1.0600 H     1 <1>   0.0800 
@<TRIPOS>BOND
  1   1   2  2   
  2   2   3  am  
  3   2   4  1   
  4   3   5  1   
  5   3  23  1   
  6   4   6  1   
  7   4   7  2   
  8   5   8  1   
  9   5   9  1   
 10   5  10  1   
 11   6  11  am  
 12   6  24  1   
 13   7  12  1   
 14   7  25  1   
 15   8  26  1   
 16   8  27  1   
 17   8  28  1   
 18   9  29  1   
 19   9  30  1   
 20   9  31  1   
 21  10  32  1   
 22  10  33  1   
 23  10  34  1   
 24  11  13  2   
 25  11  14  1   
 26  12  15  ar  
 27  12  16  ar  
 28  14  35  1   
 29  14  36  1   
 30  14  37  1   
 31  15  17  ar  
 32  15  38  1   
 33  16  18  ar  
 34  16  39  1   
 35  17  19  ar  
 36  17  40  1   
 37  18  19  ar  
 38  18  41  1   
 39  19  20  1   
 40  20  21  1   
 41  21  22  1   
 42  21  42  1   
 43  21  43  1   
 44  22  44  1   
 45  22  45  1   
 46  22  46  1   
@<TRIPOS>SUBSTRUCTURE
  1 ****   7 GROUP 4 **** **** 0

# MOE 2024.06 (io_trps.svl 2023.06)
