@<TRIPOS>MOLECULE
NONAME
42 43 1 0 0 
SMALL
USER_CHARGES


@<TRIPOS>ATOM
  1 O       -0.1170     1.3980    -2.3670 O.2   1 <1>  -0.5700 
  2 C        0.0120     1.9960    -1.3270 C.2   1 <1>   0.5690 
  3 N       -0.9900     2.1010    -0.4230 N.am  1 <1>  -0.7300 
  4 C        1.3360     2.6610    -1.0130 C.3   1 <1>  -0.0990 
  5 C       -2.3520     1.5620    -0.5740 C.3   1 <1>   0.2200 
  6 C        2.1640     1.8430    -0.0070 C.3   1 <1>  -0.1600 
  7 C       -3.3610     2.7190    -0.3780 C.3   1 <1>   0.2000 
  8 C       -2.4910     0.4180     0.4360 C.3   1 <1>  -0.2400 
  9 C        3.4880     2.5310     0.3630 C.3   1 <1>  -0.0800 
 10 O       -3.1940     3.3280     0.8710 O.3   1 <1>  -0.5600 
 11 C       -4.8410     2.3630    -0.4410 C.3   1 <1>  -0.1600 
 12 C        4.4600     2.6890    -0.8060 C.3   1 <1>  -0.1600 
 13 C        4.2930     1.7370     1.3870 C.3   1 <1>  -0.1600 
 14 C       -4.3720     3.9470     1.2900 C.3   1 <1>   0.1200 
 15 C       -5.4730     3.5090     0.3260 C.3   1 <1>  -0.1600 
 16 C        5.8480     2.8040    -0.1710 C.3   1 <1>  -0.1600 
 17 C        5.7170     2.2750     1.2620 C.3   1 <1>  -0.1600 
 18 H       -0.8820     2.6700     0.4190 H     1 <1>   0.3700 
 19 H        1.1460     3.6430    -0.6220 H     1 <1>   0.0800 
 20 H        1.8820     2.7710    -1.9330 H     1 <1>   0.0800 
 21 H       -2.4690     1.1650    -1.5690 H     1 <1>   0.0800 
 22 H        2.3630     0.8710    -0.4260 H     1 <1>   0.0800 
 23 H        1.5860     1.6990     0.8890 H     1 <1>   0.0800 
 24 H       -3.1600     3.4740    -1.1200 H     1 <1>   0.0800 
 25 H       -2.4540     0.7980     1.4410 H     1 <1>   0.0800 
 26 H       -1.6940    -0.2900     0.2940 H     1 <1>   0.0800 
 27 H       -3.4200    -0.1000     0.2950 H     1 <1>   0.0800 
 28 H        3.2860     3.5060     0.7760 H     1 <1>   0.0800 
 29 H       -5.0360     1.4380     0.0690 H     1 <1>   0.0800 
 30 H       -5.1960     2.2950    -1.4540 H     1 <1>   0.0800 
 31 H        4.2270     3.5480    -1.4100 H     1 <1>   0.0800 
 32 H        4.4290     1.8070    -1.4240 H     1 <1>   0.0800 
 33 H        4.2860     0.6920     1.1250 H     1 <1>   0.0800 
 34 H        3.9040     1.8530     2.3840 H     1 <1>   0.0800 
 35 H       -4.2270     5.0140     1.2730 H     1 <1>   0.0800 
 36 H       -4.5760     3.6200     2.2940 H     1 <1>   0.0800 
 37 H       -6.3660     3.2140     0.8470 H     1 <1>   0.0800 
 38 H       -5.7060     4.3230    -0.3380 H     1 <1>   0.0800 
 39 H        6.1640     3.8330    -0.1500 H     1 <1>   0.0800 
 40 H        6.5670     2.2310    -0.7310 H     1 <1>   0.0800 
 41 H        6.4430     1.5080     1.4710 H     1 <1>   0.0800 
 42 H        5.8570     3.0860     1.9560 H     1 <1>   0.0800 
@<TRIPOS>BOND
  1   1   2  2   
  2   2   3  am  
  3   2   4  1   
  4   3   5  1   
  5   3  18  1   
  6   4   6  1   
  7   4  19  1   
  8   4  20  1   
  9   5   7  1   
 10   5   8  1   
 11   5  21  1   
 12   6   9  1   
 13   6  22  1   
 14   6  23  1   
 15   7  10  1   
 16   7  11  1   
 17   7  24  1   
 18   8  25  1   
 19   8  26  1   
 20   8  27  1   
 21   9  12  1   
 22   9  13  1   
 23   9  28  1   
 24  10  14  1   
 25  11  15  1   
 26  11  29  1   
 27  11  30  1   
 28  12  16  1   
 29  12  31  1   
 30  12  32  1   
 31  13  17  1   
 32  13  33  1   
 33  13  34  1   
 34  14  15  1   
 35  14  35  1   
 36  14  36  1   
 37  15  37  1   
 38  15  38  1   
 39  16  17  1   
 40  16  39  1   
 41  16  40  1   
 42  17  41  1   
 43  17  42  1   
@<TRIPOS>SUBSTRUCTURE
  1 ****   3 GROUP 4 **** **** 0

# MOE 2024.06 (io_trps.svl 2023.06)
