@<TRIPOS>MOLECULE
NONAME
30 30 1 0 0 
SMALL
USER_CHARGES


@<TRIPOS>ATOM
  1 S       -0.5710    -0.3170    -0.0200 S.3   1 <1>  -0.2660 
  2 C        0.9200     0.6970    -0.0750 C.1   1 <1>   0.5930 
  3 C       -1.9170     0.9430    -0.0330 C.3   1 <1>   0.0700 
  4 N        1.8380     1.3660    -0.1090 N.1   1 <1>  -0.5570 
  5 C       -3.2580     0.2100     0.0100 C.3   1 <1>  -0.1600 
  6 C       -4.4220     1.2010     0.0020 C.3   1 <1>   0.1200 
  7 O       -5.6200     0.4650     0.0430 O.3   1 <1>  -0.3630 
  8 C       -6.8280     1.0830     0.0460 C.ar  1 <1>   0.0830 
  9 C       -6.9960     2.4650     0.0090 C.ar  1 <1>  -0.1500 
 10 C       -7.9440     0.2680     0.0880 C.ar  1 <1>  -0.1500 
 11 C       -8.2650     3.0240     0.0150 C.ar  1 <1>  -0.1440 
 12 C       -9.2120     0.8190     0.0940 C.ar  1 <1>  -0.1500 
 13 C       -9.3830     2.1950     0.0570 C.ar  1 <1>  -0.1430 
 14 C       -8.4070     4.5390    -0.0260 C.3   1 <1>  -0.0970 
 15 C      -10.7950     2.7620     0.0650 C.3   1 <1>  -0.0970 
 16 H       -1.8070     1.5200    -0.9360 H     1 <1>   0.0800 
 17 H       -1.7770     1.5700     0.8300 H     1 <1>   0.0800 
 18 H       -3.3100    -0.3860     0.9050 H     1 <1>   0.0800 
 19 H       -3.3400    -0.4360    -0.8460 H     1 <1>   0.0800 
 20 H       -4.4190     1.7890    -0.9000 H     1 <1>   0.0800 
 21 H       -4.3890     1.8390     0.8680 H     1 <1>   0.0800 
 22 H       -6.1460     3.1160    -0.0240 H     1 <1>   0.1500 
 23 H       -7.8140    -0.7980     0.1170 H     1 <1>   0.1500 
 24 H      -10.0660     0.1660     0.1270 H     1 <1>   0.1500 
 25 H       -7.4460     5.0190    -0.0570 H     1 <1>   0.0800 
 26 H       -8.9280     4.8830     0.8480 H     1 <1>   0.0800 
 27 H       -8.9580     4.8330    -0.9020 H     1 <1>   0.0800 
 28 H      -10.9350     3.3900     0.9260 H     1 <1>   0.0800 
 29 H      -11.5270     1.9750     0.1000 H     1 <1>   0.0800 
 30 H      -10.9650     3.3400    -0.8250 H     1 <1>   0.0800 
@<TRIPOS>BOND
  1   1   2  1   
  2   1   3  1   
  3   2   4  3   
  4   3   5  1   
  5   3  16  1   
  6   3  17  1   
  7   5   6  1   
  8   5  18  1   
  9   5  19  1   
 10   6   7  1   
 11   6  20  1   
 12   6  21  1   
 13   7   8  1   
 14   8   9  ar  
 15   8  10  ar  
 16   9  11  ar  
 17   9  22  1   
 18  10  12  ar  
 19  10  23  1   
 20  11  13  ar  
 21  11  14  1   
 22  12  13  ar  
 23  12  24  1   
 24  13  15  1   
 25  14  25  1   
 26  14  26  1   
 27  14  27  1   
 28  15  28  1   
 29  15  29  1   
 30  15  30  1   
@<TRIPOS>SUBSTRUCTURE
  1 ****   6 GROUP 4 **** **** 0

# MOE 2024.06 (io_trps.svl 2023.06)
