@<TRIPOS>MOLECULE
NONAME
34 35 1 0 0 
SMALL
USER_CHARGES


@<TRIPOS>ATOM
  1 F        5.7760    -2.8730     0.1500 F     1 <1>  -0.1900 
  2 C        4.5200    -2.5480     0.2940 C.ar  1 <1>   0.1900 
  3 C        3.5580    -3.3170    -0.3270 C.ar  1 <1>  -0.1500 
  4 C        4.2050    -1.4470     1.0640 C.ar  1 <1>  -0.1500 
  5 C        2.2070    -2.9940    -0.1900 C.ar  1 <1>   0.0860 
  6 C        2.8710    -1.1100     1.2100 C.ar  1 <1>  -0.1500 
  7 C        1.1860    -3.7990    -0.8370 C.2   1 <1>   0.6340 
  8 C        1.8940    -1.8740     0.5920 C.ar  1 <1>  -0.1500 
  9 O        1.4410    -4.7310    -1.5670 O.2   1 <1>  -0.5700 
 10 O       -0.1030    -3.5030    -0.6140 O.3   1 <1>  -0.4300 
 11 C       -1.1550    -4.2590    -1.2040 C.3   1 <1>   0.2000 
 12 C       -2.4130    -3.3740    -1.2610 C.3   1 <1>   0.3430 
 13 C       -1.4310    -5.5050    -0.3390 C.3   1 <1>  -0.1600 
 14 N       -2.8120    -2.8510     0.1020 N.4   1 <1>  -0.9590 
 15 C       -2.4670    -5.2460     0.7780 C.3   1 <1>  -0.1600 
 16 C       -2.4820    -3.7840     1.2360 C.3   1 <1>   0.3430 
 17 C       -4.2530    -2.4560     0.1200 C.3   1 <1>   0.2630 
 18 H        3.8610    -4.1660    -0.9170 H     1 <1>   0.1500 
 19 H        4.9850    -0.8720     1.5320 H     1 <1>   0.1500 
 20 H        2.6000    -0.2540     1.8050 H     1 <1>   0.1500 
 21 H        0.8660    -1.5870     0.7210 H     1 <1>   0.1500 
 22 H       -0.8630    -4.5430    -2.2020 H     1 <1>   0.0800 
 23 H       -3.2140    -3.9720    -1.6620 H     1 <1>   0.0800 
 24 H       -2.2440    -2.5550    -1.9410 H     1 <1>   0.0800 
 25 H       -0.5070    -5.8630     0.0820 H     1 <1>   0.0800 
 26 H       -1.8070    -6.2910    -0.9710 H     1 <1>   0.0800 
 27 H       -2.2430    -2.0070     0.2600 H     1 <1>   0.4500 
 28 H       -2.2430    -5.8800     1.6190 H     1 <1>   0.0800 
 29 H       -3.4510    -5.5130     0.4360 H     1 <1>   0.0800 
 30 H       -3.1870    -3.6560     2.0420 H     1 <1>   0.0800 
 31 H       -1.5010    -3.5440     1.6150 H     1 <1>   0.0800 
 32 H       -4.8790    -3.3200    -0.0360 H     1 <1>   0.0800 
 33 H       -4.4550    -1.7380    -0.6590 H     1 <1>   0.0800 
 34 H       -4.5080    -2.0130     1.0690 H     1 <1>   0.0800 
@<TRIPOS>BOND
  1   1   2  1   
  2   2   3  ar  
  3   2   4  ar  
  4   3   5  ar  
  5   3  18  1   
  6   4   6  ar  
  7   4  19  1   
  8   5   7  1   
  9   5   8  ar  
 10   6   8  ar  
 11   6  20  1   
 12   7   9  2   
 13   7  10  1   
 14   8  21  1   
 15  10  11  1   
 16  11  12  1   
 17  11  13  1   
 18  11  22  1   
 19  12  14  1   
 20  12  23  1   
 21  12  24  1   
 22  13  15  1   
 23  13  25  1   
 24  13  26  1   
 25  14  16  1   
 26  14  17  1   
 27  14  27  1   
 28  15  16  1   
 29  15  28  1   
 30  15  29  1   
 31  16  30  1   
 32  16  31  1   
 33  17  32  1   
 34  17  33  1   
 35  17  34  1   
@<TRIPOS>SUBSTRUCTURE
  1 ****  10 GROUP 4 **** **** 0

# MOE 2024.06 (io_trps.svl 2023.06)
