@<TRIPOS>MOLECULE
NONAME
38 39 1 0 0 
SMALL
USER_CHARGES


@<TRIPOS>ATOM
  1 CL      -0.3950     0.2900    -1.5270 Cl    1 <1>  -0.1770 
  2 C       -1.7460    -0.7270    -1.0910 C.ar  1 <1>   0.1770 
  3 C       -2.9140    -0.1480    -0.6400 C.ar  1 <1>  -0.1500 
  4 C       -1.6260    -2.0930    -1.2040 C.ar  1 <1>  -0.1500 
  5 C       -4.0210    -0.9150    -0.2800 C.ar  1 <1>  -0.1440 
  6 C       -2.7030    -2.8830    -0.8560 C.ar  1 <1>  -0.1500 
  7 C       -3.8950    -2.3140    -0.3980 C.ar  1 <1>   0.0830 
  8 C       -5.2710    -0.1220     0.2120 C.3   1 <1>   0.1440 
  9 O       -4.9380    -3.1170    -0.0640 O.3   1 <1>  -0.3630 
 10 C       -4.8900     0.7090     1.4500 C.3   1 <1>  -0.2400 
 11 C       -5.7400     0.8280    -0.9050 C.3   1 <1>  -0.2400 
 12 C       -6.5050    -0.9500     0.6150 C.3   1 <1>  -0.2400 
 13 C       -4.9280    -4.5170    -0.2260 C.3   1 <1>   0.1200 
 14 C       -6.2920    -5.0460     0.2040 C.3   1 <1>   0.0960 
 15 N       -6.3320    -6.5070     0.0260 N.pl3 1 <1>   0.0480 
 16 C       -6.7800    -7.1980    -1.0460 C.2   1 <1>   0.0360 
 17 C       -5.9000    -7.4490     0.8830 C.2   1 <1>  -0.3020 
 18 N       -6.6630    -8.4810    -0.9310 N.2   1 <1>  -0.5650 
 19 C       -6.1100    -8.6420     0.2850 C.2   1 <1>   0.0770 
 20 H       -2.9310     0.9240    -0.5790 H     1 <1>   0.1500 
 21 H       -0.7070    -2.5240    -1.5580 H     1 <1>   0.1500 
 22 H       -2.5830    -3.9450    -0.9510 H     1 <1>   0.1500 
 23 H       -4.5220     0.0600     2.2250 H     1 <1>   0.0800 
 24 H       -5.7420     1.2430     1.8290 H     1 <1>   0.0800 
 25 H       -4.1270     1.4310     1.2260 H     1 <1>   0.0800 
 26 H       -4.9870     1.5500    -1.1560 H     1 <1>   0.0800 
 27 H       -6.6200     1.3670    -0.6040 H     1 <1>   0.0800 
 28 H       -5.9730     0.2630    -1.7900 H     1 <1>   0.0800 
 29 H       -6.2650    -1.6110     1.4280 H     1 <1>   0.0800 
 30 H       -6.8620    -1.5260    -0.2190 H     1 <1>   0.0800 
 31 H       -7.3070    -0.3110     0.9390 H     1 <1>   0.0800 
 32 H       -4.1500    -4.9250     0.3960 H     1 <1>   0.0800 
 33 H       -4.7460    -4.7360    -1.2640 H     1 <1>   0.0800 
 34 H       -7.0650    -4.6000    -0.3940 H     1 <1>   0.0800 
 35 H       -6.4650    -4.8180     1.2400 H     1 <1>   0.0800 
 36 H       -7.1920    -6.7080    -1.9110 H     1 <1>   0.1500 
 37 H       -5.4780    -7.2310     1.8470 H     1 <1>   0.1500 
 38 H       -5.8900    -9.6230     0.6720 H     1 <1>   0.1500 
@<TRIPOS>BOND
  1   1   2  1   
  2   2   3  ar  
  3   2   4  ar  
  4   3   5  ar  
  5   3  20  1   
  6   4   6  ar  
  7   4  21  1   
  8   5   7  ar  
  9   5   8  1   
 10   6   7  ar  
 11   6  22  1   
 12   7   9  1   
 13   8  10  1   
 14   8  11  1   
 15   8  12  1   
 16   9  13  1   
 17  10  23  1   
 18  10  24  1   
 19  10  25  1   
 20  11  26  1   
 21  11  27  1   
 22  11  28  1   
 23  12  29  1   
 24  12  30  1   
 25  12  31  1   
 26  13  14  1   
 27  13  32  1   
 28  13  33  1   
 29  14  15  1   
 30  14  34  1   
 31  14  35  1   
 32  15  16  1   
 33  15  17  1   
 34  16  18  2   
 35  16  36  1   
 36  17  19  2   
 37  17  37  1   
 38  18  19  1   
 39  19  38  1   
@<TRIPOS>SUBSTRUCTURE
  1 ****   9 GROUP 4 **** **** 0

# MOE 2024.06 (io_trps.svl 2023.06)
