@<TRIPOS>MOLECULE
NONAME
40 40 1 0 0 
SMALL
USER_CHARGES


@<TRIPOS>ATOM
  1 O        0.4340    -0.4160    -0.1540 O.2   1 <1>  -0.5700 
  2 C        0.2770    -1.5900    -0.4530 C.2   1 <1>   0.5440 
  3 N        1.3140    -2.2700    -1.0250 N.am  1 <1>  -0.4300 
  4 C       -0.9880    -2.2540    -0.2270 C.ar  1 <1>   0.0860 
  5 N        2.7200    -1.8750    -0.9260 N.am  1 <1>  -0.4300 
  6 C       -2.1970    -1.6050    -0.4640 C.ar  1 <1>  -0.1500 
  7 C       -1.0460    -3.5670     0.2390 C.ar  1 <1>  -0.1500 
  8 C        3.6020    -2.3800    -0.0210 C.2   1 <1>   0.5690 
  9 C       -3.4160    -2.2280    -0.2690 C.ar  1 <1>   0.0830 
 10 C       -2.2540    -4.2120     0.4330 C.ar  1 <1>  -0.1500 
 11 O        3.3360    -3.3820     0.6150 O.2   1 <1>  -0.5700 
 12 C        4.9730    -1.6900     0.1970 C.3   1 <1>   0.0610 
 13 O       -4.5100    -1.4670    -0.5440 O.3   1 <1>  -0.3620 
 14 C       -3.4580    -3.5600     0.1730 C.ar  1 <1>   0.0830 
 15 C        5.1200    -1.2840     1.6750 C.3   1 <1>  -0.2400 
 16 C        6.1120    -2.6630    -0.1610 C.3   1 <1>  -0.2400 
 17 C        5.1490    -0.4170    -0.6610 C.3   1 <1>  -0.2400 
 18 C       -5.6360    -1.5150     0.3060 C.3   1 <1>   0.0400 
 19 O       -4.6560    -4.1880     0.3210 O.3   1 <1>  -0.3630 
 20 C       -4.7610    -5.5500     0.6730 C.3   1 <1>   0.0400 
 21 H        1.1470    -3.2160    -1.3820 H     1 <1>   0.3700 
 22 H        2.9720    -1.0230    -1.4350 H     1 <1>   0.3700 
 23 H       -2.1840    -0.5860    -0.8080 H     1 <1>   0.1500 
 24 H       -0.1300    -4.0890     0.4620 H     1 <1>   0.1500 
 25 H       -2.2340    -5.2240     0.7900 H     1 <1>   0.1500 
 26 H        5.0500    -2.1510     2.3090 H     1 <1>   0.0800 
 27 H        4.3350    -0.6030     1.9540 H     1 <1>   0.0800 
 28 H        6.0680    -0.8090     1.8530 H     1 <1>   0.0800 
 29 H        6.0390    -2.9630    -1.1910 H     1 <1>   0.0800 
 30 H        6.0500    -3.5480     0.4500 H     1 <1>   0.0800 
 31 H        7.0720    -2.2070    -0.0010 H     1 <1>   0.0800 
 32 H        5.0980    -0.6520    -1.7100 H     1 <1>   0.0800 
 33 H        6.1070     0.0350    -0.4690 H     1 <1>   0.0800 
 34 H        4.3880     0.3070    -0.4260 H     1 <1>   0.0800 
 35 H       -6.1800    -0.5960     0.1910 H     1 <1>   0.0800 
 36 H       -5.3060    -1.6250     1.3240 H     1 <1>   0.0800 
 37 H       -6.2560    -2.3430     0.0140 H     1 <1>   0.0800 
 38 H       -5.8040    -5.8110     0.6880 H     1 <1>   0.0800 
 39 H       -4.3350    -5.6940     1.6500 H     1 <1>   0.0800 
 40 H       -4.2490    -6.1430    -0.0650 H     1 <1>   0.0800 
@<TRIPOS>BOND
  1   1   2  2   
  2   2   3  am  
  3   2   4  1   
  4   3   5  1   
  5   3  21  1   
  6   4   6  ar  
  7   4   7  ar  
  8   5   8  am  
  9   5  22  1   
 10   6   9  ar  
 11   6  23  1   
 12   7  10  ar  
 13   7  24  1   
 14   8  11  2   
 15   8  12  1   
 16   9  13  1   
 17   9  14  ar  
 18  10  14  ar  
 19  10  25  1   
 20  12  15  1   
 21  12  16  1   
 22  12  17  1   
 23  13  18  1   
 24  14  19  1   
 25  15  26  1   
 26  15  27  1   
 27  15  28  1   
 28  16  29  1   
 29  16  30  1   
 30  16  31  1   
 31  17  32  1   
 32  17  33  1   
 33  17  34  1   
 34  18  35  1   
 35  18  36  1   
 36  18  37  1   
 37  19  20  1   
 38  20  38  1   
 39  20  39  1   
 40  20  40  1   
@<TRIPOS>SUBSTRUCTURE
  1 ****   2 GROUP 4 **** **** 0

# MOE 2024.06 (io_trps.svl 2023.06)
