@<TRIPOS>MOLECULE
NONAME
37 38 1 0 0 
SMALL
USER_CHARGES


@<TRIPOS>ATOM
  1 S        0.3210    -0.0380    -0.8340 S.3   1 <1>  -0.0800 
  2 C        1.0260    -1.3530     0.0560 C.2   1 <1>   0.4420 
  3 C       -1.1980    -0.4650    -0.1240 C.2   1 <1>   0.1980 
  4 N        0.1570    -1.9780     0.7620 N.2   1 <1>  -0.3380 
  5 N        2.3640    -1.6720    -0.0210 N.am  1 <1>  -0.4940 
  6 N       -1.1070    -1.4680     0.6570 N.2   1 <1>  -0.3380 
  7 C       -2.4140     0.3770    -0.5030 C.3   1 <1>   0.1000 
  8 C        3.4260    -1.0790    -0.6590 C.2   1 <1>   0.5440 
  9 C       -2.4050     1.7090     0.2580 C.3   1 <1>  -0.2400 
 10 C       -3.7290    -0.3690    -0.2360 C.3   1 <1>  -0.2400 
 11 O        3.2930     0.0030    -1.1900 O.2   1 <1>  -0.5700 
 12 C        4.7120    -1.7500    -0.6640 C.ar  1 <1>   0.0860 
 13 C        5.8970    -1.0230    -0.5840 C.ar  1 <1>  -0.1500 
 14 C        4.8170    -3.1410    -0.7440 C.ar  1 <1>  -0.1500 
 15 C        7.1360    -1.6390    -0.5660 C.ar  1 <1>   0.0830 
 16 C        6.0480    -3.7710    -0.7280 C.ar  1 <1>  -0.1500 
 17 O        8.2160    -0.8220    -0.4790 O.3   1 <1>  -0.3630 
 18 C        7.2090    -3.0260    -0.6370 C.ar  1 <1>  -0.1500 
 19 C        9.5450    -1.2960    -0.4160 C.3   1 <1>   0.1200 
 20 C        9.8630    -1.7280     1.0160 C.3   1 <1>  -0.2400 
 21 H        2.5990    -2.4840     0.5420 H     1 <1>   0.3700 
 22 H       -2.3560     0.5830    -1.5580 H     1 <1>   0.0800 
 23 H       -2.4450     1.5310     1.3190 H     1 <1>   0.0800 
 24 H       -3.2510     2.3090    -0.0250 H     1 <1>   0.0800 
 25 H       -1.5080     2.2590     0.0370 H     1 <1>   0.0800 
 26 H       -3.8320    -0.5840     0.8130 H     1 <1>   0.0800 
 27 H       -3.7390    -1.3000    -0.7750 H     1 <1>   0.0800 
 28 H       -4.5690     0.2210    -0.5540 H     1 <1>   0.0800 
 29 H        5.8530     0.0520    -0.5350 H     1 <1>   0.1500 
 30 H        3.9290    -3.7420    -0.8310 H     1 <1>   0.1500 
 31 H        6.1060    -4.8450    -0.7900 H     1 <1>   0.1500 
 32 H        8.1520    -3.5390    -0.6250 H     1 <1>   0.1500 
 33 H       10.1840    -0.4790    -0.7000 H     1 <1>   0.0800 
 34 H        9.6760    -2.0920    -1.1270 H     1 <1>   0.0800 
 35 H        9.7330    -0.8960     1.6860 H     1 <1>   0.0800 
 36 H       10.8850    -2.0560     1.0760 H     1 <1>   0.0800 
 37 H        9.2270    -2.5360     1.3260 H     1 <1>   0.0800 
@<TRIPOS>BOND
  1   1   2  1   
  2   1   3  1   
  3   2   4  2   
  4   2   5  1   
  5   3   6  2   
  6   3   7  1   
  7   4   6  1   
  8   5   8  am  
  9   5  21  1   
 10   7   9  1   
 11   7  10  1   
 12   7  22  1   
 13   8  11  2   
 14   8  12  1   
 15   9  23  1   
 16   9  24  1   
 17   9  25  1   
 18  10  26  1   
 19  10  27  1   
 20  10  28  1   
 21  12  13  ar  
 22  12  14  ar  
 23  13  15  ar  
 24  13  29  1   
 25  14  16  ar  
 26  14  30  1   
 27  15  17  1   
 28  15  18  ar  
 29  16  18  ar  
 30  16  31  1   
 31  17  19  1   
 32  18  32  1   
 33  19  20  1   
 34  19  33  1   
 35  19  34  1   
 36  20  35  1   
 37  20  36  1   
 38  20  37  1   
@<TRIPOS>SUBSTRUCTURE
  1 ****   8 GROUP 4 **** **** 0

# MOE 2024.06 (io_trps.svl 2023.06)
