@<TRIPOS>MOLECULE
NONAME
32 32 1 0 0 
SMALL
USER_CHARGES


@<TRIPOS>ATOM
  1 BR      -0.7360    -0.2630     0.5060 Br    1 <1>  -0.1110 
  2 C       -0.5390     1.6060     0.0750 C.ar  1 <1>   0.1110 
  3 C       -1.4900     2.2230    -0.7180 C.ar  1 <1>  -0.1440 
  4 C        0.5530     2.2760     0.5910 C.ar  1 <1>  -0.1500 
  5 C       -1.3160     3.5670    -1.0030 C.ar  1 <1>  -0.1500 
  6 C       -2.6880     1.4670    -1.2570 C.3   1 <1>   0.4870 
  7 C        0.7160     3.6310     0.3140 C.ar  1 <1>   0.0830 
  8 C       -0.2340     4.2770    -0.5020 C.ar  1 <1>   0.0830 
  9 N       -3.6670     1.2670    -0.1580 N.4   1 <1>  -0.9060 
 10 O        1.7640     4.3320     0.8340 O.3   1 <1>  -0.3620 
 11 O       -0.2240     5.5890    -0.8730 O.3   1 <1>  -0.3620 
 12 C       -4.1890     2.5330     0.4040 C.3   1 <1>   0.3430 
 13 C        2.7520     3.7350     1.6460 C.3   1 <1>   0.0400 
 14 C        0.9570     6.3610    -0.8950 C.3   1 <1>   0.0400 
 15 C       -5.1550     2.1890     1.5270 C.3   1 <1>  -0.2400 
 16 H        1.2470     1.7280     1.2000 H     1 <1>   0.1500 
 17 H       -2.0160     4.1000    -1.6240 H     1 <1>   0.1500 
 18 H       -2.3650     0.5130    -1.6450 H     1 <1>   0.0800 
 19 H       -3.1390     2.0240    -2.0620 H     1 <1>   0.0800 
 20 H       -3.1920     0.7480     0.5910 H     1 <1>   0.4500 
 21 H       -4.4460     0.6840    -0.4820 H     1 <1>   0.4500 
 22 H       -4.7000     3.1000    -0.3580 H     1 <1>   0.0800 
 23 H       -3.3790     3.1330     0.7920 H     1 <1>   0.0800 
 24 H        3.4650     4.4940     1.9150 H     1 <1>   0.0800 
 25 H        3.2430     2.9570     1.0890 H     1 <1>   0.0800 
 26 H        2.2880     3.3440     2.5340 H     1 <1>   0.0800 
 27 H        0.7660     7.2510    -1.4670 H     1 <1>   0.0800 
 28 H        1.7440     5.7900    -1.3550 H     1 <1>   0.0800 
 29 H        1.2180     6.6290     0.1130 H     1 <1>   0.0800 
 30 H       -5.9870     1.6150     1.1600 H     1 <1>   0.0800 
 31 H       -5.5420     3.0990     1.9510 H     1 <1>   0.0800 
 32 H       -4.6560     1.6480     2.3120 H     1 <1>   0.0800 
@<TRIPOS>BOND
  1   1   2  1   
  2   2   3  ar  
  3   2   4  ar  
  4   3   5  ar  
  5   3   6  1   
  6   4   7  ar  
  7   4  16  1   
  8   5   8  ar  
  9   5  17  1   
 10   6   9  1   
 11   6  18  1   
 12   6  19  1   
 13   7   8  ar  
 14   7  10  1   
 15   8  11  1   
 16   9  12  1   
 17   9  20  1   
 18   9  21  1   
 19  10  13  1   
 20  11  14  1   
 21  12  15  1   
 22  12  22  1   
 23  12  23  1   
 24  13  24  1   
 25  13  25  1   
 26  13  26  1   
 27  14  27  1   
 28  14  28  1   
 29  14  29  1   
 30  15  30  1   
 31  15  31  1   
 32  15  32  1   
@<TRIPOS>SUBSTRUCTURE
  1 ****   3 GROUP 4 **** **** 0

# MOE 2024.06 (io_trps.svl 2023.06)
