@<TRIPOS>MOLECULE
NONAME
50 51 1 0 0 
SMALL
USER_CHARGES


@<TRIPOS>ATOM
  1 S        0.6980     0.7920     1.3240 S.o2  1 <1>   1.3330 
  2 O        1.3130     0.7390     2.6260 O.2   1 <1>  -0.6500 
  3 O        1.1630    -0.0830     0.2740 O.2   1 <1>  -0.6500 
  4 N        0.9360     2.3940     0.7300 N.am  1 <1>  -0.6930 
  5 C       -1.0670     0.6720     1.5170 C.3   1 <1>  -0.1350 
  6 C        0.2720     2.8630    -0.4060 C.ar  1 <1>   0.1990 
  7 C        2.1370     3.1350     1.2240 C.3   1 <1>   0.2570 
  8 C       -0.9230     3.5900    -0.3020 C.ar  1 <1>   0.0830 
  9 C        0.7970     2.6110    -1.6670 C.ar  1 <1>  -0.1500 
 10 C        3.4830     2.6890     0.6340 C.2   1 <1>   0.5690 
 11 O       -1.4230     3.8110     0.9500 O.3   1 <1>  -0.3630 
 12 C       -1.5550     4.0520    -1.4530 C.ar  1 <1>  -0.1500 
 13 C        0.1630     3.0730    -2.8070 C.ar  1 <1>  -0.1500 
 14 O        4.4100     3.4610     0.6980 O.2   1 <1>  -0.5700 
 15 N        3.6210     1.4640     0.0540 N.am  1 <1>  -0.7300 
 16 C       -2.4830     4.7130     1.1690 C.3   1 <1>   0.1200 
 17 C       -1.0120     3.7940    -2.7000 C.ar  1 <1>  -0.1500 
 18 C        4.8540     0.9040    -0.5100 C.3   1 <1>   0.2200 
 19 C       -2.7090     4.8130     2.6740 C.3   1 <1>  -0.2400 
 20 C        4.6440     0.6680    -2.0080 C.3   1 <1>  -0.1600 
 21 C        5.1710    -0.4040     0.2200 C.3   1 <1>  -0.1600 
 22 C        5.8580    -0.0330    -2.6360 C.3   1 <1>  -0.1600 
 23 C        6.3860    -1.1080    -0.4010 C.3   1 <1>  -0.1600 
 24 C        6.1800    -1.3440    -1.9040 C.3   1 <1>  -0.1600 
 25 H       -1.3310    -0.2940     1.8980 H     1 <1>   0.0800 
 26 H       -1.5550     0.8170     0.5740 H     1 <1>   0.0800 
 27 H       -1.4130     1.4200     2.2030 H     1 <1>   0.0800 
 28 H        2.1940     3.0500     2.2940 H     1 <1>   0.0800 
 29 H        2.0110     4.1780     0.9960 H     1 <1>   0.0800 
 30 H        1.7070     2.0480    -1.7590 H     1 <1>   0.1500 
 31 H       -2.4710     4.6100    -1.4060 H     1 <1>   0.1500 
 32 H        0.5860     2.8690    -3.7770 H     1 <1>   0.1500 
 33 H        2.8140     0.8260     0.0160 H     1 <1>   0.3700 
 34 H       -3.3630     4.3340     0.6780 H     1 <1>   0.0800 
 35 H       -2.2080     5.6700     0.7600 H     1 <1>   0.0800 
 36 H       -1.5040     4.1530    -3.5880 H     1 <1>   0.1500 
 37 H        5.6690     1.5970    -0.3680 H     1 <1>   0.0800 
 38 H       -2.9710     3.8510     3.0750 H     1 <1>   0.0800 
 39 H       -3.5100     5.5000     2.8770 H     1 <1>   0.0800 
 40 H       -1.8180     5.1730     3.1580 H     1 <1>   0.0800 
 41 H        4.4860     1.6130    -2.4970 H     1 <1>   0.0800 
 42 H        3.7720     0.0550    -2.1550 H     1 <1>   0.0800 
 43 H        4.3190    -1.0600     0.1660 H     1 <1>   0.0800 
 44 H        5.3710    -0.1930     1.2560 H     1 <1>   0.0800 
 45 H        6.7120     0.6220    -2.5850 H     1 <1>   0.0800 
 46 H        5.6600    -0.2380    -3.6740 H     1 <1>   0.0800 
 47 H        6.5480    -2.0510     0.0930 H     1 <1>   0.0800 
 48 H        7.2630    -0.5020    -0.2520 H     1 <1>   0.0800 
 49 H        7.0680    -1.7830    -2.3250 H     1 <1>   0.0800 
 50 H        5.3700    -2.0380    -2.0470 H     1 <1>   0.0800 
@<TRIPOS>BOND
  1   1   2  2   
  2   1   3  2   
  3   1   4  am  
  4   1   5  1   
  5   4   6  1   
  6   4   7  1   
  7   5  25  1   
  8   5  26  1   
  9   5  27  1   
 10   6   8  ar  
 11   6   9  ar  
 12   7  10  1   
 13   7  28  1   
 14   7  29  1   
 15   8  11  1   
 16   8  12  ar  
 17   9  13  ar  
 18   9  30  1   
 19  10  14  2   
 20  10  15  am  
 21  11  16  1   
 22  12  17  ar  
 23  12  31  1   
 24  13  17  ar  
 25  13  32  1   
 26  15  18  1   
 27  15  33  1   
 28  16  19  1   
 29  16  34  1   
 30  16  35  1   
 31  17  36  1   
 32  18  20  1   
 33  18  21  1   
 34  18  37  1   
 35  19  38  1   
 36  19  39  1   
 37  19  40  1   
 38  20  22  1   
 39  20  41  1   
 40  20  42  1   
 41  21  23  1   
 42  21  43  1   
 43  21  44  1   
 44  22  24  1   
 45  22  45  1   
 46  22  46  1   
 47  23  24  1   
 48  23  47  1   
 49  23  48  1   
 50  24  49  1   
 51  24  50  1   
@<TRIPOS>SUBSTRUCTURE
  1 ****   4 GROUP 4 **** **** 0

# MOE 2024.06 (io_trps.svl 2023.06)
