@<TRIPOS>MOLECULE
NONAME
34 35 1 0 0 
SMALL
USER_CHARGES


@<TRIPOS>ATOM
  1 S        0.3900    -0.2760    -1.2770 S.3   1 <1>  -0.0800 
  2 C        1.2090    -1.1190     0.0460 C.2   1 <1>   0.0400 
  3 C       -1.1610    -0.9900    -0.8810 C.2   1 <1>  -0.1100 
  4 C        2.6220    -0.9750     0.2920 C.2   1 <1>   0.1860 
  5 C        0.2900    -1.8820     0.6910 C.2   1 <1>  -0.1500 
  6 C       -1.0380    -1.8090     0.1780 C.2   1 <1>  -0.1500 
  7 N        3.3030    -1.8800     0.9490 N.2   1 <1>  -0.3380 
  8 N        3.4370     0.0500    -0.0630 N.pl3 1 <1>   0.0480 
  9 N        4.5660    -1.4770     1.0320 N.2   1 <1>  -0.3380 
 10 C        4.6080    -0.3430     0.4340 C.2   1 <1>   0.2420 
 11 C        3.1630     1.3440    -0.7370 C.3   1 <1>   0.0960 
 12 S        6.1140     0.6250     0.2990 S.3   1 <1>  -0.2860 
 13 C        2.4530     2.3140     0.2150 C.3   1 <1>  -0.2400 
 14 C        7.3570    -0.4290     1.1860 C.3   1 <1>   0.1310 
 15 C        8.7290     0.2110     1.1230 C.2   1 <1>   0.6590 
 16 O        9.2540     0.6800     2.1000 O.2   1 <1>  -0.5700 
 17 O        9.3220     0.2080    -0.0650 O.3   1 <1>  -0.4300 
 18 C       10.5970     0.7780    -0.2510 C.3   1 <1>   0.1200 
 19 C       10.9790     0.6120    -1.7180 C.3   1 <1>  -0.2400 
 20 H       -2.0060    -0.7190    -1.4880 H     1 <1>   0.1500 
 21 H        0.5230    -2.5120     1.5320 H     1 <1>   0.1500 
 22 H       -1.8370    -2.3750     0.6250 H     1 <1>   0.1500 
 23 H        2.5740     1.1740    -1.6180 H     1 <1>   0.0800 
 24 H        4.0910     1.7810    -1.0590 H     1 <1>   0.0800 
 25 H        1.5110     1.9110     0.5400 H     1 <1>   0.0800 
 26 H        2.2670     3.2450    -0.2900 H     1 <1>   0.0800 
 27 H        3.0700     2.5120     1.0740 H     1 <1>   0.0800 
 28 H        7.3630    -1.3900     0.7090 H     1 <1>   0.0800 
 29 H        7.0270    -0.5220     2.2040 H     1 <1>   0.0800 
 30 H       11.2950     0.2690     0.3920 H     1 <1>   0.0800 
 31 H       10.5470     1.8190     0.0210 H     1 <1>   0.0800 
 32 H       11.0150    -0.4310    -1.9760 H     1 <1>   0.0800 
 33 H       11.9500     1.0410    -1.8900 H     1 <1>   0.0800 
 34 H       10.2660     1.1150    -2.3460 H     1 <1>   0.0800 
@<TRIPOS>BOND
  1   1   2  1   
  2   1   3  1   
  3   2   4  1   
  4   2   5  2   
  5   3   6  2   
  6   3  20  1   
  7   4   7  2   
  8   4   8  1   
  9   5   6  1   
 10   5  21  1   
 11   6  22  1   
 12   7   9  1   
 13   8  10  1   
 14   8  11  1   
 15   9  10  2   
 16  10  12  1   
 17  11  13  1   
 18  11  23  1   
 19  11  24  1   
 20  12  14  1   
 21  13  25  1   
 22  13  26  1   
 23  13  27  1   
 24  14  15  1   
 25  14  28  1   
 26  14  29  1   
 27  15  16  2   
 28  15  17  1   
 29  17  18  1   
 30  18  19  1   
 31  18  30  1   
 32  18  31  1   
 33  19  32  1   
 34  19  33  1   
 35  19  34  1   
@<TRIPOS>SUBSTRUCTURE
  1 ****  10 GROUP 4 **** **** 0

# MOE 2024.06 (io_trps.svl 2023.06)
