@<TRIPOS>MOLECULE
NONAME
49 51 1 0 0 
SMALL
USER_CHARGES


@<TRIPOS>ATOM
  1 S        0.0980    -0.9660     2.0730 S.o2  1 <1>   1.4470 
  2 O        0.7260    -1.7750     3.0940 O.2   1 <1>  -0.6500 
  3 O       -0.0710     0.4540     2.2900 O.2   1 <1>  -0.6500 
  4 N        1.0190    -1.1380     0.6630 N.am  1 <1>  -0.8490 
  5 C       -1.5030    -1.6790     1.6030 C.ar  1 <1>  -0.0090 
  6 C        2.2730    -0.3690     0.7520 C.3   1 <1>   0.1960 
  7 C        1.3470    -2.5490     0.3750 C.3   1 <1>   0.1960 
  8 C       -2.1410    -1.2810     0.4380 C.ar  1 <1>  -0.1500 
  9 C       -2.1280    -2.6370     2.3880 C.ar  1 <1>  -0.1500 
 10 C        3.0830    -0.4190    -0.5580 C.3   1 <1>   0.2090 
 11 C        2.1370    -2.7170    -0.9410 C.3   1 <1>   0.2090 
 12 C       -3.3670    -1.8040     0.0310 C.ar  1 <1>   0.0860 
 13 C       -3.3450    -3.1780     2.0130 C.ar  1 <1>  -0.1500 
 14 N        3.3350    -1.8210    -1.0130 N.pl3 1 <1>  -0.8380 
 15 C       -3.9670    -2.7700     0.8460 C.ar  1 <1>  -0.1440 
 16 C       -3.9630    -1.3260    -1.2040 C.2   1 <1>   0.5440 
 17 C        4.6390    -2.3340    -0.9150 C.ar  1 <1>   0.1000 
 18 C       -5.3080    -3.3890     0.4690 C.3   1 <1>  -0.0960 
 19 O       -4.2490    -2.0920    -2.1020 O.2   1 <1>  -0.5700 
 20 N       -4.1950     0.0120    -1.3690 N.am  1 <1>  -0.7300 
 21 C        5.0700    -3.3020     0.0030 C.ar  1 <1>   0.1900 
 22 C        5.5980    -1.8460    -1.7950 C.ar  1 <1>  -0.1500 
 23 C       -4.7750     0.6470    -2.5800 C.3   1 <1>   0.0600 
 24 F        4.2290    -3.8040     0.8750 F     1 <1>  -0.1900 
 25 C        6.3710    -3.7630     0.0520 C.ar  1 <1>  -0.1500 
 26 C        6.9090    -2.2960    -1.7620 C.ar  1 <1>  -0.1500 
 27 C        7.2990    -3.2540    -0.8400 C.ar  1 <1>  -0.1500 
 28 H        2.8820    -0.7530     1.5550 H     1 <1>   0.0800 
 29 H        2.0510     0.6610     0.9710 H     1 <1>   0.0800 
 30 H        0.4410    -3.1250     0.2990 H     1 <1>   0.0800 
 31 H        1.9260    -2.9620     1.1840 H     1 <1>   0.0800 
 32 H       -1.6640    -0.5400    -0.1820 H     1 <1>   0.1500 
 33 H       -1.6590    -2.9660     3.3010 H     1 <1>   0.1500 
 34 H        4.0210     0.0880    -0.4120 H     1 <1>   0.0800 
 35 H        2.5400     0.1040    -1.3250 H     1 <1>   0.0800 
 36 H        1.4870    -2.4880    -1.7660 H     1 <1>   0.0800 
 37 H        2.4450    -3.7430    -1.0470 H     1 <1>   0.0800 
 38 H       -3.8030    -3.9220     2.6420 H     1 <1>   0.1500 
 39 H       -6.0270    -2.6190     0.2550 H     1 <1>   0.0800 
 40 H       -5.6950    -3.9990     1.2650 H     1 <1>   0.0800 
 41 H       -5.1930    -4.0040    -0.4060 H     1 <1>   0.0800 
 42 H       -3.9990     0.6410    -0.5860 H     1 <1>   0.3700 
 43 H        5.3040    -1.1080    -2.5190 H     1 <1>   0.1500 
 44 H       -4.9360    -0.0880    -3.3510 H     1 <1>   0.0800 
 45 H       -4.1020     1.3990    -2.9540 H     1 <1>   0.0800 
 46 H       -5.7180     1.1030    -2.3350 H     1 <1>   0.0800 
 47 H        6.6510    -4.5060     0.7770 H     1 <1>   0.1500 
 48 H        7.6270    -1.9000    -2.4590 H     1 <1>   0.1500 
 49 H        8.3180    -3.6010    -0.8190 H     1 <1>   0.1500 
@<TRIPOS>BOND
  1   1   2  2   
  2   1   3  2   
  3   1   4  am  
  4   1   5  1   
  5   4   6  1   
  6   4   7  1   
  7   5   8  ar  
  8   5   9  ar  
  9   6  10  1   
 10   6  28  1   
 11   6  29  1   
 12   7  11  1   
 13   7  30  1   
 14   7  31  1   
 15   8  12  ar  
 16   8  32  1   
 17   9  13  ar  
 18   9  33  1   
 19  10  14  1   
 20  10  34  1   
 21  10  35  1   
 22  11  14  1   
 23  11  36  1   
 24  11  37  1   
 25  12  15  ar  
 26  12  16  1   
 27  13  15  ar  
 28  13  38  1   
 29  14  17  1   
 30  15  18  1   
 31  16  19  2   
 32  16  20  am  
 33  17  21  ar  
 34  17  22  ar  
 35  18  39  1   
 36  18  40  1   
 37  18  41  1   
 38  20  23  1   
 39  20  42  1   
 40  21  24  1   
 41  21  25  ar  
 42  22  26  ar  
 43  22  43  1   
 44  23  44  1   
 45  23  45  1   
 46  23  46  1   
 47  25  27  ar  
 48  25  47  1   
 49  26  27  ar  
 50  26  48  1   
 51  27  49  1   
@<TRIPOS>SUBSTRUCTURE
  1 ****   4 GROUP 4 **** **** 0

# MOE 2024.06 (io_trps.svl 2023.06)
