@<TRIPOS>MOLECULE
NONAME
32 33 1 0 0 
SMALL
USER_CHARGES


@<TRIPOS>ATOM
  1 O        0.2610    -0.1820     0.5310 O.2   1 <1>  -0.5700 
  2 C        1.1540    -0.9740     0.7590 C.2   1 <1>   0.5690 
  3 N        2.4300    -0.7570     0.3390 N.am  1 <1>  -0.3400 
  4 C        0.8100    -2.2320     1.5220 C.3   1 <1>  -0.1790 
  5 N        3.6060    -1.5610     0.6570 N.pl3 1 <1>  -0.4890 
  6 C        2.8410     0.5190    -0.2440 C.3   1 <1>   0.5000 
  7 C        3.7290    -2.8450     0.1310 C.ar  1 <1>   0.1000 
  8 C        4.7520    -0.6250     0.7420 C.3   1 <1>   0.2890 
  9 O        2.3900     0.5430    -1.5410 O.3   1 <1>  -0.6800 
 10 C        4.3670     0.5120    -0.2100 C.3   1 <1>  -0.1600 
 11 C        4.1650    -3.8950     0.9340 C.ar  1 <1>  -0.1500 
 12 C        3.4110    -3.1140    -1.1980 C.ar  1 <1>  -0.1500 
 13 C        6.1060    -1.2480     0.3860 C.3   1 <1>  -0.2400 
 14 C        4.2850    -5.1750     0.4250 C.ar  1 <1>  -0.1500 
 15 C        3.5290    -4.3920    -1.7110 C.ar  1 <1>  -0.1500 
 16 C        3.9680    -5.4260    -0.9000 C.ar  1 <1>  -0.1500 
 17 H        1.4810    -2.3480     2.3520 H     1 <1>   0.0800 
 18 H        0.9050    -3.0810     0.8710 H     1 <1>   0.0800 
 19 H       -0.1980    -2.1780     1.8870 H     1 <1>   0.0800 
 20 H        2.4140     1.3430     0.3030 H     1 <1>   0.0800 
 21 H        4.7870    -0.2490     1.7500 H     1 <1>   0.0800 
 22 H        1.4310     0.3530    -1.5050 H     1 <1>   0.4000 
 23 H        4.7510     1.4520     0.1370 H     1 <1>   0.0800 
 24 H        4.7540     0.3190    -1.1940 H     1 <1>   0.0800 
 25 H        4.4050    -3.6960     1.9610 H     1 <1>   0.1500 
 26 H        3.0730    -2.3090    -1.8260 H     1 <1>   0.1500 
 27 H        6.0910    -1.6490    -0.6120 H     1 <1>   0.0800 
 28 H        6.3470    -2.0310     1.0810 H     1 <1>   0.0800 
 29 H        6.8760    -0.5000     0.4410 H     1 <1>   0.0800 
 30 H        4.6250    -5.9770     1.0570 H     1 <1>   0.1500 
 31 H        3.2810    -4.5840    -2.7400 H     1 <1>   0.1500 
 32 H        4.0610    -6.4210    -1.2980 H     1 <1>   0.1500 
@<TRIPOS>BOND
  1   1   2  2   
  2   2   3  am  
  3   2   4  1   
  4   3   5  1   
  5   3   6  1   
  6   4  17  1   
  7   4  18  1   
  8   4  19  1   
  9   5   7  1   
 10   5   8  1   
 11   6   9  1   
 12   6  10  1   
 13   6  20  1   
 14   7  11  ar  
 15   7  12  ar  
 16   8  10  1   
 17   8  13  1   
 18   8  21  1   
 19   9  22  1   
 20  10  23  1   
 21  10  24  1   
 22  11  14  ar  
 23  11  25  1   
 24  12  15  ar  
 25  12  26  1   
 26  13  27  1   
 27  13  28  1   
 28  13  29  1   
 29  14  16  ar  
 30  14  30  1   
 31  15  16  ar  
 32  15  31  1   
 33  16  32  1   
@<TRIPOS>SUBSTRUCTURE
  1 ****   5 GROUP 4 **** **** 0

# MOE 2024.06 (io_trps.svl 2023.06)
