@<TRIPOS>MOLECULE
NONAME
53 55 1 0 0 
SMALL
USER_CHARGES


@<TRIPOS>ATOM
  1 N        0.1620     0.0360    -0.2980 N.4   1 <1>  -0.9590 
  2 C       -0.0770    -1.3670    -0.7470 C.3   1 <1>   0.3430 
  3 C       -1.0070     0.9330    -0.5050 C.3   1 <1>   0.3430 
  4 C        1.3930     0.5990    -0.9370 C.3   1 <1>   0.4860 
  5 C       -1.2850    -1.9470    -0.0120 C.3   1 <1>  -0.1600 
  6 C       -2.2340     0.3740     0.2200 C.3   1 <1>  -0.1600 
  7 C        2.5790    -0.2100    -0.4540 C.ar  1 <1>  -0.1440 
  8 C       -2.5250    -1.0690    -0.2140 C.3   1 <1>   0.4230 
  9 C        3.0560    -0.0490     0.8400 C.ar  1 <1>  -0.1500 
 10 C        3.1910    -1.1250    -1.3000 C.ar  1 <1>  -0.1500 
 11 N       -3.6990    -1.6780     0.4920 N.4   1 <1>  -0.9590 
 12 C        4.1210    -0.8100     1.2880 C.ar  1 <1>  -0.1500 
 13 C        4.2560    -1.8850    -0.8480 C.ar  1 <1>  -0.1500 
 14 C       -5.0110    -1.1680    -0.0310 C.3   1 <1>   0.4230 
 15 C       -3.6170    -1.7190     1.9960 C.3   1 <1>   0.2630 
 16 C        4.7190    -1.7300     0.4460 C.ar  1 <1>  -0.1500 
 17 C       -5.6800    -0.0930     0.8480 C.3   1 <1>  -0.1600 
 18 C       -5.9530    -2.3630    -0.2130 C.3   1 <1>  -0.1600 
 19 C       -6.9940     0.3770     0.2080 C.3   1 <1>  -0.1600 
 20 C       -7.2850    -1.9200    -0.8370 C.3   1 <1>  -0.1600 
 21 C       -7.9460    -0.8050    -0.0160 C.3   1 <1>  -0.1600 
 22 H        0.3980     0.0020     0.7050 H     1 <1>   0.4500 
 23 H        0.7920    -1.9750    -0.5380 H     1 <1>   0.0800 
 24 H       -0.2480    -1.3870    -1.8120 H     1 <1>   0.0800 
 25 H       -1.2170     1.0190    -1.5600 H     1 <1>   0.0800 
 26 H       -0.7860     1.9210    -0.1280 H     1 <1>   0.0800 
 27 H        1.5290     1.6290    -0.6490 H     1 <1>   0.0800 
 28 H        1.3220     0.5490    -2.0110 H     1 <1>   0.0800 
 29 H       -1.0340    -2.0370     1.0290 H     1 <1>   0.0800 
 30 H       -1.4710    -2.9330    -0.4000 H     1 <1>   0.0800 
 31 H       -3.0650     1.0060    -0.0300 H     1 <1>   0.0800 
 32 H       -2.0650     0.4370     1.2800 H     1 <1>   0.0800 
 33 H       -2.7420    -1.0570    -1.2710 H     1 <1>   0.0800 
 34 H        2.6200     0.6680     1.5140 H     1 <1>   0.1500 
 35 H        2.8580    -1.2600    -2.3150 H     1 <1>   0.1500 
 36 H       -3.7110    -2.6650     0.2010 H     1 <1>   0.4500 
 37 H        4.4930    -0.6870     2.2920 H     1 <1>   0.1500 
 38 H        4.7330    -2.5960    -1.5030 H     1 <1>   0.1500 
 39 H       -4.8540    -0.7400    -1.0080 H     1 <1>   0.0800 
 40 H       -3.6030    -0.7210     2.4030 H     1 <1>   0.0800 
 41 H       -2.7290    -2.2380     2.3180 H     1 <1>   0.0800 
 42 H       -4.4740    -2.2360     2.4000 H     1 <1>   0.0800 
 43 H        5.5490    -2.3210     0.7950 H     1 <1>   0.1500 
 44 H       -5.0410     0.7590     0.9750 H     1 <1>   0.0800 
 45 H       -5.9220    -0.4890     1.8190 H     1 <1>   0.0800 
 46 H       -6.1570    -2.8220     0.7390 H     1 <1>   0.0800 
 47 H       -5.5050    -3.0950    -0.8620 H     1 <1>   0.0800 
 48 H       -6.7950     0.8590    -0.7350 H     1 <1>   0.0800 
 49 H       -7.4720     1.1010     0.8480 H     1 <1>   0.0800 
 50 H       -7.9550    -2.7610    -0.8980 H     1 <1>   0.0800 
 51 H       -7.1180    -1.5670    -1.8420 H     1 <1>   0.0800 
 52 H       -8.8320    -0.4620    -0.5250 H     1 <1>   0.0800 
 53 H       -8.2570    -1.2000     0.9370 H     1 <1>   0.0800 
@<TRIPOS>BOND
  1   1   2  1   
  2   1   3  1   
  3   1   4  1   
  4   1  22  1   
  5   2   5  1   
  6   2  23  1   
  7   2  24  1   
  8   3   6  1   
  9   3  25  1   
 10   3  26  1   
 11   4   7  1   
 12   4  27  1   
 13   4  28  1   
 14   5   8  1   
 15   5  29  1   
 16   5  30  1   
 17   6   8  1   
 18   6  31  1   
 19   6  32  1   
 20   7   9  ar  
 21   7  10  ar  
 22   8  11  1   
 23   8  33  1   
 24   9  12  ar  
 25   9  34  1   
 26  10  13  ar  
 27  10  35  1   
 28  11  14  1   
 29  11  15  1   
 30  11  36  1   
 31  12  16  ar  
 32  12  37  1   
 33  13  16  ar  
 34  13  38  1   
 35  14  17  1   
 36  14  18  1   
 37  14  39  1   
 38  15  40  1   
 39  15  41  1   
 40  15  42  1   
 41  16  43  1   
 42  17  19  1   
 43  17  44  1   
 44  17  45  1   
 45  18  20  1   
 46  18  46  1   
 47  18  47  1   
 48  19  21  1   
 49  19  48  1   
 50  19  49  1   
 51  20  21  1   
 52  20  50  1   
 53  20  51  1   
 54  21  52  1   
 55  21  53  1   
@<TRIPOS>SUBSTRUCTURE
  1 ****   5 GROUP 4 **** **** 0

# MOE 2024.06 (io_trps.svl 2023.06)
