@<TRIPOS>MOLECULE
NONAME
44 45 1 0 0 
SMALL
USER_CHARGES


@<TRIPOS>ATOM
  1 S       -0.2450     0.2260     0.0700 S.o2  1 <1>   1.4470 
  2 O       -0.4750     0.8280    -1.2260 O.2   1 <1>  -0.6500 
  3 O       -0.4390     0.9990     1.2750 O.2   1 <1>  -0.6500 
  4 N       -1.4170    -0.9620     0.2500 N.am  1 <1>  -0.9140 
  5 C        1.3210    -0.6860     0.0880 C.ar  1 <1>  -0.0090 
  6 C       -2.7050    -0.5720    -0.2880 C.3   1 <1>   0.1960 
  7 C        2.5230     0.0010     0.2310 C.ar  1 <1>   0.0820 
  8 C        1.3700    -2.0690    -0.0580 C.ar  1 <1>  -0.1500 
  9 C       -3.7310    -1.6370     0.0870 C.3   1 <1>  -0.1600 
 10 O        2.4550     1.3520     0.3480 O.3   1 <1>  -0.3620 
 11 C        3.7350    -0.6880     0.2450 C.ar  1 <1>  -0.1500 
 12 C        2.5670    -2.7620    -0.0450 C.ar  1 <1>   0.0820 
 13 C       -5.1110    -1.3090    -0.4930 C.3   1 <1>  -0.0170 
 14 C        3.6040     2.1550     0.5030 C.3   1 <1>   0.0400 
 15 C        3.7590    -2.0630     0.1100 C.ar  1 <1>  -0.1500 
 16 O        2.4930    -4.1090    -0.1890 O.3   1 <1>  -0.3630 
 17 C       -6.1170    -2.3720    -0.0880 C.ar  1 <1>  -0.1430 
 18 C        3.6560    -4.9070    -0.2200 C.3   1 <1>   0.0400 
 19 C       -6.2740    -3.5150    -0.8570 C.ar  1 <1>  -0.1500 
 20 C       -6.8820    -2.2140     1.0580 C.ar  1 <1>  -0.1500 
 21 C       -7.1860    -4.4880    -0.4860 C.ar  1 <1>  -0.1500 
 22 C       -7.7940    -3.1860     1.4300 C.ar  1 <1>  -0.1500 
 23 C       -7.9460    -4.3240     0.6580 C.ar  1 <1>  -0.1500 
 24 H       -1.5230    -1.0120     1.2610 H     1 <1>   0.4200 
 25 H       -2.6370    -0.4900    -1.3620 H     1 <1>   0.0800 
 26 H       -2.9980     0.3860     0.1130 H     1 <1>   0.0800 
 27 H        0.4640    -2.6340    -0.1890 H     1 <1>   0.1500 
 28 H       -3.8090    -1.7040     1.1580 H     1 <1>   0.0800 
 29 H       -3.4090    -2.5910    -0.2940 H     1 <1>   0.0800 
 30 H        4.6690    -0.1720     0.3590 H     1 <1>   0.1500 
 31 H       -5.0550    -1.2590    -1.5670 H     1 <1>   0.0800 
 32 H       -5.4410    -0.3480    -0.1370 H     1 <1>   0.0800 
 33 H        3.2850     3.1790     0.5760 H     1 <1>   0.0800 
 34 H        4.2360     2.0310    -0.3580 H     1 <1>   0.0800 
 35 H        4.1130     1.8670     1.4050 H     1 <1>   0.0800 
 36 H        4.7050    -2.5690     0.1260 H     1 <1>   0.1500 
 37 H        3.3550    -5.9300    -0.3530 H     1 <1>   0.0800 
 38 H        4.1800    -4.7980     0.7130 H     1 <1>   0.0800 
 39 H        4.2700    -4.5970    -1.0470 H     1 <1>   0.0800 
 40 H       -5.6860    -3.6530    -1.7470 H     1 <1>   0.1500 
 41 H       -6.7710    -1.3340     1.6660 H     1 <1>   0.1500 
 42 H       -7.3030    -5.3730    -1.0880 H     1 <1>   0.1500 
 43 H       -8.3850    -3.0580     2.3200 H     1 <1>   0.1500 
 44 H       -8.6550    -5.0810     0.9460 H     1 <1>   0.1500 
@<TRIPOS>BOND
  1   1   2  2   
  2   1   3  2   
  3   1   4  am  
  4   1   5  1   
  5   4   6  1   
  6   4  24  1   
  7   5   7  ar  
  8   5   8  ar  
  9   6   9  1   
 10   6  25  1   
 11   6  26  1   
 12   7  10  1   
 13   7  11  ar  
 14   8  12  ar  
 15   8  27  1   
 16   9  13  1   
 17   9  28  1   
 18   9  29  1   
 19  10  14  1   
 20  11  15  ar  
 21  11  30  1   
 22  12  15  ar  
 23  12  16  1   
 24  13  17  1   
 25  13  31  1   
 26  13  32  1   
 27  14  33  1   
 28  14  34  1   
 29  14  35  1   
 30  15  36  1   
 31  16  18  1   
 32  17  19  ar  
 33  17  20  ar  
 34  18  37  1   
 35  18  38  1   
 36  18  39  1   
 37  19  21  ar  
 38  19  40  1   
 39  20  22  ar  
 40  20  41  1   
 41  21  23  ar  
 42  21  42  1   
 43  22  23  ar  
 44  22  43  1   
 45  23  44  1   
@<TRIPOS>SUBSTRUCTURE
  1 ****   4 GROUP 4 **** **** 0

# MOE 2024.06 (io_trps.svl 2023.06)
