@<TRIPOS>MOLECULE
NONAME
42 44 1 0 0 
SMALL
USER_CHARGES


@<TRIPOS>ATOM
  1 N        1.5730     0.3600    -1.4640 N.ar  1 <1>  -0.6200 
  2 C        1.7260     0.7350    -0.2010 C.ar  1 <1>   0.4100 
  3 C        0.4950     0.8300    -2.0720 C.ar  1 <1>   0.1600 
  4 N        2.8450     0.2560     0.4430 N.pl3 1 <1>  -0.8380 
  5 C        0.8360     1.5640     0.4750 C.ar  1 <1>  -0.1500 
  6 C       -0.4460     1.6590    -1.4850 C.ar  1 <1>  -0.1500 
  7 C        4.1230     0.8470    -0.0550 C.3   1 <1>   0.2090 
  8 C        2.8820    -1.2320     0.5700 C.3   1 <1>   0.2090 
  9 C       -0.2790     2.0440    -0.1700 C.ar  1 <1>  -0.1500 
 10 C        5.3320     0.3630     0.7710 C.3   1 <1>   0.3430 
 11 C        4.0980    -1.7010     1.3950 C.3   1 <1>   0.3430 
 12 N        5.3950    -1.1420     0.8730 N.4   1 <1>  -0.9590 
 13 C        6.5630    -1.5930     1.6750 C.3   1 <1>   0.4860 
 14 C        7.8290    -1.1150     0.9950 C.ar  1 <1>  -0.1430 
 15 C        8.2570    -1.7070    -0.1860 C.ar  1 <1>  -0.1500 
 16 C        8.5630    -0.0740     1.5430 C.ar  1 <1>  -0.1500 
 17 C        9.4010    -1.2560    -0.8230 C.ar  1 <1>  -0.1430 
 18 C        9.7060     0.3780     0.9090 C.ar  1 <1>  -0.1500 
 19 C       10.1210    -0.2100    -0.2720 C.ar  1 <1>  -0.1500 
 20 C        9.8730    -1.8990    -2.1150 C.3   1 <1>  -0.0970 
 21 H        0.3510     0.5390    -3.0980 H     1 <1>   0.1500 
 22 H        1.0350     1.8180     1.4980 H     1 <1>   0.1500 
 23 H       -1.2960     1.9970    -2.0490 H     1 <1>   0.1500 
 24 H        4.0610     1.9210     0.0020 H     1 <1>   0.0800 
 25 H        4.2630     0.5840    -1.0900 H     1 <1>   0.0800 
 26 H        2.9160    -1.6780    -0.4100 H     1 <1>   0.0800 
 27 H        1.9770    -1.5660     1.0480 H     1 <1>   0.0800 
 28 H       -0.9880     2.6870     0.3230 H     1 <1>   0.1500 
 29 H        5.2570     0.7900     1.7570 H     1 <1>   0.0800 
 30 H        6.2350     0.7390     0.3160 H     1 <1>   0.0800 
 31 H        4.1300    -2.7780     1.3850 H     1 <1>   0.0800 
 32 H        3.9510    -1.3820     2.4140 H     1 <1>   0.0800 
 33 H        5.5370    -1.4880    -0.0840 H     1 <1>   0.4500 
 34 H        6.5790    -2.6690     1.7380 H     1 <1>   0.0800 
 35 H        6.5080    -1.1920     2.6740 H     1 <1>   0.0800 
 36 H        7.7090    -2.5250    -0.6200 H     1 <1>   0.1500 
 37 H        8.2630     0.3960     2.4650 H     1 <1>   0.1500 
 38 H       10.2800     1.1850     1.3330 H     1 <1>   0.1500 
 39 H       11.0130     0.1480    -0.7580 H     1 <1>   0.1500 
 40 H        9.4930    -2.9010    -2.2080 H     1 <1>   0.0800 
 41 H       10.9480    -1.9460    -2.1370 H     1 <1>   0.0800 
 42 H        9.5370    -1.3200    -2.9570 H     1 <1>   0.0800 
@<TRIPOS>BOND
  1   1   2  ar  
  2   1   3  ar  
  3   2   4  1   
  4   2   5  ar  
  5   3   6  ar  
  6   3  21  1   
  7   4   7  1   
  8   4   8  1   
  9   5   9  ar  
 10   5  22  1   
 11   6   9  ar  
 12   6  23  1   
 13   7  10  1   
 14   7  24  1   
 15   7  25  1   
 16   8  11  1   
 17   8  26  1   
 18   8  27  1   
 19   9  28  1   
 20  10  12  1   
 21  10  29  1   
 22  10  30  1   
 23  11  12  1   
 24  11  31  1   
 25  11  32  1   
 26  12  13  1   
 27  12  33  1   
 28  13  14  1   
 29  13  34  1   
 30  13  35  1   
 31  14  15  ar  
 32  14  16  ar  
 33  15  17  ar  
 34  15  36  1   
 35  16  18  ar  
 36  16  37  1   
 37  17  19  ar  
 38  17  20  1   
 39  18  19  ar  
 40  18  38  1   
 41  19  39  1   
 42  20  40  1   
 43  20  41  1   
 44  20  42  1   
@<TRIPOS>SUBSTRUCTURE
  1 ****  10 GROUP 4 **** **** 0

# MOE 2024.06 (io_trps.svl 2023.06)
