@<TRIPOS>MOLECULE
NONAME
36 37 1 0 0 
SMALL
USER_CHARGES


@<TRIPOS>ATOM
  1 F        0.7430     0.6570     1.5350 F     1 <1>  -0.1900 
  2 C        1.7680     1.1930     0.9220 C.ar  1 <1>   0.1900 
  3 C        2.6450     0.3680     0.2440 C.ar  1 <1>  -0.1500 
  4 C        1.9350     2.5630     0.9750 C.ar  1 <1>  -0.1500 
  5 C        3.7290     0.9410    -0.3990 C.ar  1 <1>  -0.1500 
  6 C        3.0230     3.1220     0.3270 C.ar  1 <1>  -0.1500 
  7 C        3.9340     2.3170    -0.3560 C.ar  1 <1>   0.1000 
  8 N        5.0340     2.8690    -0.9980 N.pl3 1 <1>  -0.8690 
  9 C        5.9880     3.6500    -0.2040 C.3   1 <1>   0.2890 
 10 C        6.1570     5.0130    -0.8660 C.3   1 <1>  -0.1600 
 11 C        7.3170     2.9040    -0.1470 C.3   1 <1>  -0.1600 
 12 C        7.2280     5.8280    -0.1510 C.3   1 <1>   0.3430 
 13 C        8.3710     3.7490     0.5620 C.3   1 <1>   0.3430 
 14 N        8.5150     5.0690    -0.1270 N.4   1 <1>  -0.9590 
 15 C        9.5910     5.9010     0.4750 C.3   1 <1>   0.3430 
 16 C       10.9540     5.3230     0.1130 C.3   1 <1>  -0.2400 
 17 H        2.4780    -0.6940     0.2210 H     1 <1>   0.1500 
 18 H        1.2250     3.1710     1.5060 H     1 <1>   0.1500 
 19 H        4.4200     0.3160    -0.9350 H     1 <1>   0.1500 
 20 H        3.1630     4.1860     0.3400 H     1 <1>   0.1500 
 21 H        5.4920     2.2200    -1.6470 H     1 <1>   0.4000 
 22 H        5.6080     3.7800     0.7970 H     1 <1>   0.0800 
 23 H        5.2220     5.5430    -0.8200 H     1 <1>   0.0800 
 24 H        6.4220     4.8960    -1.9020 H     1 <1>   0.0800 
 25 H        7.6590     2.6640    -1.1380 H     1 <1>   0.0800 
 26 H        7.1820     1.9850     0.3970 H     1 <1>   0.0800 
 27 H        6.9080     6.0360     0.8580 H     1 <1>   0.0800 
 28 H        7.3630     6.7680    -0.6630 H     1 <1>   0.0800 
 29 H        9.3110     3.2210     0.5540 H     1 <1>   0.0800 
 30 H        8.0790     3.9030     1.5890 H     1 <1>   0.0800 
 31 H        8.7820     4.8860    -1.1040 H     1 <1>   0.4500 
 32 H        9.4770     5.9440     1.5470 H     1 <1>   0.0800 
 33 H        9.5300     6.9070     0.0900 H     1 <1>   0.0800 
 34 H       11.1050     4.3560     0.5570 H     1 <1>   0.0800 
 35 H       11.7220     5.9750     0.4900 H     1 <1>   0.0800 
 36 H       11.0720     5.2570    -0.9540 H     1 <1>   0.0800 
@<TRIPOS>BOND
  1   1   2  1   
  2   2   3  ar  
  3   2   4  ar  
  4   3   5  ar  
  5   3  17  1   
  6   4   6  ar  
  7   4  18  1   
  8   5   7  ar  
  9   5  19  1   
 10   6   7  ar  
 11   6  20  1   
 12   7   8  1   
 13   8   9  1   
 14   8  21  1   
 15   9  10  1   
 16   9  11  1   
 17   9  22  1   
 18  10  12  1   
 19  10  23  1   
 20  10  24  1   
 21  11  13  1   
 22  11  25  1   
 23  11  26  1   
 24  12  14  1   
 25  12  27  1   
 26  12  28  1   
 27  13  14  1   
 28  13  29  1   
 29  13  30  1   
 30  14  15  1   
 31  14  31  1   
 32  15  16  1   
 33  15  32  1   
 34  15  33  1   
 35  16  34  1   
 36  16  35  1   
 37  16  36  1   
@<TRIPOS>SUBSTRUCTURE
  1 ****   9 GROUP 4 **** **** 0

# MOE 2024.06 (io_trps.svl 2023.06)
