@<TRIPOS>MOLECULE
NONAME
44 46 1 0 0 
SMALL
USER_CHARGES


@<TRIPOS>ATOM
  1 CL       6.5510     0.3310     4.4710 Cl    1 <1>  -0.1770 
  2 C        6.4140    -0.0470     2.7730 C.ar  1 <1>   0.1770 
  3 C        5.8280    -1.2380     2.3890 C.ar  1 <1>  -0.1500 
  4 C        6.8930     0.8510     1.8380 C.ar  1 <1>  -0.1500 
  5 C        5.7220    -1.5380     1.0410 C.ar  1 <1>  -0.1500 
  6 C        6.7840     0.5470     0.4920 C.ar  1 <1>  -0.1500 
  7 C        6.1990    -0.6470     0.0890 C.ar  1 <1>  -0.1430 
  8 C        6.1080    -0.9720    -1.3920 C.3   1 <1>   0.2840 
  9 N        7.4090    -1.5170    -1.8020 N.am  1 <1>  -0.7300 
 10 C        8.3570    -0.8390    -2.4920 C.2   1 <1>   0.5690 
 11 O        8.1230     0.2010    -3.0620 O.2   1 <1>  -0.5700 
 12 C        9.7770    -1.4140    -2.4960 C.3   1 <1>   0.1710 
 13 N       10.1010    -2.2270    -1.2850 N.3   1 <1>  -0.8100 
 14 C       11.3790    -2.9540    -1.4670 C.3   1 <1>   0.1100 
 15 C       10.1860    -1.3650    -0.0740 C.3   1 <1>   0.1100 
 16 C       11.7660    -3.7860    -0.2270 C.3   1 <1>   0.2090 
 17 C       10.5290    -2.1740     1.1890 C.3   1 <1>   0.2090 
 18 N       11.8080    -2.9210     0.9900 N.pl3 1 <1>  -0.8380 
 19 C       13.0010    -2.5130     1.5470 C.ar  1 <1>   0.7200 
 20 N       14.0410    -3.3370     1.4200 N.ar  1 <1>  -0.6200 
 21 N       13.0160    -1.3290     2.1600 N.ar  1 <1>  -0.6200 
 22 C       15.1680    -2.9420     1.9590 C.ar  1 <1>   0.1600 
 23 C       14.1560    -0.9590     2.6880 C.ar  1 <1>   0.1600 
 24 C       15.2820    -1.7420     2.6160 C.ar  1 <1>  -0.1500 
 25 H        5.4640    -1.9190     3.1380 H     1 <1>   0.1500 
 26 H        7.3460     1.7710     2.1620 H     1 <1>   0.1500 
 27 H        5.2710    -2.4670     0.7380 H     1 <1>   0.1500 
 28 H        7.1610     1.2360    -0.2460 H     1 <1>   0.1500 
 29 H        5.8810    -0.0830    -1.9560 H     1 <1>   0.0800 
 30 H        5.3380    -1.7000    -1.5780 H     1 <1>   0.0800 
 31 H        7.7630    -2.3000    -1.2440 H     1 <1>   0.3700 
 32 H       10.4770    -0.6020    -2.5890 H     1 <1>   0.0800 
 33 H        9.8660    -2.0310    -3.3710 H     1 <1>   0.0800 
 34 H       12.1730    -2.2540    -1.6660 H     1 <1>   0.0800 
 35 H       11.2960    -3.6150    -2.3110 H     1 <1>   0.0800 
 36 H        9.2470    -0.8670     0.0900 H     1 <1>   0.0800 
 37 H       10.9420    -0.6100    -0.2100 H     1 <1>   0.0800 
 38 H       12.7150    -4.2600    -0.4040 H     1 <1>   0.0800 
 39 H       11.0370    -4.5640    -0.0800 H     1 <1>   0.0800 
 40 H        9.7380    -2.8760     1.3840 H     1 <1>   0.0800 
 41 H       10.5890    -1.5150     2.0370 H     1 <1>   0.0800 
 42 H       16.0220    -3.5930     1.8760 H     1 <1>   0.1500 
 43 H       14.1930    -0.0080     3.1920 H     1 <1>   0.1500 
 44 H       16.2100    -1.4300     3.0540 H     1 <1>   0.1500 
@<TRIPOS>BOND
  1   1   2  1   
  2   2   3  ar  
  3   2   4  ar  
  4   3   5  ar  
  5   3  25  1   
  6   4   6  ar  
  7   4  26  1   
  8   5   7  ar  
  9   5  27  1   
 10   6   7  ar  
 11   6  28  1   
 12   7   8  1   
 13   8   9  1   
 14   8  29  1   
 15   8  30  1   
 16   9  10  am  
 17   9  31  1   
 18  10  11  2   
 19  10  12  1   
 20  12  13  1   
 21  12  32  1   
 22  12  33  1   
 23  13  14  1   
 24  13  15  1   
 25  14  16  1   
 26  14  34  1   
 27  14  35  1   
 28  15  17  1   
 29  15  36  1   
 30  15  37  1   
 31  16  18  1   
 32  16  38  1   
 33  16  39  1   
 34  17  18  1   
 35  17  40  1   
 36  17  41  1   
 37  18  19  1   
 38  19  20  ar  
 39  19  21  ar  
 40  20  22  ar  
 41  21  23  ar  
 42  22  24  ar  
 43  22  42  1   
 44  23  24  ar  
 45  23  43  1   
 46  24  44  1   
@<TRIPOS>SUBSTRUCTURE
  1 ****  15 GROUP 4 **** **** 0

# MOE 2024.06 (io_trps.svl 2023.06)
