@<TRIPOS>MOLECULE
NONAME
36 37 1 0 0 
SMALL
USER_CHARGES


@<TRIPOS>ATOM
  1 BR      -0.0180     2.3030    -2.1230 Br    1 <1>  -0.1110 
  2 C        1.6390     2.1100    -1.1640 C.ar  1 <1>   0.1110 
  3 C        1.7860     2.5930     0.1290 C.ar  1 <1>  -0.0090 
  4 C        2.6620     1.4710    -1.8390 C.ar  1 <1>  -0.1500 
  5 S        0.4450     3.4380     1.0060 S.o2  1 <1>   1.4470 
  6 C        3.0270     2.4050     0.7270 C.ar  1 <1>  -0.1500 
  7 C        3.8810     1.3040    -1.2120 C.ar  1 <1>  -0.1500 
  8 O       -0.7380     2.6070     0.9970 O.2   1 <1>  -0.6500 
  9 O        0.9340     3.9250     2.2790 O.2   1 <1>  -0.6500 
 10 N        0.1500     4.8080     0.0510 N.am  1 <1>  -0.8490 
 11 C        4.0970     1.7690     0.0890 C.ar  1 <1>   0.0860 
 12 C        1.1750     5.8420     0.2260 C.3   1 <1>   0.1960 
 13 C       -1.1930     5.3490     0.2770 C.3   1 <1>   0.1960 
 14 C        5.3750     1.6060     0.7590 C.2   1 <1>   0.6340 
 15 C        0.9670     6.9680    -0.7920 C.3   1 <1>  -0.1600 
 16 C       -1.4890     6.4700    -0.7250 C.3   1 <1>  -0.1600 
 17 O        5.6010     2.0420     1.8690 O.2   1 <1>  -0.5700 
 18 O        6.3450     0.9460     0.1170 O.3   1 <1>  -0.4300 
 19 C       -0.4330     7.5800    -0.6620 C.3   1 <1>  -0.1600 
 20 C        7.6180     0.7420     0.6970 C.3   1 <1>   0.0400 
 21 H        2.5020     1.1120    -2.8410 H     1 <1>   0.1500 
 22 H        3.1770     2.7670     1.7330 H     1 <1>   0.1500 
 23 H        4.6770     0.8060    -1.7400 H     1 <1>   0.1500 
 24 H        2.1530     5.4160     0.0800 H     1 <1>   0.0800 
 25 H        1.1280     6.2430     1.2260 H     1 <1>   0.0800 
 26 H       -1.2740     5.7180     1.2870 H     1 <1>   0.0800 
 27 H       -1.9280     4.5710     0.1430 H     1 <1>   0.0800 
 28 H        1.1000     6.5690    -1.7820 H     1 <1>   0.0800 
 29 H        1.7100     7.7300    -0.6390 H     1 <1>   0.0800 
 30 H       -2.4610     6.8820    -0.5210 H     1 <1>   0.0800 
 31 H       -1.5130     6.0480    -1.7140 H     1 <1>   0.0800 
 32 H       -0.5990     8.2930    -1.4510 H     1 <1>   0.0800 
 33 H       -0.5120     8.0960     0.2800 H     1 <1>   0.0800 
 34 H        8.2270     0.1930     0.0020 H     1 <1>   0.0800 
 35 H        7.4990     0.1840     1.6100 H     1 <1>   0.0800 
 36 H        8.0640     1.7000     0.9040 H     1 <1>   0.0800 
@<TRIPOS>BOND
  1   1   2  1   
  2   2   3  ar  
  3   2   4  ar  
  4   3   5  1   
  5   3   6  ar  
  6   4   7  ar  
  7   4  21  1   
  8   5   8  2   
  9   5   9  2   
 10   5  10  am  
 11   6  11  ar  
 12   6  22  1   
 13   7  11  ar  
 14   7  23  1   
 15  10  12  1   
 16  10  13  1   
 17  11  14  1   
 18  12  15  1   
 19  12  24  1   
 20  12  25  1   
 21  13  16  1   
 22  13  26  1   
 23  13  27  1   
 24  14  17  2   
 25  14  18  1   
 26  15  19  1   
 27  15  28  1   
 28  15  29  1   
 29  16  19  1   
 30  16  30  1   
 31  16  31  1   
 32  18  20  1   
 33  19  32  1   
 34  19  33  1   
 35  20  34  1   
 36  20  35  1   
 37  20  36  1   
@<TRIPOS>SUBSTRUCTURE
  1 ****   3 GROUP 4 **** **** 0

# MOE 2024.06 (io_trps.svl 2023.06)
