@<TRIPOS>MOLECULE
NONAME
39 41 1 0 0 
SMALL
USER_CHARGES


@<TRIPOS>ATOM
  1 F        0.2700    -0.5650     1.4870 F     1 <1>  -0.1900 
  2 C        1.3130    -1.0810     0.8870 C.ar  1 <1>   0.1900 
  3 C        1.1790    -2.3060     0.1880 C.ar  1 <1>   0.1000 
  4 C        2.4950    -0.4030     0.9800 C.ar  1 <1>  -0.1500 
  5 N       -0.0120    -3.0300     0.0630 N.pl3 1 <1>  -0.8380 
  6 C        2.3190    -2.8020    -0.4030 C.ar  1 <1>  -0.1500 
  7 C        3.6490    -0.9170     0.3740 C.ar  1 <1>   0.3100 
  8 C       -0.1140    -4.3930     0.6710 C.3   1 <1>   0.2090 
  9 C       -1.3360    -2.3510    -0.1000 C.3   1 <1>   0.2090 
 10 C        3.5550    -2.1480    -0.3300 C.ar  1 <1>   0.3100 
 11 N        4.8130    -0.2290     0.4800 N.ar  1 <1>  -0.6200 
 12 C       -1.0800    -5.2810    -0.1310 C.3   1 <1>   0.1400 
 13 C       -2.3100    -3.2340    -0.9010 C.3   1 <1>   0.1400 
 14 N        4.6340    -2.7110    -0.9380 N.ar  1 <1>  -0.6200 
 15 C        5.8140    -0.8010    -0.1160 C.ar  1 <1>   0.1600 
 16 N       -2.4030    -4.6090    -0.3160 N.am  1 <1>  -0.6600 
 17 C        5.7260    -2.0220    -0.8130 C.ar  1 <1>   0.1600 
 18 C       -3.5690    -5.1720     0.1220 C.2   1 <1>   0.7800 
 19 O       -3.6090    -6.2660     0.6530 O.2   1 <1>  -0.5700 
 20 O       -4.6950    -4.4760    -0.0420 O.3   1 <1>  -0.4300 
 21 C       -5.9330    -4.9940     0.3860 C.3   1 <1>   0.1200 
 22 C       -7.0130    -3.9660     0.0620 C.3   1 <1>  -0.2400 
 23 H        2.5650     0.5240     1.5170 H     1 <1>   0.1500 
 24 H        2.2760    -3.7210    -0.9550 H     1 <1>   0.1500 
 25 H       -0.4740    -4.3040     1.6820 H     1 <1>   0.0800 
 26 H        0.8560    -4.8560     0.7040 H     1 <1>   0.0800 
 27 H       -1.2010    -1.4140    -0.6110 H     1 <1>   0.0800 
 28 H       -1.7570    -2.1500     0.8690 H     1 <1>   0.0800 
 29 H       -1.2010    -6.2210     0.3770 H     1 <1>   0.0800 
 30 H       -0.6510    -5.4810    -1.0970 H     1 <1>   0.0800 
 31 H       -1.9580    -3.3100    -1.9140 H     1 <1>   0.0800 
 32 H       -3.2750    -2.7600    -0.9230 H     1 <1>   0.0800 
 33 H        6.7740    -0.3170    -0.0780 H     1 <1>   0.1500 
 34 H        6.6240    -2.4020    -1.2680 H     1 <1>   0.1500 
 35 H       -5.8780    -5.1770     1.4460 H     1 <1>   0.0800 
 36 H       -6.1120    -5.9210    -0.1330 H     1 <1>   0.0800 
 37 H       -6.8140    -3.0450     0.5790 H     1 <1>   0.0800 
 38 H       -7.9710    -4.3370     0.3780 H     1 <1>   0.0800 
 39 H       -7.0470    -3.7870    -0.9970 H     1 <1>   0.0800 
@<TRIPOS>BOND
  1   1   2  1   
  2   2   3  ar  
  3   2   4  ar  
  4   3   5  1   
  5   3   6  ar  
  6   4   7  ar  
  7   4  23  1   
  8   5   8  1   
  9   5   9  1   
 10   6  10  ar  
 11   6  24  1   
 12   7  10  ar  
 13   7  11  ar  
 14   8  12  1   
 15   8  25  1   
 16   8  26  1   
 17   9  13  1   
 18   9  27  1   
 19   9  28  1   
 20  10  14  ar  
 21  11  15  ar  
 22  12  16  1   
 23  12  29  1   
 24  12  30  1   
 25  13  16  1   
 26  13  31  1   
 27  13  32  1   
 28  14  17  ar  
 29  15  17  ar  
 30  15  33  1   
 31  16  18  am  
 32  17  34  1   
 33  18  19  2   
 34  18  20  1   
 35  20  21  1   
 36  21  22  1   
 37  21  35  1   
 38  21  36  1   
 39  22  37  1   
 40  22  38  1   
 41  22  39  1   
@<TRIPOS>SUBSTRUCTURE
  1 ****   5 GROUP 4 **** **** 0

# MOE 2024.06 (io_trps.svl 2023.06)
