@<TRIPOS>MOLECULE
NONAME
46 47 1 0 0 
SMALL
USER_CHARGES


@<TRIPOS>ATOM
  1 CL       1.9830     1.1100     1.9820 Cl    1 <1>  -0.1770 
  2 C        0.8940     2.0810     1.0160 C.ar  1 <1>   0.1770 
  3 C        1.2280     2.3990    -0.2970 C.ar  1 <1>  -0.1440 
  4 C       -0.2800     2.5200     1.5960 C.ar  1 <1>  -0.1500 
  5 C        0.3490     3.1800    -1.0380 C.ar  1 <1>  -0.1500 
  6 C        2.5250     1.9010    -0.9190 C.3   1 <1>  -0.0160 
  7 C       -1.1350     3.2960     0.8380 C.ar  1 <1>   0.1770 
  8 C       -0.8320     3.6300    -0.4690 C.ar  1 <1>  -0.1500 
  9 C        3.7120     2.6480    -0.3020 C.3   1 <1>   0.3430 
 10 CL      -2.6230     3.8660     1.5450 Cl    1 <1>  -0.1770 
 11 N        5.0040     1.9930    -0.6700 N.4   1 <1>  -0.9060 
 12 C        6.1860     2.5660     0.0220 C.3   1 <1>   0.4230 
 13 C        6.5090     3.9620    -0.5190 C.3   1 <1>  -0.1600 
 14 C        7.3800     1.6320    -0.1810 C.3   1 <1>  -0.1600 
 15 C        7.7830     4.5180     0.1220 C.3   1 <1>   0.3430 
 16 C        8.6440     2.2070     0.4610 C.3   1 <1>   0.3430 
 17 N        8.9190     3.5720    -0.0810 N.4   1 <1>  -0.9590 
 18 C       10.1630     4.1520     0.5160 C.3   1 <1>   0.3430 
 19 C       11.4030     3.4370    -0.0250 C.3   1 <1>  -0.1600 
 20 C       12.6820     4.1060     0.4880 C.3   1 <1>  -0.2400 
 21 H       -0.5280     2.2660     2.6100 H     1 <1>   0.1500 
 22 H        0.5650     3.4450    -2.0600 H     1 <1>   0.1500 
 23 H        2.5050     2.0590    -1.9840 H     1 <1>   0.0800 
 24 H        2.6050     0.8440    -0.7370 H     1 <1>   0.0800 
 25 H       -1.5210     4.2350    -1.0330 H     1 <1>   0.1500 
 26 H        3.6020     2.6460     0.7700 H     1 <1>   0.0800 
 27 H        3.6960     3.6730    -0.6370 H     1 <1>   0.0800 
 28 H        5.1270     2.0230    -1.6900 H     1 <1>   0.4500 
 29 H        4.9240     0.9970    -0.4210 H     1 <1>   0.4500 
 30 H        5.9790     2.6350     1.0800 H     1 <1>   0.0800 
 31 H        5.7070     4.6420    -0.2940 H     1 <1>   0.0800 
 32 H        6.6400     3.9380    -1.5870 H     1 <1>   0.0800 
 33 H        7.5660     1.4680    -1.2280 H     1 <1>   0.0800 
 34 H        7.1780     0.6790     0.2780 H     1 <1>   0.0800 
 35 H        7.6230     4.6710     1.1780 H     1 <1>   0.0800 
 36 H        8.0210     5.4750    -0.3190 H     1 <1>   0.0800 
 37 H        9.4770     1.5520     0.2540 H     1 <1>   0.0800 
 38 H        8.5210     2.2580     1.5310 H     1 <1>   0.0800 
 39 H        9.1090     3.4970    -1.0920 H     1 <1>   0.4500 
 40 H       10.1360     4.0770     1.5910 H     1 <1>   0.0800 
 41 H       10.2360     5.1970     0.2570 H     1 <1>   0.0800 
 42 H       11.4100     3.4740    -1.1010 H     1 <1>   0.0800 
 43 H       11.4170     2.4080     0.2880 H     1 <1>   0.0800 
 44 H       12.7330     5.1340     0.1730 H     1 <1>   0.0800 
 45 H       13.5470     3.5950     0.0990 H     1 <1>   0.0800 
 46 H       12.7310     4.0710     1.5640 H     1 <1>   0.0800 
@<TRIPOS>BOND
  1   1   2  1   
  2   2   3  ar  
  3   2   4  ar  
  4   3   5  ar  
  5   3   6  1   
  6   4   7  ar  
  7   4  21  1   
  8   5   8  ar  
  9   5  22  1   
 10   6   9  1   
 11   6  23  1   
 12   6  24  1   
 13   7   8  ar  
 14   7  10  1   
 15   8  25  1   
 16   9  11  1   
 17   9  26  1   
 18   9  27  1   
 19  11  12  1   
 20  11  28  1   
 21  11  29  1   
 22  12  13  1   
 23  12  14  1   
 24  12  30  1   
 25  13  15  1   
 26  13  31  1   
 27  13  32  1   
 28  14  16  1   
 29  14  33  1   
 30  14  34  1   
 31  15  17  1   
 32  15  35  1   
 33  15  36  1   
 34  16  17  1   
 35  16  37  1   
 36  16  38  1   
 37  17  18  1   
 38  17  39  1   
 39  18  19  1   
 40  18  40  1   
 41  18  41  1   
 42  19  20  1   
 43  19  42  1   
 44  19  43  1   
 45  20  44  1   
 46  20  45  1   
 47  20  46  1   
@<TRIPOS>SUBSTRUCTURE
  1 ****   9 GROUP 4 **** **** 0

# MOE 2024.06 (io_trps.svl 2023.06)
