@<TRIPOS>MOLECULE
NONAME
41 41 1 0 0 
SMALL
USER_CHARGES


@<TRIPOS>ATOM
  1 O       -0.2120     6.8000     0.1690 O.3   1 <1>  -0.3630 
  2 C        1.0090     6.2900     0.4710 C.ar  1 <1>   0.0830 
  3 C       -1.3870     6.0640     0.3900 C.3   1 <1>   0.1200 
  4 C        2.1030     7.1010     0.2130 C.ar  1 <1>  -0.1500 
  5 C        1.2080     5.0240     1.0140 C.ar  1 <1>  -0.1500 
  6 C       -2.5560     6.9410    -0.0610 C.3   1 <1>  -0.1600 
  7 C        3.3930     6.6730     0.4860 C.ar  1 <1>  -0.1440 
  8 C        2.4920     4.5890     1.2900 C.ar  1 <1>  -0.1500 
  9 C       -3.8870     6.2270     0.1390 C.3   1 <1>   0.3430 
 10 C        3.5770     5.4080     1.0280 C.ar  1 <1>  -0.1500 
 11 C        4.5790     7.5890     0.1910 C.3   1 <1>   0.0640 
 12 N       -4.9820     7.1190    -0.3140 N.4   1 <1>  -0.9060 
 13 C        5.5130     6.9580    -0.8470 C.3   1 <1>  -0.2400 
 14 C        5.3430     7.9280     1.4750 C.3   1 <1>  -0.2400 
 15 C       -6.3260     6.4860    -0.1490 C.3   1 <1>   0.3430 
 16 C       -7.4570     7.4110    -0.6170 C.3   1 <1>   0.1200 
 17 O       -8.6480     6.7360    -0.4240 O.3   1 <1>  -0.6800 
 18 H       -1.4480     5.8370     1.4420 H     1 <1>   0.0800 
 19 H       -1.3280     5.1570    -0.1880 H     1 <1>   0.0800 
 20 H        1.9310     8.0750    -0.2060 H     1 <1>   0.1500 
 21 H        0.3900     4.3660     1.2290 H     1 <1>   0.1500 
 22 H       -2.4190     7.1740    -1.1030 H     1 <1>   0.0800 
 23 H       -2.5380     7.8490     0.5160 H     1 <1>   0.0800 
 24 H        2.6510     3.6110     1.7100 H     1 <1>   0.1500 
 25 H       -4.0160     5.9830     1.1820 H     1 <1>   0.0800 
 26 H       -3.8970     5.3100    -0.4310 H     1 <1>   0.0800 
 27 H        4.5680     5.0530     1.2480 H     1 <1>   0.1500 
 28 H        4.2070     8.5120    -0.2220 H     1 <1>   0.0800 
 29 H       -4.8300     7.3620    -1.3020 H     1 <1>   0.4500 
 30 H       -4.9420     7.9970     0.2210 H     1 <1>   0.4500 
 31 H        5.9530     6.0540    -0.4680 H     1 <1>   0.0800 
 32 H        6.3000     7.6430    -1.1050 H     1 <1>   0.0800 
 33 H        4.9590     6.7220    -1.7390 H     1 <1>   0.0800 
 34 H        5.7790     7.0450     1.9060 H     1 <1>   0.0800 
 35 H        4.6710     8.3630     2.1930 H     1 <1>   0.0800 
 36 H        6.1270     8.6330     1.2670 H     1 <1>   0.0800 
 37 H       -6.4890     6.2450     0.8890 H     1 <1>   0.0800 
 38 H       -6.3710     5.5740    -0.7210 H     1 <1>   0.0800 
 39 H       -7.3700     7.6370    -1.6670 H     1 <1>   0.0800 
 40 H       -7.4900     8.3160    -0.0360 H     1 <1>   0.0800 
 41 H       -9.4240     7.2700    -0.7040 H     1 <1>   0.4000 
@<TRIPOS>BOND
  1   1   2  1   
  2   1   3  1   
  3   2   4  ar  
  4   2   5  ar  
  5   3   6  1   
  6   3  18  1   
  7   3  19  1   
  8   4   7  ar  
  9   4  20  1   
 10   5   8  ar  
 11   5  21  1   
 12   6   9  1   
 13   6  22  1   
 14   6  23  1   
 15   7  10  ar  
 16   7  11  1   
 17   8  10  ar  
 18   8  24  1   
 19   9  12  1   
 20   9  25  1   
 21   9  26  1   
 22  10  27  1   
 23  11  13  1   
 24  11  14  1   
 25  11  28  1   
 26  12  15  1   
 27  12  29  1   
 28  12  30  1   
 29  13  31  1   
 30  13  32  1   
 31  13  33  1   
 32  14  34  1   
 33  14  35  1   
 34  14  36  1   
 35  15  16  1   
 36  15  37  1   
 37  15  38  1   
 38  16  17  1   
 39  16  39  1   
 40  16  40  1   
 41  17  41  1   
@<TRIPOS>SUBSTRUCTURE
  1 ****   1 GROUP 4 **** **** 0

# MOE 2024.06 (io_trps.svl 2023.06)
