@<TRIPOS>MOLECULE
NONAME
42 42 1 0 0 
SMALL
USER_CHARGES


@<TRIPOS>ATOM
  1 O       -1.9510     0.1370    -1.8410 O.2   1 <1>  -0.5700 
  2 C       -2.5870    -0.5720    -1.1060 C.2   1 <1>   0.4230 
  3 C       -3.9290    -0.2480    -0.6670 C.ar  1 <1>   0.0860 
  4 C       -1.9090    -1.8480    -0.6450 C.3   1 <1>  -0.1790 
  5 C       -4.7740    -1.1650    -0.0300 C.ar  1 <1>  -0.1500 
  6 C       -4.4410     1.0350    -0.8760 C.ar  1 <1>  -0.1500 
  7 C       -6.0550    -0.8220     0.3760 C.ar  1 <1>  -0.1430 
  8 C       -5.7110     1.3950    -0.4710 C.ar  1 <1>  -0.1500 
  9 C       -6.5300     0.4660     0.1610 C.ar  1 <1>   0.0830 
 10 C       -6.9490    -1.8340     1.0670 C.3   1 <1>   0.4870 
 11 O       -7.7850     0.7450     0.5800 O.3   1 <1>  -0.3630 
 12 N       -7.5740    -2.7280     0.0470 N.4   1 <1>  -0.9590 
 13 C       -8.3190     2.0510     0.5260 C.3   1 <1>   0.1200 
 14 C       -8.5780    -1.9680    -0.7500 C.3   1 <1>   0.3430 
 15 C       -8.1630    -3.9450     0.6680 C.3   1 <1>   0.3430 
 16 C       -9.7220     2.0110     1.1250 C.3   1 <1>  -0.2400 
 17 C       -8.8920    -2.7170    -2.0400 C.3   1 <1>  -0.2400 
 18 C       -7.0490    -4.9020     1.0780 C.3   1 <1>  -0.2400 
 19 H       -2.3550    -2.6970    -1.1270 H     1 <1>   0.0800 
 20 H       -1.9860    -1.9470     0.4220 H     1 <1>   0.0800 
 21 H       -0.8660    -1.8180    -0.9060 H     1 <1>   0.0800 
 22 H       -4.4170    -2.1630     0.1490 H     1 <1>   0.1500 
 23 H       -3.8190     1.7660    -1.3670 H     1 <1>   0.1500 
 24 H       -6.0410     2.4000    -0.6590 H     1 <1>   0.1500 
 25 H       -7.7130    -1.3270     1.6360 H     1 <1>   0.0800 
 26 H       -6.3510    -2.4100     1.7520 H     1 <1>   0.0800 
 27 H       -6.8310    -3.0100    -0.6010 H     1 <1>   0.4500 
 28 H       -8.3550     2.3680    -0.5020 H     1 <1>   0.0800 
 29 H       -7.6810     2.7070     1.0950 H     1 <1>   0.0800 
 30 H       -8.1810    -1.0000    -1.0120 H     1 <1>   0.0800 
 31 H       -9.4770    -1.8130    -0.1750 H     1 <1>   0.0800 
 32 H       -8.8000    -4.4470    -0.0410 H     1 <1>   0.0800 
 33 H       -8.7620    -3.6760     1.5240 H     1 <1>   0.0800 
 34 H      -10.3540     1.3520     0.5580 H     1 <1>   0.0800 
 35 H      -10.1510     2.9970     1.1020 H     1 <1>   0.0800 
 36 H       -9.6810     1.6850     2.1490 H     1 <1>   0.0800 
 37 H       -7.9960    -2.8860    -2.6120 H     1 <1>   0.0800 
 38 H       -9.5550    -2.1170    -2.6380 H     1 <1>   0.0800 
 39 H       -9.3850    -3.6520    -1.8500 H     1 <1>   0.0800 
 40 H       -6.4390    -5.1640     0.2320 H     1 <1>   0.0800 
 41 H       -7.4910    -5.8080     1.4560 H     1 <1>   0.0800 
 42 H       -6.4360    -4.4910     1.8580 H     1 <1>   0.0800 
@<TRIPOS>BOND
  1   1   2  2   
  2   2   3  1   
  3   2   4  1   
  4   3   5  ar  
  5   3   6  ar  
  6   4  19  1   
  7   4  20  1   
  8   4  21  1   
  9   5   7  ar  
 10   5  22  1   
 11   6   8  ar  
 12   6  23  1   
 13   7   9  ar  
 14   7  10  1   
 15   8   9  ar  
 16   8  24  1   
 17   9  11  1   
 18  10  12  1   
 19  10  25  1   
 20  10  26  1   
 21  11  13  1   
 22  12  14  1   
 23  12  15  1   
 24  12  27  1   
 25  13  16  1   
 26  13  28  1   
 27  13  29  1   
 28  14  17  1   
 29  14  30  1   
 30  14  31  1   
 31  15  18  1   
 32  15  32  1   
 33  15  33  1   
 34  16  34  1   
 35  16  35  1   
 36  16  36  1   
 37  17  37  1   
 38  17  38  1   
 39  17  39  1   
 40  18  40  1   
 41  18  41  1   
 42  18  42  1   
@<TRIPOS>SUBSTRUCTURE
  1 ****   7 GROUP 4 **** **** 0

# MOE 2024.06 (io_trps.svl 2023.06)
