@<TRIPOS>MOLECULE
NONAME
34 35 1 0 0 
SMALL
USER_CHARGES


@<TRIPOS>ATOM
  1 O        1.4570     0.1950    -1.2090 O.2   1 <1>  -0.5700 
  2 C        1.7390    -0.9240    -0.8030 C.2   1 <1>   0.5440 
  3 N        2.9760    -1.1690    -0.2270 N.am  1 <1>  -0.2980 
  4 C        0.8310    -2.0280    -0.9110 C.ar  1 <1>   0.0860 
  5 N        3.3520    -2.3570     0.3110 N.2   1 <1>  -0.5120 
  6 C        3.9620    -0.0660    -0.1440 C.3   1 <1>   0.0600 
  7 C        1.2280    -3.2740    -0.3920 C.ar  1 <1>   0.0860 
  8 C       -0.4120    -1.8930    -1.5390 C.ar  1 <1>  -0.1500 
  9 C        2.5110    -3.3630     0.2880 C.2   1 <1>   0.3640 
 10 C        0.3520    -4.3560    -0.5980 C.ar  1 <1>  -0.1500 
 11 C       -1.2560    -2.9670    -1.6950 C.ar  1 <1>  -0.1500 
 12 C        2.9230    -4.5820     0.9720 C.2   1 <1>   0.6300 
 13 C       -0.8640    -4.2080    -1.2270 C.ar  1 <1>  -0.1500 
 14 O        2.1350    -5.3540     1.4950 O.2   1 <1>  -0.5700 
 15 N        4.2560    -4.8930     1.0800 N.am  1 <1>  -0.7300 
 16 C        4.8200    -6.0280     1.8520 C.3   1 <1>   0.1400 
 17 C        4.7590    -7.3140     1.0220 C.3   1 <1>   0.1200 
 18 O        5.3350    -8.3670     1.7360 O.3   1 <1>  -0.5600 
 19 C        4.4690    -9.0260     2.6070 C.3   1 <1>   0.0400 
 20 H        3.5520     0.7360     0.4440 H     1 <1>   0.0800 
 21 H        4.1790     0.2960    -1.1330 H     1 <1>   0.0800 
 22 H        4.8700    -0.4130     0.3160 H     1 <1>   0.0800 
 23 H       -0.7060    -0.9250    -1.9120 H     1 <1>   0.1500 
 24 H        0.6100    -5.3450    -0.2690 H     1 <1>   0.1500 
 25 H       -2.2100    -2.8480    -2.1810 H     1 <1>   0.1500 
 26 H       -1.5150    -5.0570    -1.3570 H     1 <1>   0.1500 
 27 H        4.9180    -4.1730     0.7720 H     1 <1>   0.3700 
 28 H        4.2530    -6.1510     2.7580 H     1 <1>   0.0800 
 29 H        5.8430    -5.8120     2.1060 H     1 <1>   0.0800 
 30 H        5.3330    -7.1910     0.1210 H     1 <1>   0.0800 
 31 H        3.7440    -7.5650     0.7660 H     1 <1>   0.0800 
 32 H        4.0970    -8.3340     3.3410 H     1 <1>   0.0800 
 33 H        5.0200    -9.8100     3.0950 H     1 <1>   0.0800 
 34 H        3.6560    -9.4520     2.0440 H     1 <1>   0.0800 
@<TRIPOS>BOND
  1   1   2  2   
  2   2   3  am  
  3   2   4  1   
  4   3   5  1   
  5   3   6  1   
  6   4   7  ar  
  7   4   8  ar  
  8   5   9  2   
  9   6  20  1   
 10   6  21  1   
 11   6  22  1   
 12   7   9  1   
 13   7  10  ar  
 14   8  11  ar  
 15   8  23  1   
 16   9  12  1   
 17  10  13  ar  
 18  10  24  1   
 19  11  13  ar  
 20  11  25  1   
 21  12  14  2   
 22  12  15  am  
 23  13  26  1   
 24  15  16  1   
 25  15  27  1   
 26  16  17  1   
 27  16  28  1   
 28  16  29  1   
 29  17  18  1   
 30  17  30  1   
 31  17  31  1   
 32  18  19  1   
 33  19  32  1   
 34  19  33  1   
 35  19  34  1   
@<TRIPOS>SUBSTRUCTURE
  1 ****   9 GROUP 4 **** **** 0

# MOE 2024.06 (io_trps.svl 2023.06)
