@<TRIPOS>MOLECULE
NONAME
39 40 1 0 0 
SMALL
USER_CHARGES


@<TRIPOS>ATOM
  1 S       -1.8260    -0.2820    -0.5130 S.3   1 <1>  -0.4600 
  2 C       -1.8360     0.7860     0.9700 C.3   1 <1>   0.2140 
  3 C       -0.8090    -1.6890    -0.0080 C.3   1 <1>   0.0700 
  4 C       -2.6900     2.0250     0.7420 C.ar  1 <1>   0.4770 
  5 C       -0.7440    -2.6550    -1.1870 C.3   1 <1>  -0.2400 
  6 N       -3.9780     1.8990     0.9130 N.ar  1 <1>  -0.6200 
  7 N       -2.0720     3.1280     0.4120 N.ar  1 <1>  -0.6200 
  8 C       -4.6590     3.0000     0.6950 C.ar  1 <1>   0.7200 
  9 C       -2.8760     4.1450     0.2420 C.ar  1 <1>   0.7200 
 10 N       -4.1700     4.1570     0.3550 N.ar  1 <1>  -0.6200 
 11 N       -6.0050     2.9570     0.8110 N.pl3 1 <1>  -0.8690 
 12 N       -2.2980     5.2950    -0.1060 N.pl3 1 <1>  -0.9000 
 13 C       -6.8220     1.7230     0.8920 C.3   1 <1>   0.2090 
 14 C       -7.0530     1.1540    -0.5070 C.3   1 <1>  -0.0170 
 15 C       -7.8490    -0.1370    -0.4230 C.ar  1 <1>  -0.1430 
 16 C       -7.1910    -1.3490    -0.2790 C.ar  1 <1>  -0.1500 
 17 C       -9.2340    -0.1170    -0.4820 C.ar  1 <1>  -0.1500 
 18 C       -7.9090    -2.5290    -0.1950 C.ar  1 <1>  -0.1500 
 19 C       -9.9540    -1.2970    -0.3980 C.ar  1 <1>  -0.1500 
 20 C       -9.2910    -2.5040    -0.2540 C.ar  1 <1>  -0.1500 
 21 H       -0.8170     1.0600     1.1730 H     1 <1>   0.0800 
 22 H       -2.2310     0.2030     1.7810 H     1 <1>   0.0800 
 23 H       -1.2780    -2.1410     0.8490 H     1 <1>   0.0800 
 24 H        0.1660    -1.3120     0.2500 H     1 <1>   0.0800 
 25 H       -1.7330    -2.9860    -1.4490 H     1 <1>   0.0800 
 26 H       -0.1480    -3.5110    -0.9300 H     1 <1>   0.0800 
 27 H       -0.3020    -2.1680    -2.0390 H     1 <1>   0.0800 
 28 H       -6.4740     3.8170     0.5320 H     1 <1>   0.4000 
 29 H       -2.9010     6.0190    -0.4860 H     1 <1>   0.4000 
 30 H       -1.3470     5.2440    -0.4610 H     1 <1>   0.4000 
 31 H       -7.7660     1.9490     1.3580 H     1 <1>   0.0800 
 32 H       -6.3190     0.9910     1.5010 H     1 <1>   0.0800 
 33 H       -6.1030     0.9580    -0.9740 H     1 <1>   0.0800 
 34 H       -7.5820     1.8710    -1.1080 H     1 <1>   0.0800 
 35 H       -6.1150    -1.3770    -0.2330 H     1 <1>   0.1500 
 36 H       -9.7590     0.8150    -0.5950 H     1 <1>   0.1500 
 37 H       -7.3910    -3.4650    -0.0840 H     1 <1>   0.1500 
 38 H      -11.0280    -1.2760    -0.4450 H     1 <1>   0.1500 
 39 H       -9.8500    -3.4210    -0.1880 H     1 <1>   0.1500 
@<TRIPOS>BOND
  1   1   2  1   
  2   1   3  1   
  3   2   4  1   
  4   2  21  1   
  5   2  22  1   
  6   3   5  1   
  7   3  23  1   
  8   3  24  1   
  9   4   6  ar  
 10   4   7  ar  
 11   5  25  1   
 12   5  26  1   
 13   5  27  1   
 14   6   8  ar  
 15   7   9  ar  
 16   8  10  ar  
 17   8  11  1   
 18   9  10  ar  
 19   9  12  1   
 20  11  13  1   
 21  11  28  1   
 22  12  29  1   
 23  12  30  1   
 24  13  14  1   
 25  13  31  1   
 26  13  32  1   
 27  14  15  1   
 28  14  33  1   
 29  14  34  1   
 30  15  16  ar  
 31  15  17  ar  
 32  16  18  ar  
 33  16  35  1   
 34  17  19  ar  
 35  17  36  1   
 36  18  20  ar  
 37  18  37  1   
 38  19  20  ar  
 39  19  38  1   
 40  20  39  1   
@<TRIPOS>SUBSTRUCTURE
  1 ****   6 GROUP 4 **** **** 0

# MOE 2024.06 (io_trps.svl 2023.06)
