@<TRIPOS>MOLECULE
NONAME
52 54 1 0 0 
SMALL
USER_CHARGES


@<TRIPOS>ATOM
  1 F       -0.3170    -1.5720    -2.0920 F     1 <1>  -0.1900 
  2 C       -0.8600    -2.0570    -1.0010 C.ar  1 <1>   0.1900 
  3 C       -0.0490    -2.4350     0.0770 C.ar  1 <1>   0.1000 
  4 C       -2.2290    -2.1860    -0.9880 C.ar  1 <1>  -0.1500 
  5 N        1.3430    -2.3380     0.1190 N.pl3 1 <1>  -0.8380 
  6 C       -0.7150    -2.9420     1.1880 C.ar  1 <1>  -0.1500 
  7 C       -2.8820    -2.7220     0.1220 C.ar  1 <1>   0.0860 
  8 C        2.0750    -1.1340    -0.3970 C.3   1 <1>   0.2090 
  9 C        2.1810    -3.5720     0.2600 C.3   1 <1>   0.2090 
 10 C       -2.0930    -3.0800     1.2290 C.ar  1 <1>  -0.1430 
 11 C       -4.3120    -2.8740     0.0720 C.2   1 <1>   0.4230 
 12 C        2.8880    -1.4670    -1.6620 C.3   1 <1>   0.1400 
 13 C        2.9890    -3.8570    -1.0190 C.3   1 <1>   0.1400 
 14 C       -2.7220    -3.6020     2.5160 C.3   1 <1>  -0.0960 
 15 O       -5.0650    -1.9430    -0.0660 O.2   1 <1>  -0.5700 
 16 C       -4.9150    -4.2710     0.1450 C.3   1 <1>  -0.0990 
 17 N        3.7730    -2.6510    -1.4280 N.am  1 <1>  -0.6600 
 18 C       -5.5330    -4.7040    -1.1930 C.3   1 <1>  -0.2400 
 19 C        5.1430    -2.6200    -1.3230 C.2   1 <1>   0.5690 
 20 O        5.7730    -3.6090    -1.0260 O.2   1 <1>  -0.5700 
 21 C        5.9350    -1.3400    -1.5650 C.3   1 <1>   0.0440 
 22 C        5.6360    -0.2420    -0.5450 C.ar  1 <1>  -0.1430 
 23 C        5.4130     1.0630    -0.9630 C.ar  1 <1>  -0.1500 
 24 C        5.5780    -0.5390     0.8080 C.ar  1 <1>  -0.1500 
 25 C        5.1210     2.0530    -0.0400 C.ar  1 <1>  -0.1500 
 26 C        5.2860     0.4500     1.7310 C.ar  1 <1>  -0.1500 
 27 C        5.0550     1.7460     1.3070 C.ar  1 <1>  -0.1500 
 28 H       -2.8030    -1.8750    -1.8420 H     1 <1>   0.1500 
 29 H       -0.1190    -3.2170     2.0390 H     1 <1>   0.1500 
 30 H        2.7430    -0.7780     0.3670 H     1 <1>   0.0800 
 31 H        1.3770    -0.3440    -0.6110 H     1 <1>   0.0800 
 32 H        1.5530    -4.4170     0.4750 H     1 <1>   0.0800 
 33 H        2.8610    -3.4430     1.0840 H     1 <1>   0.0800 
 34 H        3.4530    -0.6050    -1.9590 H     1 <1>   0.0800 
 35 H        2.2090    -1.6950    -2.4630 H     1 <1>   0.0800 
 36 H        2.3130    -4.1230    -1.8110 H     1 <1>   0.0800 
 37 H        3.6410    -4.6950    -0.8470 H     1 <1>   0.0800 
 38 H       -2.0630    -3.4420     3.3510 H     1 <1>   0.0800 
 39 H       -2.9170    -4.6560     2.4370 H     1 <1>   0.0800 
 40 H       -3.6430    -3.0870     2.7260 H     1 <1>   0.0800 
 41 H       -5.6740    -4.2740     0.9060 H     1 <1>   0.0800 
 42 H       -4.1590    -4.9820     0.4210 H     1 <1>   0.0800 
 43 H       -6.3110    -4.0170    -1.4790 H     1 <1>   0.0800 
 44 H       -5.9570    -5.6880    -1.1060 H     1 <1>   0.0800 
 45 H       -4.7840    -4.7150    -1.9650 H     1 <1>   0.0800 
 46 H        5.7270    -0.9990    -2.5610 H     1 <1>   0.0800 
 47 H        6.9830    -1.5720    -1.5170 H     1 <1>   0.0800 
 48 H        5.4640     1.3170    -2.0070 H     1 <1>   0.1500 
 49 H        5.7580    -1.5450     1.1510 H     1 <1>   0.1500 
 50 H        4.9480     3.0620    -0.3700 H     1 <1>   0.1500 
 51 H        5.2390     0.2090     2.7790 H     1 <1>   0.1500 
 52 H        4.8280     2.5150     2.0250 H     1 <1>   0.1500 
@<TRIPOS>BOND
  1   1   2  1   
  2   2   3  ar  
  3   2   4  ar  
  4   3   5  1   
  5   3   6  ar  
  6   4   7  ar  
  7   4  28  1   
  8   5   8  1   
  9   5   9  1   
 10   6  10  ar  
 11   6  29  1   
 12   7  10  ar  
 13   7  11  1   
 14   8  12  1   
 15   8  30  1   
 16   8  31  1   
 17   9  13  1   
 18   9  32  1   
 19   9  33  1   
 20  10  14  1   
 21  11  15  2   
 22  11  16  1   
 23  12  17  1   
 24  12  34  1   
 25  12  35  1   
 26  13  17  1   
 27  13  36  1   
 28  13  37  1   
 29  14  38  1   
 30  14  39  1   
 31  14  40  1   
 32  16  18  1   
 33  16  41  1   
 34  16  42  1   
 35  17  19  am  
 36  18  43  1   
 37  18  44  1   
 38  18  45  1   
 39  19  20  2   
 40  19  21  1   
 41  21  22  1   
 42  21  46  1   
 43  21  47  1   
 44  22  23  ar  
 45  22  24  ar  
 46  23  25  ar  
 47  23  48  1   
 48  24  26  ar  
 49  24  49  1   
 50  25  27  ar  
 51  25  50  1   
 52  26  27  ar  
 53  26  51  1   
 54  27  52  1   
@<TRIPOS>SUBSTRUCTURE
  1 ****   5 GROUP 4 **** **** 0

# MOE 2024.06 (io_trps.svl 2023.06)
