@<TRIPOS>MOLECULE
NONAME
41 42 1 0 0 
SMALL
USER_CHARGES


@<TRIPOS>ATOM
  1 CL       1.9470    -0.1170    -2.2640 Cl    1 <1>  -0.1770 
  2 C        3.2650     0.7720    -1.5520 C.ar  1 <1>   0.1770 
  3 C        4.4590     0.8840    -2.2380 C.ar  1 <1>  -0.1500 
  4 C        3.1030     1.3520    -0.3090 C.ar  1 <1>  -0.1500 
  5 C        5.5040     1.5920    -1.6700 C.ar  1 <1>  -0.1500 
  6 C        4.1540     2.0590     0.2490 C.ar  1 <1>  -0.1500 
  7 C        5.3740     2.2050    -0.4180 C.ar  1 <1>   0.0860 
  8 C        6.4530     2.9660     0.1820 C.2   1 <1>   0.5440 
  9 O        6.6020     2.9710     1.3850 O.2   1 <1>  -0.5700 
 10 N        7.2910     3.7040    -0.6190 N.am  1 <1>  -0.4940 
 11 C        8.4120     4.4360    -0.2820 C.2   1 <1>   0.4420 
 12 S        9.1890     5.2890    -1.5810 S.3   1 <1>  -0.0800 
 13 N        9.0100     4.6040     0.8450 N.2   1 <1>  -0.3380 
 14 C       10.3260     5.8320    -0.4060 C.2   1 <1>   0.4340 
 15 N       10.1100     5.4140     0.7730 N.2   1 <1>  -0.3380 
 16 S       11.6480     6.8780    -0.9930 S.3   1 <1>  -0.2860 
 17 C       12.7070     7.1700     0.5070 C.3   1 <1>   0.1310 
 18 C       14.0890     6.5550     0.3180 C.2   1 <1>   0.5690 
 19 O       14.9840     7.3290     0.0620 O.2   1 <1>  -0.5700 
 20 N       14.3240     5.2020     0.4430 N.am  1 <1>  -0.6600 
 21 C       15.6890     4.6630     0.1850 C.3   1 <1>   0.1400 
 22 C       13.3430     4.2150     0.9760 C.3   1 <1>   0.1400 
 23 C       15.9220     4.5190    -1.3180 C.3   1 <1>  -0.2400 
 24 C       12.8230     3.3170    -0.1440 C.3   1 <1>  -0.2400 
 25 H        4.5620     0.4150    -3.2010 H     1 <1>   0.1500 
 26 H        2.1680     1.2480     0.2120 H     1 <1>   0.1500 
 27 H        6.4350     1.6560    -2.2060 H     1 <1>   0.1500 
 28 H        4.0360     2.5090     1.2210 H     1 <1>   0.1500 
 29 H        7.0250     3.7550    -1.5970 H     1 <1>   0.3700 
 30 H       12.2090     6.7800     1.3720 H     1 <1>   0.0800 
 31 H       12.7980     8.2350     0.6080 H     1 <1>   0.0800 
 32 H       15.8090     3.7090     0.6680 H     1 <1>   0.0800 
 33 H       16.4220     5.3370     0.5980 H     1 <1>   0.0800 
 34 H       12.5190     4.7130     1.4490 H     1 <1>   0.0800 
 35 H       13.8170     3.6120     1.7330 H     1 <1>   0.0800 
 36 H       16.9080     4.1290    -1.4940 H     1 <1>   0.0800 
 37 H       15.2050     3.8490    -1.7550 H     1 <1>   0.0800 
 38 H       15.8480     5.4790    -1.7970 H     1 <1>   0.0800 
 39 H       12.4660     3.9080    -0.9660 H     1 <1>   0.0800 
 40 H       13.5980     2.6570    -0.4870 H     1 <1>   0.0800 
 41 H       12.0110     2.7180     0.2270 H     1 <1>   0.0800 
@<TRIPOS>BOND
  1   1   2  1   
  2   2   3  ar  
  3   2   4  ar  
  4   3   5  ar  
  5   3  25  1   
  6   4   6  ar  
  7   4  26  1   
  8   5   7  ar  
  9   5  27  1   
 10   6   7  ar  
 11   6  28  1   
 12   7   8  1   
 13   8   9  2   
 14   8  10  am  
 15  10  11  1   
 16  10  29  1   
 17  11  12  1   
 18  11  13  2   
 19  12  14  1   
 20  13  15  1   
 21  14  15  2   
 22  14  16  1   
 23  16  17  1   
 24  17  18  1   
 25  17  30  1   
 26  17  31  1   
 27  18  19  2   
 28  18  20  am  
 29  20  21  1   
 30  20  22  1   
 31  21  23  1   
 32  21  32  1   
 33  21  33  1   
 34  22  24  1   
 35  22  34  1   
 36  22  35  1   
 37  23  36  1   
 38  23  37  1   
 39  23  38  1   
 40  24  39  1   
 41  24  40  1   
 42  24  41  1   
@<TRIPOS>SUBSTRUCTURE
  1 ****  11 GROUP 4 **** **** 0

# MOE 2024.06 (io_trps.svl 2023.06)
