@<TRIPOS>MOLECULE
NONAME
40 42 1 0 0 
SMALL
USER_CHARGES


@<TRIPOS>ATOM
  1 BR      -1.5770     1.4620     2.2640 Br    1 <1>  -0.0580 
  2 C       -2.5120     0.4890     0.8920 C.2   1 <1>   0.1980 
  3 O       -3.7190     0.0490     1.1710 O.3   1 <1>  -0.2800 
  4 C       -2.1090     0.1820    -0.3550 C.2   1 <1>  -0.1500 
  5 C       -4.1360    -0.5750     0.0790 C.2   1 <1>  -0.0400 
  6 C       -3.1940    -0.5260    -0.8960 C.2   1 <1>  -0.1500 
  7 C       -5.5230    -1.1910     0.1000 C.3   1 <1>   0.5230 
  8 N       -6.4740    -0.1750     0.6270 N.4   1 <1>  -0.9590 
  9 C       -7.8160    -0.7600     0.9830 C.3   1 <1>   0.3430 
 10 C       -6.6130     1.0070    -0.3010 C.3   1 <1>   0.3430 
 11 C       -8.7830     0.2890     1.5710 C.3   1 <1>   0.2090 
 12 C       -7.5560     2.0920     0.2580 C.3   1 <1>   0.2090 
 13 N       -8.8500     1.5130     0.7220 N.pl3 1 <1>  -0.8380 
 14 C       -9.9710     1.6790    -0.0910 C.ar  1 <1>   0.1000 
 15 C      -10.9850     2.5700     0.2620 C.ar  1 <1>  -0.1430 
 16 C      -10.0930     0.9520    -1.2720 C.ar  1 <1>  -0.1500 
 17 C      -12.0900     2.7170    -0.5590 C.ar  1 <1>  -0.1500 
 18 C      -10.8910     3.3870     1.5440 C.3   1 <1>  -0.0970 
 19 C      -11.1990     1.1040    -2.0870 C.ar  1 <1>  -0.1500 
 20 C      -12.2000     1.9880    -1.7300 C.ar  1 <1>  -0.1500 
 21 H       -1.1780     0.4140    -0.8430 H     1 <1>   0.1500 
 22 H       -3.2160    -0.9310    -1.8940 H     1 <1>   0.1500 
 23 H       -5.5090    -2.0510     0.7500 H     1 <1>   0.0800 
 24 H       -5.8090    -1.5060    -0.8890 H     1 <1>   0.0800 
 25 H       -6.0350     0.1840     1.4880 H     1 <1>   0.4500 
 26 H       -7.6950    -1.5580     1.6960 H     1 <1>   0.0800 
 27 H       -8.2740    -1.1740     0.1000 H     1 <1>   0.0800 
 28 H       -7.0070     0.6790    -1.2480 H     1 <1>   0.0800 
 29 H       -5.6460     1.4490    -0.4810 H     1 <1>   0.0800 
 30 H       -8.4630     0.5670     2.5600 H     1 <1>   0.0800 
 31 H       -9.7670    -0.1400     1.6570 H     1 <1>   0.0800 
 32 H       -7.7470     2.8290    -0.5050 H     1 <1>   0.0800 
 33 H       -7.0830     2.5970     1.0830 H     1 <1>   0.0800 
 34 H       -9.3240     0.2650    -1.5580 H     1 <1>   0.1500 
 35 H      -12.8770     3.4010    -0.2930 H     1 <1>   0.1500 
 36 H      -10.8460     2.7280     2.3920 H     1 <1>   0.0800 
 37 H      -11.7410     4.0340     1.6560 H     1 <1>   0.0800 
 38 H      -10.0010     3.9890     1.5260 H     1 <1>   0.0800 
 39 H      -11.2860     0.5380    -2.9990 H     1 <1>   0.1500 
 40 H      -13.0640     2.1100    -2.3610 H     1 <1>   0.1500 
@<TRIPOS>BOND
  1   1   2  1   
  2   2   3  1   
  3   2   4  2   
  4   3   5  1   
  5   4   6  1   
  6   4  21  1   
  7   5   6  2   
  8   5   7  1   
  9   6  22  1   
 10   7   8  1   
 11   7  23  1   
 12   7  24  1   
 13   8   9  1   
 14   8  10  1   
 15   8  25  1   
 16   9  11  1   
 17   9  26  1   
 18   9  27  1   
 19  10  12  1   
 20  10  28  1   
 21  10  29  1   
 22  11  13  1   
 23  11  30  1   
 24  11  31  1   
 25  12  13  1   
 26  12  32  1   
 27  12  33  1   
 28  13  14  1   
 29  14  15  ar  
 30  14  16  ar  
 31  15  17  ar  
 32  15  18  1   
 33  16  19  ar  
 34  16  34  1   
 35  17  20  ar  
 36  17  35  1   
 37  18  36  1   
 38  18  37  1   
 39  18  38  1   
 40  19  20  ar  
 41  19  39  1   
 42  20  40  1   
@<TRIPOS>SUBSTRUCTURE
  1 ****  10 GROUP 4 **** **** 0

# MOE 2024.06 (io_trps.svl 2023.06)
