@<TRIPOS>MOLECULE
NONAME
44 45 1 0 0 
SMALL
USER_CHARGES


@<TRIPOS>ATOM
  1 O      -10.4750    -0.6590     0.0160 O.3   1 <1>  -0.3630 
  2 C      -11.7540    -0.4570     0.4330 C.ar  1 <1>   0.0830 
  3 C       -9.4170     0.1660     0.4360 C.3   1 <1>   0.1200 
  4 C      -12.7400    -1.3200    -0.0440 C.ar  1 <1>  -0.1440 
  5 C      -12.1050     0.5700     1.3080 C.ar  1 <1>  -0.1500 
  6 C       -8.1380    -0.3520    -0.2250 C.3   1 <1>  -0.1600 
  7 C      -14.0560    -1.1410     0.3550 C.ar  1 <1>  -0.1500 
  8 C      -12.4120    -2.4590    -1.0030 C.3   1 <1>  -0.0160 
  9 C      -13.4210     0.7350     1.7010 C.ar  1 <1>  -0.1500 
 10 C       -6.9100     0.4790     0.1780 C.3   1 <1>  -0.1600 
 11 C      -14.3970    -0.1200     1.2240 C.ar  1 <1>  -0.1500 
 12 C      -12.4630    -1.9750    -2.4540 C.3   1 <1>  -0.2400 
 13 C       -5.6500    -0.0640    -0.5010 C.3   1 <1>   0.3430 
 14 N       -4.4750     0.7880    -0.1720 N.4   1 <1>  -0.9590 
 15 C       -3.2810     0.4530    -0.9860 C.3   1 <1>   0.3430 
 16 C       -4.0320     0.6990     1.2430 C.3   1 <1>   0.3430 
 17 C       -2.1170     1.0660    -0.2200 C.3   1 <1>  -0.1600 
 18 C       -2.5990     1.2140     1.2260 C.3   1 <1>  -0.1600 
 19 H       -9.3500     0.1070     1.5090 H     1 <1>   0.0800 
 20 H       -9.6330     1.1740     0.1270 H     1 <1>   0.0800 
 21 H      -11.3740     1.2520     1.6960 H     1 <1>   0.1500 
 22 H       -8.2690    -0.3160    -1.2930 H     1 <1>   0.0800 
 23 H       -7.9950    -1.3790     0.0690 H     1 <1>   0.0800 
 24 H      -14.8240    -1.7990    -0.0110 H     1 <1>   0.1500 
 25 H      -13.1170    -3.2600    -0.8690 H     1 <1>   0.0800 
 26 H      -11.4350    -2.8550    -0.7870 H     1 <1>   0.0800 
 27 H      -13.6880     1.5290     2.3760 H     1 <1>   0.1500 
 28 H       -6.8020     0.4370     1.2480 H     1 <1>   0.0800 
 29 H       -7.0690     1.5010    -0.1190 H     1 <1>   0.0800 
 30 H      -15.4210     0.0080     1.5270 H     1 <1>   0.1500 
 31 H      -13.4440    -1.6000    -2.6850 H     1 <1>   0.0800 
 32 H      -12.2310    -2.7830    -3.1240 H     1 <1>   0.0800 
 33 H      -11.7480    -1.1840    -2.6020 H     1 <1>   0.0800 
 34 H       -5.8050    -0.0670    -1.5690 H     1 <1>   0.0800 
 35 H       -5.4720    -1.0790    -0.1850 H     1 <1>   0.0800 
 36 H       -4.7080     1.7710    -0.3640 H     1 <1>   0.4500 
 37 H       -3.3530     0.8480    -1.9880 H     1 <1>   0.0800 
 38 H       -3.1560    -0.6180    -1.0300 H     1 <1>   0.0800 
 39 H       -4.0400    -0.3300     1.5640 H     1 <1>   0.0800 
 40 H       -4.6580     1.2850     1.8970 H     1 <1>   0.0800 
 41 H       -1.8740     2.0290    -0.6360 H     1 <1>   0.0800 
 42 H       -1.2460     0.4360    -0.2910 H     1 <1>   0.0800 
 43 H       -1.9900     0.6480     1.9100 H     1 <1>   0.0800 
 44 H       -2.5770     2.2480     1.5260 H     1 <1>   0.0800 
@<TRIPOS>BOND
  1   1   2  1   
  2   1   3  1   
  3   2   4  ar  
  4   2   5  ar  
  5   3   6  1   
  6   3  19  1   
  7   3  20  1   
  8   4   7  ar  
  9   4   8  1   
 10   5   9  ar  
 11   5  21  1   
 12   6  10  1   
 13   6  22  1   
 14   6  23  1   
 15   7  11  ar  
 16   7  24  1   
 17   8  12  1   
 18   8  25  1   
 19   8  26  1   
 20   9  11  ar  
 21   9  27  1   
 22  10  13  1   
 23  10  28  1   
 24  10  29  1   
 25  11  30  1   
 26  12  31  1   
 27  12  32  1   
 28  12  33  1   
 29  13  14  1   
 30  13  34  1   
 31  13  35  1   
 32  14  15  1   
 33  14  16  1   
 34  14  36  1   
 35  15  17  1   
 36  15  37  1   
 37  15  38  1   
 38  16  18  1   
 39  16  39  1   
 40  16  40  1   
 41  17  18  1   
 42  17  41  1   
 43  17  42  1   
 44  18  43  1   
 45  18  44  1   
@<TRIPOS>SUBSTRUCTURE
  1 ****   3 GROUP 4 **** **** 0

# MOE 2024.06 (io_trps.svl 2023.06)
