@<TRIPOS>MOLECULE
NONAME
48 50 1 0 0 
SMALL
USER_CHARGES


@<TRIPOS>ATOM
  1 CL       0.2500    -0.1770     0.8110 Cl    1 <1>  -0.1770 
  2 C        1.7570    -1.0510     0.5900 C.ar  1 <1>   0.1770 
  3 C        2.9440    -0.3550     0.3520 C.ar  1 <1>   0.1000 
  4 C        1.7100    -2.4300     0.6570 C.ar  1 <1>  -0.1500 
  5 N        2.9730     1.0510     0.3070 N.pl3 1 <1>  -0.8380 
  6 C        4.1210    -1.1060     0.1680 C.ar  1 <1>   0.1170 
  7 C        2.8730    -3.1560     0.4820 C.ar  1 <1>  -0.1500 
  8 C        2.8690     1.7870     1.5960 C.3   1 <1>   0.2090 
  9 C        2.5240     1.7880    -0.8990 C.3   1 <1>   0.2090 
 10 N        5.3670    -0.5180    -0.1380 N.am  1 <1>  -0.5470 
 11 C        4.0640    -2.4920     0.2380 C.ar  1 <1>  -0.1500 
 12 C        3.6240     3.1250     1.4870 C.3   1 <1>   0.3430 
 13 C        3.2660     3.1410    -0.9790 C.3   1 <1>   0.3430 
 14 C        6.0880     0.4340     0.5400 C.2   1 <1>   0.5440 
 15 N        3.1740     3.9510     0.3000 N.4   1 <1>  -0.9590 
 16 O        5.7430     0.8200     1.6400 O.2   1 <1>  -0.5700 
 17 C        7.2960     0.9670    -0.0440 C.ar  1 <1>   0.0860 
 18 C        3.9500     5.2130     0.2300 C.3   1 <1>   0.3430 
 19 C        7.3280     1.5420    -1.3120 C.ar  1 <1>   0.1900 
 20 C        8.5060     0.9440     0.6500 C.ar  1 <1>  -0.1500 
 21 C        3.2710     6.1870    -0.7260 C.3   1 <1>  -0.2400 
 22 F        6.2230     1.6300    -2.0010 F     1 <1>  -0.1900 
 23 C        8.4780     2.0510    -1.8860 C.ar  1 <1>  -0.1500 
 24 C        9.6670     1.4520     0.0930 C.ar  1 <1>  -0.1500 
 25 C        9.6750     2.0110    -1.1830 C.ar  1 <1>   0.0730 
 26 C       10.8820     2.5370    -1.7540 C.1   1 <1>   0.4840 
 27 N       11.8350     2.9610    -2.2130 N.1   1 <1>  -0.5570 
 28 H        0.7750    -2.9260     0.8450 H     1 <1>   0.1500 
 29 H        2.8540    -4.2320     0.5350 H     1 <1>   0.1500 
 30 H        3.3010     1.1940     2.3850 H     1 <1>   0.0800 
 31 H        1.8350     1.9620     1.8370 H     1 <1>   0.0800 
 32 H        1.4610     1.9490    -0.8520 H     1 <1>   0.0800 
 33 H        2.7390     1.2030    -1.7770 H     1 <1>   0.0800 
 34 H        5.8000    -0.8800    -0.9850 H     1 <1>   0.3700 
 35 H        4.9630    -3.0660     0.1040 H     1 <1>   0.1500 
 36 H        4.6740     2.9020     1.3970 H     1 <1>   0.0800 
 37 H        3.4820     3.6790     2.3990 H     1 <1>   0.0800 
 38 H        2.8650     3.7060    -1.8040 H     1 <1>   0.0800 
 39 H        4.3010     2.9350    -1.1940 H     1 <1>   0.0800 
 40 H        2.1840     4.1810     0.4500 H     1 <1>   0.4500 
 41 H        4.9590     5.0110    -0.0960 H     1 <1>   0.0800 
 42 H        3.9970     5.6630     1.2100 H     1 <1>   0.0800 
 43 H        8.5280     0.5200     1.6420 H     1 <1>   0.1500 
 44 H        3.2910     5.8250    -1.7380 H     1 <1>   0.0800 
 45 H        3.8000     7.1230    -0.7050 H     1 <1>   0.0800 
 46 H        2.2560     6.3740    -0.4240 H     1 <1>   0.0800 
 47 H        8.4410     2.4780    -2.8740 H     1 <1>   0.1500 
 48 H       10.5850     1.4150     0.6590 H     1 <1>   0.1500 
@<TRIPOS>BOND
  1   1   2  1   
  2   2   3  ar  
  3   2   4  ar  
  4   3   5  1   
  5   3   6  ar  
  6   4   7  ar  
  7   4  28  1   
  8   5   8  1   
  9   5   9  1   
 10   6  10  1   
 11   6  11  ar  
 12   7  11  ar  
 13   7  29  1   
 14   8  12  1   
 15   8  30  1   
 16   8  31  1   
 17   9  13  1   
 18   9  32  1   
 19   9  33  1   
 20  10  14  am  
 21  10  34  1   
 22  11  35  1   
 23  12  15  1   
 24  12  36  1   
 25  12  37  1   
 26  13  15  1   
 27  13  38  1   
 28  13  39  1   
 29  14  16  2   
 30  14  17  1   
 31  15  18  1   
 32  15  40  1   
 33  17  19  ar  
 34  17  20  ar  
 35  18  21  1   
 36  18  41  1   
 37  18  42  1   
 38  19  22  1   
 39  19  23  ar  
 40  20  24  ar  
 41  20  43  1   
 42  21  44  1   
 43  21  45  1   
 44  21  46  1   
 45  23  25  ar  
 46  23  47  1   
 47  24  25  ar  
 48  24  48  1   
 49  25  26  1   
 50  26  27  3   
@<TRIPOS>SUBSTRUCTURE
  1 ****  14 GROUP 4 **** **** 0

# MOE 2024.06 (io_trps.svl 2023.06)
