@<TRIPOS>MOLECULE
NONAME
49 51 1 0 0 
SMALL
USER_CHARGES


@<TRIPOS>ATOM
  1 S       -0.2250     0.3230    -1.4130 S.o2  1 <1>   1.4470 
  2 O        0.1710     1.4950    -2.1650 O.2   1 <1>  -0.6500 
  3 O       -1.2370    -0.5320    -1.9970 O.2   1 <1>  -0.6500 
  4 N       -0.8640     0.9050     0.0450 N.am  1 <1>  -0.8490 
  5 C        1.2860    -0.5560    -0.9100 C.ar  1 <1>  -0.0090 
  6 C       -1.7280     2.0820    -0.1690 C.3   1 <1>   0.1960 
  7 C       -1.5600    -0.1180     0.8330 C.3   1 <1>   0.1960 
  8 C        1.2840    -1.9030    -0.5530 C.ar  1 <1>   0.0820 
  9 C        2.4910     0.1320    -0.8530 C.ar  1 <1>  -0.1500 
 10 C       -2.7910     2.2960     0.9330 C.3   1 <1>   0.1200 
 11 C       -2.0450     0.4410     2.1920 C.3   1 <1>   0.1200 
 12 O        0.1130    -2.5750    -0.5790 O.3   1 <1>  -0.3630 
 13 C        2.4720    -2.5230    -0.1750 C.ar  1 <1>  -0.1500 
 14 C        3.6990    -0.4580    -0.4750 C.ar  1 <1>   0.0860 
 15 O       -2.3500     1.8120     2.1670 O.3   1 <1>  -0.5600 
 16 C        0.0300    -3.9820    -0.5130 C.3   1 <1>   0.0400 
 17 C        3.6530    -1.8120    -0.1390 C.ar  1 <1>  -0.1500 
 18 C        4.9300     0.3100    -0.4390 C.2   1 <1>   0.6340 
 19 O        4.9770     1.4840    -0.7400 O.2   1 <1>  -0.5700 
 20 O        6.0420    -0.3290    -0.0480 O.3   1 <1>  -0.2320 
 21 C        7.3160     0.1480    -0.0470 C.ar  1 <1>   0.0820 
 22 C        8.1470    -0.2440     0.9930 C.ar  1 <1>  -0.1500 
 23 C        7.8110     0.9740    -1.0490 C.ar  1 <1>  -0.1500 
 24 C        9.4600     0.1910     1.0420 C.ar  1 <1>  -0.1500 
 25 C        9.1240     1.4090    -0.9990 C.ar  1 <1>  -0.1500 
 26 C        9.9550     1.0240     0.0410 C.ar  1 <1>   0.0820 
 27 O       11.2280     1.4960     0.0120 O.3   1 <1>  -0.3620 
 28 C       12.1460     1.1860     1.0360 C.3   1 <1>   0.0400 
 29 H       -2.2420     1.9990    -1.1120 H     1 <1>   0.0800 
 30 H       -1.1020     2.9560    -0.2260 H     1 <1>   0.0800 
 31 H       -0.9060    -0.9500     1.0230 H     1 <1>   0.0800 
 32 H       -2.4070    -0.4890     0.2810 H     1 <1>   0.0800 
 33 H        2.4970     1.1790    -1.1150 H     1 <1>   0.1500 
 34 H       -3.7020     1.7830     0.6780 H     1 <1>   0.0800 
 35 H       -3.0090     3.3430     1.0420 H     1 <1>   0.0800 
 36 H       -1.2750     0.3060     2.9310 H     1 <1>   0.0800 
 37 H       -2.9210    -0.0920     2.5170 H     1 <1>   0.0800 
 38 H        2.4920    -3.5620     0.1010 H     1 <1>   0.1500 
 39 H       -0.9950    -4.2630    -0.6780 H     1 <1>   0.0800 
 40 H        0.3440    -4.3080     0.4630 H     1 <1>   0.0800 
 41 H        0.6510    -4.4060    -1.2820 H     1 <1>   0.0800 
 42 H        4.5550    -2.3210     0.1580 H     1 <1>   0.1500 
 43 H        7.7630    -0.8880     1.7630 H     1 <1>   0.1500 
 44 H        7.1840     1.2800    -1.8660 H     1 <1>   0.1500 
 45 H       10.0780    -0.1270     1.8600 H     1 <1>   0.1500 
 46 H        9.5120     2.0510    -1.7680 H     1 <1>   0.1500 
 47 H       13.0770     1.6730     0.8090 H     1 <1>   0.0800 
 48 H       12.2890     0.1200     1.0660 H     1 <1>   0.0800 
 49 H       11.7610     1.5510     1.9720 H     1 <1>   0.0800 
@<TRIPOS>BOND
  1   1   2  2   
  2   1   3  2   
  3   1   4  am  
  4   1   5  1   
  5   4   6  1   
  6   4   7  1   
  7   5   8  ar  
  8   5   9  ar  
  9   6  10  1   
 10   6  29  1   
 11   6  30  1   
 12   7  11  1   
 13   7  31  1   
 14   7  32  1   
 15   8  12  1   
 16   8  13  ar  
 17   9  14  ar  
 18   9  33  1   
 19  10  15  1   
 20  10  34  1   
 21  10  35  1   
 22  11  15  1   
 23  11  36  1   
 24  11  37  1   
 25  12  16  1   
 26  13  17  ar  
 27  13  38  1   
 28  14  17  ar  
 29  14  18  1   
 30  16  39  1   
 31  16  40  1   
 32  16  41  1   
 33  17  42  1   
 34  18  19  2   
 35  18  20  1   
 36  20  21  1   
 37  21  22  ar  
 38  21  23  ar  
 39  22  24  ar  
 40  22  43  1   
 41  23  25  ar  
 42  23  44  1   
 43  24  26  ar  
 44  24  45  1   
 45  25  26  ar  
 46  25  46  1   
 47  26  27  1   
 48  27  28  1   
 49  28  47  1   
 50  28  48  1   
 51  28  49  1   
@<TRIPOS>SUBSTRUCTURE
  1 ****  14 GROUP 4 **** **** 0

# MOE 2024.06 (io_trps.svl 2023.06)
