@<TRIPOS>MOLECULE
NONAME
45 46 1 0 0 
SMALL
USER_CHARGES


@<TRIPOS>ATOM
  1 N        0.5310    -0.0210    -1.1040 N.ar  1 <1>  -0.6200 
  2 C        0.4960     1.2580    -0.7730 C.ar  1 <1>   0.1600 
  3 C        1.6550    -0.6560    -0.8240 C.ar  1 <1>   0.1600 
  4 C        1.5450     1.9420    -0.1820 C.ar  1 <1>  -0.1500 
  5 C        2.7620    -0.0670    -0.2360 C.ar  1 <1>  -0.1500 
  6 C        2.7230     1.2740     0.0960 C.ar  1 <1>  -0.1430 
  7 C        3.9070     1.9740     0.7230 C.3   1 <1>   0.4870 
  8 N        4.7370     2.4820    -0.3880 N.4   1 <1>  -0.9060 
  9 C        5.9340     3.2350     0.0280 C.3   1 <1>   0.4230 
 10 C        6.5140     3.9270    -1.2050 C.3   1 <1>  -0.1600 
 11 C        6.9670     2.2880     0.6460 C.3   1 <1>  -0.1600 
 12 C        7.8040     4.6850    -0.8610 C.3   1 <1>  -0.1600 
 13 C        8.2620     3.0370     0.9970 C.3   1 <1>  -0.1600 
 14 C        8.8730     3.7620    -0.2270 C.3   1 <1>  -0.0800 
 15 C       10.2300     4.4840     0.0790 C.3   1 <1>   0.0000 
 16 C       11.2700     3.4810     0.6130 C.3   1 <1>  -0.2400 
 17 C       10.8220     5.0930    -1.2060 C.3   1 <1>  -0.2400 
 18 C       10.0910     5.6140     1.1160 C.3   1 <1>  -0.2400 
 19 H       -0.4200     1.7860    -0.9860 H     1 <1>   0.1500 
 20 H        1.6930    -1.7040    -1.0790 H     1 <1>   0.1500 
 21 H        1.4140     2.9840     0.0510 H     1 <1>   0.1500 
 22 H        3.6300    -0.6740    -0.0460 H     1 <1>   0.1500 
 23 H        4.4650     1.2780     1.3290 H     1 <1>   0.0800 
 24 H        3.5680     2.7860     1.3460 H     1 <1>   0.0800 
 25 H        4.1460     3.0760    -0.9780 H     1 <1>   0.4500 
 26 H        5.0170     1.6930    -0.9790 H     1 <1>   0.4500 
 27 H        5.6640     3.9890     0.7510 H     1 <1>   0.0800 
 28 H        5.8020     4.6300    -1.6020 H     1 <1>   0.0800 
 29 H        6.7390     3.2000    -1.9670 H     1 <1>   0.0800 
 30 H        7.2070     1.5000    -0.0460 H     1 <1>   0.0800 
 31 H        6.5830     1.8490     1.5490 H     1 <1>   0.0800 
 32 H        7.5690     5.4900    -0.1870 H     1 <1>   0.0800 
 33 H        8.1800     5.1210    -1.7690 H     1 <1>   0.0800 
 34 H        8.9590     2.3180     1.3890 H     1 <1>   0.0800 
 35 H        8.0550     3.7480     1.7770 H     1 <1>   0.0800 
 36 H        9.0980     3.0010    -0.9570 H     1 <1>   0.0800 
 37 H       12.2370     3.9460     0.6960 H     1 <1>   0.0800 
 38 H       11.3630     2.6400    -0.0510 H     1 <1>   0.0800 
 39 H       11.0080     3.1220     1.5910 H     1 <1>   0.0800 
 40 H       10.8870     4.3520    -1.9830 H     1 <1>   0.0800 
 41 H       11.8130     5.4710    -1.0240 H     1 <1>   0.0800 
 42 H       10.2310     5.9160    -1.5610 H     1 <1>   0.0800 
 43 H       11.0470     6.0760     1.2890 H     1 <1>   0.0800 
 44 H        9.4200     6.3800     0.7730 H     1 <1>   0.0800 
 45 H        9.7370     5.2410     2.0580 H     1 <1>   0.0800 
@<TRIPOS>BOND
  1   1   2  ar  
  2   1   3  ar  
  3   2   4  ar  
  4   2  19  1   
  5   3   5  ar  
  6   3  20  1   
  7   4   6  ar  
  8   4  21  1   
  9   5   6  ar  
 10   5  22  1   
 11   6   7  1   
 12   7   8  1   
 13   7  23  1   
 14   7  24  1   
 15   8   9  1   
 16   8  25  1   
 17   8  26  1   
 18   9  10  1   
 19   9  11  1   
 20   9  27  1   
 21  10  12  1   
 22  10  28  1   
 23  10  29  1   
 24  11  13  1   
 25  11  30  1   
 26  11  31  1   
 27  12  14  1   
 28  12  32  1   
 29  12  33  1   
 30  13  14  1   
 31  13  34  1   
 32  13  35  1   
 33  14  15  1   
 34  14  36  1   
 35  15  16  1   
 36  15  17  1   
 37  15  18  1   
 38  16  37  1   
 39  16  38  1   
 40  16  39  1   
 41  17  40  1   
 42  17  41  1   
 43  17  42  1   
 44  18  43  1   
 45  18  44  1   
 46  18  45  1   
@<TRIPOS>SUBSTRUCTURE
  1 ****   9 GROUP 4 **** **** 0

# MOE 2024.06 (io_trps.svl 2023.06)
