@<TRIPOS>MOLECULE
NONAME
27 28 1 0 0 
SMALL
USER_CHARGES


@<TRIPOS>ATOM
  1 S        0.0720    -0.0530    -0.7110 S.3   1 <1>  -0.4600 
  2 C        1.3670    -1.2820    -0.3750 C.3   1 <1>   0.1500 
  3 C       -1.4970    -0.9030    -0.2960 C.3   1 <1>   0.1310 
  4 C        0.8380    -2.3240     0.6190 C.3   1 <1>   0.1400 
  5 C        2.5750    -0.5120     0.1580 C.3   1 <1>  -0.2400 
  6 C       -1.4090    -2.4190    -0.4290 C.2   1 <1>   0.5690 
  7 N       -0.2920    -3.0910     0.0270 N.am  1 <1>  -0.4770 
  8 O       -2.3580    -2.9870    -0.9180 O.2   1 <1>  -0.5700 
  9 C       -0.1520    -4.4900    -0.0250 C.ar  1 <1>   0.1170 
 10 C       -1.0740    -5.3210     0.6010 C.ar  1 <1>  -0.1500 
 11 C        0.9200    -5.0730    -0.6950 C.ar  1 <1>  -0.1500 
 12 C       -0.9240    -6.6960     0.5740 C.ar  1 <1>  -0.1500 
 13 C        1.0740    -6.4480    -0.7230 C.ar  1 <1>  -0.1500 
 14 C        0.1530    -7.2610    -0.0860 C.ar  1 <1>  -0.1500 
 15 H        1.6070    -1.7510    -1.3140 H     1 <1>   0.0800 
 16 H       -2.2470    -0.5140    -0.9610 H     1 <1>   0.0800 
 17 H       -1.7420    -0.6380     0.7150 H     1 <1>   0.0800 
 18 H        0.5080    -1.8380     1.5200 H     1 <1>   0.0800 
 19 H        1.6330    -2.9990     0.8830 H     1 <1>   0.0800 
 20 H        2.3230     0.0020     1.0680 H     1 <1>   0.0800 
 21 H        2.8970     0.2120    -0.5700 H     1 <1>   0.0800 
 22 H        3.3910    -1.1850     0.3520 H     1 <1>   0.0800 
 23 H       -1.9160    -4.8830     1.1060 H     1 <1>   0.1500 
 24 H        1.6320    -4.4490    -1.2010 H     1 <1>   0.1500 
 25 H       -1.6470    -7.3250     1.0630 H     1 <1>   0.1500 
 26 H        1.9080    -6.8870    -1.2440 H     1 <1>   0.1500 
 27 H        0.2700    -8.3310    -0.1080 H     1 <1>   0.1500 
@<TRIPOS>BOND
  1   1   2  1   
  2   1   3  1   
  3   2   4  1   
  4   2   5  1   
  5   2  15  1   
  6   3   6  1   
  7   3  16  1   
  8   3  17  1   
  9   4   7  1   
 10   4  18  1   
 11   4  19  1   
 12   5  20  1   
 13   5  21  1   
 14   5  22  1   
 15   6   7  am  
 16   6   8  2   
 17   7   9  1   
 18   9  10  ar  
 19   9  11  ar  
 20  10  12  ar  
 21  10  23  1   
 22  11  13  ar  
 23  11  24  1   
 24  12  14  ar  
 25  12  25  1   
 26  13  14  ar  
 27  13  26  1   
 28  14  27  1   
@<TRIPOS>SUBSTRUCTURE
  1 ****   7 GROUP 4 **** **** 0

# MOE 2024.06 (io_trps.svl 2023.06)
