@<TRIPOS>MOLECULE
NONAME
38 38 1 0 0 
SMALL
USER_CHARGES


@<TRIPOS>ATOM
  1 O       -0.5460    -1.0930    -2.1260 O.2   1 <1>  -0.5700 
  2 C       -0.0950    -1.7240    -1.1960 C.2   1 <1>   0.5690 
  3 N       -0.7760    -1.8330    -0.0010 N.am  1 <1>  -0.6600 
  4 C        1.2370    -2.4360    -1.4260 C.3   1 <1>   0.1810 
  5 C       -0.2150    -2.4910     1.2130 C.3   1 <1>   0.1400 
  6 C       -2.0700    -1.1200     0.1860 C.3   1 <1>   0.1400 
  7 O        2.2830    -1.8330    -0.6790 O.3   1 <1>  -0.3620 
  8 C       -0.6920    -3.9380     1.2970 C.3   1 <1>  -0.2400 
  9 C       -3.2170    -1.9570    -0.3770 C.3   1 <1>  -0.2400 
 10 C        3.4990    -2.4270    -0.5610 C.ar  1 <1>   0.0820 
 11 C        4.3740    -1.9200     0.3940 C.ar  1 <1>  -0.1440 
 12 C        3.8900    -3.5080    -1.3470 C.ar  1 <1>  -0.1500 
 13 C        5.6200    -2.5050     0.5610 C.ar  1 <1>  -0.1500 
 14 C        3.9750    -0.7310     1.2560 C.3   1 <1>  -0.0970 
 15 C        5.1360    -4.0820    -1.1710 C.ar  1 <1>  -0.1500 
 16 C        6.0060    -3.5860    -0.2140 C.ar  1 <1>  -0.1440 
 17 C        7.3750    -4.2140    -0.0200 C.3   1 <1>  -0.0970 
 18 H        1.4970    -2.3790    -2.4670 H     1 <1>   0.0800 
 19 H        1.1490    -3.4630    -1.1280 H     1 <1>   0.0800 
 20 H       -0.5210    -1.9530     2.0940 H     1 <1>   0.0800 
 21 H        0.8600    -2.4690     1.1900 H     1 <1>   0.0800 
 22 H       -2.0320    -0.1750    -0.3300 H     1 <1>   0.0800 
 23 H       -2.2390    -0.9180     1.2290 H     1 <1>   0.0800 
 24 H       -1.7530    -3.9760     1.4550 H     1 <1>   0.0800 
 25 H       -0.2130    -4.4250     2.1270 H     1 <1>   0.0800 
 26 H       -0.4430    -4.4720     0.3990 H     1 <1>   0.0800 
 27 H       -3.0590    -2.1410    -1.4250 H     1 <1>   0.0800 
 28 H       -4.1410    -1.4200    -0.2650 H     1 <1>   0.0800 
 29 H       -3.3010    -2.8920     0.1420 H     1 <1>   0.0800 
 30 H        3.2470    -3.9130    -2.1030 H     1 <1>   0.1500 
 31 H        6.2980    -2.1160     1.2990 H     1 <1>   0.1500 
 32 H        3.1120    -0.9820     1.8460 H     1 <1>   0.0800 
 33 H        3.7310     0.1060     0.6270 H     1 <1>   0.0800 
 34 H        4.7720    -0.4430     1.9160 H     1 <1>   0.0800 
 35 H        5.4290    -4.9160    -1.7840 H     1 <1>   0.1500 
 36 H        8.1040    -3.6840    -0.6050 H     1 <1>   0.0800 
 37 H        7.3650    -5.2440    -0.3270 H     1 <1>   0.0800 
 38 H        7.6620    -4.1720     1.0150 H     1 <1>   0.0800 
@<TRIPOS>BOND
  1   1   2  2   
  2   2   3  am  
  3   2   4  1   
  4   3   5  1   
  5   3   6  1   
  6   4   7  1   
  7   4  18  1   
  8   4  19  1   
  9   5   8  1   
 10   5  20  1   
 11   5  21  1   
 12   6   9  1   
 13   6  22  1   
 14   6  23  1   
 15   7  10  1   
 16   8  24  1   
 17   8  25  1   
 18   8  26  1   
 19   9  27  1   
 20   9  28  1   
 21   9  29  1   
 22  10  11  ar  
 23  10  12  ar  
 24  11  13  ar  
 25  11  14  1   
 26  12  15  ar  
 27  12  30  1   
 28  13  16  ar  
 29  13  31  1   
 30  14  32  1   
 31  14  33  1   
 32  14  34  1   
 33  15  16  ar  
 34  15  35  1   
 35  16  17  1   
 36  17  36  1   
 37  17  37  1   
 38  17  38  1   
@<TRIPOS>SUBSTRUCTURE
  1 ****   7 GROUP 4 **** **** 0

# MOE 2024.06 (io_trps.svl 2023.06)
