@<TRIPOS>MOLECULE
NONAME
35 35 1 0 0 
SMALL
USER_CHARGES


@<TRIPOS>ATOM
  1 O        0.4030    -0.4650    -0.0590 O.2   1 <1>  -0.5700 
  2 C        1.1830    -1.3990    -0.0940 C.2   1 <1>   0.5440 
  3 N        2.5390    -1.1390    -0.1970 N.am  1 <1>  -0.6600 
  4 C        0.6560    -2.7450    -0.0140 C.ar  1 <1>   0.0860 
  5 C        3.0270     0.2270    -0.5380 C.3   1 <1>   0.1400 
  6 C        3.5920    -2.1710     0.0110 C.3   1 <1>   0.1400 
  7 C        0.8390    -3.6720    -1.0400 C.ar  1 <1>  -0.1500 
  8 C       -0.0740    -3.1610     1.1000 C.ar  1 <1>  -0.1500 
  9 C        3.5010     0.9490     0.7200 C.3   1 <1>  -0.2400 
 10 C        3.6900    -2.5440     1.4890 C.3   1 <1>  -0.2400 
 11 C        0.3300    -4.9540    -0.9530 C.ar  1 <1>  -0.1500 
 12 C       -0.5830    -4.4420     1.1920 C.ar  1 <1>  -0.1500 
 13 C       -0.3930    -5.3570     0.1630 C.ar  1 <1>   0.1170 
 14 N       -0.8950    -6.6560     0.2300 N.am  1 <1>  -0.5470 
 15 C       -2.1350    -7.1200     0.5370 C.2   1 <1>   0.5690 
 16 O       -2.3380    -8.3050     0.5700 O.2   1 <1>  -0.5700 
 17 C       -3.2800    -6.1750     0.8160 C.3   1 <1>  -0.1790 
 18 H        2.2340     0.7950    -0.9950 H     1 <1>   0.0800 
 19 H        3.8290     0.1580    -1.2530 H     1 <1>   0.0800 
 20 H        4.5430    -1.7890    -0.3230 H     1 <1>   0.0800 
 21 H        3.3720    -3.0460    -0.5740 H     1 <1>   0.0800 
 22 H        1.3830    -3.3700    -1.9180 H     1 <1>   0.1500 
 23 H       -0.2360    -2.4560     1.8980 H     1 <1>   0.1500 
 24 H        2.7080     0.9750     1.4460 H     1 <1>   0.0800 
 25 H        3.7720     1.9600     0.4750 H     1 <1>   0.0800 
 26 H        4.3610     0.4600     1.1390 H     1 <1>   0.0800 
 27 H        3.8960    -1.6740     2.0860 H     1 <1>   0.0800 
 28 H        4.4870    -3.2500     1.6310 H     1 <1>   0.0800 
 29 H        2.7770    -2.9960     1.8300 H     1 <1>   0.0800 
 30 H        0.4850    -5.6480    -1.7600 H     1 <1>   0.1500 
 31 H       -1.1260    -4.7350     2.0720 H     1 <1>   0.1500 
 32 H       -0.2630    -7.4080    -0.0450 H     1 <1>   0.3700 
 33 H       -3.2180    -5.3120     0.1810 H     1 <1>   0.0800 
 34 H       -3.2560    -5.8710     1.8450 H     1 <1>   0.0800 
 35 H       -4.2110    -6.6760     0.6260 H     1 <1>   0.0800 
@<TRIPOS>BOND
  1   1   2  2   
  2   2   3  am  
  3   2   4  1   
  4   3   5  1   
  5   3   6  1   
  6   4   7  ar  
  7   4   8  ar  
  8   5   9  1   
  9   5  18  1   
 10   5  19  1   
 11   6  10  1   
 12   6  20  1   
 13   6  21  1   
 14   7  11  ar  
 15   7  22  1   
 16   8  12  ar  
 17   8  23  1   
 18   9  24  1   
 19   9  25  1   
 20   9  26  1   
 21  10  27  1   
 22  10  28  1   
 23  10  29  1   
 24  11  13  ar  
 25  11  30  1   
 26  12  13  ar  
 27  12  31  1   
 28  13  14  1   
 29  14  15  am  
 30  14  32  1   
 31  15  16  2   
 32  15  17  1   
 33  17  33  1   
 34  17  34  1   
 35  17  35  1   
@<TRIPOS>SUBSTRUCTURE
  1 ****   4 GROUP 4 **** **** 0

# MOE 2024.06 (io_trps.svl 2023.06)
