@<TRIPOS>MOLECULE
NONAME
43 44 1 0 0 
SMALL
USER_CHARGES


@<TRIPOS>ATOM
  1 O       -0.0270    -0.5210    -0.1080 O.3   1 <1>  -0.5600 
  2 C        0.2580    -1.6990     0.5880 C.3   1 <1>   0.1200 
  3 C        0.9790     0.4410    -0.0020 C.3   1 <1>   0.1200 
  4 C        1.5630    -2.3260     0.0630 C.3   1 <1>   0.1100 
  5 C        2.3060    -0.1130    -0.5520 C.3   1 <1>   0.1100 
  6 N        2.6930    -1.3700     0.1350 N.3   1 <1>  -0.8100 
  7 C        3.9200    -1.9620    -0.4060 C.3   1 <1>   0.1100 
  8 C        5.1440    -1.1990     0.1200 C.3   1 <1>   0.3430 
  9 N        6.4180    -1.8610    -0.2880 N.4   1 <1>  -0.9060 
 10 C        7.6210    -1.1840     0.2340 C.3   1 <1>   0.4230 
 11 C        7.8400     0.1460    -0.5000 C.3   1 <1>  -0.1600 
 12 C        8.8170    -2.1220     0.0390 C.3   1 <1>  -0.1600 
 13 C        9.1480     0.8160    -0.0510 C.3   1 <1>  -0.1600 
 14 C       10.1230    -1.4550     0.4940 C.3   1 <1>  -0.1600 
 15 C       10.3530    -0.1200    -0.2320 C.3   1 <1>  -0.0800 
 16 C       11.6300     0.5520     0.2820 C.3   1 <1>  -0.2400 
 17 H       -0.5660    -2.3740     0.4430 H     1 <1>   0.0800 
 18 H        0.3410    -1.4710     1.6370 H     1 <1>   0.0800 
 19 H        1.0810     0.7230     1.0320 H     1 <1>   0.0800 
 20 H        0.6680     1.3020    -0.5680 H     1 <1>   0.0800 
 21 H        1.4060    -2.6390    -0.9560 H     1 <1>   0.0800 
 22 H        1.7870    -3.1980     0.6530 H     1 <1>   0.0800 
 23 H        3.0690     0.6320    -0.4170 H     1 <1>   0.0800 
 24 H        2.1870    -0.2890    -1.6090 H     1 <1>   0.0800 
 25 H        3.8890    -1.9470    -1.4830 H     1 <1>   0.0800 
 26 H        3.9860    -2.9840    -0.0730 H     1 <1>   0.0800 
 27 H        5.0820    -1.1610     1.1960 H     1 <1>   0.0800 
 28 H        5.1140    -0.1910    -0.2580 H     1 <1>   0.0800 
 29 H        6.4880    -1.9040    -1.3100 H     1 <1>   0.4500 
 30 H        6.4210    -2.8270     0.0590 H     1 <1>   0.4500 
 31 H        7.5060    -0.9900     1.2890 H     1 <1>   0.0800 
 32 H        7.0320     0.8250    -0.2990 H     1 <1>   0.0800 
 33 H        7.8920    -0.0230    -1.5620 H     1 <1>   0.0800 
 34 H        8.9150    -2.3860    -1.0000 H     1 <1>   0.0800 
 35 H        8.6770    -3.0220     0.6120 H     1 <1>   0.0800 
 36 H        9.0680     1.1020     0.9850 H     1 <1>   0.0800 
 37 H        9.3040     1.7150    -0.6240 H     1 <1>   0.0800 
 38 H       10.9500    -2.1170     0.2960 H     1 <1>   0.0800 
 39 H       10.0910    -1.2850     1.5580 H     1 <1>   0.0800 
 40 H       10.4820    -0.3170    -1.2840 H     1 <1>   0.0800 
 41 H       11.5550     0.7710     1.3320 H     1 <1>   0.0800 
 42 H       11.8090     1.4720    -0.2470 H     1 <1>   0.0800 
 43 H       12.4790    -0.0910     0.1280 H     1 <1>   0.0800 
@<TRIPOS>BOND
  1   1   2  1   
  2   1   3  1   
  3   2   4  1   
  4   2  17  1   
  5   2  18  1   
  6   3   5  1   
  7   3  19  1   
  8   3  20  1   
  9   4   6  1   
 10   4  21  1   
 11   4  22  1   
 12   5   6  1   
 13   5  23  1   
 14   5  24  1   
 15   6   7  1   
 16   7   8  1   
 17   7  25  1   
 18   7  26  1   
 19   8   9  1   
 20   8  27  1   
 21   8  28  1   
 22   9  10  1   
 23   9  29  1   
 24   9  30  1   
 25  10  11  1   
 26  10  12  1   
 27  10  31  1   
 28  11  13  1   
 29  11  32  1   
 30  11  33  1   
 31  12  14  1   
 32  12  34  1   
 33  12  35  1   
 34  13  15  1   
 35  13  36  1   
 36  13  37  1   
 37  14  15  1   
 38  14  38  1   
 39  14  39  1   
 40  15  16  1   
 41  15  40  1   
 42  16  41  1   
 43  16  42  1   
 44  16  43  1   
@<TRIPOS>SUBSTRUCTURE
  1 ****   8 GROUP 4 **** **** 0

# MOE 2024.06 (io_trps.svl 2023.06)
