@<TRIPOS>MOLECULE
NONAME
43 44 1 0 0 
SMALL
USER_CHARGES


@<TRIPOS>ATOM
  1 O        3.8710    -0.8140     1.1140 O.co2 1 <1>  -0.9000 
  2 C        3.4750    -1.9710     1.2810 C.2   1 <1>   0.9060 
  3 O        4.0550    -2.7500     2.0490 O.co2 1 <1>  -0.9000 
  4 C        2.2800    -2.5160     0.5060 C.3   1 <1>  -0.1860 
  5 C        2.6320    -3.7480    -0.3880 C.3   1 <1>  -0.0190 
  6 C        1.4940    -1.4610    -0.2980 C.3   1 <1>  -0.1600 
  7 C        4.0160    -3.6960    -1.0730 C.2   1 <1>   0.5690 
  8 C        1.4880    -4.0670    -1.3950 C.3   1 <1>  -0.1600 
  9 C        0.1410    -2.0170    -0.7880 C.3   1 <1>  -0.1600 
 10 O        4.1100    -3.6480    -2.2800 O.2   1 <1>  -0.5700 
 11 N        5.1260    -3.7460    -0.2950 N.am  1 <1>  -0.7300 
 12 C        0.1220    -3.5510    -0.9270 C.3   1 <1>  -0.1600 
 13 C        6.4830    -3.3660    -0.7440 C.3   1 <1>   0.1400 
 14 C        7.1550    -2.4390     0.2820 C.3   1 <1>   0.0630 
 15 C        8.4300    -1.8370    -0.3090 C.ar  1 <1>  -0.1430 
 16 C        7.4690    -3.1560     1.6040 C.3   1 <1>  -0.2400 
 17 C        8.5220    -0.4640    -0.4830 C.ar  1 <1>  -0.1500 
 18 C        9.5040    -2.6350    -0.6810 C.ar  1 <1>  -0.1500 
 19 C        9.6650     0.1030    -1.0190 C.ar  1 <1>  -0.1500 
 20 C       10.6480    -2.0700    -1.2170 C.ar  1 <1>  -0.1500 
 21 C       10.7300    -0.7000    -1.3870 C.ar  1 <1>  -0.1500 
 22 H        1.6190    -2.8620     1.2780 H     1 <1>   0.0800 
 23 H        2.6910    -4.5820     0.2880 H     1 <1>   0.0800 
 24 H        2.0960    -1.1610    -1.1400 H     1 <1>   0.0800 
 25 H        1.3300    -0.5860     0.3070 H     1 <1>   0.0800 
 26 H        1.4500    -5.1290    -1.5650 H     1 <1>   0.0800 
 27 H        1.6900    -3.5980    -2.3430 H     1 <1>   0.0800 
 28 H       -0.0850    -1.5660    -1.7380 H     1 <1>   0.0800 
 29 H       -0.6330    -1.7270    -0.0980 H     1 <1>   0.0800 
 30 H        4.9580    -3.5650     0.7180 H     1 <1>   0.3700 
 31 H       -0.1140    -3.9980     0.0240 H     1 <1>   0.0800 
 32 H       -0.6420    -3.8410    -1.6260 H     1 <1>   0.0800 
 33 H        6.4130    -2.8510    -1.6870 H     1 <1>   0.0800 
 34 H        7.0700    -4.2550    -0.8860 H     1 <1>   0.0800 
 35 H        6.4630    -1.6390     0.4940 H     1 <1>   0.0800 
 36 H        8.0970    -4.0110     1.4420 H     1 <1>   0.0800 
 37 H        6.5590    -3.4790     2.0770 H     1 <1>   0.0800 
 38 H        7.9650    -2.4770     2.2730 H     1 <1>   0.0800 
 39 H        7.6950     0.1670    -0.2000 H     1 <1>   0.1500 
 40 H        9.4520    -3.7020    -0.5530 H     1 <1>   0.1500 
 41 H        9.7200     1.1700    -1.1480 H     1 <1>   0.1500 
 42 H       11.4740    -2.6980    -1.5010 H     1 <1>   0.1500 
 43 H       11.6180    -0.2590    -1.8030 H     1 <1>   0.1500 
@<TRIPOS>BOND
  1   1   2  ar  
  2   2   3  ar  
  3   2   4  1   
  4   4   5  1   
  5   4   6  1   
  6   4  22  1   
  7   5   7  1   
  8   5   8  1   
  9   5  23  1   
 10   6   9  1   
 11   6  24  1   
 12   6  25  1   
 13   7  10  2   
 14   7  11  am  
 15   8  12  1   
 16   8  26  1   
 17   8  27  1   
 18   9  12  1   
 19   9  28  1   
 20   9  29  1   
 21  11  13  1   
 22  11  30  1   
 23  12  31  1   
 24  12  32  1   
 25  13  14  1   
 26  13  33  1   
 27  13  34  1   
 28  14  15  1   
 29  14  16  1   
 30  14  35  1   
 31  15  17  ar  
 32  15  18  ar  
 33  16  36  1   
 34  16  37  1   
 35  16  38  1   
 36  17  19  ar  
 37  17  39  1   
 38  18  20  ar  
 39  18  40  1   
 40  19  21  ar  
 41  19  41  1   
 42  20  21  ar  
 43  20  42  1   
 44  21  43  1   
@<TRIPOS>SUBSTRUCTURE
  1 ****  11 GROUP 4 **** **** 0

# MOE 2024.06 (io_trps.svl 2023.06)
