@<TRIPOS>MOLECULE
NONAME
47 49 1 0 0 
SMALL
USER_CHARGES


@<TRIPOS>ATOM
  1 O       -0.8590    -0.1620    -1.0890 O.2   1 <1>  -0.5700 
  2 C       -0.6240    -1.2630    -0.6500 C.2   1 <1>   0.5690 
  3 N        0.6440    -1.7030    -0.3680 N.am  1 <1>  -0.5470 
  4 C       -1.7960    -2.2200    -0.3560 C.3   1 <1>   0.1710 
  5 C        1.8850    -1.0600    -0.5030 C.ar  1 <1>   0.1170 
  6 N       -3.0430    -1.5770     0.1540 N.3   1 <1>  -0.8100 
  7 C        2.9420    -1.4810     0.2960 C.ar  1 <1>  -0.1500 
  8 C        2.1140    -0.0300    -1.4110 C.ar  1 <1>  -0.1500 
  9 C       -4.1710    -2.5210     0.3250 C.3   1 <1>   0.1100 
 10 C       -2.8390    -0.7550     1.3730 C.3   1 <1>   0.1100 
 11 C        4.1890    -0.8900     0.1980 C.ar  1 <1>  -0.1500 
 12 C        3.3590     0.5640    -1.5120 C.ar  1 <1>  -0.1500 
 13 C       -5.4610    -1.8060     0.8010 C.3   1 <1>   0.3430 
 14 C       -4.1100     0.0480     1.7410 C.3   1 <1>   0.3430 
 15 C        4.3990     0.1350    -0.7070 C.ar  1 <1>  -0.1500 
 16 N       -5.2590    -0.3180     0.8500 N.4   1 <1>  -0.9590 
 17 C       -6.4950     0.4680     1.0920 C.3   1 <1>   0.4860 
 18 C       -7.5350     0.0850     0.0570 C.ar  1 <1>  -0.1430 
 19 C       -8.6490    -0.6540     0.4290 C.ar  1 <1>  -0.1500 
 20 C       -7.3780     0.4620    -1.2700 C.ar  1 <1>  -0.1500 
 21 C       -9.5900    -1.0200    -0.5170 C.ar  1 <1>  -0.1500 
 22 C       -8.3200     0.0940    -2.2150 C.ar  1 <1>  -0.1500 
 23 C       -9.4240    -0.6480    -1.8390 C.ar  1 <1>  -0.1500 
 24 H        0.7130    -2.6340     0.0350 H     1 <1>   0.3700 
 25 H       -1.4690    -2.9590     0.3530 H     1 <1>   0.0800 
 26 H       -2.0250    -2.7260    -1.2770 H     1 <1>   0.0800 
 27 H        2.7950    -2.2750     1.0040 H     1 <1>   0.1500 
 28 H        1.3210     0.3130    -2.0510 H     1 <1>   0.1500 
 29 H       -3.9080    -3.2890     1.0340 H     1 <1>   0.0800 
 30 H       -4.3730    -3.0040    -0.6170 H     1 <1>   0.0800 
 31 H       -2.0360    -0.0530     1.2160 H     1 <1>   0.0800 
 32 H       -2.5600    -1.3870     2.1990 H     1 <1>   0.0800 
 33 H        4.9970    -1.2250     0.8240 H     1 <1>   0.1500 
 34 H        3.5170     1.3610    -2.2180 H     1 <1>   0.1500 
 35 H       -5.7350    -2.1730     1.7760 H     1 <1>   0.0800 
 36 H       -6.2620    -2.0490     0.1210 H     1 <1>   0.0800 
 37 H       -3.8920     1.0990     1.6400 H     1 <1>   0.0800 
 38 H       -4.3620    -0.1390     2.7720 H     1 <1>   0.0800 
 39 H        5.3670     0.5990    -0.7850 H     1 <1>   0.1500 
 40 H       -4.9140    -0.1040    -0.0990 H     1 <1>   0.4500 
 41 H       -6.2850     1.5220     1.0140 H     1 <1>   0.0800 
 42 H       -6.8750     0.2660     2.0800 H     1 <1>   0.0800 
 43 H       -8.8020    -0.9510     1.4530 H     1 <1>   0.1500 
 44 H       -6.5290     1.0450    -1.5860 H     1 <1>   0.1500 
 45 H      -10.4550    -1.5930    -0.2290 H     1 <1>   0.1500 
 46 H       -8.1970     0.3870    -3.2440 H     1 <1>   0.1500 
 47 H      -10.1580    -0.9330    -2.5750 H     1 <1>   0.1500 
@<TRIPOS>BOND
  1   1   2  2   
  2   2   3  am  
  3   2   4  1   
  4   3   5  1   
  5   3  24  1   
  6   4   6  1   
  7   4  25  1   
  8   4  26  1   
  9   5   7  ar  
 10   5   8  ar  
 11   6   9  1   
 12   6  10  1   
 13   7  11  ar  
 14   7  27  1   
 15   8  12  ar  
 16   8  28  1   
 17   9  13  1   
 18   9  29  1   
 19   9  30  1   
 20  10  14  1   
 21  10  31  1   
 22  10  32  1   
 23  11  15  ar  
 24  11  33  1   
 25  12  15  ar  
 26  12  34  1   
 27  13  16  1   
 28  13  35  1   
 29  13  36  1   
 30  14  16  1   
 31  14  37  1   
 32  14  38  1   
 33  15  39  1   
 34  16  17  1   
 35  16  40  1   
 36  17  18  1   
 37  17  41  1   
 38  17  42  1   
 39  18  19  ar  
 40  18  20  ar  
 41  19  21  ar  
 42  19  43  1   
 43  20  22  ar  
 44  20  44  1   
 45  21  23  ar  
 46  21  45  1   
 47  22  23  ar  
 48  22  46  1   
 49  23  47  1   
@<TRIPOS>SUBSTRUCTURE
  1 ****   6 GROUP 4 **** **** 0

# MOE 2024.06 (io_trps.svl 2023.06)
