@<TRIPOS>MOLECULE
NONAME
43 45 1 0 0 
SMALL
USER_CHARGES


@<TRIPOS>ATOM
  1 BR      -1.7580     2.5200    -1.4290 Br    1 <1>  -0.0580 
  2 C       -2.5420     1.0380    -0.4840 C.2   1 <1>   0.1980 
  3 O       -3.6130     0.4820    -1.0050 O.3   1 <1>  -0.2800 
  4 C       -2.1520     0.4660     0.6700 C.2   1 <1>  -0.1500 
  5 C       -3.9490    -0.4960    -0.1760 C.2   1 <1>  -0.0400 
  6 C       -3.0930    -0.5560     0.8740 C.2   1 <1>  -0.1500 
  7 C       -5.1740    -1.3250    -0.5170 C.3   1 <1>   0.5230 
  8 N       -6.2830    -0.3960    -0.8550 N.4   1 <1>  -0.9590 
  9 C       -6.7200     0.4160     0.3440 C.3   1 <1>   0.3430 
 10 C       -7.4480    -1.0970    -1.5090 C.3   1 <1>   0.3430 
 11 C       -7.8730     1.3850     0.0130 C.3   1 <1>   0.2090 
 12 C       -8.6060    -0.1340    -1.8450 C.3   1 <1>   0.2090 
 13 N       -8.9930     0.6530    -0.6430 N.pl3 1 <1>  -0.8380 
 14 C      -10.2150     1.3210    -0.7160 C.ar  1 <1>   0.1000 
 15 C      -11.3390     0.8750    -0.0100 C.ar  1 <1>  -0.1430 
 16 C      -10.3210     2.4520    -1.5180 C.ar  1 <1>  -0.1500 
 17 C      -12.5460     1.5590    -0.1330 C.ar  1 <1>  -0.1430 
 18 C      -11.2510    -0.3600     0.8870 C.3   1 <1>  -0.0970 
 19 C      -11.5150     3.1330    -1.6290 C.ar  1 <1>  -0.1500 
 20 C      -12.6240     2.6850    -0.9390 C.ar  1 <1>  -0.1500 
 21 C      -13.8090     1.1110     0.5930 C.3   1 <1>  -0.0970 
 22 H       -1.3180     0.7150     1.3020 H     1 <1>   0.1500 
 23 H       -3.0840    -1.2280     1.7170 H     1 <1>   0.1500 
 24 H       -5.4430    -1.9580     0.3130 H     1 <1>   0.0800 
 25 H       -4.9440    -1.9460    -1.3680 H     1 <1>   0.0800 
 26 H       -5.8790     0.2720    -1.5280 H     1 <1>   0.4500 
 27 H       -5.8870     0.9840     0.7270 H     1 <1>   0.0800 
 28 H       -7.0570    -0.2450     1.1240 H     1 <1>   0.0800 
 29 H       -7.8330    -1.8530    -0.8440 H     1 <1>   0.0800 
 30 H       -7.1260    -1.5840    -2.4140 H     1 <1>   0.0800 
 31 H       -7.5200     2.1690    -0.6340 H     1 <1>   0.0800 
 32 H       -8.2320     1.8410     0.9210 H     1 <1>   0.0800 
 33 H       -9.4580    -0.6990    -2.1860 H     1 <1>   0.0800 
 34 H       -8.3130     0.5330    -2.6370 H     1 <1>   0.0800 
 35 H       -9.4650     2.8020    -2.0600 H     1 <1>   0.1500 
 36 H      -11.6670    -1.2070     0.3730 H     1 <1>   0.0800 
 37 H      -11.7940    -0.2050     1.8010 H     1 <1>   0.0800 
 38 H      -10.2380    -0.5870     1.1580 H     1 <1>   0.0800 
 39 H      -11.5870     4.0080    -2.2510 H     1 <1>   0.1500 
 40 H      -13.5510     3.2220    -1.0350 H     1 <1>   0.1500 
 41 H      -13.7060     1.2850     1.6490 H     1 <1>   0.0800 
 42 H      -13.9850     0.0640     0.4230 H     1 <1>   0.0800 
 43 H      -14.6680     1.6530     0.2430 H     1 <1>   0.0800 
@<TRIPOS>BOND
  1   1   2  1   
  2   2   3  1   
  3   2   4  2   
  4   3   5  1   
  5   4   6  1   
  6   4  22  1   
  7   5   6  2   
  8   5   7  1   
  9   6  23  1   
 10   7   8  1   
 11   7  24  1   
 12   7  25  1   
 13   8   9  1   
 14   8  10  1   
 15   8  26  1   
 16   9  11  1   
 17   9  27  1   
 18   9  28  1   
 19  10  12  1   
 20  10  29  1   
 21  10  30  1   
 22  11  13  1   
 23  11  31  1   
 24  11  32  1   
 25  12  13  1   
 26  12  33  1   
 27  12  34  1   
 28  13  14  1   
 29  14  15  ar  
 30  14  16  ar  
 31  15  17  ar  
 32  15  18  1   
 33  16  19  ar  
 34  16  35  1   
 35  17  20  ar  
 36  17  21  1   
 37  18  36  1   
 38  18  37  1   
 39  18  38  1   
 40  19  20  ar  
 41  19  39  1   
 42  20  40  1   
 43  21  41  1   
 44  21  42  1   
 45  21  43  1   
@<TRIPOS>SUBSTRUCTURE
  1 ****  11 GROUP 4 **** **** 0

# MOE 2024.06 (io_trps.svl 2023.06)
