@<TRIPOS>MOLECULE
NONAME
39 39 1 0 0 
SMALL
USER_CHARGES


@<TRIPOS>ATOM
  1 O       -0.0780     1.0570     1.2250 O.2   1 <1>  -0.5700 
  2 C        0.0630     1.8560     0.3300 C.2   1 <1>   0.5690 
  3 N        1.2440     2.0430    -0.3370 N.am  1 <1>  -0.5470 
  4 C       -1.1310     2.7220    -0.0840 C.3   1 <1>  -0.0190 
  5 C        2.4890     1.4030    -0.2190 C.ar  1 <1>   0.1170 
  6 C       -1.5930     3.6020     1.1040 C.3   1 <1>  -0.1600 
  7 C       -2.2470     1.8120    -0.6500 C.3   1 <1>  -0.1600 
  8 C        2.6510     0.1420     0.3430 C.ar  1 <1>  -0.1500 
  9 C        3.6140     2.0550    -0.7050 C.ar  1 <1>  -0.1500 
 10 C       -2.0690     5.0030     0.6900 C.3   1 <1>  -0.2400 
 11 C       -3.4560     2.5550    -1.2320 C.3   1 <1>  -0.2400 
 12 C        3.8980    -0.4530     0.4230 C.ar  1 <1>   0.0830 
 13 C        4.8680     1.4760    -0.6350 C.ar  1 <1>   0.0830 
 14 O        3.9480    -1.6870     0.9890 O.3   1 <1>  -0.3630 
 15 C        5.0160     0.2140    -0.0680 C.ar  1 <1>  -0.1500 
 16 O        5.8980     2.2020    -1.1410 O.3   1 <1>  -0.3630 
 17 C        5.1690    -2.3680     1.1710 C.3   1 <1>   0.0400 
 18 C        7.2240     1.7220    -1.1080 C.3   1 <1>   0.0400 
 19 H        1.2320     2.8030    -1.0130 H     1 <1>   0.3700 
 20 H       -0.8000     3.3700    -0.8760 H     1 <1>   0.0800 
 21 H       -0.7670     3.7330     1.7830 H     1 <1>   0.0800 
 22 H       -2.3670     3.0940     1.6540 H     1 <1>   0.0800 
 23 H       -2.5870     1.1440     0.1250 H     1 <1>   0.0800 
 24 H       -1.8230     1.2000    -1.4270 H     1 <1>   0.0800 
 25 H        1.8040    -0.3970     0.7250 H     1 <1>   0.1500 
 26 H        3.5250     3.0290    -1.1450 H     1 <1>   0.1500 
 27 H       -1.2770     5.5390     0.1980 H     1 <1>   0.0800 
 28 H       -2.3580     5.5590     1.5650 H     1 <1>   0.0800 
 29 H       -2.9140     4.9580     0.0300 H     1 <1>   0.0800 
 30 H       -4.0200     3.0320    -0.4510 H     1 <1>   0.0800 
 31 H       -4.1060     1.8570    -1.7290 H     1 <1>   0.0800 
 32 H       -3.1410     3.2950    -1.9470 H     1 <1>   0.0800 
 33 H        5.9820    -0.2410    -0.0100 H     1 <1>   0.1500 
 34 H        4.9580    -3.3050     1.6540 H     1 <1>   0.0800 
 35 H        5.8110    -1.7720     1.7960 H     1 <1>   0.0800 
 36 H        5.6170    -2.5460     0.2100 H     1 <1>   0.0800 
 37 H        7.8590     2.4650    -1.5540 H     1 <1>   0.0800 
 38 H        7.2790     0.8080    -1.6730 H     1 <1>   0.0800 
 39 H        7.5120     1.5620    -0.0840 H     1 <1>   0.0800 
@<TRIPOS>BOND
  1   1   2  2   
  2   2   3  am  
  3   2   4  1   
  4   3   5  1   
  5   3  19  1   
  6   4   6  1   
  7   4   7  1   
  8   4  20  1   
  9   5   8  ar  
 10   5   9  ar  
 11   6  10  1   
 12   6  21  1   
 13   6  22  1   
 14   7  11  1   
 15   7  23  1   
 16   7  24  1   
 17   8  12  ar  
 18   8  25  1   
 19   9  13  ar  
 20   9  26  1   
 21  10  27  1   
 22  10  28  1   
 23  10  29  1   
 24  11  30  1   
 25  11  31  1   
 26  11  32  1   
 27  12  14  1   
 28  12  15  ar  
 29  13  15  ar  
 30  13  16  1   
 31  14  17  1   
 32  15  33  1   
 33  16  18  1   
 34  17  34  1   
 35  17  35  1   
 36  17  36  1   
 37  18  37  1   
 38  18  38  1   
 39  18  39  1   
@<TRIPOS>SUBSTRUCTURE
  1 ****   5 GROUP 4 **** **** 0

# MOE 2024.06 (io_trps.svl 2023.06)
