@<TRIPOS>MOLECULE
NONAME
41 42 1 0 0 
SMALL
USER_CHARGES


@<TRIPOS>ATOM
  1 S        0.0130    -0.1960     0.9840 S.o2  1 <1>   1.3330 
  2 O        1.0050    -1.1410     1.4410 O.2   1 <1>  -0.6500 
  3 O       -0.2350     1.0220     1.7170 O.2   1 <1>  -0.6500 
  4 N       -1.4850    -1.0700     0.8580 N.am  1 <1>  -0.6930 
  5 C        0.3520     0.1950    -0.7380 C.3   1 <1>  -0.0550 
  6 C       -2.6590    -0.4870     0.4020 C.ar  1 <1>   0.1990 
  7 C       -1.4420    -2.5230     1.1560 C.3   1 <1>   0.1160 
  8 C        1.6660     0.9610    -0.9710 C.3   1 <1>  -0.2400 
  9 C       -3.1960     0.6430     1.0090 C.ar  1 <1>  -0.1500 
 10 C       -3.3350    -1.0180    -0.6920 C.ar  1 <1>  -0.1500 
 11 C       -4.3560     1.2240     0.5370 C.ar  1 <1>  -0.1500 
 12 C       -4.4990    -0.4390    -1.1600 C.ar  1 <1>  -0.1500 
 13 C       -5.0460     0.6940    -0.5560 C.ar  1 <1>   0.0860 
 14 C       -6.2660     1.2920    -1.0590 C.2   1 <1>   0.5440 
 15 O       -6.4170     1.4110    -2.2610 O.2   1 <1>  -0.5700 
 16 N       -7.2730     1.7240    -0.2200 N.am  1 <1>  -0.6600 
 17 C       -7.5180     1.1670     1.1440 C.3   1 <1>   0.1400 
 18 C       -8.3870     2.5960    -0.7040 C.3   1 <1>   0.1400 
 19 C       -8.9320     0.5670     1.2410 C.3   1 <1>   0.1200 
 20 C       -9.7440     1.9030    -0.5060 C.3   1 <1>   0.1200 
 21 O       -9.8960     1.4910     0.8250 O.3   1 <1>  -0.5600 
 22 H       -0.4580     0.7830    -1.1240 H     1 <1>   0.0800 
 23 H        0.3850    -0.7190    -1.3000 H     1 <1>   0.0800 
 24 H       -1.0350    -2.6760     2.1410 H     1 <1>   0.0800 
 25 H       -0.8160    -3.0260     0.4390 H     1 <1>   0.0800 
 26 H       -2.4320    -2.9440     1.1230 H     1 <1>   0.0800 
 27 H        1.6470     1.8970    -0.4390 H     1 <1>   0.0800 
 28 H        1.8020     1.1600    -2.0190 H     1 <1>   0.0800 
 29 H        2.5010     0.3810    -0.6160 H     1 <1>   0.0800 
 30 H       -2.6980     1.0700     1.8620 H     1 <1>   0.1500 
 31 H       -2.9390    -1.8880    -1.1830 H     1 <1>   0.1500 
 32 H       -4.7400     2.1080     1.0160 H     1 <1>   0.1500 
 33 H       -5.0030    -0.8590    -2.0140 H     1 <1>   0.1500 
 34 H       -7.4180     1.9530     1.8720 H     1 <1>   0.0800 
 35 H       -6.8020     0.4000     1.3770 H     1 <1>   0.0800 
 36 H       -8.2590     2.8380    -1.7440 H     1 <1>   0.0800 
 37 H       -8.3770     3.5180    -0.1500 H     1 <1>   0.0800 
 38 H       -9.1530     0.2980     2.2590 H     1 <1>   0.0800 
 39 H       -9.0120    -0.3130     0.6260 H     1 <1>   0.0800 
 40 H       -9.8240     1.0430    -1.1480 H     1 <1>   0.0800 
 41 H      -10.5450     2.5830    -0.7340 H     1 <1>   0.0800 
@<TRIPOS>BOND
  1   1   2  2   
  2   1   3  2   
  3   1   4  am  
  4   1   5  1   
  5   4   6  1   
  6   4   7  1   
  7   5   8  1   
  8   5  22  1   
  9   5  23  1   
 10   6   9  ar  
 11   6  10  ar  
 12   7  24  1   
 13   7  25  1   
 14   7  26  1   
 15   8  27  1   
 16   8  28  1   
 17   8  29  1   
 18   9  11  ar  
 19   9  30  1   
 20  10  12  ar  
 21  10  31  1   
 22  11  13  ar  
 23  11  32  1   
 24  12  13  ar  
 25  12  33  1   
 26  13  14  1   
 27  14  15  2   
 28  14  16  am  
 29  16  17  1   
 30  16  18  1   
 31  17  19  1   
 32  17  34  1   
 33  17  35  1   
 34  18  20  1   
 35  18  36  1   
 36  18  37  1   
 37  19  21  1   
 38  19  38  1   
 39  19  39  1   
 40  20  21  1   
 41  20  40  1   
 42  20  41  1   
@<TRIPOS>SUBSTRUCTURE
  1 ****  11 GROUP 4 **** **** 0

# MOE 2024.06 (io_trps.svl 2023.06)
