@<TRIPOS>MOLECULE
NONAME
38 39 1 0 0 
SMALL
USER_CHARGES


@<TRIPOS>ATOM
  1 O        0.0930     0.3000    -0.3460 O.3   1 <1>  -0.5600 
  2 C        1.0890    -0.4490     0.2840 C.3   1 <1>   0.1200 
  3 C        0.1030     1.6620    -0.0400 C.3   1 <1>   0.1200 
  4 C        2.4820     0.0870    -0.0970 C.3   1 <1>   0.3430 
  5 C        1.4530     2.2880    -0.4370 C.3   1 <1>   0.3430 
  6 N        2.6210     1.5640     0.1910 N.4   1 <1>  -0.9590 
  7 C        3.9260     2.1810    -0.2250 C.3   1 <1>   0.4230 
  8 C        5.1200     1.2390     0.0500 C.3   1 <1>  -0.1600 
  9 C        4.0790     3.5290     0.5070 C.3   1 <1>  -0.1600 
 10 C        6.4940     1.7540    -0.4160 C.3   1 <1>  -0.1600 
 11 C        4.8350     4.5830    -0.3260 C.3   1 <1>  -0.1600 
 12 C        7.2160     2.6910     0.5740 C.3   1 <1>  -0.1600 
 13 C        6.1410     5.0480     0.3330 C.3   1 <1>  -0.1600 
 14 C        7.3520     4.1390     0.0770 C.3   1 <1>  -0.1600 
 15 H        0.9840    -1.4700    -0.0410 H     1 <1>   0.0800 
 16 H        0.9330    -0.4120     1.3480 H     1 <1>   0.0800 
 17 H       -0.0910     1.7850     1.0120 H     1 <1>   0.0800 
 18 H       -0.6970     2.1260    -0.5910 H     1 <1>   0.0800 
 19 H        2.6410    -0.0950    -1.1470 H     1 <1>   0.0800 
 20 H        3.2250    -0.4670     0.4510 H     1 <1>   0.0800 
 21 H        1.4510     3.3250    -0.1480 H     1 <1>   0.0800 
 22 H        1.5390     2.2490    -1.5110 H     1 <1>   0.0800 
 23 H        2.5530     1.6800     1.2090 H     1 <1>   0.4500 
 24 H        3.8880     2.3670    -1.2870 H     1 <1>   0.0800 
 25 H        4.9730     0.3290    -0.5010 H     1 <1>   0.0800 
 26 H        5.1680     0.9900     1.0960 H     1 <1>   0.0800 
 27 H        4.5640     3.3730     1.4530 H     1 <1>   0.0800 
 28 H        3.1210     3.9560     0.7370 H     1 <1>   0.0800 
 29 H        6.4180     2.2030    -1.3920 H     1 <1>   0.0800 
 30 H        7.1280     0.8910    -0.5380 H     1 <1>   0.0800 
 31 H        4.2000     5.4480    -0.4220 H     1 <1>   0.0800 
 32 H        5.0360     4.2390    -1.3260 H     1 <1>   0.0800 
 33 H        8.2180     2.3120     0.6920 H     1 <1>   0.0800 
 34 H        6.7730     2.6660     1.5530 H     1 <1>   0.0800 
 35 H        5.9990     5.1790     1.3930 H     1 <1>   0.0800 
 36 H        6.3840     6.0190    -0.0650 H     1 <1>   0.0800 
 37 H        7.5970     4.1460    -0.9720 H     1 <1>   0.0800 
 38 H        8.1910     4.5810     0.5870 H     1 <1>   0.0800 
@<TRIPOS>BOND
  1   1   2  1   
  2   1   3  1   
  3   2   4  1   
  4   2  15  1   
  5   2  16  1   
  6   3   5  1   
  7   3  17  1   
  8   3  18  1   
  9   4   6  1   
 10   4  19  1   
 11   4  20  1   
 12   5   6  1   
 13   5  21  1   
 14   5  22  1   
 15   6   7  1   
 16   6  23  1   
 17   7   8  1   
 18   7   9  1   
 19   7  24  1   
 20   8  10  1   
 21   8  25  1   
 22   8  26  1   
 23   9  11  1   
 24   9  27  1   
 25   9  28  1   
 26  10  12  1   
 27  10  29  1   
 28  10  30  1   
 29  11  13  1   
 30  11  31  1   
 31  11  32  1   
 32  12  14  1   
 33  12  33  1   
 34  12  34  1   
 35  13  14  1   
 36  13  35  1   
 37  13  36  1   
 38  14  37  1   
 39  14  38  1   
@<TRIPOS>SUBSTRUCTURE
  1 ****   7 GROUP 4 **** **** 0

# MOE 2024.06 (io_trps.svl 2023.06)
