@<TRIPOS>MOLECULE
NONAME
20 24 1 0 0 
SMALL
USER_CHARGES


@<TRIPOS>ATOM
  1 O       -0.4940     0.7890     0.3630 O.co2 1 <1>  -0.9000 
  2 C        0.0840     1.7060     0.9600 C.2   1 <1>   0.8710 
  3 O       -0.4100     2.2450     1.9590 O.co2 1 <1>  -0.9000 
  4 C        1.4340     2.1850     0.4560 C.3   1 <1>  -0.0710 
  5 C        1.6880     3.5780    -0.1920 C.3   1 <1>   0.0000 
  6 C        2.7030     2.3560     1.3420 C.3   1 <1>   0.0000 
  7 C        2.2890     1.5030    -0.6540 C.3   1 <1>   0.0000 
  8 C        2.9640     3.7510     0.6910 C.3   1 <1>   0.0000 
  9 C        2.5490     2.8990    -1.3040 C.3   1 <1>   0.0000 
 10 C        3.5640     1.6760     0.2310 C.3   1 <1>   0.0000 
 11 C        3.8180     3.0690    -0.4170 C.3   1 <1>  -0.0710 
 12 C        5.1610     3.5850    -0.9050 C.2   1 <1>   0.8710 
 13 O        5.1880     4.4940    -1.7450 O.co2 1 <1>  -0.9000 
 14 O        6.2000     3.0890    -0.4510 O.co2 1 <1>  -0.9000 
 15 H        0.9390     4.3310    -0.3590 H     1 <1>   0.0000 
 16 H        2.7600     2.1390     2.3940 H     1 <1>   0.0000 
 17 H        2.0200     0.6090    -1.1880 H     1 <1>   0.0000 
 18 H        3.2360     4.6450     1.2230 H     1 <1>   0.0000 
 19 H        2.4910     3.1150    -2.3560 H     1 <1>   0.0000 
 20 H        4.3110     0.9200     0.3980 H     1 <1>   0.0000 
@<TRIPOS>BOND
  1   1   2  ar  
  2   2   3  ar  
  3   2   4  1   
  4   4   5  1   
  5   4   6  1   
  6   4   7  1   
  7   5   8  1   
  8   5   9  1   
  9   5  15  1   
 10   6   8  1   
 11   6  10  1   
 12   6  16  1   
 13   7   9  1   
 14   7  10  1   
 15   7  17  1   
 16   8  11  1   
 17   8  18  1   
 18   9  11  1   
 19   9  19  1   
 20  10  11  1   
 21  10  20  1   
 22  11  12  1   
 23  12  13  ar  
 24  12  14  ar  
@<TRIPOS>SUBSTRUCTURE
  1 ****   8 GROUP 4 **** **** 0

# MOE 2024.06 (io_trps.svl 2023.06)
