@<TRIPOS>MOLECULE
NONAME
33 33 1 0 0 
SMALL
USER_CHARGES


@<TRIPOS>ATOM
  1 CL       0.2050    -0.1070     0.4540 Cl    1 <1>  -0.1770 
  2 C        1.6540     0.8380     0.2540 C.ar  1 <1>   0.1770 
  3 C        1.5560     2.1680    -0.1060 C.ar  1 <1>  -0.1500 
  4 C        2.8860     0.2490     0.4580 C.ar  1 <1>  -0.1500 
  5 C        2.7120     2.9130    -0.2630 C.ar  1 <1>  -0.1500 
  6 C        4.0350     1.0040     0.2980 C.ar  1 <1>  -0.1500 
  7 C        3.9800     2.3550    -0.0670 C.ar  1 <1>   0.0860 
  8 C        5.1780     3.1580    -0.2380 C.2   1 <1>   0.6340 
  9 O        5.1550     4.3310    -0.5470 O.2   1 <1>  -0.5700 
 10 O        6.3680     2.5770    -0.0460 O.3   1 <1>  -0.4300 
 11 C        7.5630     3.3090    -0.1980 C.3   1 <1>   0.1200 
 12 C        8.7350     2.3690     0.0830 C.3   1 <1>  -0.1600 
 13 C       10.0570     3.1200    -0.0720 C.3   1 <1>   0.3430 
 14 N       11.2070     2.2430     0.2960 N.4   1 <1>  -0.9590 
 15 C       12.4500     3.0580     0.4730 C.3   1 <1>   0.2630 
 16 C       11.4420     1.1570    -0.7100 C.3   1 <1>   0.2630 
 17 H        0.5880     2.6090    -0.2610 H     1 <1>   0.1500 
 18 H        2.9380    -0.7890     0.7380 H     1 <1>   0.1500 
 19 H        2.6340     3.9510    -0.5450 H     1 <1>   0.1500 
 20 H        4.9900     0.5350     0.4590 H     1 <1>   0.1500 
 21 H        7.5420     4.1310     0.4990 H     1 <1>   0.0800 
 22 H        7.5960     3.6900    -1.2050 H     1 <1>   0.0800 
 23 H        8.6850     1.5520    -0.6140 H     1 <1>   0.0800 
 24 H        8.6420     1.9980     1.0880 H     1 <1>   0.0800 
 25 H       10.0420     3.9820     0.5770 H     1 <1>   0.0800 
 26 H       10.1660     3.4680    -1.0870 H     1 <1>   0.0800 
 27 H       10.9860     1.8010     1.2020 H     1 <1>   0.4500 
 28 H       12.7160     3.5420    -0.4530 H     1 <1>   0.0800 
 29 H       13.2700     2.4280     0.7800 H     1 <1>   0.0800 
 30 H       12.2990     3.8130     1.2270 H     1 <1>   0.0800 
 31 H       11.6490     1.5810    -1.6790 H     1 <1>   0.0800 
 32 H       10.5750     0.5220    -0.7890 H     1 <1>   0.0800 
 33 H       12.2810     0.5480    -0.4140 H     1 <1>   0.0800 
@<TRIPOS>BOND
  1   1   2  1   
  2   2   3  ar  
  3   2   4  ar  
  4   3   5  ar  
  5   3  17  1   
  6   4   6  ar  
  7   4  18  1   
  8   5   7  ar  
  9   5  19  1   
 10   6   7  ar  
 11   6  20  1   
 12   7   8  1   
 13   8   9  2   
 14   8  10  1   
 15  10  11  1   
 16  11  12  1   
 17  11  21  1   
 18  11  22  1   
 19  12  13  1   
 20  12  23  1   
 21  12  24  1   
 22  13  14  1   
 23  13  25  1   
 24  13  26  1   
 25  14  15  1   
 26  14  16  1   
 27  14  27  1   
 28  15  28  1   
 29  15  29  1   
 30  15  30  1   
 31  16  31  1   
 32  16  32  1   
 33  16  33  1   
@<TRIPOS>SUBSTRUCTURE
  1 ****  10 GROUP 4 **** **** 0

# MOE 2024.06 (io_trps.svl 2023.06)
