@<TRIPOS>MOLECULE
NONAME
52 53 1 0 0 
SMALL
USER_CHARGES


@<TRIPOS>ATOM
  1 S       -0.0870     0.0180     0.1140 S.o2  1 <1>   1.3330 
  2 O        1.2080    -0.5940     0.2970 O.2   1 <1>  -0.6500 
  3 O       -1.1090    -0.6630    -0.6400 O.2   1 <1>  -0.6500 
  4 N        0.2240     1.5160    -0.6870 N.am  1 <1>  -0.6930 
  5 C       -0.7090     0.5260     1.7020 C.3   1 <1>  -0.1350 
  6 C       -0.7470     2.5140    -0.7320 C.ar  1 <1>   0.1990 
  7 C        1.1340     1.4220    -1.8730 C.3   1 <1>   0.2570 
  8 C       -0.5540     3.7550    -0.1140 C.ar  1 <1>  -0.1440 
  9 C       -1.9360     2.2800    -1.4170 C.ar  1 <1>  -0.1500 
 10 C        2.6010     1.7620    -1.5930 C.2   1 <1>   0.5690 
 11 C       -1.5440     4.7220    -0.2060 C.ar  1 <1>  -0.1500 
 12 C        0.7200     4.1020     0.6560 C.3   1 <1>  -0.0170 
 13 C       -2.9190     3.2470    -1.4940 C.ar  1 <1>  -0.1500 
 14 O        3.1520     2.5320    -2.3430 O.2   1 <1>  -0.5700 
 15 N        3.2350     1.1590    -0.5400 N.am  1 <1>  -0.5470 
 16 C       -2.7220     4.4730    -0.8880 C.ar  1 <1>  -0.1500 
 17 C        0.4400     4.3130     2.1480 C.3   1 <1>  -0.2400 
 18 C        4.6010     1.1170    -0.2090 C.ar  1 <1>   0.1170 
 19 C        5.3540     2.2670     0.0570 C.ar  1 <1>  -0.1430 
 20 C        5.2190    -0.1330    -0.1140 C.ar  1 <1>  -0.1430 
 21 C        6.6940     2.1520     0.3850 C.ar  1 <1>  -0.1500 
 22 C        4.7590     3.6680     0.0130 C.3   1 <1>  -0.0970 
 23 C        6.5590    -0.2230     0.2220 C.ar  1 <1>  -0.1500 
 24 C        4.4470    -1.4220    -0.3780 C.3   1 <1>  -0.0970 
 25 C        7.3040     0.9140     0.4710 C.ar  1 <1>  -0.1430 
 26 C        8.7750     0.8060     0.8310 C.3   1 <1>  -0.0970 
 27 H       -0.9400    -0.3340     2.2980 H     1 <1>   0.0800 
 28 H       -1.6000     1.1120     1.5830 H     1 <1>   0.0800 
 29 H        0.0270     1.1120     2.2150 H     1 <1>   0.0800 
 30 H        0.7840     2.0940    -2.6370 H     1 <1>   0.0800 
 31 H        1.0900     0.4280    -2.2810 H     1 <1>   0.0800 
 32 H       -2.0930     1.3310    -1.8980 H     1 <1>   0.1500 
 33 H       -1.4040     5.6840     0.2550 H     1 <1>   0.1500 
 34 H        1.1460     4.9990     0.2410 H     1 <1>   0.0800 
 35 H        1.4560     3.3280     0.5560 H     1 <1>   0.0800 
 36 H       -3.8330     3.0480    -2.0270 H     1 <1>   0.1500 
 37 H        2.6750     0.4380    -0.0670 H     1 <1>   0.3700 
 38 H       -3.4820     5.2330    -0.9480 H     1 <1>   0.1500 
 39 H       -0.2160     5.1520     2.2960 H     1 <1>   0.0800 
 40 H        1.3610     4.5050     2.6690 H     1 <1>   0.0800 
 41 H       -0.0190     3.4390     2.5700 H     1 <1>   0.0800 
 42 H        7.2750     3.0370     0.5760 H     1 <1>   0.1500 
 43 H        3.7500     3.6620     0.3730 H     1 <1>   0.0800 
 44 H        4.7690     4.0350    -0.9980 H     1 <1>   0.0800 
 45 H        5.3260     4.3440     0.6270 H     1 <1>   0.0800 
 46 H        7.0310    -1.1870     0.2900 H     1 <1>   0.1500 
 47 H        5.1080    -2.2690    -0.4080 H     1 <1>   0.0800 
 48 H        3.7250    -1.5840     0.4020 H     1 <1>   0.0800 
 49 H        3.9360    -1.3640    -1.3220 H     1 <1>   0.0800 
 50 H        9.0580     1.6060     1.4920 H     1 <1>   0.0800 
 51 H        9.3710     0.8640    -0.0610 H     1 <1>   0.0800 
 52 H        8.9750    -0.1280     1.3240 H     1 <1>   0.0800 
@<TRIPOS>BOND
  1   1   2  2   
  2   1   3  2   
  3   1   4  am  
  4   1   5  1   
  5   4   6  1   
  6   4   7  1   
  7   5  27  1   
  8   5  28  1   
  9   5  29  1   
 10   6   8  ar  
 11   6   9  ar  
 12   7  10  1   
 13   7  30  1   
 14   7  31  1   
 15   8  11  ar  
 16   8  12  1   
 17   9  13  ar  
 18   9  32  1   
 19  10  14  2   
 20  10  15  am  
 21  11  16  ar  
 22  11  33  1   
 23  12  17  1   
 24  12  34  1   
 25  12  35  1   
 26  13  16  ar  
 27  13  36  1   
 28  15  18  1   
 29  15  37  1   
 30  16  38  1   
 31  17  39  1   
 32  17  40  1   
 33  17  41  1   
 34  18  19  ar  
 35  18  20  ar  
 36  19  21  ar  
 37  19  22  1   
 38  20  23  ar  
 39  20  24  1   
 40  21  25  ar  
 41  21  42  1   
 42  22  43  1   
 43  22  44  1   
 44  22  45  1   
 45  23  25  ar  
 46  23  46  1   
 47  24  47  1   
 48  24  48  1   
 49  24  49  1   
 50  25  26  1   
 51  26  50  1   
 52  26  51  1   
 53  26  52  1   
@<TRIPOS>SUBSTRUCTURE
  1 ****  15 GROUP 4 **** **** 0

# MOE 2024.06 (io_trps.svl 2023.06)
