@<TRIPOS>MOLECULE
NONAME
43 43 1 0 0 
SMALL
USER_CHARGES


@<TRIPOS>ATOM
  1 O        0.0810    -0.3520    -0.9780 O.2   1 <1>  -0.5700 
  2 C       -0.4030    -1.4430    -0.7860 C.2   1 <1>   0.4950 
  3 C       -1.8160    -1.7030    -0.8020 C.2   1 <1>   0.0290 
  4 C        0.6090    -2.5430    -0.5150 C.3   1 <1>  -0.0990 
  5 C       -2.2010    -3.0900    -0.7960 C.2   1 <1>   0.4950 
  6 C       -2.6660    -0.6040    -0.8280 C.2   1 <1>  -0.0500 
  7 C        0.0300    -3.6770     0.3350 C.3   1 <1>   0.0000 
  8 O       -3.2730    -3.5200    -1.1550 O.2   1 <1>  -0.5700 
  9 C       -1.2330    -4.1850    -0.3690 C.3   1 <1>  -0.0990 
 10 N       -4.0200    -0.4380    -0.7800 N.pl3 1 <1>  -0.8690 
 11 C        1.0550    -4.8170     0.4430 C.3   1 <1>  -0.2400 
 12 C       -0.2970    -3.1860     1.7580 C.3   1 <1>  -0.2400 
 13 C       -5.0750    -1.4570    -0.6680 C.3   1 <1>   0.2090 
 14 C       -6.4030    -0.7820    -0.3500 C.3   1 <1>  -0.1600 
 15 C       -7.4860    -1.8530    -0.2390 C.3   1 <1>   0.3430 
 16 N       -8.8260    -1.2340    -0.0200 N.4   1 <1>  -0.9590 
 17 C       -8.9610    -0.6340     1.3460 C.3   1 <1>   0.2630 
 18 C       -9.9050    -2.2440    -0.2490 C.3   1 <1>   0.2630 
 19 H        0.9480    -2.9210    -1.4630 H     1 <1>   0.0800 
 20 H        1.4610    -2.1160    -0.0160 H     1 <1>   0.0800 
 21 H       -2.1590     0.3480    -0.8920 H     1 <1>   0.1500 
 22 H       -1.7530    -4.8750     0.2730 H     1 <1>   0.0800 
 23 H       -0.9600    -4.7270    -1.2570 H     1 <1>   0.0800 
 24 H       -4.3890     0.5190    -0.8580 H     1 <1>   0.4000 
 25 H        1.9520    -4.4730     0.9280 H     1 <1>   0.0800 
 26 H        1.3220    -5.1900    -0.5300 H     1 <1>   0.0800 
 27 H        0.6540    -5.6340     1.0180 H     1 <1>   0.0800 
 28 H       -1.0260    -2.3960     1.7590 H     1 <1>   0.0800 
 29 H        0.5920    -2.8170     2.2410 H     1 <1>   0.0800 
 30 H       -0.6860    -3.9940     2.3540 H     1 <1>   0.0800 
 31 H       -5.1450    -1.9910    -1.6010 H     1 <1>   0.0800 
 32 H       -4.8180    -2.1460     0.1190 H     1 <1>   0.0800 
 33 H       -6.6450    -0.0990    -1.1440 H     1 <1>   0.0800 
 34 H       -6.3010    -0.2500     0.5790 H     1 <1>   0.0800 
 35 H       -7.2530    -2.5270     0.5710 H     1 <1>   0.0800 
 36 H       -7.4990    -2.4240    -1.1540 H     1 <1>   0.0800 
 37 H       -8.9420    -0.4820    -0.7190 H     1 <1>   0.4500 
 38 H       -8.8230    -1.3890     2.1030 H     1 <1>   0.0800 
 39 H       -9.9400    -0.1990     1.4690 H     1 <1>   0.0800 
 40 H       -8.2260     0.1400     1.4930 H     1 <1>   0.0800 
 41 H       -9.8180    -3.0530     0.4580 H     1 <1>   0.0800 
 42 H       -9.8350    -2.6480    -1.2460 H     1 <1>   0.0800 
 43 H      -10.8760    -1.7880    -0.1330 H     1 <1>   0.0800 
@<TRIPOS>BOND
  1   1   2  2   
  2   2   3  1   
  3   2   4  1   
  4   3   5  1   
  5   3   6  2   
  6   4   7  1   
  7   4  19  1   
  8   4  20  1   
  9   5   8  2   
 10   5   9  1   
 11   6  10  1   
 12   6  21  1   
 13   7   9  1   
 14   7  11  1   
 15   7  12  1   
 16   9  22  1   
 17   9  23  1   
 18  10  13  1   
 19  10  24  1   
 20  11  25  1   
 21  11  26  1   
 22  11  27  1   
 23  12  28  1   
 24  12  29  1   
 25  12  30  1   
 26  13  14  1   
 27  13  31  1   
 28  13  32  1   
 29  14  15  1   
 30  14  33  1   
 31  14  34  1   
 32  15  16  1   
 33  15  35  1   
 34  15  36  1   
 35  16  17  1   
 36  16  18  1   
 37  16  37  1   
 38  17  38  1   
 39  17  39  1   
 40  17  40  1   
 41  18  41  1   
 42  18  42  1   
 43  18  43  1   
@<TRIPOS>SUBSTRUCTURE
  1 ****   5 GROUP 4 **** **** 0

# MOE 2024.06 (io_trps.svl 2023.06)
