@<TRIPOS>MOLECULE
NONAME
49 50 1 0 0 
SMALL
USER_CHARGES


@<TRIPOS>ATOM
  1 O       -4.4690     4.8330     1.5150 O.2   1 <1>  -0.5700 
  2 C       -3.8260     3.9660     0.9520 C.2   1 <1>   0.5440 
  3 N       -4.5060     3.0300     0.1930 N.am  1 <1>  -0.6600 
  4 C       -2.3820     3.9580     1.0890 C.ar  1 <1>   0.0860 
  5 C       -5.9840     2.9120     0.3550 C.3   1 <1>   0.2200 
  6 C       -3.8420     2.2890    -0.9260 C.3   1 <1>   0.0600 
  7 C       -1.6290     5.1170     0.9740 C.ar  1 <1>  -0.1500 
  8 C       -1.6500     2.8090     1.3550 C.ar  1 <1>  -0.1500 
  9 C       -6.4820     1.4810     0.2040 C.3   1 <1>  -0.1600 
 10 C       -6.6950     3.7900    -0.6630 C.3   1 <1>  -0.1600 
 11 C       -0.2540     5.0720     1.1000 C.ar  1 <1>   0.1600 
 12 C       -0.2740     2.8680     1.4650 C.ar  1 <1>   0.1600 
 13 C       -7.9930     1.3770     0.4660 C.3   1 <1>   0.5030 
 14 C       -8.2130     3.8040    -0.4420 C.3   1 <1>   0.5030 
 15 N        0.4410     3.9720     1.3360 N.ar  1 <1>  -0.6200 
 16 N       -8.7550     2.4020    -0.3350 N.4   1 <1>  -0.9590 
 17 C       -8.4390    -0.0080    -0.0220 C.3   1 <1>  -0.2400 
 18 C       -8.2880     1.4540     1.9740 C.3   1 <1>  -0.2400 
 19 C       -8.5740     4.6840     0.7670 C.3   1 <1>  -0.2400 
 20 C       -8.8410     4.4440    -1.6870 C.3   1 <1>  -0.2400 
 21 C      -10.2350     2.3770    -0.0480 C.3   1 <1>   0.2630 
 22 H       -6.2280     3.2490     1.3470 H     1 <1>   0.0800 
 23 H       -2.8810     2.7170    -1.1520 H     1 <1>   0.0800 
 24 H       -4.4410     2.3400    -1.8170 H     1 <1>   0.0800 
 25 H       -3.7050     1.2570    -0.6510 H     1 <1>   0.0800 
 26 H       -2.1230     6.0530     0.7880 H     1 <1>   0.1500 
 27 H       -2.1560     1.8700     1.4830 H     1 <1>   0.1500 
 28 H       -5.9520     0.8510     0.8970 H     1 <1>   0.0800 
 29 H       -6.2730     1.1250    -0.7880 H     1 <1>   0.0800 
 30 H       -6.4740     3.4430    -1.6550 H     1 <1>   0.0800 
 31 H       -6.3150     4.7940    -0.5810 H     1 <1>   0.0800 
 32 H        0.3060     5.9870     1.0030 H     1 <1>   0.1500 
 33 H        0.2710     1.9610     1.6710 H     1 <1>   0.1500 
 34 H       -8.6570     2.0550    -1.2930 H     1 <1>   0.4500 
 35 H       -8.3310    -0.1010    -1.0880 H     1 <1>   0.0800 
 36 H       -9.4550    -0.2250     0.2500 H     1 <1>   0.0800 
 37 H       -7.8290    -0.7690     0.4330 H     1 <1>   0.0800 
 38 H       -7.9580     2.3710     2.4150 H     1 <1>   0.0800 
 39 H       -7.7600     0.6660     2.4810 H     1 <1>   0.0800 
 40 H       -9.3300     1.3160     2.1910 H     1 <1>   0.0800 
 41 H       -8.1180     4.3500     1.6750 H     1 <1>   0.0800 
 42 H       -9.6350     4.7620     0.9120 H     1 <1>   0.0800 
 43 H       -8.2100     5.6830     0.5990 H     1 <1>   0.0800 
 44 H       -8.6890     3.8360    -2.5600 H     1 <1>   0.0800 
 45 H       -8.3830     5.4000    -1.8740 H     1 <1>   0.0800 
 46 H       -9.8920     4.6270    -1.5610 H     1 <1>   0.0800 
 47 H      -10.4280     2.7340     0.9500 H     1 <1>   0.0800 
 48 H      -10.6260     1.3780    -0.1350 H     1 <1>   0.0800 
 49 H      -10.7700     3.0020    -0.7430 H     1 <1>   0.0800 
@<TRIPOS>BOND
  1   1   2  2   
  2   2   3  am  
  3   2   4  1   
  4   3   5  1   
  5   3   6  1   
  6   4   7  ar  
  7   4   8  ar  
  8   5   9  1   
  9   5  10  1   
 10   5  22  1   
 11   6  23  1   
 12   6  24  1   
 13   6  25  1   
 14   7  11  ar  
 15   7  26  1   
 16   8  12  ar  
 17   8  27  1   
 18   9  13  1   
 19   9  28  1   
 20   9  29  1   
 21  10  14  1   
 22  10  30  1   
 23  10  31  1   
 24  11  15  ar  
 25  11  32  1   
 26  12  15  ar  
 27  12  33  1   
 28  13  16  1   
 29  13  17  1   
 30  13  18  1   
 31  14  16  1   
 32  14  19  1   
 33  14  20  1   
 34  16  21  1   
 35  16  34  1   
 36  17  35  1   
 37  17  36  1   
 38  17  37  1   
 39  18  38  1   
 40  18  39  1   
 41  18  40  1   
 42  19  41  1   
 43  19  42  1   
 44  19  43  1   
 45  20  44  1   
 46  20  45  1   
 47  20  46  1   
 48  21  47  1   
 49  21  48  1   
 50  21  49  1   
@<TRIPOS>SUBSTRUCTURE
  1 ****   5 GROUP 4 **** **** 0

# MOE 2024.06 (io_trps.svl 2023.06)
