@<TRIPOS>MOLECULE
NONAME
34 35 1 0 0 
SMALL
USER_CHARGES


@<TRIPOS>ATOM
  1 O       -1.4880     0.3800    -2.2080 O.2   1 <1>  -0.5700 
  2 C       -2.3790     0.2120    -1.4070 C.2   1 <1>   0.6900 
  3 N       -2.4780    -0.8660    -0.5590 N.am  1 <1>  -0.6600 
  4 N       -3.3800     1.1180    -1.2250 N.am  1 <1>  -0.7300 
  5 C       -3.8250    -0.7480    -0.0440 C.3   1 <1>   0.5200 
  6 C       -1.8490    -2.1810    -0.7950 C.3   1 <1>   0.1400 
  7 C       -3.9140     0.7580     0.0640 C.3   1 <1>   0.5200 
  8 N       -4.3590    -1.1070     1.2450 N.am  1 <1>  -0.7300 
  9 C       -1.1570    -2.6500     0.4860 C.3   1 <1>  -0.1600 
 10 N       -5.2610     0.8770     0.5790 N.am  1 <1>  -0.6600 
 11 C       -5.3600    -0.2010     1.4270 C.2   1 <1>   0.6900 
 12 C       -0.4890    -4.0160     0.2910 C.3   1 <1>  -0.2400 
 13 C       -5.8910     2.1920     0.8150 C.3   1 <1>   0.1400 
 14 O       -6.2510    -0.3700     2.2280 O.2   1 <1>  -0.5700 
 15 C       -6.5820     2.6610    -0.4660 C.3   1 <1>  -0.1600 
 16 C       -7.2490     4.0260    -0.2720 C.3   1 <1>  -0.2400 
 17 H       -3.1720     2.0910    -1.4320 H     1 <1>   0.3700 
 18 H       -4.5090    -1.0900    -0.8050 H     1 <1>   0.0800 
 19 H       -1.1220    -2.0930    -1.5870 H     1 <1>   0.0800 
 20 H       -2.5970    -2.8930    -1.0990 H     1 <1>   0.0800 
 21 H       -3.2300     1.1010     0.8250 H     1 <1>   0.0800 
 22 H       -4.5670    -2.0810     1.4520 H     1 <1>   0.3700 
 23 H       -1.8760    -2.7200     1.2820 H     1 <1>   0.0800 
 24 H       -0.4080    -1.9280     0.7640 H     1 <1>   0.0800 
 25 H       -1.2190    -4.7610     0.0270 H     1 <1>   0.0800 
 26 H       -0.0050    -4.3200     1.2030 H     1 <1>   0.0800 
 27 H        0.2520    -3.9640    -0.4870 H     1 <1>   0.0800 
 28 H       -5.1420     2.9030     1.1200 H     1 <1>   0.0800 
 29 H       -6.6170     2.1030     1.6070 H     1 <1>   0.0800 
 30 H       -7.3310     1.9390    -0.7450 H     1 <1>   0.0800 
 31 H       -5.8620     2.7310    -1.2620 H     1 <1>   0.0800 
 32 H       -7.9910     3.9750     0.5060 H     1 <1>   0.0800 
 33 H       -7.7330     4.3310    -1.1830 H     1 <1>   0.0800 
 34 H       -6.5190     4.7710    -0.0070 H     1 <1>   0.0800 
@<TRIPOS>BOND
  1   1   2  2   
  2   2   3  am  
  3   2   4  am  
  4   3   5  1   
  5   3   6  1   
  6   4   7  1   
  7   4  17  1   
  8   5   7  1   
  9   5   8  1   
 10   5  18  1   
 11   6   9  1   
 12   6  19  1   
 13   6  20  1   
 14   7  10  1   
 15   7  21  1   
 16   8  11  am  
 17   8  22  1   
 18   9  12  1   
 19   9  23  1   
 20   9  24  1   
 21  10  11  am  
 22  10  13  1   
 23  11  14  2   
 24  12  25  1   
 25  12  26  1   
 26  12  27  1   
 27  13  15  1   
 28  13  28  1   
 29  13  29  1   
 30  15  16  1   
 31  15  30  1   
 32  15  31  1   
 33  16  32  1   
 34  16  33  1   
 35  16  34  1   
@<TRIPOS>SUBSTRUCTURE
  1 ****   7 GROUP 4 **** **** 0

# MOE 2024.06 (io_trps.svl 2023.06)
