@<TRIPOS>MOLECULE
NONAME
45 46 1 0 0 
SMALL
USER_CHARGES


@<TRIPOS>ATOM
  1 O        0.7320    -0.1060    -1.6730 O.2   1 <1>  -0.5750 
  2 C       -0.1280     0.7000    -1.4100 C.2   1 <1>   0.6550 
  3 O        0.1320     1.8580    -0.8220 O.3   1 <1>  -0.4360 
  4 C       -1.5990     0.4150    -1.7300 C.3   1 <1>   0.4090 
  5 C        1.4430     2.2420    -0.4700 C.3   1 <1>   0.1120 
  6 N       -2.2480    -0.6390    -0.8720 N.pl3 1 <1>  -0.7680 
  7 C        1.3770     3.6180     0.1910 C.3   1 <1>  -0.1680 
  8 C       -1.8150    -1.8720    -0.5960 C.cat 1 <1>   1.0690 
  9 C       -3.5070    -0.5090    -0.2970 C.ar  1 <1>   0.3020 
 10 C        2.7740     4.1000     0.5990 C.3   1 <1>  -0.1680 
 11 N       -0.6640    -2.3730    -0.9790 N.pl3 1 <1>  -0.8400 
 12 N       -2.7100    -2.5490     0.1180 N.pl3 1 <1>  -0.7680 
 13 C       -3.7980    -1.7120     0.3210 C.ar  1 <1>   0.3020 
 14 C       -4.4190     0.5430    -0.2600 C.ar  1 <1>  -0.1170 
 15 C        2.7070     5.4780     1.2620 C.3   1 <1>  -0.2470 
 16 C       -2.6220    -3.9300     0.6410 C.3   1 <1>   0.3470 
 17 C       -5.0070    -1.8990     0.9840 C.ar  1 <1>  -0.1170 
 18 C       -5.6190     0.3590     0.4000 C.ar  1 <1>  -0.1580 
 19 C       -3.2510    -4.8960    -0.3640 C.3   1 <1>  -0.1680 
 20 C       -5.9120    -0.8560     1.0190 C.ar  1 <1>  -0.1580 
 21 C       -3.1690    -6.3470     0.1220 C.3   1 <1>  -0.2470 
 22 H       -1.6630     0.1080    -2.7590 H     1 <1>   0.0710 
 23 H       -2.1390     1.3390    -1.6360 H     1 <1>   0.0710 
 24 H        2.0430     2.2740    -1.3650 H     1 <1>   0.0710 
 25 H        1.8450     1.5090     0.2090 H     1 <1>   0.0710 
 26 H        0.7530     3.5620     1.0650 H     1 <1>   0.0710 
 27 H        0.9470     4.3230    -0.5000 H     1 <1>   0.0710 
 28 H        3.4080     4.1580    -0.2700 H     1 <1>   0.0710 
 29 H        3.2150     3.3990     1.2880 H     1 <1>   0.0710 
 30 H       -0.3790    -3.3250    -0.7760 H     1 <1>   0.4440 
 31 H        0.0610    -1.7850    -1.4110 H     1 <1>   0.4440 
 32 H       -4.2010     1.4820    -0.7330 H     1 <1>   0.1420 
 33 H        2.2900     6.2020     0.5840 H     1 <1>   0.0710 
 34 H        3.6950     5.8000     1.5400 H     1 <1>   0.0710 
 35 H        2.0990     5.4400     2.1480 H     1 <1>   0.0710 
 36 H       -3.1370    -3.9930     1.5850 H     1 <1>   0.0710 
 37 H       -1.5920    -4.1960     0.8120 H     1 <1>   0.0710 
 38 H       -5.2320    -2.8370     1.4580 H     1 <1>   0.1420 
 39 H       -6.3410     1.1590     0.4430 H     1 <1>   0.1420 
 40 H       -2.7450    -4.8180    -1.3100 H     1 <1>   0.0710 
 41 H       -4.2860    -4.6380    -0.5100 H     1 <1>   0.0710 
 42 H       -6.8560    -0.9760     1.5270 H     1 <1>   0.1420 
 43 H       -3.6910    -6.4670     1.0560 H     1 <1>   0.0710 
 44 H       -2.1450    -6.6510     0.2550 H     1 <1>   0.0710 
 45 H       -3.6230    -7.0020    -0.6030 H     1 <1>   0.0710 
@<TRIPOS>BOND
  1   1   2  2   
  2   2   3  1   
  3   2   4  1   
  4   3   5  1   
  5   4   6  1   
  6   4  22  1   
  7   4  23  1   
  8   5   7  1   
  9   5  24  1   
 10   5  25  1   
 11   6   8  ar  
 12   6   9  1   
 13   7  10  1   
 14   7  26  1   
 15   7  27  1   
 16   8  11  ar  
 17   8  12  ar  
 18   9  13  ar  
 19   9  14  ar  
 20  10  15  1   
 21  10  28  1   
 22  10  29  1   
 23  11  30  1   
 24  11  31  1   
 25  12  13  1   
 26  12  16  1   
 27  13  17  ar  
 28  14  18  ar  
 29  14  32  1   
 30  15  33  1   
 31  15  34  1   
 32  15  35  1   
 33  16  19  1   
 34  16  36  1   
 35  16  37  1   
 36  17  20  ar  
 37  17  38  1   
 38  18  20  ar  
 39  18  39  1   
 40  19  21  1   
 41  19  40  1   
 42  19  41  1   
 43  20  42  1   
 44  21  43  1   
 45  21  44  1   
 46  21  45  1   
@<TRIPOS>SUBSTRUCTURE
  1 ****   6 GROUP 4 **** **** 0

# MOE 2024.06 (io_trps.svl 2023.06)
