@<TRIPOS>MOLECULE
NONAME
51 53 1 0 0 
SMALL
USER_CHARGES


@<TRIPOS>ATOM
  1 S        0.4110    -2.4010     0.1400 S.o2  1 <1>   1.4470 
  2 O        0.6500    -3.8280     0.0490 O.2   1 <1>  -0.6500 
  3 O        1.3270    -1.5710    -0.6150 O.2   1 <1>  -0.6500 
  4 N        0.6380    -2.0180     1.7880 N.am  1 <1>  -0.8490 
  5 C       -1.3260    -2.0300    -0.2020 C.ar  1 <1>  -0.0090 
  6 C        1.0020    -3.1420     2.6570 C.3   1 <1>   0.1960 
  7 C        1.5660    -0.9100     2.0370 C.3   1 <1>   0.1960 
  8 C       -1.8080    -0.7240    -0.1480 C.ar  1 <1>   0.0830 
  9 C       -2.2170    -3.0500    -0.5200 C.ar  1 <1>  -0.1500 
 10 C        2.4210    -3.7000     2.3800 C.3   1 <1>   0.3430 
 11 C        3.0400    -1.2610     1.7120 C.3   1 <1>   0.3430 
 12 O       -0.9260     0.2620     0.1610 O.3   1 <1>  -0.3630 
 13 C       -3.1510    -0.4620    -0.4040 C.ar  1 <1>  -0.1500 
 14 C       -3.5510    -2.7910    -0.7770 C.ar  1 <1>  -0.1500 
 15 N        3.4320    -2.7330     1.7890 N.4   1 <1>  -0.9590 
 16 C       -1.2810     1.6270     0.0720 C.3   1 <1>   0.0400 
 17 C       -4.0240    -1.4860    -0.7180 C.ar  1 <1>   0.0830 
 18 C        3.8300    -3.2210     0.4320 C.3   1 <1>   0.4860 
 19 O       -5.3130    -1.1390    -0.9520 O.3   1 <1>  -0.3620 
 20 C        5.0490    -2.4480    -0.0400 C.ar  1 <1>  -0.1430 
 21 C       -6.2880    -2.1050    -1.2800 C.3   1 <1>   0.0400 
 22 C        4.9100    -1.4970    -1.0450 C.ar  1 <1>  -0.1500 
 23 C        6.2990    -2.6870     0.5230 C.ar  1 <1>  -0.1500 
 24 C        6.0080    -0.7740    -1.4790 C.ar  1 <1>  -0.1500 
 25 C        7.4030    -1.9690     0.0950 C.ar  1 <1>  -0.1500 
 26 C        7.2360    -1.0230    -0.8980 C.ar  1 <1>   0.1900 
 27 F        8.2740    -0.3420    -1.3010 F     1 <1>  -0.1900 
 28 H        0.2780    -3.9350     2.5530 H     1 <1>   0.0800 
 29 H        0.9530    -2.8180     3.6830 H     1 <1>   0.0800 
 30 H        1.4980    -0.6230     3.0730 H     1 <1>   0.0800 
 31 H        1.2730    -0.0470     1.4620 H     1 <1>   0.0800 
 32 H       -1.8660    -4.0680    -0.5700 H     1 <1>   0.1500 
 33 H        2.3040    -4.5360     1.7080 H     1 <1>   0.0800 
 34 H        2.8060    -4.1040     3.3010 H     1 <1>   0.0800 
 35 H        3.6740    -0.6860     2.3660 H     1 <1>   0.0800 
 36 H        3.2320    -0.8980     0.7160 H     1 <1>   0.0800 
 37 H       -3.5540     0.5320    -0.3660 H     1 <1>   0.1500 
 38 H       -4.2020    -3.6110    -1.0190 H     1 <1>   0.1500 
 39 H        4.2930    -2.7790     2.3450 H     1 <1>   0.4500 
 40 H       -0.4080     2.2160     0.2850 H     1 <1>   0.0800 
 41 H       -2.0490     1.8370     0.7950 H     1 <1>   0.0800 
 42 H       -1.6250     1.8350    -0.9260 H     1 <1>   0.0800 
 43 H        3.0220    -3.0930    -0.2690 H     1 <1>   0.0800 
 44 H        4.0730    -4.2700     0.4710 H     1 <1>   0.0800 
 45 H       -7.2250    -1.5980    -1.4180 H     1 <1>   0.0800 
 46 H       -6.3690    -2.8080    -0.4700 H     1 <1>   0.0800 
 47 H       -6.0000    -2.5960    -2.1920 H     1 <1>   0.0800 
 48 H        3.9480    -1.3110    -1.5000 H     1 <1>   0.1500 
 49 H        6.4330    -3.4320     1.2900 H     1 <1>   0.1500 
 50 H        5.9210    -0.0340    -2.2550 H     1 <1>   0.1500 
 51 H        8.3810    -2.1350     0.5140 H     1 <1>   0.1500 
@<TRIPOS>BOND
  1   1   2  2   
  2   1   3  2   
  3   1   4  am  
  4   1   5  1   
  5   4   6  1   
  6   4   7  1   
  7   5   8  ar  
  8   5   9  ar  
  9   6  10  1   
 10   6  28  1   
 11   6  29  1   
 12   7  11  1   
 13   7  30  1   
 14   7  31  1   
 15   8  12  1   
 16   8  13  ar  
 17   9  14  ar  
 18   9  32  1   
 19  10  15  1   
 20  10  33  1   
 21  10  34  1   
 22  11  15  1   
 23  11  35  1   
 24  11  36  1   
 25  12  16  1   
 26  13  17  ar  
 27  13  37  1   
 28  14  17  ar  
 29  14  38  1   
 30  15  18  1   
 31  15  39  1   
 32  16  40  1   
 33  16  41  1   
 34  16  42  1   
 35  17  19  1   
 36  18  20  1   
 37  18  43  1   
 38  18  44  1   
 39  19  21  1   
 40  20  22  ar  
 41  20  23  ar  
 42  21  45  1   
 43  21  46  1   
 44  21  47  1   
 45  22  24  ar  
 46  22  48  1   
 47  23  25  ar  
 48  23  49  1   
 49  24  26  ar  
 50  24  50  1   
 51  25  26  ar  
 52  25  51  1   
 53  26  27  1   
@<TRIPOS>SUBSTRUCTURE
  1 ****   3 GROUP 4 **** **** 0

# MOE 2024.06 (io_trps.svl 2023.06)
