@<TRIPOS>MOLECULE
NONAME
36 38 1 0 0 
SMALL
USER_CHARGES


@<TRIPOS>ATOM
  1 S       -0.4920    -1.4210     0.4070 S.3   1 <1>  -0.0800 
  2 C        0.9970    -0.5290     0.6620 C.2   1 <1>   0.1240 
  3 C       -1.3790     0.0580     0.0990 C.2   1 <1>  -0.1400 
  4 N        2.0970    -1.2750     0.9760 N.pl3 1 <1>  -0.8840 
  5 C        0.8020     0.8240     0.5080 C.2   1 <1>  -0.0860 
  6 C       -0.5730     1.1270     0.1780 C.2   1 <1>  -0.1810 
  7 C       -2.8590     0.0090    -0.2070 C.3   1 <1>   0.0200 
  8 C        1.8220     1.8220     0.6670 C.2   1 <1>   0.5700 
  9 C       -1.1230     2.5270    -0.0690 C.3   1 <1>   0.0210 
 10 C       -3.4390     1.4320    -0.1140 C.3   1 <1>  -0.1600 
 11 O        1.5490     2.9330     1.0940 O.2   1 <1>  -0.5700 
 12 C        3.2070     1.5380     0.3370 C.ar  1 <1>   0.0860 
 13 C       -2.5040     2.4770    -0.7550 C.3   1 <1>  -0.1600 
 14 C        3.5600     0.8250    -0.8090 C.ar  1 <1>  -0.1500 
 15 C        4.2440     1.9730     1.1620 C.ar  1 <1>  -0.1500 
 16 C        4.8810     0.5450    -1.1070 C.ar  1 <1>  -0.1500 
 17 C        5.5660     1.6960     0.8680 C.ar  1 <1>  -0.1500 
 18 C        5.8940     0.9760    -0.2680 C.ar  1 <1>  -0.1430 
 19 C        7.3450     0.6720    -0.5930 C.3   1 <1>  -0.0970 
 20 H        3.0340    -0.8820     1.1160 H     1 <1>   0.4000 
 21 H        2.0440    -2.2930     1.0740 H     1 <1>   0.4000 
 22 H       -3.3610    -0.6380     0.4910 H     1 <1>   0.0800 
 23 H       -2.9950    -0.3830    -1.1990 H     1 <1>   0.0800 
 24 H       -0.4430     3.0850    -0.6890 H     1 <1>   0.0800 
 25 H       -1.2040     3.0340     0.8760 H     1 <1>   0.0800 
 26 H       -3.5750     1.6830     0.9240 H     1 <1>   0.0800 
 27 H       -4.4040     1.4580    -0.5890 H     1 <1>   0.0800 
 28 H       -2.3650     2.2270    -1.7930 H     1 <1>   0.0800 
 29 H       -2.9580     3.4510    -0.7090 H     1 <1>   0.0800 
 30 H        2.7870     0.4810    -1.4750 H     1 <1>   0.1500 
 31 H        4.0020     2.5400     2.0460 H     1 <1>   0.1500 
 32 H        5.1190    -0.0100    -1.9990 H     1 <1>   0.1500 
 33 H        6.3420     2.0480     1.5280 H     1 <1>   0.1500 
 34 H        7.4240    -0.2470    -1.1450 H     1 <1>   0.0800 
 35 H        7.9210     0.5750     0.3100 H     1 <1>   0.0800 
 36 H        7.7590     1.4690    -1.1850 H     1 <1>   0.0800 
@<TRIPOS>BOND
  1   1   2  1   
  2   1   3  1   
  3   2   4  1   
  4   2   5  2   
  5   3   6  2   
  6   3   7  1   
  7   4  20  1   
  8   4  21  1   
  9   5   6  1   
 10   5   8  1   
 11   6   9  1   
 12   7  10  1   
 13   7  22  1   
 14   7  23  1   
 15   8  11  2   
 16   8  12  1   
 17   9  13  1   
 18   9  24  1   
 19   9  25  1   
 20  10  13  1   
 21  10  26  1   
 22  10  27  1   
 23  12  14  ar  
 24  12  15  ar  
 25  13  28  1   
 26  13  29  1   
 27  14  16  ar  
 28  14  30  1   
 29  15  17  ar  
 30  15  31  1   
 31  16  18  ar  
 32  16  32  1   
 33  17  18  ar  
 34  17  33  1   
 35  18  19  1   
 36  19  34  1   
 37  19  35  1   
 38  19  36  1   
@<TRIPOS>SUBSTRUCTURE
  1 ****   5 GROUP 4 **** **** 0

# MOE 2024.06 (io_trps.svl 2023.06)
