@<TRIPOS>MOLECULE
NONAME
59 61 1 0 0 
SMALL
USER_CHARGES


@<TRIPOS>ATOM
  1 O       -2.6200    -0.8950    -2.8130 O.2   1 <1>  -0.5700 
  2 C       -2.9950    -0.3260    -1.8140 C.2   1 <1>   0.5690 
  3 N       -3.3580     0.9810    -1.7610 N.am  1 <1>  -0.5470 
  4 C       -3.1030    -0.9550    -0.4100 C.3   1 <1>   0.4810 
  5 C       -3.6510     1.3610    -0.4610 C.ar  1 <1>   0.1170 
  6 C       -1.7650    -1.5480     0.0690 C.2   1 <1>  -0.1240 
  7 C       -4.2580    -1.9550    -0.3220 C.2   1 <1>  -0.1240 
  8 C       -3.5080     0.2850     0.3950 C.ar  1 <1>  -0.1440 
  9 C       -4.0340     2.6010     0.0200 C.ar  1 <1>  -0.1500 
 10 C       -1.7330    -2.8630     0.4510 C.2   1 <1>   0.1770 
 11 C       -0.6430    -0.6630     0.0630 C.2   1 <1>   0.7060 
 12 C       -4.0260    -3.2230     0.0800 C.2   1 <1>  -0.0620 
 13 C       -5.5450    -1.4160    -0.6420 C.2   1 <1>   0.7060 
 14 C       -3.7430     0.4240     1.7520 C.ar  1 <1>  -0.1500 
 15 C       -4.2710     2.7460     1.3780 C.ar  1 <1>  -0.1500 
 16 O       -2.8110    -3.6540     0.4260 O.3   1 <1>  -0.1530 
 17 N       -0.6380    -3.5410     0.8970 N.pl3 1 <1>  -0.9000 
 18 O       -0.6930     0.4920    -0.3200 O.2   1 <1>  -0.5700 
 19 O        0.5430    -1.1160     0.5070 O.3   1 <1>  -0.4300 
 20 C       -5.0660    -4.3250     0.2050 C.3   1 <1>  -0.1020 
 21 O       -5.8200    -0.9330    -1.7180 O.2   1 <1>  -0.5700 
 22 O       -6.4510    -1.4480     0.3390 O.3   1 <1>  -0.4300 
 23 C       -4.1260     1.6650     2.2380 C.ar  1 <1>  -0.1500 
 24 C        1.7740    -0.4270     0.5870 C.3   1 <1>   0.2800 
 25 C       -7.7340    -0.8630     0.3490 C.3   1 <1>   0.2800 
 26 C        2.2420    -0.0080    -0.8120 C.3   1 <1>  -0.2400 
 27 C        1.6600     0.7600     1.5510 C.3   1 <1>  -0.2400 
 28 C        2.7590    -1.4460     1.1610 C.3   1 <1>  -0.2400 
 29 C       -7.6190     0.6550     0.1620 C.3   1 <1>  -0.2400 
 30 C       -8.2940    -1.1590     1.7400 C.3   1 <1>  -0.2400 
 31 C       -8.6270    -1.5210    -0.7090 C.3   1 <1>  -0.2400 
 32 H       -3.3230     1.5860    -2.5790 H     1 <1>   0.3700 
 33 H       -4.1400     3.4320    -0.6530 H     1 <1>   0.1500 
 34 H       -3.6350    -0.4150     2.4190 H     1 <1>   0.1500 
 35 H       -4.5670     3.7040     1.7690 H     1 <1>   0.1500 
 36 H        0.2850    -3.0910     0.9560 H     1 <1>   0.4000 
 37 H       -0.6690    -4.5370     1.1330 H     1 <1>   0.4000 
 38 H       -4.7630    -5.1740    -0.3810 H     1 <1>   0.0800 
 39 H       -6.0330    -4.0090    -0.1380 H     1 <1>   0.0800 
 40 H       -5.1490    -4.6300     1.2330 H     1 <1>   0.0800 
 41 H       -4.3120     1.7920     3.2910 H     1 <1>   0.1500 
 42 H        1.6160     0.7650    -1.2170 H     1 <1>   0.0800 
 43 H        2.2350    -0.8520    -1.4780 H     1 <1>   0.0800 
 44 H        3.2430     0.3800    -0.7630 H     1 <1>   0.0800 
 45 H        1.0330     1.5320     1.1450 H     1 <1>   0.0800 
 46 H        2.6300     1.1890     1.7210 H     1 <1>   0.0800 
 47 H        1.2590     0.4390     2.4950 H     1 <1>   0.0800 
 48 H        2.8400    -2.2980     0.5090 H     1 <1>   0.0800 
 49 H        2.4360    -1.7730     2.1330 H     1 <1>   0.0800 
 50 H        3.7340    -1.0050     1.2610 H     1 <1>   0.0800 
 51 H       -8.5780     1.1170     0.3100 H     1 <1>   0.0800 
 52 H       -6.9280     1.0690     0.8750 H     1 <1>   0.0800 
 53 H       -7.2900     0.9010    -0.8300 H     1 <1>   0.0800 
 54 H       -7.6640    -0.7240     2.4960 H     1 <1>   0.0800 
 55 H       -8.3550    -2.2200     1.9010 H     1 <1>   0.0800 
 56 H       -9.2810    -0.7430     1.8420 H     1 <1>   0.0800 
 57 H       -8.2980    -1.2760    -1.7020 H     1 <1>   0.0800 
 58 H       -9.6370    -1.1670    -0.6060 H     1 <1>   0.0800 
 59 H       -8.6260    -2.5890    -0.5890 H     1 <1>   0.0800 
@<TRIPOS>BOND
  1   1   2  2   
  2   2   3  am  
  3   2   4  1   
  4   3   5  1   
  5   3  32  1   
  6   4   6  1   
  7   4   7  1   
  8   4   8  1   
  9   5   8  ar  
 10   5   9  ar  
 11   6  10  2   
 12   6  11  1   
 13   7  12  2   
 14   7  13  1   
 15   8  14  ar  
 16   9  15  ar  
 17   9  33  1   
 18  10  16  1   
 19  10  17  1   
 20  11  18  2   
 21  11  19  1   
 22  12  16  1   
 23  12  20  1   
 24  13  21  2   
 25  13  22  1   
 26  14  23  ar  
 27  14  34  1   
 28  15  23  ar  
 29  15  35  1   
 30  17  36  1   
 31  17  37  1   
 32  19  24  1   
 33  20  38  1   
 34  20  39  1   
 35  20  40  1   
 36  22  25  1   
 37  23  41  1   
 38  24  26  1   
 39  24  27  1   
 40  24  28  1   
 41  25  29  1   
 42  25  30  1   
 43  25  31  1   
 44  26  42  1   
 45  26  43  1   
 46  26  44  1   
 47  27  45  1   
 48  27  46  1   
 49  27  47  1   
 50  28  48  1   
 51  28  49  1   
 52  28  50  1   
 53  29  51  1   
 54  29  52  1   
 55  29  53  1   
 56  30  54  1   
 57  30  55  1   
 58  30  56  1   
 59  31  57  1   
 60  31  58  1   
 61  31  59  1   
@<TRIPOS>SUBSTRUCTURE
  1 ****   4 GROUP 4 **** **** 0

# MOE 2024.06 (io_trps.svl 2023.06)
