@<TRIPOS>MOLECULE
NONAME
47 49 1 0 0 
SMALL
USER_CHARGES


@<TRIPOS>ATOM
  1 S       -0.0140     0.0370     0.3200 S.o2  1 <1>   1.4470 
  2 O        0.0640     0.2660     1.7470 O.2   1 <1>  -0.6500 
  3 O       -0.7370     0.9760    -0.5100 O.2   1 <1>  -0.6500 
  4 N        1.5810    -0.0070    -0.2550 N.am  1 <1>  -0.8490 
  5 C       -0.6230    -1.6400    -0.0200 C.ar  1 <1>  -0.0090 
  6 C        2.4420    -0.8690     0.5730 C.3   1 <1>   0.1960 
  7 C        2.1410     1.3460    -0.3420 C.3   1 <1>   0.1960 
  8 C       -0.7930    -2.0780    -1.3320 C.ar  1 <1>  -0.1500 
  9 C       -0.9160    -2.5260     1.0170 C.ar  1 <1>  -0.1500 
 10 C        3.8330    -1.0130    -0.0620 C.3   1 <1>  -0.0190 
 11 C        3.5290     1.3080    -0.9920 C.3   1 <1>  -0.1600 
 12 C       -1.2440    -3.3580    -1.6110 C.ar  1 <1>  -0.1500 
 13 C       -1.3670    -3.8100     0.7580 C.ar  1 <1>  -0.1500 
 14 C        4.7150    -1.9390     0.7640 C.2   1 <1>   0.5690 
 15 C        4.4830     0.3710    -0.2400 C.3   1 <1>  -0.1600 
 16 C       -1.5230    -4.2030    -0.5560 C.ar  1 <1>   0.1900 
 17 O        4.4870    -2.1050     1.9380 O.2   1 <1>  -0.5700 
 18 N        5.7520    -2.5580     0.1530 N.am  1 <1>  -0.7300 
 19 F       -1.9460    -5.4110    -0.8090 F     1 <1>  -0.1900 
 20 C        6.7240    -3.4220     0.8400 C.3   1 <1>   0.2840 
 21 C        7.9660    -3.5010    -0.0270 C.ar  1 <1>  -0.1440 
 22 C        8.9520    -2.5320     0.0780 C.ar  1 <1>  -0.1500 
 23 C        8.1230    -4.5370    -0.9360 C.ar  1 <1>  -0.1500 
 24 C       10.0850    -2.5980    -0.7150 C.ar  1 <1>  -0.1500 
 25 C        9.2560    -4.6040    -1.7290 C.ar  1 <1>  -0.1500 
 26 C       10.2370    -3.6340    -1.6190 C.ar  1 <1>  -0.1500 
 27 H        2.0020    -1.8480     0.6640 H     1 <1>   0.0800 
 28 H        2.5340    -0.4540     1.5650 H     1 <1>   0.0800 
 29 H        2.2030     1.7800     0.6430 H     1 <1>   0.0800 
 30 H        1.4970     1.9690    -0.9420 H     1 <1>   0.0800 
 31 H       -0.5700    -1.4020    -2.1420 H     1 <1>   0.1500 
 32 H       -0.7910    -2.2050     2.0390 H     1 <1>   0.1500 
 33 H        3.7010    -1.4660    -1.0280 H     1 <1>   0.0800 
 34 H        3.9390     2.3030    -1.0100 H     1 <1>   0.0800 
 35 H        3.4220     0.9800    -2.0120 H     1 <1>   0.0800 
 36 H       -1.3770    -3.6950    -2.6240 H     1 <1>   0.1500 
 37 H       -1.5950    -4.4940     1.5570 H     1 <1>   0.1500 
 38 H        5.4100     0.2810    -0.7800 H     1 <1>   0.0800 
 39 H        4.7010     0.7870     0.7300 H     1 <1>   0.0800 
 40 H        5.9730    -2.3840    -0.8280 H     1 <1>   0.3700 
 41 H        6.2980    -4.4000     0.9820 H     1 <1>   0.0800 
 42 H        6.9620    -3.0090     1.8060 H     1 <1>   0.0800 
 43 H        8.8410    -1.7210     0.7780 H     1 <1>   0.1500 
 44 H        7.3660    -5.2960    -1.0300 H     1 <1>   0.1500 
 45 H       10.8480    -1.8440    -0.6290 H     1 <1>   0.1500 
 46 H        9.3740    -5.4100    -2.4320 H     1 <1>   0.1500 
 47 H       11.1170    -3.6860    -2.2360 H     1 <1>   0.1500 
@<TRIPOS>BOND
  1   1   2  2   
  2   1   3  2   
  3   1   4  am  
  4   1   5  1   
  5   4   6  1   
  6   4   7  1   
  7   5   8  ar  
  8   5   9  ar  
  9   6  10  1   
 10   6  27  1   
 11   6  28  1   
 12   7  11  1   
 13   7  29  1   
 14   7  30  1   
 15   8  12  ar  
 16   8  31  1   
 17   9  13  ar  
 18   9  32  1   
 19  10  14  1   
 20  10  15  1   
 21  10  33  1   
 22  11  15  1   
 23  11  34  1   
 24  11  35  1   
 25  12  16  ar  
 26  12  36  1   
 27  13  16  ar  
 28  13  37  1   
 29  14  17  2   
 30  14  18  am  
 31  15  38  1   
 32  15  39  1   
 33  16  19  1   
 34  18  20  1   
 35  18  40  1   
 36  20  21  1   
 37  20  41  1   
 38  20  42  1   
 39  21  22  ar  
 40  21  23  ar  
 41  22  24  ar  
 42  22  43  1   
 43  23  25  ar  
 44  23  44  1   
 45  24  26  ar  
 46  24  45  1   
 47  25  26  ar  
 48  25  46  1   
 49  26  47  1   
@<TRIPOS>SUBSTRUCTURE
  1 ****  10 GROUP 4 **** **** 0

# MOE 2024.06 (io_trps.svl 2023.06)
