@<TRIPOS>MOLECULE
NONAME
30 31 1 0 0 
SMALL
USER_CHARGES


@<TRIPOS>ATOM
  1 S        0.1850    -0.4750    -0.1500 S.3   1 <1>  -0.0800 
  2 C        0.5740     1.2080    -0.4380 C.2   1 <1>   0.1240 
  3 C       -1.5360    -0.1280     0.1210 C.2   1 <1>  -0.0450 
  4 N        1.8800     1.5000    -0.7250 N.pl3 1 <1>  -0.8840 
  5 C       -0.5360     2.0010    -0.3200 C.2   1 <1>  -0.0860 
  6 C       -2.5160    -1.1150     0.4470 C.2   1 <1>   0.4740 
  7 C       -1.7160     1.2210    -0.0340 C.2   1 <1>  -0.1810 
  8 C       -0.4720     3.4300    -0.4560 C.2   1 <1>   0.8060 
  9 N       -2.4770    -2.4200     0.5590 N.2   1 <1>  -0.8000 
 10 C       -3.8900    -0.5300     0.7430 C.3   1 <1>  -0.0990 
 11 C       -3.1190     1.8080     0.0890 C.3   1 <1>   0.0210 
 12 O        0.4300     4.0200    -1.0300 O.2   1 <1>  -0.5700 
 13 O       -1.4430     4.1740     0.0970 O.3   1 <1>  -0.4300 
 14 O       -1.3990    -2.9470     0.3270 O.3   1 <1>  -0.6500 
 15 C       -4.1960     0.7280    -0.0900 C.3   1 <1>  -0.1600 
 16 C       -1.4350     5.5790     0.0040 C.3   1 <1>   0.1200 
 17 C       -1.4070     7.0920    -0.2140 C.3   1 <1>  -0.2400 
 18 H        2.5700     0.7550    -0.8530 H     1 <1>   0.4000 
 19 H        2.1550     2.4420    -1.0290 H     1 <1>   0.4000 
 20 H       -4.6340    -1.2800     0.5420 H     1 <1>   0.0800 
 21 H       -3.9290    -0.3020     1.7910 H     1 <1>   0.0800 
 22 H       -3.2200     2.2640     1.0580 H     1 <1>   0.0800 
 23 H       -3.2720     2.5610    -0.6630 H     1 <1>   0.0800 
 24 H       -4.2290     0.4410    -1.1280 H     1 <1>   0.0800 
 25 H       -5.1600     1.1210     0.1780 H     1 <1>   0.0800 
 26 H       -0.6950     5.6710     0.7810 H     1 <1>   0.0800 
 27 H       -2.4100     5.6530     0.4550 H     1 <1>   0.0800 
 28 H       -1.5820     7.6180     0.7090 H     1 <1>   0.0800 
 29 H       -2.1620     7.3820    -0.9230 H     1 <1>   0.0800 
 30 H       -0.4480     7.3900    -0.6010 H     1 <1>   0.0800 
@<TRIPOS>BOND
  1   1   2  1   
  2   1   3  1   
  3   2   4  1   
  4   2   5  2   
  5   3   6  1   
  6   3   7  2   
  7   4  18  1   
  8   4  19  1   
  9   5   7  1   
 10   5   8  1   
 11   6   9  2   
 12   6  10  1   
 13   7  11  1   
 14   8  12  2   
 15   8  13  1   
 16   9  14  1   
 17  10  15  1   
 18  10  20  1   
 19  10  21  1   
 20  11  15  1   
 21  11  22  1   
 22  11  23  1   
 23  13  16  1   
 24  15  24  1   
 25  15  25  1   
 26  16  17  1   
 27  16  26  1   
 28  16  27  1   
 29  17  28  1   
 30  17  29  1   
 31  17  30  1   
@<TRIPOS>SUBSTRUCTURE
  1 ****   7 GROUP 4 **** **** 0

# MOE 2024.06 (io_trps.svl 2023.06)
