@<TRIPOS>MOLECULE
NONAME
43 44 1 0 0 
SMALL
USER_CHARGES


@<TRIPOS>ATOM
  1 S       -0.6840     0.6740     1.2630 S.o2  1 <1>   1.4470 
  2 O        0.4800    -0.1160     1.6050 O.2   1 <1>  -0.6500 
  3 O       -1.3040     1.4710     2.3010 O.2   1 <1>  -0.6500 
  4 N       -0.2350     1.7620     0.0400 N.am  1 <1>  -0.8490 
  5 C       -1.9290    -0.3950     0.4620 C.ar  1 <1>  -0.0090 
  6 C        0.9750     2.5080     0.4080 C.3   1 <1>   0.1960 
  7 C       -1.3540     2.6400    -0.3220 C.3   1 <1>   0.1960 
  8 C       -1.6260    -1.2750    -0.5810 C.ar  1 <1>  -0.1440 
  9 C       -3.2510    -0.3250     0.8840 C.ar  1 <1>  -0.1500 
 10 C        1.7370     2.9370    -0.8490 C.3   1 <1>  -0.1600 
 11 C       -1.0970     3.4650    -1.5890 C.3   1 <1>  -0.1600 
 12 C       -2.6270    -2.0420    -1.1560 C.ar  1 <1>  -0.1500 
 13 C       -0.2080    -1.4230    -1.1220 C.3   1 <1>  -0.0970 
 14 C       -4.2750    -1.0850     0.3230 C.ar  1 <1>   0.0860 
 15 C        1.3360     4.3030    -1.4300 C.3   1 <1>  -0.1600 
 16 C       -0.1560     4.6550    -1.3540 C.3   1 <1>  -0.1600 
 17 C       -3.9310    -1.9470    -0.7130 C.ar  1 <1>  -0.1500 
 18 C       -5.6400    -0.9680     0.8030 C.2   1 <1>   0.5440 
 19 O       -6.0650     0.1000     1.1970 O.2   1 <1>  -0.5700 
 20 N       -6.4640    -2.0610     0.8300 N.am  1 <1>  -0.7300 
 21 C       -7.8760    -2.0640     1.2940 C.3   1 <1>   0.0600 
 22 H        1.6370     1.8680     0.9660 H     1 <1>   0.0800 
 23 H        0.7360     3.3490     1.0380 H     1 <1>   0.0800 
 24 H       -1.5930     3.2940     0.5010 H     1 <1>   0.0800 
 25 H       -2.2240     2.0350    -0.5120 H     1 <1>   0.0800 
 26 H       -3.5110     0.3490     1.6840 H     1 <1>   0.1500 
 27 H        1.6240     2.1730    -1.5990 H     1 <1>   0.0800 
 28 H        2.7840     2.9810    -0.6080 H     1 <1>   0.0800 
 29 H       -2.0460     3.8610    -1.9030 H     1 <1>   0.0800 
 30 H       -0.7390     2.8320    -2.3830 H     1 <1>   0.0800 
 31 H       -2.3960    -2.7200    -1.9610 H     1 <1>   0.1500 
 32 H        0.4370    -1.8350    -0.3660 H     1 <1>   0.0800 
 33 H        0.1820    -0.4700    -1.4290 H     1 <1>   0.0800 
 34 H       -0.1820    -2.0790    -1.9730 H     1 <1>   0.0800 
 35 H        1.6470     4.3270    -2.4600 H     1 <1>   0.0800 
 36 H        1.8860     5.0750    -0.9190 H     1 <1>   0.0800 
 37 H       -0.3730     5.0950    -0.3950 H     1 <1>   0.0800 
 38 H       -0.3560     5.4090    -2.0950 H     1 <1>   0.0800 
 39 H       -4.6920    -2.5420    -1.1860 H     1 <1>   0.1500 
 40 H       -6.0700    -2.9750     0.6050 H     1 <1>   0.3700 
 41 H       -8.2110    -1.0590     1.4910 H     1 <1>   0.0800 
 42 H       -7.9600    -2.6400     2.1990 H     1 <1>   0.0800 
 43 H       -8.5080    -2.4960     0.5370 H     1 <1>   0.0800 
@<TRIPOS>BOND
  1   1   2  2   
  2   1   3  2   
  3   1   4  am  
  4   1   5  1   
  5   4   6  1   
  6   4   7  1   
  7   5   8  ar  
  8   5   9  ar  
  9   6  10  1   
 10   6  22  1   
 11   6  23  1   
 12   7  11  1   
 13   7  24  1   
 14   7  25  1   
 15   8  12  ar  
 16   8  13  1   
 17   9  14  ar  
 18   9  26  1   
 19  10  15  1   
 20  10  27  1   
 21  10  28  1   
 22  11  16  1   
 23  11  29  1   
 24  11  30  1   
 25  12  17  ar  
 26  12  31  1   
 27  13  32  1   
 28  13  33  1   
 29  13  34  1   
 30  14  17  ar  
 31  14  18  1   
 32  15  16  1   
 33  15  35  1   
 34  15  36  1   
 35  16  37  1   
 36  16  38  1   
 37  17  39  1   
 38  18  19  2   
 39  18  20  am  
 40  20  21  1   
 41  20  40  1   
 42  21  41  1   
 43  21  42  1   
 44  21  43  1   
@<TRIPOS>SUBSTRUCTURE
  1 ****   5 GROUP 4 **** **** 0

# MOE 2024.06 (io_trps.svl 2023.06)
