@<TRIPOS>MOLECULE
NONAME
34 35 1 0 0 
SMALL
USER_CHARGES


@<TRIPOS>ATOM
  1 S       -0.0640     4.9430     1.2110 S.3   1 <1>  -0.2860 
  2 C       -1.7960     5.0100     0.7480 C.2   1 <1>   0.2420 
  3 C        0.6580     3.6160     0.1500 C.3   1 <1>   0.0700 
  4 N       -2.3740     6.1280     0.4880 N.2   1 <1>  -0.5650 
  5 N       -2.5760     3.8990     0.6500 N.pl3 1 <1>   0.0480 
  6 C        2.1640     3.8630     0.0450 C.3   1 <1>  -0.1600 
  7 C       -3.6440     5.7520     0.1760 C.ar  1 <1>   0.2270 
  8 C       -3.7920     4.3770     0.2680 C.ar  1 <1>  -0.1520 
  9 C       -2.3020     2.5210     1.1000 C.3   1 <1>   0.0160 
 10 C        2.8390     2.8000    -0.8300 C.3   1 <1>  -0.1600 
 11 C       -4.7270     6.5460    -0.1960 C.ar  1 <1>  -0.1500 
 12 C       -5.0190     3.7700    -0.0090 C.ar  1 <1>  -0.1500 
 13 C        4.3460     3.0520    -0.9330 C.3   1 <1>  -0.2400 
 14 C       -5.9430     5.9560    -0.4720 C.ar  1 <1>  -0.1430 
 15 C       -6.0820     4.5650    -0.3750 C.ar  1 <1>  -0.1500 
 16 C       -7.1420     6.7930    -0.8790 C.3   1 <1>  -0.0970 
 17 H        0.1790     3.6820    -0.8110 H     1 <1>   0.0800 
 18 H        0.4470     2.6720     0.6170 H     1 <1>   0.0800 
 19 H        2.5940     3.8470     1.0320 H     1 <1>   0.0800 
 20 H        2.3300     4.8390    -0.3790 H     1 <1>   0.0800 
 21 H       -1.5600     2.5370     1.8780 H     1 <1>   0.0800 
 22 H       -1.9510     1.9390     0.2690 H     1 <1>   0.0800 
 23 H       -3.2040     2.0860     1.4900 H     1 <1>   0.0800 
 24 H        2.4100     2.8180    -1.8180 H     1 <1>   0.0800 
 25 H        2.6730     1.8230    -0.4090 H     1 <1>   0.0800 
 26 H       -4.5770     7.6070    -0.2570 H     1 <1>   0.1500 
 27 H       -5.1280     2.7030     0.0630 H     1 <1>   0.1500 
 28 H        4.5370     4.0160    -1.3720 H     1 <1>   0.0800 
 29 H        4.8040     2.2990    -1.5510 H     1 <1>   0.0800 
 30 H        4.8020     3.0190     0.0410 H     1 <1>   0.0800 
 31 H       -7.0360     4.1180    -0.5930 H     1 <1>   0.1500 
 32 H       -6.8860     7.8370    -0.9100 H     1 <1>   0.0800 
 33 H       -7.9410     6.6570    -0.1730 H     1 <1>   0.0800 
 34 H       -7.4820     6.4950    -1.8550 H     1 <1>   0.0800 
@<TRIPOS>BOND
  1   1   2  1   
  2   1   3  1   
  3   2   4  2   
  4   2   5  1   
  5   3   6  1   
  6   3  17  1   
  7   3  18  1   
  8   4   7  1   
  9   5   8  1   
 10   5   9  1   
 11   6  10  1   
 12   6  19  1   
 13   6  20  1   
 14   7   8  ar  
 15   7  11  ar  
 16   8  12  ar  
 17   9  21  1   
 18   9  22  1   
 19   9  23  1   
 20  10  13  1   
 21  10  24  1   
 22  10  25  1   
 23  11  14  ar  
 24  11  26  1   
 25  12  15  ar  
 26  12  27  1   
 27  13  28  1   
 28  13  29  1   
 29  13  30  1   
 30  14  15  ar  
 31  14  16  1   
 32  15  31  1   
 33  16  32  1   
 34  16  33  1   
 35  16  34  1   
@<TRIPOS>SUBSTRUCTURE
  1 ****   2 GROUP 4 **** **** 0

# MOE 2024.06 (io_trps.svl 2023.06)
