@<TRIPOS>MOLECULE
NONAME
58 60 1 0 0 
SMALL
USER_CHARGES


@<TRIPOS>ATOM
  1 O        0.9320    -1.7660    -0.2450 O.2   1 <1>  -0.5700 
  2 C        0.3710    -2.7330    -0.7270 C.2   1 <1>   0.5440 
  3 N        1.1590    -3.6030    -1.4450 N.am  1 <1>  -0.6600 
  4 C       -1.0420    -2.9830    -0.4950 C.ar  1 <1>   0.0860 
  5 C        2.3120    -3.0490    -2.2120 C.3   1 <1>   0.1400 
  6 C        1.4260    -4.9540    -0.8780 C.3   1 <1>   0.1400 
  7 C       -1.7340    -2.3290     0.5220 C.ar  1 <1>  -0.1500 
  8 C       -1.7650    -3.8890    -1.2720 C.ar  1 <1>  -0.1500 
  9 C        3.5580    -2.9820    -1.3100 C.3   1 <1>   0.3430 
 10 C        2.6850    -4.9090     0.0150 C.3   1 <1>   0.3430 
 11 C       -3.0750    -2.5660     0.7600 C.ar  1 <1>   0.0820 
 12 C       -3.1070    -4.1490    -1.0550 C.ar  1 <1>   0.0820 
 13 N        3.8810    -4.3210    -0.6960 N.4   1 <1>  -0.9590 
 14 O       -3.6470    -1.8840     1.7840 O.3   1 <1>  -0.3630 
 15 C       -3.7900    -3.4600    -0.0440 C.ar  1 <1>   0.0820 
 16 O       -3.6500    -5.0790    -1.8890 O.3   1 <1>  -0.3630 
 17 C        5.0580    -4.2170     0.1940 C.3   1 <1>   0.4810 
 18 C       -4.1050    -2.6440     2.8810 C.3   1 <1>   0.0400 
 19 O       -5.1240    -3.6250     0.1430 O.3   1 <1>  -0.3630 
 20 C       -4.7180    -5.9020    -1.4720 C.3   1 <1>   0.0400 
 21 C        5.5580    -5.6210     0.4290 C.2   1 <1>  -0.2880 
 22 C       -5.9430    -2.5660    -0.3000 C.3   1 <1>   0.0400 
 23 C        6.6220    -6.1670    -0.1850 C.2   1 <1>  -0.1780 
 24 C        7.1470    -7.5040    -0.0120 C.ar  1 <1>   0.0280 
 25 C        8.0000    -8.0440    -0.9710 C.ar  1 <1>  -0.1500 
 26 C        6.8350    -8.2930     1.0930 C.ar  1 <1>  -0.1500 
 27 C        8.5120    -9.3230    -0.8410 C.ar  1 <1>  -0.1500 
 28 C        7.3430    -9.5730     1.2290 C.ar  1 <1>  -0.1500 
 29 C        8.1820   -10.0910     0.2600 C.ar  1 <1>  -0.1500 
 30 H        2.5040    -3.6620    -3.0750 H     1 <1>   0.0800 
 31 H        2.0700    -2.0580    -2.5590 H     1 <1>   0.0800 
 32 H        0.5850    -5.2780    -0.2890 H     1 <1>   0.0800 
 33 H        1.5610    -5.6620    -1.6780 H     1 <1>   0.0800 
 34 H       -1.2190    -1.6160     1.1430 H     1 <1>   0.1500 
 35 H       -1.2790    -4.4080    -2.0770 H     1 <1>   0.1500 
 36 H        3.3630    -2.2620    -0.5300 H     1 <1>   0.0800 
 37 H        4.3950    -2.6270    -1.8880 H     1 <1>   0.0800 
 38 H        2.9110    -5.9080     0.3490 H     1 <1>   0.0800 
 39 H        2.4570    -4.3130     0.8830 H     1 <1>   0.0800 
 40 H        4.1490    -4.9700    -1.4470 H     1 <1>   0.4500 
 41 H        5.8320    -3.6440    -0.2910 H     1 <1>   0.0800 
 42 H        4.8030    -3.7350     1.1250 H     1 <1>   0.0800 
 43 H       -4.3940    -1.9640     3.6620 H     1 <1>   0.0800 
 44 H       -3.3070    -3.2800     3.2230 H     1 <1>   0.0800 
 45 H       -4.9510    -3.2330     2.5800 H     1 <1>   0.0800 
 46 H       -4.7490    -6.7630    -2.1150 H     1 <1>   0.0800 
 47 H       -5.6370    -5.3520    -1.5590 H     1 <1>   0.0800 
 48 H       -4.5520    -6.2080    -0.4540 H     1 <1>   0.0800 
 49 H        4.9710    -6.1590     1.1500 H     1 <1>   0.1500 
 50 H       -6.9690    -2.8420    -0.1400 H     1 <1>   0.0800 
 51 H       -5.7620    -2.4040    -1.3490 H     1 <1>   0.0800 
 52 H       -5.7090    -1.6780     0.2600 H     1 <1>   0.0800 
 53 H        7.1830    -5.5900    -0.9020 H     1 <1>   0.1500 
 54 H        8.2700    -7.4640    -1.8350 H     1 <1>   0.1500 
 55 H        6.1950    -7.9120     1.8660 H     1 <1>   0.1500 
 56 H        9.1680    -9.7220    -1.5960 H     1 <1>   0.1500 
 57 H        7.0890   -10.1670     2.0890 H     1 <1>   0.1500 
 58 H        8.5780   -11.0860     0.3630 H     1 <1>   0.1500 
@<TRIPOS>BOND
  1   1   2  2   
  2   2   3  am  
  3   2   4  1   
  4   3   5  1   
  5   3   6  1   
  6   4   7  ar  
  7   4   8  ar  
  8   5   9  1   
  9   5  30  1   
 10   5  31  1   
 11   6  10  1   
 12   6  32  1   
 13   6  33  1   
 14   7  11  ar  
 15   7  34  1   
 16   8  12  ar  
 17   8  35  1   
 18   9  13  1   
 19   9  36  1   
 20   9  37  1   
 21  10  13  1   
 22  10  38  1   
 23  10  39  1   
 24  11  14  1   
 25  11  15  ar  
 26  12  15  ar  
 27  12  16  1   
 28  13  17  1   
 29  13  40  1   
 30  14  18  1   
 31  15  19  1   
 32  16  20  1   
 33  17  21  1   
 34  17  41  1   
 35  17  42  1   
 36  18  43  1   
 37  18  44  1   
 38  18  45  1   
 39  19  22  1   
 40  20  46  1   
 41  20  47  1   
 42  20  48  1   
 43  21  23  2   
 44  21  49  1   
 45  22  50  1   
 46  22  51  1   
 47  22  52  1   
 48  23  24  1   
 49  23  53  1   
 50  24  25  ar  
 51  24  26  ar  
 52  25  27  ar  
 53  25  54  1   
 54  26  28  ar  
 55  26  55  1   
 56  27  29  ar  
 57  27  56  1   
 58  28  29  ar  
 59  28  57  1   
 60  29  58  1   
@<TRIPOS>SUBSTRUCTURE
  1 ****   6 GROUP 4 **** **** 0

# MOE 2024.06 (io_trps.svl 2023.06)
