@<TRIPOS>MOLECULE
NONAME
34 35 1 0 0 
SMALL
USER_CHARGES


@<TRIPOS>ATOM
  1 F       -0.3590     0.6050     0.9610 F     1 <1>  -0.1900 
  2 C       -0.3640     1.8200     0.4780 C.ar  1 <1>   0.1900 
  3 C       -0.9690     2.8250     1.2080 C.ar  1 <1>  -0.1500 
  4 C        0.2350     2.0540    -0.7450 C.ar  1 <1>  -0.1500 
  5 C       -0.9720     4.1080     0.6890 C.ar  1 <1>  -0.1500 
  6 C        0.2230     3.3430    -1.2510 C.ar  1 <1>  -0.1500 
  7 C       -0.3830     4.3790    -0.5450 C.ar  1 <1>   0.1170 
  8 N       -0.3760     5.6690    -1.0840 N.am  1 <1>  -0.5470 
  9 C       -1.2150     6.7160    -0.8590 C.2   1 <1>   0.6900 
 10 O       -0.7120     7.8220    -0.8370 O.2   1 <1>  -0.5700 
 11 N       -2.5670     6.5560    -0.6770 N.am  1 <1>  -0.6600 
 12 C       -3.3530     5.4730    -1.3290 C.3   1 <1>   0.1400 
 13 C       -3.3890     7.6460    -0.0910 C.3   1 <1>   0.1400 
 14 C       -4.3500     4.8740    -0.3320 C.3   1 <1>  -0.1600 
 15 C       -4.3790     7.0600     0.9200 C.3   1 <1>  -0.1600 
 16 C       -5.2450     5.9550     0.2930 C.3   1 <1>  -0.0800 
 17 C       -6.1810     5.3420     1.3410 C.3   1 <1>  -0.2400 
 18 H       -1.4220     2.6050     2.1580 H     1 <1>   0.1500 
 19 H        0.6970     1.2450    -1.2820 H     1 <1>   0.1500 
 20 H       -1.4320     4.9070     1.2430 H     1 <1>   0.1500 
 21 H        0.6810     3.5480    -2.2020 H     1 <1>   0.1500 
 22 H        0.5240     6.0030    -1.4210 H     1 <1>   0.3700 
 23 H       -2.7070     4.7020    -1.7080 H     1 <1>   0.0800 
 24 H       -3.8880     5.8920    -2.1640 H     1 <1>   0.0800 
 25 H       -3.9200     8.1490    -0.8820 H     1 <1>   0.0800 
 26 H       -2.7570     8.3670     0.4010 H     1 <1>   0.0800 
 27 H       -3.8050     4.3580     0.4380 H     1 <1>   0.0800 
 28 H       -4.9590     4.1490    -0.8410 H     1 <1>   0.0800 
 29 H       -5.0080     7.8490     1.2900 H     1 <1>   0.0800 
 30 H       -3.8240     6.6650     1.7530 H     1 <1>   0.0800 
 31 H       -5.8470     6.3940    -0.4860 H     1 <1>   0.0800 
 32 H       -5.6160     4.8930     2.1380 H     1 <1>   0.0800 
 33 H       -6.8010     4.5870     0.8910 H     1 <1>   0.0800 
 34 H       -6.8210     6.1000     1.7580 H     1 <1>   0.0800 
@<TRIPOS>BOND
  1   1   2  1   
  2   2   3  ar  
  3   2   4  ar  
  4   3   5  ar  
  5   3  18  1   
  6   4   6  ar  
  7   4  19  1   
  8   5   7  ar  
  9   5  20  1   
 10   6   7  ar  
 11   6  21  1   
 12   7   8  1   
 13   8   9  am  
 14   8  22  1   
 15   9  10  2   
 16   9  11  am  
 17  11  12  1   
 18  11  13  1   
 19  12  14  1   
 20  12  23  1   
 21  12  24  1   
 22  13  15  1   
 23  13  25  1   
 24  13  26  1   
 25  14  16  1   
 26  14  27  1   
 27  14  28  1   
 28  15  16  1   
 29  15  29  1   
 30  15  30  1   
 31  16  17  1   
 32  16  31  1   
 33  17  32  1   
 34  17  33  1   
 35  17  34  1   
@<TRIPOS>SUBSTRUCTURE
  1 ****   5 GROUP 4 **** **** 0

# MOE 2024.06 (io_trps.svl 2023.06)
