@<TRIPOS>MOLECULE
NONAME
32 33 1 0 0 
SMALL
USER_CHARGES


@<TRIPOS>ATOM
  1 O       -0.3570     1.1960    -1.6790 O.2   1 <1>  -0.5700 
  2 C       -0.9030     1.7620    -0.7510 C.2   1 <1>   0.5440 
  3 N       -0.1680     2.6530    -0.0090 N.am  1 <1>  -0.6600 
  4 C       -2.3010     1.5040    -0.4620 C.ar  1 <1>   0.0860 
  5 C        1.3050     2.8180    -0.2070 C.3   1 <1>   0.2810 
  6 C       -0.7260     3.7550     0.8010 C.3   1 <1>   0.1400 
  7 C       -2.7410     1.2300     0.8340 C.ar  1 <1>  -0.1500 
  8 C       -3.2570     1.5200    -1.4770 C.ar  1 <1>  -0.1500 
  9 C        2.1460     1.5850     0.1750 C.2   1 <1>   0.6590 
 10 C        1.6580     4.0610     0.6200 C.3   1 <1>  -0.1600 
 11 C        0.3480     4.8340     0.7580 C.3   1 <1>  -0.1600 
 12 C       -4.0770     1.0010     1.1080 C.ar  1 <1>  -0.1500 
 13 C       -4.5950     1.2920    -1.2100 C.ar  1 <1>  -0.1500 
 14 O        2.0500     1.0370     1.2480 O.2   1 <1>  -0.5700 
 15 O        3.0220     1.1740    -0.7390 O.3   1 <1>  -0.4300 
 16 C       -5.0080     1.0350     0.0850 C.ar  1 <1>  -0.1500 
 17 C        3.8270     0.0330    -0.5330 C.3   1 <1>   0.0400 
 18 H        1.4730     3.0290    -1.2480 H     1 <1>   0.0800 
 19 H       -0.8700     3.4110     1.8110 H     1 <1>   0.0800 
 20 H       -1.6610     4.1070     0.3960 H     1 <1>   0.0800 
 21 H       -2.0180     1.1890     1.6310 H     1 <1>   0.1500 
 22 H       -2.9350     1.7120    -2.4860 H     1 <1>   0.1500 
 23 H        2.4310     4.6410     0.1500 H     1 <1>   0.0800 
 24 H        1.9980     3.7560     1.5950 H     1 <1>   0.0800 
 25 H        0.3270     5.4540     1.6380 H     1 <1>   0.0800 
 26 H        0.1910     5.4510    -0.1100 H     1 <1>   0.0800 
 27 H       -4.3940     0.7930     2.1160 H     1 <1>   0.1500 
 28 H       -5.3140     1.3110    -2.0110 H     1 <1>   0.1500 
 29 H       -6.0490     0.8570     0.2950 H     1 <1>   0.1500 
 30 H        4.4450    -0.1100    -1.4010 H     1 <1>   0.0800 
 31 H        3.1850    -0.8200    -0.3900 H     1 <1>   0.0800 
 32 H        4.4370     0.1890     0.3400 H     1 <1>   0.0800 
@<TRIPOS>BOND
  1   1   2  2   
  2   2   3  am  
  3   2   4  1   
  4   3   5  1   
  5   3   6  1   
  6   4   7  ar  
  7   4   8  ar  
  8   5   9  1   
  9   5  10  1   
 10   5  18  1   
 11   6  11  1   
 12   6  19  1   
 13   6  20  1   
 14   7  12  ar  
 15   7  21  1   
 16   8  13  ar  
 17   8  22  1   
 18   9  14  2   
 19   9  15  1   
 20  10  11  1   
 21  10  23  1   
 22  10  24  1   
 23  11  25  1   
 24  11  26  1   
 25  12  16  ar  
 26  12  27  1   
 27  13  16  ar  
 28  13  28  1   
 29  15  17  1   
 30  16  29  1   
 31  17  30  1   
 32  17  31  1   
 33  17  32  1   
@<TRIPOS>SUBSTRUCTURE
  1 ****   2 GROUP 4 **** **** 0

# MOE 2024.06 (io_trps.svl 2023.06)
