@<TRIPOS>MOLECULE
NONAME
34 35 1 0 0 
SMALL
USER_CHARGES


@<TRIPOS>ATOM
  1 S        0.0790    -0.1440    -0.0960 S.o2  1 <1>   1.3330 
  2 O        0.2570    -0.3090     1.3290 O.2   1 <1>  -0.6500 
  3 O        0.5150    -1.1860    -1.0000 O.2   1 <1>  -0.6500 
  4 N       -1.5660     0.1360    -0.3840 N.am  1 <1>  -0.8490 
  5 C        0.8370     1.4010    -0.6190 C.3   1 <1>  -0.0550 
  6 C       -2.2330     0.8320     0.7380 C.3   1 <1>   0.1960 
  7 C       -2.2910    -1.1170    -0.6790 C.3   1 <1>   0.1960 
  8 C        2.3700     1.4380    -0.4800 C.3   1 <1>  -0.2400 
  9 C       -3.7160     1.1290     0.4450 C.3   1 <1>   0.2090 
 10 C       -3.7830    -0.8790    -0.9910 C.3   1 <1>   0.2090 
 11 N       -4.4590    -0.1210     0.1000 N.pl3 1 <1>  -0.8380 
 12 C       -5.8370    -0.0600     0.0460 C.ar  1 <1>   0.4100 
 13 N       -6.3860     1.0910    -0.3260 N.ar  1 <1>  -0.6200 
 14 C       -6.5840    -1.1920     0.3670 C.ar  1 <1>  -0.1500 
 15 C       -7.7070     1.1100    -0.3820 C.ar  1 <1>   0.1600 
 16 C       -7.9570    -1.1580     0.3030 C.ar  1 <1>  -0.1500 
 17 C       -8.5270     0.0360    -0.0860 C.ar  1 <1>  -0.1500 
 18 H        0.4240     2.2050    -0.0420 H     1 <1>   0.0800 
 19 H        0.5830     1.5760    -1.6470 H     1 <1>   0.0800 
 20 H       -1.7290     1.7610     0.9390 H     1 <1>   0.0800 
 21 H       -2.1800     0.2290     1.6300 H     1 <1>   0.0800 
 22 H       -2.2110    -1.7890     0.1590 H     1 <1>   0.0800 
 23 H       -1.8460    -1.6000    -1.5320 H     1 <1>   0.0800 
 24 H        2.6520     1.2890     0.5480 H     1 <1>   0.0800 
 25 H        2.7520     2.3870    -0.8110 H     1 <1>   0.0800 
 26 H        2.8130     0.6580    -1.0740 H     1 <1>   0.0800 
 27 H       -3.7850     1.8250    -0.3740 H     1 <1>   0.0800 
 28 H       -4.1700     1.5830     1.3080 H     1 <1>   0.0800 
 29 H       -4.2710    -1.8280    -1.1300 H     1 <1>   0.0800 
 30 H       -3.8670    -0.3250    -1.9100 H     1 <1>   0.0800 
 31 H       -6.0670    -2.0810     0.6690 H     1 <1>   0.1500 
 32 H       -8.1640     2.0370    -0.6830 H     1 <1>   0.1500 
 33 H       -8.5580    -2.0170     0.5470 H     1 <1>   0.1500 
 34 H       -9.5950     0.1350    -0.1570 H     1 <1>   0.1500 
@<TRIPOS>BOND
  1   1   2  2   
  2   1   3  2   
  3   1   4  am  
  4   1   5  1   
  5   4   6  1   
  6   4   7  1   
  7   5   8  1   
  8   5  18  1   
  9   5  19  1   
 10   6   9  1   
 11   6  20  1   
 12   6  21  1   
 13   7  10  1   
 14   7  22  1   
 15   7  23  1   
 16   8  24  1   
 17   8  25  1   
 18   8  26  1   
 19   9  11  1   
 20   9  27  1   
 21   9  28  1   
 22  10  11  1   
 23  10  29  1   
 24  10  30  1   
 25  11  12  1   
 26  12  13  ar  
 27  12  14  ar  
 28  13  15  ar  
 29  14  16  ar  
 30  14  31  1   
 31  15  17  ar  
 32  15  32  1   
 33  16  17  ar  
 34  16  33  1   
 35  17  34  1   
@<TRIPOS>SUBSTRUCTURE
  1 ****  11 GROUP 4 **** **** 0

# MOE 2024.06 (io_trps.svl 2023.06)
