@<TRIPOS>MOLECULE
NONAME
46 48 1 0 0 
SMALL
USER_CHARGES


@<TRIPOS>ATOM
  1 O        0.1430    -0.5930    -0.6820 O.2   1 <1>  -0.5700 
  2 C       -0.2660    -1.5710    -0.0950 C.2   1 <1>   0.6340 
  3 O        0.4790    -2.1000     0.8810 O.3   1 <1>  -0.4300 
  4 C       -1.5420    -2.1970    -0.3940 C.ar  1 <1>   0.0860 
  5 C        1.7340    -1.5540     1.2380 C.3   1 <1>   0.0400 
  6 C       -2.0210    -3.2960     0.3240 C.ar  1 <1>  -0.1500 
  7 C       -2.3520    -1.7170    -1.4250 C.ar  1 <1>  -0.1500 
  8 C       -3.2450    -3.8740     0.0400 C.ar  1 <1>  -0.1500 
  9 C       -3.5760    -2.2890    -1.7170 C.ar  1 <1>  -0.1500 
 10 C       -4.0380    -3.3680    -0.9790 C.ar  1 <1>  -0.1440 
 11 C       -5.3960    -3.9760    -1.2770 C.3   1 <1>   0.4860 
 12 N       -6.3460    -3.5490    -0.2150 N.4   1 <1>  -0.9590 
 13 C       -7.6820    -4.2360    -0.3450 C.3   1 <1>   0.3430 
 14 C       -6.5160    -2.0480    -0.1790 C.3   1 <1>   0.3430 
 15 C       -8.6680    -3.8300     0.7700 C.3   1 <1>   0.2090 
 16 C       -7.4840    -1.5820     0.9280 C.3   1 <1>   0.2090 
 17 N       -8.7670    -2.3460     0.8890 N.pl3 1 <1>  -0.8380 
 18 C       -9.9420    -1.7330     0.4550 C.ar  1 <1>   0.1000 
 19 C       -9.9810    -0.9280    -0.6800 C.ar  1 <1>  -0.1500 
 20 C      -11.1200    -1.9350     1.1640 C.ar  1 <1>  -0.1500 
 21 C      -11.1650    -0.3470    -1.0950 C.ar  1 <1>  -0.1500 
 22 C      -12.3070    -1.3570     0.7520 C.ar  1 <1>  -0.1500 
 23 C      -12.3310    -0.5610    -0.3800 C.ar  1 <1>  -0.1500 
 24 H        2.1470    -2.1400     2.0390 H     1 <1>   0.0800 
 25 H        1.5930    -0.5360     1.5580 H     1 <1>   0.0800 
 26 H        2.3840    -1.5860     0.3810 H     1 <1>   0.0800 
 27 H       -1.4200    -3.7050     1.1200 H     1 <1>   0.1500 
 28 H       -2.0060    -0.8780    -2.0070 H     1 <1>   0.1500 
 29 H       -3.5620    -4.7230     0.6210 H     1 <1>   0.1500 
 30 H       -4.1580    -1.8790    -2.5270 H     1 <1>   0.1500 
 31 H       -5.3100    -5.0500    -1.2920 H     1 <1>   0.0800 
 32 H       -5.7430    -3.6470    -2.2440 H     1 <1>   0.0800 
 33 H       -5.9340    -3.8170     0.6870 H     1 <1>   0.4500 
 34 H       -7.5530    -5.3060    -0.3220 H     1 <1>   0.0800 
 35 H       -8.1300    -3.9780    -1.2910 H     1 <1>   0.0800 
 36 H       -6.9020    -1.7080    -1.1250 H     1 <1>   0.0800 
 37 H       -5.5610    -1.5720    -0.0240 H     1 <1>   0.0800 
 38 H       -8.3490    -4.2390     1.7120 H     1 <1>   0.0800 
 39 H       -9.6400    -4.2410     0.5490 H     1 <1>   0.0800 
 40 H       -7.6850    -0.5300     0.8160 H     1 <1>   0.0800 
 41 H       -7.0260    -1.7190     1.8920 H     1 <1>   0.0800 
 42 H       -9.0890    -0.7550    -1.2480 H     1 <1>   0.1500 
 43 H      -11.1010    -2.5440     2.0480 H     1 <1>   0.1500 
 44 H      -11.1860     0.2740    -1.9740 H     1 <1>   0.1500 
 45 H      -13.2110    -1.5210     1.3120 H     1 <1>   0.1500 
 46 H      -13.2530    -0.1090    -0.7020 H     1 <1>   0.1500 
@<TRIPOS>BOND
  1   1   2  2   
  2   2   3  1   
  3   2   4  1   
  4   3   5  1   
  5   4   6  ar  
  6   4   7  ar  
  7   5  24  1   
  8   5  25  1   
  9   5  26  1   
 10   6   8  ar  
 11   6  27  1   
 12   7   9  ar  
 13   7  28  1   
 14   8  10  ar  
 15   8  29  1   
 16   9  10  ar  
 17   9  30  1   
 18  10  11  1   
 19  11  12  1   
 20  11  31  1   
 21  11  32  1   
 22  12  13  1   
 23  12  14  1   
 24  12  33  1   
 25  13  15  1   
 26  13  34  1   
 27  13  35  1   
 28  14  16  1   
 29  14  36  1   
 30  14  37  1   
 31  15  17  1   
 32  15  38  1   
 33  15  39  1   
 34  16  17  1   
 35  16  40  1   
 36  16  41  1   
 37  17  18  1   
 38  18  19  ar  
 39  18  20  ar  
 40  19  21  ar  
 41  19  42  1   
 42  20  22  ar  
 43  20  43  1   
 44  21  23  ar  
 45  21  44  1   
 46  22  23  ar  
 47  22  45  1   
 48  23  46  1   
@<TRIPOS>SUBSTRUCTURE
  1 ****  14 GROUP 4 **** **** 0

# MOE 2024.06 (io_trps.svl 2023.06)
