@<TRIPOS>MOLECULE
NONAME
46 47 1 0 0 
SMALL
USER_CHARGES


@<TRIPOS>ATOM
  1 O        0.8520     0.2750     0.0440 O.2   1 <1>  -0.5700 
  2 C        1.4930    -0.5660    -0.5350 C.2   1 <1>   0.5690 
  3 N        1.1470    -1.8840    -0.6120 N.am  1 <1>  -0.5470 
  4 C        2.7720    -0.1420    -1.2300 C.3   1 <1>  -0.0990 
  5 C        0.0690    -2.6370    -0.1110 C.ar  1 <1>   0.1170 
  6 C        4.0250    -0.6850    -0.5220 C.3   1 <1>  -0.1600 
  7 C        0.0880    -4.0220    -0.3130 C.ar  1 <1>   0.0820 
  8 C       -1.0070    -2.0740     0.5660 C.ar  1 <1>  -0.1500 
  9 C        5.3130    -0.1990    -1.1960 C.3   1 <1>  -0.0160 
 10 O        1.1610    -4.5410    -0.9850 O.3   1 <1>  -0.3630 
 11 C       -0.9570    -4.8080     0.1630 C.ar  1 <1>  -0.1500 
 12 C       -2.0450    -2.8570     1.0420 C.ar  1 <1>  -0.1430 
 13 C        6.5260    -0.7780    -0.4870 C.ar  1 <1>  -0.1430 
 14 C        1.2870    -5.9300    -1.1960 C.3   1 <1>   0.0400 
 15 C       -2.0160    -4.2250     0.8360 C.ar  1 <1>  -0.1500 
 16 C       -3.2080    -2.2180     1.7790 C.3   1 <1>  -0.0970 
 17 C        7.1300    -1.9340    -0.9580 C.ar  1 <1>  -0.1500 
 18 C        7.0350    -0.1560     0.6420 C.ar  1 <1>  -0.1500 
 19 C        8.2320    -2.4650    -0.3090 C.ar  1 <1>  -0.1500 
 20 C        8.1350    -0.6840     1.2930 C.ar  1 <1>  -0.1500 
 21 C        8.7410    -1.8390     0.8250 C.ar  1 <1>   0.0820 
 22 O        9.8140    -2.2910     1.5210 O.3   1 <1>  -0.3620 
 23 C       10.5100    -3.4500     1.1220 C.3   1 <1>   0.0400 
 24 H        1.8140    -2.4840    -1.1000 H     1 <1>   0.3700 
 25 H        2.8070     0.9330    -1.2460 H     1 <1>   0.0800 
 26 H        2.7430    -0.4850    -2.2480 H     1 <1>   0.0800 
 27 H        4.0100    -1.7610    -0.5240 H     1 <1>   0.0800 
 28 H        4.0190    -0.3600     0.5050 H     1 <1>   0.0800 
 29 H       -1.0400    -1.0130     0.7260 H     1 <1>   0.1500 
 30 H        5.3600     0.8760    -1.1640 H     1 <1>   0.0800 
 31 H        5.3220    -0.4970    -2.2300 H     1 <1>   0.0800 
 32 H       -0.9700    -5.8710     0.0220 H     1 <1>   0.1500 
 33 H        2.2080    -6.1070    -1.7230 H     1 <1>   0.0800 
 34 H        0.4570    -6.2700    -1.7890 H     1 <1>   0.0800 
 35 H        1.3110    -6.4280    -0.2430 H     1 <1>   0.0800 
 36 H       -2.8200    -4.8420     1.1990 H     1 <1>   0.1500 
 37 H       -2.8950    -1.3080     2.2580 H     1 <1>   0.0800 
 38 H       -3.5890    -2.8840     2.5320 H     1 <1>   0.0800 
 39 H       -3.9960    -1.9890     1.0840 H     1 <1>   0.0800 
 40 H        6.7440    -2.4270    -1.8320 H     1 <1>   0.1500 
 41 H        6.5760     0.7400     1.0210 H     1 <1>   0.1500 
 42 H        8.6770    -3.3600    -0.6980 H     1 <1>   0.1500 
 43 H        8.5320    -0.2050     2.1690 H     1 <1>   0.1500 
 44 H       11.3180    -3.6090     1.8130 H     1 <1>   0.0800 
 45 H       10.9020    -3.2970     0.1310 H     1 <1>   0.0800 
 46 H        9.8370    -4.2880     1.1470 H     1 <1>   0.0800 
@<TRIPOS>BOND
  1   1   2  2   
  2   2   3  am  
  3   2   4  1   
  4   3   5  1   
  5   3  24  1   
  6   4   6  1   
  7   4  25  1   
  8   4  26  1   
  9   5   7  ar  
 10   5   8  ar  
 11   6   9  1   
 12   6  27  1   
 13   6  28  1   
 14   7  10  1   
 15   7  11  ar  
 16   8  12  ar  
 17   8  29  1   
 18   9  13  1   
 19   9  30  1   
 20   9  31  1   
 21  10  14  1   
 22  11  15  ar  
 23  11  32  1   
 24  12  15  ar  
 25  12  16  1   
 26  13  17  ar  
 27  13  18  ar  
 28  14  33  1   
 29  14  34  1   
 30  14  35  1   
 31  15  36  1   
 32  16  37  1   
 33  16  38  1   
 34  16  39  1   
 35  17  19  ar  
 36  17  40  1   
 37  18  20  ar  
 38  18  41  1   
 39  19  21  ar  
 40  19  42  1   
 41  20  21  ar  
 42  20  43  1   
 43  21  22  1   
 44  22  23  1   
 45  23  44  1   
 46  23  45  1   
 47  23  46  1   
@<TRIPOS>SUBSTRUCTURE
  1 ****   6 GROUP 4 **** **** 0

# MOE 2024.06 (io_trps.svl 2023.06)
