@<TRIPOS>MOLECULE
NONAME
38 39 1 0 0 
SMALL
USER_CHARGES


@<TRIPOS>ATOM
  1 O       -0.9200     0.5840    -2.3540 O.2   1 <1>  -0.5700 
  2 C       -0.4050     1.0620    -1.3710 C.2   1 <1>   0.5690 
  3 N       -1.0690     1.1920    -0.1940 N.am  1 <1>  -0.7300 
  4 C        1.0440     1.5570    -1.4420 C.3   1 <1>   0.1710 
  5 C       -2.4600     0.7650     0.0780 C.3   1 <1>   0.1400 
  6 N        1.7580     1.5740    -0.1300 N.3   1 <1>  -0.8100 
  7 C       -3.3750     1.9860     0.1450 C.3   1 <1>  -0.0170 
  8 C        3.0170     2.3390    -0.2280 C.3   1 <1>   0.1100 
  9 C        2.0610     0.2000     0.3270 C.3   1 <1>   0.1100 
 10 C       -4.7970     1.5610     0.4750 C.ar  1 <1>  -0.1440 
 11 C        3.7950     2.2960     1.1000 C.3   1 <1>   0.1200 
 12 C        2.8680     0.2170     1.6380 C.3   1 <1>   0.1200 
 13 C       -5.6430     1.1240    -0.5330 C.ar  1 <1>  -0.1500 
 14 C       -5.2590     1.6000     1.7810 C.ar  1 <1>  -0.1500 
 15 O        4.0350     0.9730     1.4850 O.3   1 <1>  -0.5600 
 16 C       -6.9370     0.7310    -0.2390 C.ar  1 <1>  -0.1500 
 17 C       -6.5530     1.2070     2.0770 C.ar  1 <1>  -0.1500 
 18 C       -7.3930     0.7720     1.0670 C.ar  1 <1>  -0.1500 
 19 H       -0.5240     1.5780     0.5840 H     1 <1>   0.3700 
 20 H        1.0120     2.5550    -1.8380 H     1 <1>   0.0800 
 21 H        1.5820     0.9430    -2.1440 H     1 <1>   0.0800 
 22 H       -2.4940     0.2270     1.0090 H     1 <1>   0.0800 
 23 H       -2.7970     0.1060    -0.7050 H     1 <1>   0.0800 
 24 H       -3.3630     2.4920    -0.8040 H     1 <1>   0.0800 
 25 H       -3.0180     2.6670     0.8960 H     1 <1>   0.0800 
 26 H        2.7960     3.3630    -0.4710 H     1 <1>   0.0800 
 27 H        3.6380     1.9320    -1.0080 H     1 <1>   0.0800 
 28 H        2.6320    -0.3230    -0.4230 H     1 <1>   0.0800 
 29 H        1.1460    -0.3430     0.4870 H     1 <1>   0.0800 
 30 H        3.2390     2.7870     1.8800 H     1 <1>   0.0800 
 31 H        4.7470     2.7840     0.9910 H     1 <1>   0.0800 
 32 H        3.1570    -0.7820     1.9120 H     1 <1>   0.0800 
 33 H        2.2830     0.6420     2.4360 H     1 <1>   0.0800 
 34 H       -5.2970     1.0880    -1.5520 H     1 <1>   0.1500 
 35 H       -4.6150     1.9360     2.5750 H     1 <1>   0.1500 
 36 H       -7.5880     0.3930    -1.0260 H     1 <1>   0.1500 
 37 H       -6.9070     1.2390     3.0920 H     1 <1>   0.1500 
 38 H       -8.3990     0.4670     1.2960 H     1 <1>   0.1500 
@<TRIPOS>BOND
  1   1   2  2   
  2   2   3  am  
  3   2   4  1   
  4   3   5  1   
  5   3  19  1   
  6   4   6  1   
  7   4  20  1   
  8   4  21  1   
  9   5   7  1   
 10   5  22  1   
 11   5  23  1   
 12   6   8  1   
 13   6   9  1   
 14   7  10  1   
 15   7  24  1   
 16   7  25  1   
 17   8  11  1   
 18   8  26  1   
 19   8  27  1   
 20   9  12  1   
 21   9  28  1   
 22   9  29  1   
 23  10  13  ar  
 24  10  14  ar  
 25  11  15  1   
 26  11  30  1   
 27  11  31  1   
 28  12  15  1   
 29  12  32  1   
 30  12  33  1   
 31  13  16  ar  
 32  13  34  1   
 33  14  17  ar  
 34  14  35  1   
 35  16  18  ar  
 36  16  36  1   
 37  17  18  ar  
 38  17  37  1   
 39  18  38  1   
@<TRIPOS>SUBSTRUCTURE
  1 ****   3 GROUP 4 **** **** 0

# MOE 2024.06 (io_trps.svl 2023.06)
