@<TRIPOS>MOLECULE
NONAME
41 42 1 0 0 
SMALL
USER_CHARGES


@<TRIPOS>ATOM
  1 S       -0.0540    -0.2540     0.2240 S.3   1 <1>  -0.2860 
  2 C        1.4070     0.7440     0.5290 C.2   1 <1>   0.2420 
  3 C       -1.3020     0.4990     1.3710 C.3   1 <1>   0.1310 
  4 N        1.4340     1.7220     1.3640 N.2   1 <1>  -0.3380 
  5 N        2.5680     0.5350    -0.0900 N.pl3 1 <1>   0.0480 
  6 C       -2.6460    -0.1800     1.2040 C.2   1 <1>   0.6590 
  7 N        2.6800     2.2030     1.3150 N.2   1 <1>  -0.3380 
  8 C        3.3370     1.4920     0.4570 C.2   1 <1>   0.0060 
  9 C        2.9040    -0.5000    -1.0910 C.3   1 <1>   0.0160 
 10 O       -3.1160    -0.8750     2.0690 O.2   1 <1>  -0.5700 
 11 O       -3.2810     0.0500     0.0610 O.3   1 <1>  -0.4300 
 12 C        4.8030     1.7300     0.1230 C.3   1 <1>   0.1630 
 13 C       -4.5330    -0.5320    -0.2140 C.3   1 <1>   0.1200 
 14 C        5.6230     0.4460     0.1690 C.ar  1 <1>  -0.1440 
 15 C       -4.9730    -0.0750    -1.6010 C.3   1 <1>  -0.2400 
 16 C        6.4130     0.0700    -0.9090 C.ar  1 <1>  -0.1500 
 17 C        5.5810    -0.3650     1.2930 C.ar  1 <1>  -0.1500 
 18 C        7.1450    -1.1040    -0.8690 C.ar  1 <1>  -0.1500 
 19 C        6.3110    -1.5400     1.3350 C.ar  1 <1>  -0.1500 
 20 C        7.0950    -1.9190     0.2580 C.ar  1 <1>   0.0820 
 21 O        7.7780    -3.0840     0.3800 O.3   1 <1>  -0.3630 
 22 C        8.6610    -3.5270    -0.6270 C.3   1 <1>   0.0400 
 23 H       -1.3720     1.5430     1.1300 H     1 <1>   0.0800 
 24 H       -0.9330     0.3730     2.3710 H     1 <1>   0.0800 
 25 H        2.0110    -0.8460    -1.5780 H     1 <1>   0.0800 
 26 H        3.3850    -1.3260    -0.5980 H     1 <1>   0.0800 
 27 H        3.5690    -0.0880    -1.8280 H     1 <1>   0.0800 
 28 H        5.2140     2.4280     0.8300 H     1 <1>   0.0800 
 29 H        4.8640     2.1800    -0.8510 H     1 <1>   0.0800 
 30 H       -5.2320    -0.2100     0.5400 H     1 <1>   0.0800 
 31 H       -4.4280    -1.6030    -0.1740 H     1 <1>   0.0800 
 32 H       -5.0640     0.9960    -1.6270 H     1 <1>   0.0800 
 33 H       -5.9280    -0.5060    -1.8390 H     1 <1>   0.0800 
 34 H       -4.2590    -0.3940    -2.3390 H     1 <1>   0.0800 
 35 H        6.4660     0.6900    -1.7880 H     1 <1>   0.1500 
 36 H        4.9770    -0.0850     2.1410 H     1 <1>   0.1500 
 37 H        7.7460    -1.3670    -1.7180 H     1 <1>   0.1500 
 38 H        6.2780    -2.1700     2.2050 H     1 <1>   0.1500 
 39 H        9.1040    -4.4510    -0.3000 H     1 <1>   0.0800 
 40 H        9.4280    -2.7860    -0.7700 H     1 <1>   0.0800 
 41 H        8.1050    -3.6890    -1.5330 H     1 <1>   0.0800 
@<TRIPOS>BOND
  1   1   2  1   
  2   1   3  1   
  3   2   4  2   
  4   2   5  1   
  5   3   6  1   
  6   3  23  1   
  7   3  24  1   
  8   4   7  1   
  9   5   8  1   
 10   5   9  1   
 11   6  10  2   
 12   6  11  1   
 13   7   8  2   
 14   8  12  1   
 15   9  25  1   
 16   9  26  1   
 17   9  27  1   
 18  11  13  1   
 19  12  14  1   
 20  12  28  1   
 21  12  29  1   
 22  13  15  1   
 23  13  30  1   
 24  13  31  1   
 25  14  16  ar  
 26  14  17  ar  
 27  15  32  1   
 28  15  33  1   
 29  15  34  1   
 30  16  18  ar  
 31  16  35  1   
 32  17  19  ar  
 33  17  36  1   
 34  18  20  ar  
 35  18  37  1   
 36  19  20  ar  
 37  19  38  1   
 38  20  21  1   
 39  21  22  1   
 40  22  39  1   
 41  22  40  1   
 42  22  41  1   
@<TRIPOS>SUBSTRUCTURE
  1 ****   5 GROUP 4 **** **** 0

# MOE 2024.06 (io_trps.svl 2023.06)
