@<TRIPOS>MOLECULE
NONAME
43 45 1 0 0 
SMALL
USER_CHARGES


@<TRIPOS>ATOM
  1 O        0.2450     0.3790     1.2670 O.2   1 <1>  -0.5700 
  2 C        0.1930     1.2090     0.3750 C.2   1 <1>   0.7150 
  3 N       -1.0380     1.4760    -0.1780 N.am  1 <1>  -0.7300 
  4 C        1.3850     1.9000    -0.0960 C.2   1 <1>   0.3930 
  5 C       -2.3180     0.8500     0.2000 C.3   1 <1>   0.2200 
  6 O        1.2750     2.7800    -1.0510 O.3   1 <1>  -0.0190 
  7 N        2.6200     1.8100     0.2690 N.2   1 <1>  -0.5650 
  8 C       -2.8990     0.1760    -1.0500 C.3   1 <1>  -0.1600 
  9 C       -3.2020     1.9410     0.8150 C.3   1 <1>  -0.1600 
 10 N        2.4100     3.2860    -1.3400 N.2   1 <1>  -0.4100 
 11 C        3.2340     2.6980    -0.5370 C.2   1 <1>   0.4620 
 12 C       -4.0560    -0.7780    -0.7150 C.3   1 <1>  -0.1600 
 13 C       -4.6220     1.4900     1.1960 C.3   1 <1>  -0.1600 
 14 C        4.6670     2.9430    -0.4840 C.ar  1 <1>   0.0540 
 15 C       -5.4440    -0.1200    -0.6580 C.3   1 <1>  -0.1600 
 16 C       -5.5210     1.2800    -0.0300 C.3   1 <1>  -0.1600 
 17 C        5.4950     2.2630     0.4120 C.ar  1 <1>  -0.1500 
 18 C        5.2760     3.8720    -1.3300 C.ar  1 <1>  -0.1500 
 19 C        6.8590     2.4920     0.4690 C.ar  1 <1>  -0.1440 
 20 C        6.6370     4.1090    -1.2840 C.ar  1 <1>  -0.1500 
 21 C        7.4300     3.4190    -0.3850 C.ar  1 <1>  -0.1500 
 22 C        7.7330     1.7360     1.4530 C.3   1 <1>  -0.0970 
 23 H       -1.1050     2.1700    -0.9220 H     1 <1>   0.3700 
 24 H       -2.1370     0.0930     0.9470 H     1 <1>   0.0800 
 25 H       -2.1180    -0.4160    -1.4940 H     1 <1>   0.0800 
 26 H       -3.2130     0.9080    -1.7720 H     1 <1>   0.0800 
 27 H       -3.2700     2.7760     0.1400 H     1 <1>   0.0800 
 28 H       -2.7160     2.2860     1.7110 H     1 <1>   0.0800 
 29 H       -3.8550    -1.2690     0.2220 H     1 <1>   0.0800 
 30 H       -4.0920    -1.5520    -1.4630 H     1 <1>   0.0800 
 31 H       -5.0590     2.2710     1.7950 H     1 <1>   0.0800 
 32 H       -4.5920     0.6030     1.8060 H     1 <1>   0.0800 
 33 H       -6.0980    -0.7790    -0.1130 H     1 <1>   0.0800 
 34 H       -5.8360    -0.0540    -1.6590 H     1 <1>   0.0800 
 35 H       -5.2890     2.0200    -0.7770 H     1 <1>   0.0800 
 36 H       -6.5440     1.4500     0.2610 H     1 <1>   0.0800 
 37 H        5.0560     1.5390     1.0770 H     1 <1>   0.1500 
 38 H        4.6750     4.4190    -2.0360 H     1 <1>   0.1500 
 39 H        7.0820     4.8300    -1.9480 H     1 <1>   0.1500 
 40 H        8.4890     3.6060    -0.3540 H     1 <1>   0.1500 
 41 H        7.1330     1.1960     2.1640 H     1 <1>   0.0800 
 42 H        8.3620     2.4230     1.9910 H     1 <1>   0.0800 
 43 H        8.3550     1.0350     0.9250 H     1 <1>   0.0800 
@<TRIPOS>BOND
  1   1   2  2   
  2   2   3  am  
  3   2   4  1   
  4   3   5  1   
  5   3  23  1   
  6   4   6  1   
  7   4   7  2   
  8   5   8  1   
  9   5   9  1   
 10   5  24  1   
 11   6  10  1   
 12   7  11  1   
 13   8  12  1   
 14   8  25  1   
 15   8  26  1   
 16   9  13  1   
 17   9  27  1   
 18   9  28  1   
 19  10  11  2   
 20  11  14  1   
 21  12  15  1   
 22  12  29  1   
 23  12  30  1   
 24  13  16  1   
 25  13  31  1   
 26  13  32  1   
 27  14  17  ar  
 28  14  18  ar  
 29  15  16  1   
 30  15  33  1   
 31  15  34  1   
 32  16  35  1   
 33  16  36  1   
 34  17  19  ar  
 35  17  37  1   
 36  18  20  ar  
 37  18  38  1   
 38  19  21  ar  
 39  19  22  1   
 40  20  21  ar  
 41  20  39  1   
 42  21  40  1   
 43  22  41  1   
 44  22  42  1   
 45  22  43  1   
@<TRIPOS>SUBSTRUCTURE
  1 ****   4 GROUP 4 **** **** 0

# MOE 2024.06 (io_trps.svl 2023.06)
