@<TRIPOS>MOLECULE
NONAME
48 51 1 0 0 
SMALL
USER_CHARGES


@<TRIPOS>ATOM
  1 S       -0.3100     1.0520    -0.3130 S.3   1 <1>  -0.3320 
  2 C        1.4110     0.5940    -0.4080 C.ar  1 <1>   0.7220 
  3 C       -0.2970     2.6600     0.6250 C.3   1 <1>   0.1310 
  4 N        2.2580     1.4300     0.1630 N.ar  1 <1>  -0.6200 
  5 N        1.6450    -0.5360    -1.0430 N.ar  1 <1>  -0.6200 
  6 C       -1.6980     3.2240     0.8100 C.2   1 <1>   0.5690 
  7 C        3.5190     1.0710     0.0760 C.ar  1 <1>   0.1660 
  8 C        2.9100    -0.8750    -1.1150 C.ar  1 <1>   0.1660 
  9 O       -1.8220     4.2660     1.4060 O.2   1 <1>  -0.5700 
 10 N       -2.7680     2.5550     0.3070 N.am  1 <1>  -0.7300 
 11 C        3.9120    -0.0900    -0.5690 C.ar  1 <1>  -0.1430 
 12 C        4.5200     2.0240     0.7170 C.3   1 <1>  -0.0170 
 13 C        3.1950    -2.1820    -1.8350 C.3   1 <1>  -0.0970 
 14 C       -4.1830     2.9760     0.4060 C.3   1 <1>   0.2200 
 15 C        5.3860    -0.4890    -0.6640 C.3   1 <1>  -0.0170 
 16 C        5.9100     1.4060     0.9060 C.3   1 <1>  -0.1600 
 17 C       -5.0920     1.8560     1.1830 C.3   1 <1>  -0.0800 
 18 C       -4.8210     3.1670    -1.1230 C.3   1 <1>  -0.1600 
 19 C        6.3420     0.6720    -0.3650 C.3   1 <1>  -0.1600 
 20 C       -5.6670     2.0850    -0.0040 C.3   1 <1>  -0.1600 
 21 C       -6.4900     1.0090     1.1160 C.3   1 <1>  -0.1600 
 22 C       -6.2130     2.3110    -1.2020 C.3   1 <1>  -0.0800 
 23 C       -7.1320     1.2080    -0.4170 C.3   1 <1>  -0.1600 
 24 H        0.3080     3.3500     0.0680 H     1 <1>   0.0800 
 25 H        0.1530     2.4690     1.5810 H     1 <1>   0.0800 
 26 H       -2.5990     1.6800    -0.1970 H     1 <1>   0.3700 
 27 H        4.1430     2.3450     1.6720 H     1 <1>   0.0800 
 28 H        4.5980     2.8920     0.0880 H     1 <1>   0.0800 
 29 H        2.3070    -2.7870    -1.8680 H     1 <1>   0.0800 
 30 H        3.9590    -2.7410    -1.3300 H     1 <1>   0.0800 
 31 H        3.5060    -1.9770    -2.8430 H     1 <1>   0.0800 
 32 H       -4.2390     3.9140     0.9400 H     1 <1>   0.0800 
 33 H        5.6070    -0.8650    -1.6470 H     1 <1>   0.0800 
 34 H        5.5690    -1.2810     0.0420 H     1 <1>   0.0800 
 35 H        5.8840     0.7120     1.7290 H     1 <1>   0.0800 
 36 H        6.6190     2.1800     1.1460 H     1 <1>   0.0800 
 37 H       -4.3800     1.0550     1.3290 H     1 <1>   0.0800 
 38 H       -4.1260     2.8170    -1.8710 H     1 <1>   0.0800 
 39 H       -5.0050     4.2130    -1.3120 H     1 <1>   0.0800 
 40 H        6.3400     1.3600    -1.1940 H     1 <1>   0.0800 
 41 H        7.3430     0.2940    -0.2490 H     1 <1>   0.0800 
 42 H       -5.0420     1.1960    -0.4610 H     1 <1>   0.0800 
 43 H       -6.2800     2.9840     0.4480 H     1 <1>   0.0800 
 44 H       -7.1820     1.3750     1.8610 H     1 <1>   0.0800 
 45 H       -6.3190    -0.0360     1.3200 H     1 <1>   0.0800 
 46 H       -6.9340     3.1040    -1.3550 H     1 <1>   0.0800 
 47 H       -8.1600     1.5320    -0.3560 H     1 <1>   0.0800 
 48 H       -7.1200     0.2690    -0.9500 H     1 <1>   0.0800 
@<TRIPOS>BOND
  1   1   2  1   
  2   1   3  1   
  3   2   4  ar  
  4   2   5  ar  
  5   3   6  1   
  6   3  24  1   
  7   3  25  1   
  8   4   7  ar  
  9   5   8  ar  
 10   6   9  2   
 11   6  10  am  
 12   7  11  ar  
 13   7  12  1   
 14   8  11  ar  
 15   8  13  1   
 16  10  14  1   
 17  10  26  1   
 18  11  15  1   
 19  12  16  1   
 20  12  27  1   
 21  12  28  1   
 22  13  29  1   
 23  13  30  1   
 24  13  31  1   
 25  14  17  1   
 26  14  18  1   
 27  14  32  1   
 28  15  19  1   
 29  15  33  1   
 30  15  34  1   
 31  16  19  1   
 32  16  35  1   
 33  16  36  1   
 34  17  20  1   
 35  17  21  1   
 36  17  37  1   
 37  18  22  1   
 38  18  38  1   
 39  18  39  1   
 40  19  40  1   
 41  19  41  1   
 42  20  22  1   
 43  20  42  1   
 44  20  43  1   
 45  21  23  1   
 46  21  44  1   
 47  21  45  1   
 48  22  23  1   
 49  22  46  1   
 50  23  47  1   
 51  23  48  1   
@<TRIPOS>SUBSTRUCTURE
  1 ****   1 GROUP 4 **** **** 0

# MOE 2024.06 (io_trps.svl 2023.06)
