@<TRIPOS>MOLECULE
NONAME
37 38 1 0 0 
SMALL
USER_CHARGES


@<TRIPOS>ATOM
  1 S        0.0200     0.5070     0.1340 S.3   1 <1>  -0.3320 
  2 C       -1.3390    -0.6430    -0.1420 C.ar  1 <1>   0.1020 
  3 C        1.5770    -0.4800     0.0140 C.3   1 <1>   0.0700 
  4 C       -2.6220    -0.1290    -0.0690 C.ar  1 <1>  -0.1500 
  5 C       -1.1270    -1.9860    -0.4180 C.ar  1 <1>  -0.1500 
  6 C        2.7550     0.4680     0.2360 C.3   1 <1>  -0.0990 
  7 C       -3.7070    -0.9650    -0.2710 C.ar  1 <1>  -0.1500 
  8 C       -2.2170    -2.8160    -0.6200 C.ar  1 <1>  -0.1500 
  9 C        4.0630    -0.2910     0.2360 C.2   1 <1>   0.5690 
 10 C       -3.5030    -2.3070    -0.5460 C.ar  1 <1>  -0.1500 
 11 O        4.2760    -1.0960    -0.6370 O.2   1 <1>  -0.5700 
 12 N        4.9630    -0.0390     1.2180 N.am  1 <1>  -0.7300 
 13 C        6.2750    -0.7340     1.3570 C.3   1 <1>   0.1400 
 14 C        7.2710    -0.3110     0.2660 C.3   1 <1>   0.2000 
 15 O        8.5290    -0.8130     0.5770 O.3   1 <1>  -0.5600 
 16 C        7.5000     1.1910     0.1410 C.3   1 <1>  -0.1600 
 17 C        9.5030    -0.1130    -0.1260 C.3   1 <1>   0.1200 
 18 C        8.9290     1.2810    -0.3730 C.3   1 <1>  -0.1600 
 19 H        1.6100    -0.9220    -0.9670 H     1 <1>   0.0800 
 20 H        1.5360    -1.2430     0.7710 H     1 <1>   0.0800 
 21 H       -2.7650     0.9140     0.1460 H     1 <1>   0.1500 
 22 H       -0.1380    -2.3960    -0.4810 H     1 <1>   0.1500 
 23 H        2.6300     0.9770     1.1730 H     1 <1>   0.0800 
 24 H        2.7820     1.1960    -0.5530 H     1 <1>   0.0800 
 25 H       -4.7070    -0.5710    -0.2150 H     1 <1>   0.1500 
 26 H       -2.0640    -3.8600    -0.8350 H     1 <1>   0.1500 
 27 H       -4.3470    -2.9560    -0.7040 H     1 <1>   0.1500 
 28 H        4.7630     0.6700     1.9240 H     1 <1>   0.3700 
 29 H        6.1190    -1.7960     1.2870 H     1 <1>   0.0800 
 30 H        6.6910    -0.5090     2.3230 H     1 <1>   0.0800 
 31 H        6.9810    -0.7310    -0.6830 H     1 <1>   0.0800 
 32 H        7.4240     1.6530     1.1100 H     1 <1>   0.0800 
 33 H        6.7890     1.6420    -0.5270 H     1 <1>   0.0800 
 34 H        9.6850    -0.6310    -1.0520 H     1 <1>   0.0800 
 35 H       10.4020    -0.0870     0.4660 H     1 <1>   0.0800 
 36 H        9.4920     2.0300     0.1560 H     1 <1>   0.0800 
 37 H        8.9520     1.5010    -1.4250 H     1 <1>   0.0800 
@<TRIPOS>BOND
  1   1   2  1   
  2   1   3  1   
  3   2   4  ar  
  4   2   5  ar  
  5   3   6  1   
  6   3  19  1   
  7   3  20  1   
  8   4   7  ar  
  9   4  21  1   
 10   5   8  ar  
 11   5  22  1   
 12   6   9  1   
 13   6  23  1   
 14   6  24  1   
 15   7  10  ar  
 16   7  25  1   
 17   8  10  ar  
 18   8  26  1   
 19   9  11  2   
 20   9  12  am  
 21  10  27  1   
 22  12  13  1   
 23  12  28  1   
 24  13  14  1   
 25  13  29  1   
 26  13  30  1   
 27  14  15  1   
 28  14  16  1   
 29  14  31  1   
 30  15  17  1   
 31  16  18  1   
 32  16  32  1   
 33  16  33  1   
 34  17  18  1   
 35  17  34  1   
 36  17  35  1   
 37  18  36  1   
 38  18  37  1   
@<TRIPOS>SUBSTRUCTURE
  1 ****   6 GROUP 4 **** **** 0

# MOE 2024.06 (io_trps.svl 2023.06)
