@<TRIPOS>MOLECULE
NONAME
30 30 1 0 0 
SMALL
USER_CHARGES


@<TRIPOS>ATOM
  1 S       -0.1150    -0.2690    -0.3310 S.3   1 <1>  -0.0800 
  2 C       -0.7240     1.0830     0.5610 C.2   1 <1>   0.4420 
  3 C        1.4670     0.0790     0.3110 C.2   1 <1>   0.3330 
  4 N        0.1960     1.6710     1.2300 N.2   1 <1>  -0.3380 
  5 N       -2.0480     1.4560     0.5330 N.am  1 <1>  -0.4940 
  6 N        1.4260     1.1050     1.0880 N.2   1 <1>  -0.3380 
  7 C        2.6090    -0.7390    -0.0450 C.2   1 <1>  -0.0930 
  8 C       -3.1290     0.9370    -0.1220 C.2   1 <1>   0.5690 
  9 C        3.8450    -0.4860     0.4410 C.2   1 <1>  -0.2880 
 10 C        2.3280    -1.9000    -1.0020 C.3   1 <1>  -0.1020 
 11 O       -3.0650    -0.0250    -0.8450 O.2   1 <1>  -0.5700 
 12 C       -4.4820     1.6280     0.0860 C.3   1 <1>  -0.0190 
 13 C        5.1740    -1.1950     0.2130 C.3   1 <1>  -0.1020 
 14 C       -5.5050     0.6780     0.7310 C.3   1 <1>  -0.2400 
 15 C       -5.0400     2.1820    -1.2350 C.3   1 <1>  -0.2400 
 16 H       -2.2320     2.2690     1.1130 H     1 <1>   0.3700 
 17 H        3.9870     0.3460     1.1130 H     1 <1>   0.1500 
 18 H        1.9340    -1.5250    -1.9290 H     1 <1>   0.0800 
 19 H        1.6100    -2.5710    -0.5650 H     1 <1>   0.0800 
 20 H        3.2020    -2.4730    -1.2330 H     1 <1>   0.0800 
 21 H       -4.3430     2.4590     0.7550 H     1 <1>   0.0800 
 22 H        5.5590    -1.5440     1.1540 H     1 <1>   0.0800 
 23 H        5.8820    -0.5020    -0.2050 H     1 <1>   0.0800 
 24 H        5.1020    -2.0350    -0.4480 H     1 <1>   0.0800 
 25 H       -5.6910    -0.1640     0.0860 H     1 <1>   0.0800 
 26 H       -6.4350     1.1870     0.9090 H     1 <1>   0.0800 
 27 H       -5.1310     0.3090     1.6690 H     1 <1>   0.0800 
 28 H       -5.2140     1.3800    -1.9320 H     1 <1>   0.0800 
 29 H       -4.3400     2.8680    -1.6770 H     1 <1>   0.0800 
 30 H       -5.9680     2.6990    -1.0670 H     1 <1>   0.0800 
@<TRIPOS>BOND
  1   1   2  1   
  2   1   3  1   
  3   2   4  2   
  4   2   5  1   
  5   3   6  2   
  6   3   7  1   
  7   4   6  1   
  8   5   8  am  
  9   5  16  1   
 10   7   9  2   
 11   7  10  1   
 12   8  11  2   
 13   8  12  1   
 14   9  13  1   
 15   9  17  1   
 16  10  18  1   
 17  10  19  1   
 18  10  20  1   
 19  12  14  1   
 20  12  15  1   
 21  12  21  1   
 22  13  22  1   
 23  13  23  1   
 24  13  24  1   
 25  14  25  1   
 26  14  26  1   
 27  14  27  1   
 28  15  28  1   
 29  15  29  1   
 30  15  30  1   
@<TRIPOS>SUBSTRUCTURE
  1 ****   2 GROUP 4 **** **** 0

# MOE 2024.06 (io_trps.svl 2023.06)
