@<TRIPOS>MOLECULE
NONAME
45 46 1 0 0 
SMALL
USER_CHARGES


@<TRIPOS>ATOM
  1 O       -1.3310     0.1980     1.4220 O.3   1 <1>  -0.1650 
  2 C       -1.9510     1.1230     0.6460 C.ar  1 <1>   0.0830 
  3 C       -1.3350    -1.1150     1.0850 C.ar  1 <1>   0.0830 
  4 C       -3.0880     0.8210    -0.0940 C.ar  1 <1>  -0.1500 
  5 C       -1.4320     2.4070     0.6190 C.ar  1 <1>  -0.1500 
  6 C       -1.6500    -2.0500     2.0590 C.ar  1 <1>  -0.1500 
  7 C       -1.0230    -1.5310    -0.2040 C.ar  1 <1>  -0.1500 
  8 C       -3.7030     1.7990    -0.8620 C.ar  1 <1>  -0.1430 
  9 C       -2.0370     3.3820    -0.1540 C.ar  1 <1>  -0.1500 
 10 C       -1.6770    -3.3960     1.7410 C.ar  1 <1>  -0.1500 
 11 C       -1.0510    -2.8790    -0.5190 C.ar  1 <1>  -0.1500 
 12 C       -3.1670     3.0800    -0.8940 C.ar  1 <1>  -0.1500 
 13 C       -4.9560     1.4670    -1.6480 C.3   1 <1>   0.4860 
 14 C       -1.3810    -3.8100     0.4530 C.ar  1 <1>  -0.1500 
 15 N       -6.0700     1.2570    -0.6820 N.4   1 <1>  -0.9590 
 16 C       -7.2380     0.6040    -1.3610 C.3   1 <1>   0.3430 
 17 C       -6.4270     2.5390    -0.0040 C.3   1 <1>   0.3430 
 18 C       -7.7240    -0.6410    -0.6070 C.3   1 <1>   0.1200 
 19 C       -7.3430     2.2920     1.1950 C.3   1 <1>  -0.1600 
 20 O       -8.7690    -1.1840    -1.3310 O.3   1 <1>  -0.6800 
 21 C       -7.5690     3.5870     1.9840 C.3   1 <1>  -0.2400 
 22 H       -3.4810    -0.1790    -0.0600 H     1 <1>   0.1500 
 23 H       -0.5550     2.6360     1.1990 H     1 <1>   0.1500 
 24 H       -1.8720    -1.7210     3.0590 H     1 <1>   0.1500 
 25 H       -0.7530    -0.8070    -0.9520 H     1 <1>   0.1500 
 26 H       -1.6220     4.3760    -0.1770 H     1 <1>   0.1500 
 27 H       -1.9230    -4.1240     2.4960 H     1 <1>   0.1500 
 28 H       -0.8090    -3.2060    -1.5160 H     1 <1>   0.1500 
 29 H       -3.6160     3.8560    -1.4910 H     1 <1>   0.1500 
 30 H       -4.7840     0.5690    -2.2190 H     1 <1>   0.0800 
 31 H       -5.1940     2.2680    -2.3300 H     1 <1>   0.0800 
 32 H       -1.4000    -4.8580     0.2070 H     1 <1>   0.1500 
 33 H       -5.6940     0.6300     0.0400 H     1 <1>   0.4500 
 34 H       -6.9580     0.2970    -2.3560 H     1 <1>   0.0800 
 35 H       -8.0530     1.3040    -1.4440 H     1 <1>   0.0800 
 36 H       -6.9090     3.2080    -0.7000 H     1 <1>   0.0800 
 37 H       -5.5290     3.0200     0.3520 H     1 <1>   0.0800 
 38 H       -8.0930    -0.3910     0.3730 H     1 <1>   0.0800 
 39 H       -6.9470    -1.3830    -0.5390 H     1 <1>   0.0800 
 40 H       -6.8970     1.5660     1.8530 H     1 <1>   0.0800 
 41 H       -8.3010     1.9280     0.8660 H     1 <1>   0.0800 
 42 H       -9.1380    -1.9840    -0.8970 H     1 <1>   0.4000 
 43 H       -6.6360     3.9750     2.3570 H     1 <1>   0.0800 
 44 H       -8.2130     3.3970     2.8260 H     1 <1>   0.0800 
 45 H       -8.0350     4.3360     1.3670 H     1 <1>   0.0800 
@<TRIPOS>BOND
  1   1   2  1   
  2   1   3  1   
  3   2   4  ar  
  4   2   5  ar  
  5   3   6  ar  
  6   3   7  ar  
  7   4   8  ar  
  8   4  22  1   
  9   5   9  ar  
 10   5  23  1   
 11   6  10  ar  
 12   6  24  1   
 13   7  11  ar  
 14   7  25  1   
 15   8  12  ar  
 16   8  13  1   
 17   9  12  ar  
 18   9  26  1   
 19  10  14  ar  
 20  10  27  1   
 21  11  14  ar  
 22  11  28  1   
 23  12  29  1   
 24  13  15  1   
 25  13  30  1   
 26  13  31  1   
 27  14  32  1   
 28  15  16  1   
 29  15  17  1   
 30  15  33  1   
 31  16  18  1   
 32  16  34  1   
 33  16  35  1   
 34  17  19  1   
 35  17  36  1   
 36  17  37  1   
 37  18  20  1   
 38  18  38  1   
 39  18  39  1   
 40  19  21  1   
 41  19  40  1   
 42  19  41  1   
 43  20  42  1   
 44  21  43  1   
 45  21  44  1   
 46  21  45  1   
@<TRIPOS>SUBSTRUCTURE
  1 ****   4 GROUP 4 **** **** 0

# MOE 2024.06 (io_trps.svl 2023.06)
