@<TRIPOS>MOLECULE
NONAME
46 47 1 0 0 
SMALL
USER_CHARGES


@<TRIPOS>ATOM
  1 S       -0.2600    -0.2050    -0.7540 S.3   1 <1>  -0.0800 
  2 C       -0.8270     1.2810    -0.0030 C.2   1 <1>   0.1040 
  3 C        1.3880     0.0590    -0.2020 C.2   1 <1>  -0.1400 
  4 N       -2.1780     1.6040    -0.0370 N.am  1 <1>  -0.4940 
  5 C        0.2120     1.9310     0.6010 C.2   1 <1>  -0.0860 
  6 C        1.4520     1.2100     0.4910 C.2   1 <1>  -0.1500 
  7 C        2.4140    -1.0040    -0.5680 C.3   1 <1>   0.1000 
  8 C       -3.2020     1.1580    -0.8350 C.2   1 <1>   0.5690 
  9 C        0.1380     3.1950     1.2770 C.2   1 <1>   0.7160 
 10 C        3.7030    -0.8300     0.2430 C.3   1 <1>  -0.2400 
 11 C        2.7260    -0.9450    -2.0660 C.3   1 <1>  -0.2400 
 12 O       -3.0290     0.4950    -1.8260 O.2   1 <1>  -0.5700 
 13 C       -4.6220     1.5690    -0.4330 C.3   1 <1>  -0.0190 
 14 O        0.8630     3.4840     2.2050 O.2   1 <1>  -0.5700 
 15 N       -0.7390     4.1460     0.8850 N.am  1 <1>  -0.8000 
 16 C       -5.0920     0.7880     0.8090 C.3   1 <1>  -0.1600 
 17 C       -5.6460     1.3950    -1.5750 C.3   1 <1>  -0.1600 
 18 C       -6.5120     1.1840     1.2270 C.3   1 <1>   0.1400 
 19 C       -7.0590     1.7890    -1.1370 C.3   1 <1>   0.1400 
 20 N       -7.4370     1.0100     0.0750 N.am  1 <1>  -0.6600 
 21 C       -8.5220     0.1730     0.1670 C.2   1 <1>   0.5690 
 22 O       -8.8000    -0.4120     1.1850 O.2   1 <1>  -0.5700 
 23 C       -9.4270    -0.0520    -1.0220 C.3   1 <1>  -0.1790 
 24 H       -2.4660     2.2660     0.6820 H     1 <1>   0.3700 
 25 H        2.3430     1.6080     0.9480 H     1 <1>   0.1500 
 26 H        1.9970    -1.9690    -0.3360 H     1 <1>   0.0800 
 27 H        4.1650     0.1150     0.0190 H     1 <1>   0.0800 
 28 H        4.3980    -1.6170     0.0120 H     1 <1>   0.0800 
 29 H        3.4830    -0.8680     1.2950 H     1 <1>   0.0800 
 30 H        3.1180     0.0220    -2.3280 H     1 <1>   0.0800 
 31 H        1.8330    -1.1180    -2.6390 H     1 <1>   0.0800 
 32 H        3.4490    -1.6970    -2.3290 H     1 <1>   0.0800 
 33 H       -4.5940     2.6140    -0.1830 H     1 <1>   0.0800 
 34 H       -0.6410     5.0590     1.3310 H     1 <1>   0.3700 
 35 H       -1.0580     4.1640    -0.0830 H     1 <1>   0.3700 
 36 H       -4.4260     0.9620     1.6350 H     1 <1>   0.0800 
 37 H       -5.0780    -0.2690     0.5990 H     1 <1>   0.0800 
 38 H       -5.6600     0.3680    -1.8990 H     1 <1>   0.0800 
 39 H       -5.3540     1.9960    -2.4180 H     1 <1>   0.0800 
 40 H       -6.5350     2.2130     1.5420 H     1 <1>   0.0800 
 41 H       -6.8210     0.5760     2.0610 H     1 <1>   0.0800 
 42 H       -7.7440     1.6150    -1.9460 H     1 <1>   0.0800 
 43 H       -7.0890     2.8380    -0.8990 H     1 <1>   0.0800 
 44 H       -9.8880     0.8730    -1.3100 H     1 <1>   0.0800 
 45 H      -10.1980    -0.7540    -0.7620 H     1 <1>   0.0800 
 46 H       -8.8610    -0.4530    -1.8410 H     1 <1>   0.0800 
@<TRIPOS>BOND
  1   1   2  1   
  2   1   3  1   
  3   2   4  1   
  4   2   5  2   
  5   3   6  2   
  6   3   7  1   
  7   4   8  am  
  8   4  24  1   
  9   5   6  1   
 10   5   9  1   
 11   6  25  1   
 12   7  10  1   
 13   7  11  1   
 14   7  26  1   
 15   8  12  2   
 16   8  13  1   
 17   9  14  2   
 18   9  15  am  
 19  10  27  1   
 20  10  28  1   
 21  10  29  1   
 22  11  30  1   
 23  11  31  1   
 24  11  32  1   
 25  13  16  1   
 26  13  17  1   
 27  13  33  1   
 28  15  34  1   
 29  15  35  1   
 30  16  18  1   
 31  16  36  1   
 32  16  37  1   
 33  17  19  1   
 34  17  38  1   
 35  17  39  1   
 36  18  20  1   
 37  18  40  1   
 38  18  41  1   
 39  19  20  1   
 40  19  42  1   
 41  19  43  1   
 42  20  21  am  
 43  21  22  2   
 44  21  23  1   
 45  23  44  1   
 46  23  45  1   
 47  23  46  1   
@<TRIPOS>SUBSTRUCTURE
  1 ****   4 GROUP 4 **** **** 0

# MOE 2024.06 (io_trps.svl 2023.06)
