@<TRIPOS>MOLECULE
NONAME
25 26 1 0 0 
SMALL
USER_CHARGES


@<TRIPOS>ATOM
  1 O       -2.8830    -0.8720    -0.3640 O.3   1 <1>  -0.6800 
  2 C       -2.8880     0.5020    -0.5850 C.3   1 <1>   0.2000 
  3 C       -1.6650     1.1450     0.0870 C.3   1 <1>   0.3300 
  4 C       -4.1720     1.0960     0.0090 C.3   1 <1>   0.3300 
  5 N       -1.8260     2.6200     0.1570 N.pl3 1 <1>  -0.7940 
  6 N       -4.1520     2.5910    -0.0110 N.pl3 1 <1>  -0.6850 
  7 C       -2.9930     3.2840     0.0890 C.cat 1 <1>   0.7390 
  8 C       -5.3460     3.2590    -0.0880 C.2   1 <1>   0.1910 
  9 C       -3.0300     4.6860     0.1160 C.2   1 <1>  -0.1800 
 10 C       -5.3940     4.6250    -0.0690 C.2   1 <1>  -0.1500 
 11 C       -4.2140     5.3700     0.0360 C.2   1 <1>  -0.1380 
 12 C       -4.2830     6.8880     0.0590 C.3   1 <1>  -0.1020 
 13 H       -2.2830    -1.3470    -0.9780 H     1 <1>   0.4000 
 14 H       -2.8690     0.6680    -1.6480 H     1 <1>   0.0800 
 15 H       -0.7800     0.9060    -0.4770 H     1 <1>   0.0800 
 16 H       -1.5580     0.7600     1.0880 H     1 <1>   0.0800 
 17 H       -4.2780     0.7680     1.0290 H     1 <1>   0.0800 
 18 H       -5.0140     0.7360    -0.5570 H     1 <1>   0.0800 
 19 H       -0.9620     3.1520     0.2900 H     1 <1>   0.4500 
 20 H       -6.2590     2.6870    -0.1610 H     1 <1>   0.1500 
 21 H       -2.1010     5.2180     0.1980 H     1 <1>   0.1500 
 22 H       -6.3380     5.1390    -0.1320 H     1 <1>   0.1500 
 23 H       -4.8720     7.2180     0.8970 H     1 <1>   0.0800 
 24 H       -4.7380     7.2500    -0.8460 H     1 <1>   0.0800 
 25 H       -3.3020     7.3190     0.1420 H     1 <1>   0.0800 
@<TRIPOS>BOND
  1   1   2  1   
  2   1  13  1   
  3   2   3  1   
  4   2   4  1   
  5   2  14  1   
  6   3   5  1   
  7   3  15  1   
  8   3  16  1   
  9   4   6  1   
 10   4  17  1   
 11   4  18  1   
 12   5   7  ar  
 13   5  19  1   
 14   6   7  ar  
 15   6   8  1   
 16   7   9  1   
 17   8  10  2   
 18   8  20  1   
 19   9  11  2   
 20   9  21  1   
 21  10  11  1   
 22  10  22  1   
 23  11  12  1   
 24  12  23  1   
 25  12  24  1   
 26  12  25  1   
@<TRIPOS>SUBSTRUCTURE
  1 ****   6 GROUP 4 **** **** 0

# MOE 2024.06 (io_trps.svl 2023.06)
