@<TRIPOS>MOLECULE
NONAME
36 36 1 0 0 
SMALL
USER_CHARGES


@<TRIPOS>ATOM
  1 O        0.0060    -0.2430     1.5680 O.2   1 <1>  -0.5700 
  2 C       -0.0390    -1.2100     0.8500 C.2   1 <1>   0.5690 
  3 N        0.9980    -1.6510     0.0760 N.am  1 <1>  -0.5470 
  4 C       -1.3430    -1.9720     0.7730 C.3   1 <1>  -0.0990 
  5 C        2.3110    -1.1770    -0.0800 C.ar  1 <1>   0.1170 
  6 C       -2.3080    -1.3130    -0.2230 C.3   1 <1>  -0.0990 
  7 C        3.0400    -1.5990    -1.1860 C.ar  1 <1>  -0.1500 
  8 C        2.9270    -0.3160     0.8220 C.ar  1 <1>  -0.1500 
  9 C       -3.5970    -2.0950    -0.3270 C.2   1 <1>   0.5690 
 10 C        4.3410    -1.1730    -1.3880 C.ar  1 <1>  -0.1500 
 11 C        4.2280     0.1120     0.6220 C.ar  1 <1>  -0.1500 
 12 O       -3.6170    -3.0940    -1.0020 O.2   1 <1>  -0.5700 
 13 N       -4.6880    -1.6550     0.3460 N.am  1 <1>  -0.7300 
 14 C        4.9440    -0.3150    -0.4840 C.ar  1 <1>  -0.1430 
 15 C       -6.0010    -2.3470     0.3500 C.3   1 <1>   0.1400 
 16 C        6.3690     0.1580    -0.7030 C.3   1 <1>  -0.0970 
 17 C       -6.8490    -1.8770    -0.8350 C.3   1 <1>   0.1200 
 18 O       -8.0770    -2.5210    -0.8070 O.3   1 <1>  -0.6800 
 19 H        0.7750    -2.4460    -0.5180 H     1 <1>   0.3700 
 20 H       -1.7880    -1.9870     1.7520 H     1 <1>   0.0800 
 21 H       -1.1540    -2.9900     0.4820 H     1 <1>   0.0800 
 22 H       -1.8560    -1.2750    -1.1980 H     1 <1>   0.0800 
 23 H       -2.5160    -0.3040     0.0850 H     1 <1>   0.0800 
 24 H        2.5900    -2.2630    -1.9000 H     1 <1>   0.1500 
 25 H        2.3970     0.0260     1.6910 H     1 <1>   0.1500 
 26 H        4.8830    -1.5110    -2.2530 H     1 <1>   0.1500 
 27 H        4.6790     0.7810     1.3340 H     1 <1>   0.1500 
 28 H       -4.6350    -0.7940     0.8940 H     1 <1>   0.3700 
 29 H       -6.5130    -2.1330     1.2730 H     1 <1>   0.0800 
 30 H       -5.8400    -3.4090     0.2770 H     1 <1>   0.0800 
 31 H        6.9310    -0.5780    -1.2500 H     1 <1>   0.0800 
 32 H        6.8580     0.3240     0.2400 H     1 <1>   0.0800 
 33 H        6.3660     1.0770    -1.2590 H     1 <1>   0.0800 
 34 H       -6.3650    -2.1080    -1.7690 H     1 <1>   0.0800 
 35 H       -7.0330    -0.8180    -0.7700 H     1 <1>   0.0800 
 36 H       -7.9770    -3.4640    -1.0490 H     1 <1>   0.4000 
@<TRIPOS>BOND
  1   1   2  2   
  2   2   3  am  
  3   2   4  1   
  4   3   5  1   
  5   3  19  1   
  6   4   6  1   
  7   4  20  1   
  8   4  21  1   
  9   5   7  ar  
 10   5   8  ar  
 11   6   9  1   
 12   6  22  1   
 13   6  23  1   
 14   7  10  ar  
 15   7  24  1   
 16   8  11  ar  
 17   8  25  1   
 18   9  12  2   
 19   9  13  am  
 20  10  14  ar  
 21  10  26  1   
 22  11  14  ar  
 23  11  27  1   
 24  13  15  1   
 25  13  28  1   
 26  14  16  1   
 27  15  17  1   
 28  15  29  1   
 29  15  30  1   
 30  16  31  1   
 31  16  32  1   
 32  16  33  1   
 33  17  18  1   
 34  17  34  1   
 35  17  35  1   
 36  18  36  1   
@<TRIPOS>SUBSTRUCTURE
  1 ****   2 GROUP 4 **** **** 0

# MOE 2024.06 (io_trps.svl 2023.06)
