@<TRIPOS>MOLECULE
NONAME
64 67 1 0 0 
SMALL
USER_CHARGES


@<TRIPOS>ATOM
  1 O       -0.0850    -0.6730    -1.4060 O.3   1 <1>  -0.3630 
  2 C        0.3440    -1.6920    -0.6200 C.ar  1 <1>   0.0830 
  3 C       -0.6410     0.4540    -0.7560 C.3   1 <1>   0.2640 
  4 C       -0.5010    -2.4220     0.2220 C.ar  1 <1>   0.0830 
  5 C        1.6950    -1.9800    -0.6470 C.ar  1 <1>  -0.1500 
  6 C        0.4370     1.2460    -0.0180 C.ar  1 <1>  -0.1440 
  7 O       -1.8430    -2.2410     0.2510 O.3   1 <1>  -0.3630 
  8 C        0.0380    -3.3760     1.0690 C.ar  1 <1>  -0.1500 
  9 C        2.2400    -2.9300     0.2070 C.ar  1 <1>  -0.1440 
 10 C        1.0740     2.3110    -0.6370 C.ar  1 <1>  -0.1500 
 11 C        0.7600     0.9370     1.2950 C.ar  1 <1>  -0.1500 
 12 C       -2.5440    -2.6210    -0.9120 C.3   1 <1>   0.0400 
 13 C        1.4000    -3.6260     1.0650 C.ar  1 <1>  -0.1500 
 14 C        3.7420    -3.1880     0.2220 C.3   1 <1>   0.2530 
 15 C        2.0000     3.0730     0.0540 C.ar  1 <1>  -0.1500 
 16 C        1.6890     1.6950     1.9880 C.ar  1 <1>  -0.1500 
 17 N        4.4960    -1.9280     0.0590 N.3   1 <1>  -0.8100 
 18 C        2.3050     2.7690     1.3700 C.ar  1 <1>  -0.1500 
 19 C        4.2140    -0.9300     1.1230 C.3   1 <1>   0.1100 
 20 C        5.9530    -2.1410    -0.0760 C.3   1 <1>   0.1100 
 21 C        4.8080     0.4500     0.7610 C.3   1 <1>   0.3430 
 22 C        6.7290    -0.8020    -0.1820 C.3   1 <1>   0.3430 
 23 N        5.7850     0.3470    -0.3830 N.4   1 <1>  -0.9590 
 24 C        6.4480     1.6060    -0.8040 C.3   1 <1>   0.4230 
 25 C        7.2670     2.2350     0.3340 C.3   1 <1>  -0.1600 
 26 C        5.4090     2.5950    -1.3440 C.3   1 <1>  -0.1600 
 27 C        7.9460     3.5300    -0.1370 C.3   1 <1>  -0.1600 
 28 C        6.0820     3.8880    -1.8240 C.3   1 <1>  -0.1600 
 29 C        6.9210     4.5210    -0.7060 C.3   1 <1>  -0.1600 
 30 H       -1.4080     0.1330    -0.0760 H     1 <1>   0.0800 
 31 H       -1.0970     1.0660    -1.5130 H     1 <1>   0.0800 
 32 H        2.3210    -1.4330    -1.3270 H     1 <1>   0.1500 
 33 H       -0.6140    -3.9220     1.7260 H     1 <1>   0.1500 
 34 H        0.8370     2.5580    -1.6580 H     1 <1>   0.1500 
 35 H        0.2750     0.1080     1.7840 H     1 <1>   0.1500 
 36 H       -2.2320    -2.0040    -1.7350 H     1 <1>   0.0800 
 37 H       -2.3340    -3.6550    -1.1210 H     1 <1>   0.0800 
 38 H       -3.5950    -2.4880    -0.7310 H     1 <1>   0.0800 
 39 H        1.7990    -4.3680     1.7350 H     1 <1>   0.1500 
 40 H        3.9810    -3.8550    -0.5890 H     1 <1>   0.0800 
 41 H        4.0240    -3.6640     1.1460 H     1 <1>   0.0800 
 42 H        2.4680     3.9130    -0.4300 H     1 <1>   0.1500 
 43 H        1.9150     1.4560     3.0130 H     1 <1>   0.1500 
 44 H        3.0100     3.3750     1.9140 H     1 <1>   0.1500 
 45 H        4.6260    -1.2680     2.0590 H     1 <1>   0.0800 
 46 H        3.1540    -0.8070     1.2670 H     1 <1>   0.0800 
 47 H        6.1420    -2.7230    -0.9620 H     1 <1>   0.0800 
 48 H        6.3270    -2.6990     0.7660 H     1 <1>   0.0800 
 49 H        5.2810     0.8710     1.6310 H     1 <1>   0.0800 
 50 H        3.9960     1.1000     0.4790 H     1 <1>   0.0800 
 51 H        7.4240    -0.8630    -1.0030 H     1 <1>   0.0800 
 52 H        7.2980    -0.6500     0.7200 H     1 <1>   0.0800 
 53 H        5.1830     0.0220    -1.1540 H     1 <1>   0.4500 
 54 H        7.1270     1.3810    -1.6120 H     1 <1>   0.0800 
 55 H        8.0280     1.5530     0.6680 H     1 <1>   0.0800 
 56 H        6.6300     2.4750     1.1660 H     1 <1>   0.0800 
 57 H        4.7090     2.8510    -0.5710 H     1 <1>   0.0800 
 58 H        4.8720     2.1530    -2.1650 H     1 <1>   0.0800 
 59 H        8.6770     3.3020    -0.8950 H     1 <1>   0.0800 
 60 H        8.4660     3.9880     0.6880 H     1 <1>   0.0800 
 61 H        5.3310     4.5890    -2.1490 H     1 <1>   0.0800 
 62 H        6.7160     3.6760    -2.6690 H     1 <1>   0.0800 
 63 H        7.4350     5.3870    -1.0890 H     1 <1>   0.0800 
 64 H        6.2700     4.8560     0.0840 H     1 <1>   0.0800 
@<TRIPOS>BOND
  1   1   2  1   
  2   1   3  1   
  3   2   4  ar  
  4   2   5  ar  
  5   3   6  1   
  6   3  30  1   
  7   3  31  1   
  8   4   7  1   
  9   4   8  ar  
 10   5   9  ar  
 11   5  32  1   
 12   6  10  ar  
 13   6  11  ar  
 14   7  12  1   
 15   8  13  ar  
 16   8  33  1   
 17   9  13  ar  
 18   9  14  1   
 19  10  15  ar  
 20  10  34  1   
 21  11  16  ar  
 22  11  35  1   
 23  12  36  1   
 24  12  37  1   
 25  12  38  1   
 26  13  39  1   
 27  14  17  1   
 28  14  40  1   
 29  14  41  1   
 30  15  18  ar  
 31  15  42  1   
 32  16  18  ar  
 33  16  43  1   
 34  17  19  1   
 35  17  20  1   
 36  18  44  1   
 37  19  21  1   
 38  19  45  1   
 39  19  46  1   
 40  20  22  1   
 41  20  47  1   
 42  20  48  1   
 43  21  23  1   
 44  21  49  1   
 45  21  50  1   
 46  22  23  1   
 47  22  51  1   
 48  22  52  1   
 49  23  24  1   
 50  23  53  1   
 51  24  25  1   
 52  24  26  1   
 53  24  54  1   
 54  25  27  1   
 55  25  55  1   
 56  25  56  1   
 57  26  28  1   
 58  26  57  1   
 59  26  58  1   
 60  27  29  1   
 61  27  59  1   
 62  27  60  1   
 63  28  29  1   
 64  28  61  1   
 65  28  62  1   
 66  29  63  1   
 67  29  64  1   
@<TRIPOS>SUBSTRUCTURE
  1 ****  19 GROUP 4 **** **** 0

# MOE 2024.06 (io_trps.svl 2023.06)
