@<TRIPOS>MOLECULE
NONAME
37 36 1 0 0 
SMALL
USER_CHARGES


@<TRIPOS>ATOM
  1 O       -9.3160     2.3550     1.6360 O.2   1 <1>  -0.5700 
  2 C       -9.3660     1.9030     0.5160 C.2   1 <1>   0.5690 
  3 N       -8.3240     2.0440    -0.3520 N.am  1 <1>  -0.7300 
  4 C      -10.6130     1.1120     0.1200 C.3   1 <1>   0.2340 
  5 C       -7.0700     2.7730    -0.0740 C.3   1 <1>   0.1400 
  6 N      -11.1410     1.3430    -1.2320 N.2   1 <1>  -0.1710 
  7 C       -5.8860     1.8310    -0.2960 C.3   1 <1>  -0.1600 
  8 O      -10.7620     2.2590    -1.8550 O.2   1 <1>  -0.1620 
  9 C       -4.5540     2.5310     0.0060 C.3   1 <1>  -0.1600 
 10 C       -3.3690     1.5760    -0.1910 C.3   1 <1>  -0.1600 
 11 C       -2.0380     2.2710     0.1260 C.3   1 <1>  -0.1600 
 12 C       -0.8640     1.3060    -0.0550 C.3   1 <1>   0.3430 
 13 N        0.4150     1.9510     0.3630 N.4   1 <1>  -0.9590 
 14 C        0.8580     3.0100    -0.6000 C.3   1 <1>   0.2630 
 15 C        1.4880     0.9230     0.5310 C.3   1 <1>   0.2630 
 16 H       -8.4670     1.7640    -1.3270 H     1 <1>   0.3700 
 17 H      -11.3930     1.3330     0.8230 H     1 <1>   0.0800 
 18 H      -10.3760     0.0690     0.2090 H     1 <1>   0.0800 
 19 H       -7.0700     3.1280     0.9440 H     1 <1>   0.0800 
 20 H       -7.0020     3.6240    -0.7300 H     1 <1>   0.0800 
 21 H       -5.8900     1.4910    -1.3170 H     1 <1>   0.0800 
 22 H       -5.9960     0.9790     0.3530 H     1 <1>   0.0800 
 23 H       -4.5650     2.8850     1.0240 H     1 <1>   0.0800 
 24 H       -4.4450     3.3840    -0.6430 H     1 <1>   0.0800 
 25 H       -3.3640     1.2260    -1.2100 H     1 <1>   0.0800 
 26 H       -3.4960     0.7220     0.4540 H     1 <1>   0.0800 
 27 H       -2.0640     2.6200     1.1440 H     1 <1>   0.0800 
 28 H       -1.9290     3.1170    -0.5300 H     1 <1>   0.0800 
 29 H       -0.8030     0.9900    -1.0840 H     1 <1>   0.0800 
 30 H       -1.0410     0.4330     0.5530 H     1 <1>   0.0800 
 31 H        0.2500     2.3950     1.2800 H     1 <1>   0.4500 
 32 H        1.0130     2.5850    -1.5790 H     1 <1>   0.0800 
 33 H        1.7830     3.4540    -0.2680 H     1 <1>   0.0800 
 34 H        0.1150     3.7870    -0.6750 H     1 <1>   0.0800 
 35 H        1.6840     0.4290    -0.4070 H     1 <1>   0.0800 
 36 H        1.1870     0.1820     1.2540 H     1 <1>   0.0800 
 37 H        2.3990     1.3850     0.8740 H     1 <1>   0.0800 
@<TRIPOS>BOND
  1   1   2  2   
  2   2   3  am  
  3   2   4  1   
  4   3   5  1   
  5   3  16  1   
  6   4   6  1   
  7   4  17  1   
  8   4  18  1   
  9   5   7  1   
 10   5  19  1   
 11   5  20  1   
 12   6   8  2   
 13   7   9  1   
 14   7  21  1   
 15   7  22  1   
 16   9  10  1   
 17   9  23  1   
 18   9  24  1   
 19  10  11  1   
 20  10  25  1   
 21  10  26  1   
 22  11  12  1   
 23  11  27  1   
 24  11  28  1   
 25  12  13  1   
 26  12  29  1   
 27  12  30  1   
 28  13  14  1   
 29  13  15  1   
 30  13  31  1   
 31  14  32  1   
 32  14  33  1   
 33  14  34  1   
 34  15  35  1   
 35  15  36  1   
 36  15  37  1   
@<TRIPOS>SUBSTRUCTURE
  1 ****   7 GROUP 4 **** **** 0

# MOE 2024.06 (io_trps.svl 2023.06)
