@<TRIPOS>MOLECULE
NONAME
42 42 1 0 0 
SMALL
USER_CHARGES


@<TRIPOS>ATOM
  1 CL       0.3860     1.1450    -1.8780 Cl    1 <1>  -0.1770 
  2 C        1.1310     2.3700    -0.8760 C.ar  1 <1>   0.1770 
  3 C        0.4430     3.5330    -0.5550 C.ar  1 <1>   0.0830 
  4 C        2.4150     2.1350    -0.4170 C.ar  1 <1>  -0.1500 
  5 O       -0.8180     3.7070    -1.0210 O.3   1 <1>  -0.3630 
  6 C        1.0820     4.4910     0.2430 C.ar  1 <1>   0.0830 
  7 C        3.0420     3.0780     0.3840 C.ar  1 <1>  -0.1440 
  8 C       -1.8510     3.2200    -0.1970 C.3   1 <1>   0.2580 
  9 O        0.5510     5.6850     0.6200 O.3   1 <1>  -0.3630 
 10 C        2.3640     4.2440     0.7110 C.ar  1 <1>  -0.1500 
 11 C        4.4500     2.8510     0.8900 C.3   1 <1>   0.4870 
 12 C       -3.1610     3.7690    -0.7230 C.2   1 <1>  -0.2880 
 13 C       -0.3340     6.3910    -0.2230 C.3   1 <1>   0.1200 
 14 N        5.3570     3.5260    -0.0610 N.4   1 <1>  -0.9060 
 15 C       -4.0170     4.5290    -0.0320 C.2   1 <1>  -0.3000 
 16 C       -0.3070     7.8590     0.1900 C.3   1 <1>  -0.2400 
 17 C        6.7790     3.4720     0.2970 C.3   1 <1>   0.4230 
 18 C        7.5120     4.4510    -0.6090 C.3   1 <1>  -0.2400 
 19 C        7.3000     2.0530     0.0930 C.3   1 <1>  -0.2400 
 20 H        2.8970     1.2130    -0.6950 H     1 <1>   0.1500 
 21 H       -1.6740     3.5520     0.8120 H     1 <1>   0.0800 
 22 H       -1.8410     2.1440    -0.2350 H     1 <1>   0.0800 
 23 H        2.8140     4.9940     1.3400 H     1 <1>   0.1500 
 24 H        4.6610     1.7940     0.9340 H     1 <1>   0.0800 
 25 H        4.5570     3.2700     1.8780 H     1 <1>   0.0800 
 26 H       -3.3370     3.4770    -1.7450 H     1 <1>   0.1500 
 27 H       -1.3230     5.9860    -0.1010 H     1 <1>   0.0800 
 28 H       -0.0120     6.2750    -1.2440 H     1 <1>   0.0800 
 29 H        5.0610     4.5050    -0.1370 H     1 <1>   0.4500 
 30 H        5.2230     3.1200    -0.9920 H     1 <1>   0.4500 
 31 H       -4.9410     4.9060    -0.4340 H     1 <1>   0.1500 
 32 H       -3.8700     4.8390     0.9890 H     1 <1>   0.1500 
 33 H       -0.6230     7.9620     1.2130 H     1 <1>   0.0800 
 34 H       -0.9780     8.4220    -0.4330 H     1 <1>   0.0800 
 35 H        0.6840     8.2600     0.0760 H     1 <1>   0.0800 
 36 H        6.9170     3.7700     1.3260 H     1 <1>   0.0800 
 37 H        7.4010     4.1860    -1.6460 H     1 <1>   0.0800 
 38 H        8.5630     4.4410    -0.3760 H     1 <1>   0.0800 
 39 H        7.1570     5.4550    -0.4550 H     1 <1>   0.0800 
 40 H        7.1540     1.7230    -0.9200 H     1 <1>   0.0800 
 41 H        6.8300     1.3610     0.7690 H     1 <1>   0.0800 
 42 H        8.3570     2.0280     0.2980 H     1 <1>   0.0800 
@<TRIPOS>BOND
  1   1   2  1   
  2   2   3  ar  
  3   2   4  ar  
  4   3   5  1   
  5   3   6  ar  
  6   4   7  ar  
  7   4  20  1   
  8   5   8  1   
  9   6   9  1   
 10   6  10  ar  
 11   7  10  ar  
 12   7  11  1   
 13   8  12  1   
 14   8  21  1   
 15   8  22  1   
 16   9  13  1   
 17  10  23  1   
 18  11  14  1   
 19  11  24  1   
 20  11  25  1   
 21  12  15  2   
 22  12  26  1   
 23  13  16  1   
 24  13  27  1   
 25  13  28  1   
 26  14  17  1   
 27  14  29  1   
 28  14  30  1   
 29  15  31  1   
 30  15  32  1   
 31  16  33  1   
 32  16  34  1   
 33  16  35  1   
 34  17  18  1   
 35  17  19  1   
 36  17  36  1   
 37  18  37  1   
 38  18  38  1   
 39  18  39  1   
 40  19  40  1   
 41  19  41  1   
 42  19  42  1   
@<TRIPOS>SUBSTRUCTURE
  1 ****   6 GROUP 4 **** **** 0

# MOE 2024.06 (io_trps.svl 2023.06)
