@<TRIPOS>MOLECULE
NONAME
61 64 1 0 0 
SMALL
USER_CHARGES


@<TRIPOS>ATOM
  1 O       -0.7050    -0.1840    -0.1770 O.3   1 <1>  -0.3630 
  2 C       -1.7560    -1.0490    -0.2120 C.ar  1 <1>   0.0830 
  3 C        0.6200    -0.6680    -0.1240 C.3   1 <1>   0.2640 
  4 C       -1.8280    -2.2670     0.4810 C.ar  1 <1>   0.0820 
  5 C       -2.8190    -0.6490    -1.0050 C.ar  1 <1>  -0.1500 
  6 C        1.5570     0.3910    -0.6870 C.ar  1 <1>  -0.1440 
  7 O       -0.7930    -2.6450     1.2880 O.3   1 <1>  -0.3630 
  8 C       -2.9690    -3.0560     0.3420 C.ar  1 <1>  -0.1500 
  9 C       -3.9450    -1.4410    -1.1310 C.ar  1 <1>  -0.1500 
 10 C        1.6670     1.6250    -0.0640 C.ar  1 <1>  -0.1500 
 11 C        2.3130     0.1340    -1.8210 C.ar  1 <1>  -0.1500 
 12 C       -0.7960    -3.8590     2.0070 C.3   1 <1>   0.0400 
 13 C       -4.0280    -2.6480    -0.4580 C.ar  1 <1>  -0.1430 
 14 C        2.5260     2.5890    -0.5640 C.ar  1 <1>  -0.1500 
 15 C        3.1720     1.0970    -2.3230 C.ar  1 <1>  -0.1500 
 16 C       -5.2760    -3.5090    -0.5960 C.3   1 <1>   0.2530 
 17 C        3.2800     2.3250    -1.6940 C.ar  1 <1>  -0.1500 
 18 N       -6.4620    -2.7880    -0.0910 N.3   1 <1>  -0.8100 
 19 C       -7.7110    -3.5470    -0.3420 C.3   1 <1>   0.1100 
 20 C       -6.3420    -2.4350     1.3470 C.3   1 <1>   0.1100 
 21 C       -8.9680    -2.8040     0.1750 C.3   1 <1>   0.3430 
 22 C       -7.5750    -1.6550     1.8680 C.3   1 <1>   0.3430 
 23 N       -8.6010    -1.4840     0.7900 N.4   1 <1>  -0.9590 
 24 C       -9.7630    -0.6470     1.1800 C.3   1 <1>   0.4860 
 25 C      -10.6420    -0.4320    -0.0360 C.ar  1 <1>  -0.1430 
 26 C      -11.8750    -1.0630    -0.1260 C.ar  1 <1>  -0.1500 
 27 C      -10.2180     0.3890    -1.0730 C.ar  1 <1>  -0.1500 
 28 C      -12.6700    -0.8830    -1.2440 C.ar  1 <1>  -0.1500 
 29 C      -11.0150     0.5670    -2.1900 C.ar  1 <1>  -0.1500 
 30 C      -12.2400    -0.0700    -2.2760 C.ar  1 <1>  -0.1500 
 31 H        0.6770    -1.5760    -0.6980 H     1 <1>   0.0800 
 32 H        0.8650    -0.8680     0.9030 H     1 <1>   0.0800 
 33 H       -2.7530     0.2880    -1.5270 H     1 <1>   0.1500 
 34 H       -3.0510    -3.9940     0.8540 H     1 <1>   0.1500 
 35 H       -4.7590    -1.1140    -1.7540 H     1 <1>   0.1500 
 36 H        1.0770     1.8360     0.8110 H     1 <1>   0.1500 
 37 H        2.2360    -0.8160    -2.3200 H     1 <1>   0.1500 
 38 H        0.1280    -3.9250     2.5520 H     1 <1>   0.0800 
 39 H       -0.8690    -4.6770     1.3130 H     1 <1>   0.0800 
 40 H       -1.6230    -3.8560     2.6940 H     1 <1>   0.0800 
 41 H        2.6040     3.5430    -0.0740 H     1 <1>   0.1500 
 42 H        3.7560     0.8910    -3.2030 H     1 <1>   0.1500 
 43 H       -5.1520    -4.4350    -0.0620 H     1 <1>   0.0800 
 44 H       -5.4150    -3.7410    -1.6390 H     1 <1>   0.0800 
 45 H        3.9470     3.0730    -2.0830 H     1 <1>   0.1500 
 46 H       -7.6550    -4.5140     0.1290 H     1 <1>   0.0800 
 47 H       -7.8200    -3.7100    -1.4010 H     1 <1>   0.0800 
 48 H       -5.4700    -1.8210     1.5000 H     1 <1>   0.0800 
 49 H       -6.2130    -3.3280     1.9350 H     1 <1>   0.0800 
 50 H       -9.4750    -3.4210     0.8980 H     1 <1>   0.0800 
 51 H       -9.6420    -2.6490    -0.6520 H     1 <1>   0.0800 
 52 H       -7.2480    -0.6900     2.2200 H     1 <1>   0.0800 
 53 H       -7.9990    -2.1840     2.7050 H     1 <1>   0.0800 
 54 H       -8.0950    -1.0090     0.0280 H     1 <1>   0.4500 
 55 H       -9.4260     0.3080     1.5490 H     1 <1>   0.0800 
 56 H      -10.3290    -1.1340     1.9580 H     1 <1>   0.0800 
 57 H      -12.2340    -1.6970     0.6680 H     1 <1>   0.1500 
 58 H       -9.2720     0.9000    -1.0260 H     1 <1>   0.1500 
 59 H      -13.6280    -1.3710    -1.3130 H     1 <1>   0.1500 
 60 H      -10.6870     1.2040    -2.9940 H     1 <1>   0.1500 
 61 H      -12.8610     0.0720    -3.1450 H     1 <1>   0.1500 
@<TRIPOS>BOND
  1   1   2  1   
  2   1   3  1   
  3   2   4  ar  
  4   2   5  ar  
  5   3   6  1   
  6   3  31  1   
  7   3  32  1   
  8   4   7  1   
  9   4   8  ar  
 10   5   9  ar  
 11   5  33  1   
 12   6  10  ar  
 13   6  11  ar  
 14   7  12  1   
 15   8  13  ar  
 16   8  34  1   
 17   9  13  ar  
 18   9  35  1   
 19  10  14  ar  
 20  10  36  1   
 21  11  15  ar  
 22  11  37  1   
 23  12  38  1   
 24  12  39  1   
 25  12  40  1   
 26  13  16  1   
 27  14  17  ar  
 28  14  41  1   
 29  15  17  ar  
 30  15  42  1   
 31  16  18  1   
 32  16  43  1   
 33  16  44  1   
 34  17  45  1   
 35  18  19  1   
 36  18  20  1   
 37  19  21  1   
 38  19  46  1   
 39  19  47  1   
 40  20  22  1   
 41  20  48  1   
 42  20  49  1   
 43  21  23  1   
 44  21  50  1   
 45  21  51  1   
 46  22  23  1   
 47  22  52  1   
 48  22  53  1   
 49  23  24  1   
 50  23  54  1   
 51  24  25  1   
 52  24  55  1   
 53  24  56  1   
 54  25  26  ar  
 55  25  27  ar  
 56  26  28  ar  
 57  26  57  1   
 58  27  29  ar  
 59  27  58  1   
 60  28  30  ar  
 61  28  59  1   
 62  29  30  ar  
 63  29  60  1   
 64  30  61  1   
@<TRIPOS>SUBSTRUCTURE
  1 ****   9 GROUP 4 **** **** 0

# MOE 2024.06 (io_trps.svl 2023.06)
