@<TRIPOS>MOLECULE
NONAME
37 38 1 0 0 
SMALL
USER_CHARGES


@<TRIPOS>ATOM
  1 O       -0.8650     0.2160     0.6600 O.2   1 <1>  -0.5700 
  2 C       -1.7900     0.9340     0.3300 C.2   1 <1>   0.7060 
  3 O       -3.0180     0.4560     0.5160 O.3   1 <1>  -0.2330 
  4 C       -1.6370     2.2480    -0.2390 C.2   1 <1>  -0.1240 
  5 C       -4.1430     1.1260     0.1860 C.ar  1 <1>   0.0820 
  6 C       -2.7350     2.9860    -0.5620 C.2   1 <1>  -0.1670 
  7 C       -0.1940     2.7260    -0.4380 C.3   1 <1>  -0.0220 
  8 C       -4.0440     2.4130    -0.3650 C.ar  1 <1>   0.0280 
  9 C       -5.3730     0.5090     0.4080 C.ar  1 <1>  -0.1440 
 10 C       -2.6680     4.4110    -1.1180 C.3   1 <1>  -0.1020 
 11 C        0.3130     3.4610     0.8070 C.3   1 <1>  -0.2400 
 12 C       -5.2420     3.0560    -0.6920 C.ar  1 <1>  -0.1500 
 13 C       -6.5430     1.1850     0.0850 C.ar  1 <1>   0.0830 
 14 C       -5.4390    -0.8970     1.0100 C.3   1 <1>  -0.0970 
 15 C       -6.4650     2.4610    -0.4710 C.ar  1 <1>  -0.1500 
 16 O       -7.7270     0.5710     0.3310 O.3   1 <1>  -0.3630 
 17 C       -8.9660     1.1570     0.0100 C.3   1 <1>   0.2580 
 18 C      -10.0610     0.1860     0.4070 C.2   1 <1>  -0.2880 
 19 C      -10.9900    -0.3160    -0.4130 C.2   1 <1>  -0.3000 
 20 H       -0.1160     3.3660    -1.2970 H     1 <1>   0.0800 
 21 H        0.4500     1.8870    -0.6390 H     1 <1>   0.0800 
 22 H       -3.0380     4.4270    -2.1280 H     1 <1>   0.0800 
 23 H       -1.6780     4.8200    -1.1190 H     1 <1>   0.0800 
 24 H       -3.2710     5.0660    -0.5150 H     1 <1>   0.0800 
 25 H       -0.3070     4.3130     1.0210 H     1 <1>   0.0800 
 26 H        1.3230     3.7970     0.6520 H     1 <1>   0.0800 
 27 H        0.2980     2.8010     1.6560 H     1 <1>   0.0800 
 28 H       -5.2310     4.0370    -1.1270 H     1 <1>   0.1500 
 29 H       -4.5620    -1.4700     0.7690 H     1 <1>   0.0800 
 30 H       -6.2870    -1.4380     0.6320 H     1 <1>   0.0800 
 31 H       -5.5230    -0.8270     2.0790 H     1 <1>   0.0800 
 32 H       -7.3500     3.0060    -0.7380 H     1 <1>   0.1500 
 33 H       -8.9890     1.3490    -1.0480 H     1 <1>   0.0800 
 34 H       -9.0610     2.0760     0.5610 H     1 <1>   0.0800 
 35 H      -10.0100    -0.0700     1.4520 H     1 <1>   0.1500 
 36 H      -11.7540    -1.0070    -0.1010 H     1 <1>   0.1500 
 37 H      -11.0650    -0.0840    -1.4620 H     1 <1>   0.1500 
@<TRIPOS>BOND
  1   1   2  2   
  2   2   3  1   
  3   2   4  1   
  4   3   5  1   
  5   4   6  2   
  6   4   7  1   
  7   5   8  ar  
  8   5   9  ar  
  9   6   8  1   
 10   6  10  1   
 11   7  11  1   
 12   7  20  1   
 13   7  21  1   
 14   8  12  ar  
 15   9  13  ar  
 16   9  14  1   
 17  10  22  1   
 18  10  23  1   
 19  10  24  1   
 20  11  25  1   
 21  11  26  1   
 22  11  27  1   
 23  12  15  ar  
 24  12  28  1   
 25  13  15  ar  
 26  13  16  1   
 27  14  29  1   
 28  14  30  1   
 29  14  31  1   
 30  15  32  1   
 31  16  17  1   
 32  17  18  1   
 33  17  33  1   
 34  17  34  1   
 35  18  19  2   
 36  18  35  1   
 37  19  36  1   
 38  19  37  1   
@<TRIPOS>SUBSTRUCTURE
  1 ****   5 GROUP 4 **** **** 0

# MOE 2024.06 (io_trps.svl 2023.06)
