@<TRIPOS>MOLECULE
NONAME
30 31 1 0 0 
SMALL
USER_CHARGES


@<TRIPOS>ATOM
  1 S        0.2030    -0.5040     1.8320 S.3   1 <1>  -0.0800 
  2 C       -1.2680    -1.4600     1.8510 C.2   1 <1>  -0.1100 
  3 C        0.3350    -0.6690     0.0900 C.2   1 <1>  -0.1100 
  4 C       -1.6050    -1.8510     0.6070 C.2   1 <1>  -0.1810 
  5 C       -0.6840    -1.4000    -0.3970 C.2   1 <1>  -0.1500 
  6 C       -2.8230    -2.6860     0.2510 C.3   1 <1>   0.2910 
  7 N       -4.0430    -1.8530     0.2690 N.3   1 <1>  -0.8100 
  8 C       -3.9790    -0.7180    -0.6900 C.3   1 <1>   0.1100 
  9 C       -5.2640    -2.6610     0.0470 C.3   1 <1>   0.1100 
 10 C       -5.2810     0.1200    -0.7100 C.3   1 <1>   0.3430 
 11 C       -6.5550    -1.8090     0.1480 C.3   1 <1>   0.3430 
 12 N       -6.2390    -0.3540     0.3420 N.4   1 <1>  -0.9590 
 13 C       -7.4470     0.5070     0.4820 C.3   1 <1>   0.2630 
 14 H       -1.7340    -1.6270     2.8050 H     1 <1>   0.1500 
 15 H        1.1750    -0.1970    -0.3870 H     1 <1>   0.1500 
 16 H       -0.8220    -1.6460    -1.4360 H     1 <1>   0.1500 
 17 H       -2.9210    -3.4710     0.9820 H     1 <1>   0.0800 
 18 H       -2.6900    -3.1420    -0.7160 H     1 <1>   0.0800 
 19 H       -3.7780    -1.0840    -1.6830 H     1 <1>   0.0800 
 20 H       -3.1680    -0.0640    -0.4180 H     1 <1>   0.0800 
 21 H       -5.3120    -3.4480     0.7810 H     1 <1>   0.0800 
 22 H       -5.2230    -3.1260    -0.9240 H     1 <1>   0.0800 
 23 H       -5.7370     0.0440    -1.6830 H     1 <1>   0.0800 
 24 H       -5.0310     1.1550    -0.5440 H     1 <1>   0.0800 
 25 H       -7.1420    -2.1660     0.9790 H     1 <1>   0.0800 
 26 H       -7.1390    -1.9450    -0.7470 H     1 <1>   0.0800 
 27 H       -5.6720    -0.3380     1.2080 H     1 <1>   0.4500 
 28 H       -8.0280     0.4870    -0.4260 H     1 <1>   0.0800 
 29 H       -7.1570     1.5260     0.6850 H     1 <1>   0.0800 
 30 H       -8.0620     0.1580     1.2950 H     1 <1>   0.0800 
@<TRIPOS>BOND
  1   1   2  1   
  2   1   3  1   
  3   2   4  2   
  4   2  14  1   
  5   3   5  2   
  6   3  15  1   
  7   4   5  1   
  8   4   6  1   
  9   5  16  1   
 10   6   7  1   
 11   6  17  1   
 12   6  18  1   
 13   7   8  1   
 14   7   9  1   
 15   8  10  1   
 16   8  19  1   
 17   8  20  1   
 18   9  11  1   
 19   9  21  1   
 20   9  22  1   
 21  10  12  1   
 22  10  23  1   
 23  10  24  1   
 24  11  12  1   
 25  11  25  1   
 26  11  26  1   
 27  12  13  1   
 28  12  27  1   
 29  13  28  1   
 30  13  29  1   
 31  13  30  1   
@<TRIPOS>SUBSTRUCTURE
  1 ****   7 GROUP 4 **** **** 0

# MOE 2024.06 (io_trps.svl 2023.06)
