@<TRIPOS>MOLECULE
NONAME
40 41 1 0 0 
SMALL
USER_CHARGES


@<TRIPOS>ATOM
  1 BR       4.7810     1.0380     1.5080 Br    1 <1>  -0.1110 
  2 C        4.5610    -0.7340     0.8020 C.ar  1 <1>   0.1110 
  3 C        3.6990    -1.6070     1.4350 C.ar  1 <1>  -0.1500 
  4 C        5.2690    -1.0980    -0.3260 C.ar  1 <1>  -0.1500 
  5 C        3.5540    -2.8820     0.9210 C.ar  1 <1>  -0.1500 
  6 C        5.1080    -2.3770    -0.8260 C.ar  1 <1>  -0.1500 
  7 C        4.2590    -3.3080    -0.2120 C.ar  1 <1>   0.0860 
  8 C        4.0860    -4.6610    -0.6980 C.2   1 <1>   0.4230 
  9 O        3.0780    -5.2950    -0.5100 O.2   1 <1>  -0.5700 
 10 C        5.2040    -5.3570    -1.4580 C.3   1 <1>   0.1310 
 11 S        6.6620    -5.5960    -0.3310 S.3   1 <1>  -0.2860 
 12 C        7.9600    -4.5620    -1.0250 C.2   1 <1>   0.2430 
 13 N        7.8550    -3.9220    -2.1360 N.2   1 <1>  -0.3380 
 14 N        9.1330    -4.3870    -0.4180 N.pl3 1 <1>   0.0480 
 15 N        9.0100    -3.2720    -2.2920 N.2   1 <1>  -0.3380 
 16 C        9.7530    -3.5590    -1.2730 C.2   1 <1>   0.0060 
 17 C        9.6030    -4.9610     0.8650 C.3   1 <1>   0.0960 
 18 C       11.1560    -3.0180    -1.0700 C.3   1 <1>   0.3200 
 19 C       10.3490    -6.2770     0.6290 C.3   1 <1>  -0.2400 
 20 N       11.1120    -1.8730    -0.1350 N.am  1 <1>  -0.7300 
 21 C       11.6980    -1.8500     1.0810 C.2   1 <1>   0.5690 
 22 O       12.2920    -2.8000     1.5230 O.2   1 <1>  -0.5700 
 23 C       11.5780    -0.5980     1.9090 C.3   1 <1>  -0.1790 
 24 H        3.1540    -1.2930     2.3080 H     1 <1>   0.1500 
 25 H        5.9280    -0.3950    -0.8030 H     1 <1>   0.1500 
 26 H        2.8820    -3.5730     1.4030 H     1 <1>   0.1500 
 27 H        5.6520    -2.6430    -1.7140 H     1 <1>   0.1500 
 28 H        5.5090    -4.7990    -2.3210 H     1 <1>   0.0800 
 29 H        4.8900    -6.3380    -1.7630 H     1 <1>   0.0800 
 30 H        8.7560    -5.1300     1.5050 H     1 <1>   0.0800 
 31 H       10.2480    -4.2550     1.3530 H     1 <1>   0.0800 
 32 H       11.5500    -2.6850    -2.0150 H     1 <1>   0.0800 
 33 H       11.8020    -3.7920    -0.6930 H     1 <1>   0.0800 
 34 H        9.7010    -6.9970     0.1590 H     1 <1>   0.0800 
 35 H       10.6770    -6.6790     1.5710 H     1 <1>   0.0800 
 36 H       11.2150    -6.1170     0.0110 H     1 <1>   0.0800 
 37 H       10.5530    -1.0830    -0.4590 H     1 <1>   0.3700 
 38 H       11.9940     0.2340     1.3720 H     1 <1>   0.0800 
 39 H       12.1150    -0.7200     2.8320 H     1 <1>   0.0800 
 40 H       10.5450    -0.4040     2.1290 H     1 <1>   0.0800 
@<TRIPOS>BOND
  1   1   2  1   
  2   2   3  ar  
  3   2   4  ar  
  4   3   5  ar  
  5   3  24  1   
  6   4   6  ar  
  7   4  25  1   
  8   5   7  ar  
  9   5  26  1   
 10   6   7  ar  
 11   6  27  1   
 12   7   8  1   
 13   8   9  2   
 14   8  10  1   
 15  10  11  1   
 16  10  28  1   
 17  10  29  1   
 18  11  12  1   
 19  12  13  2   
 20  12  14  1   
 21  13  15  1   
 22  14  16  1   
 23  14  17  1   
 24  15  16  2   
 25  16  18  1   
 26  17  19  1   
 27  17  30  1   
 28  17  31  1   
 29  18  20  1   
 30  18  32  1   
 31  18  33  1   
 32  19  34  1   
 33  19  35  1   
 34  19  36  1   
 35  20  21  am  
 36  20  37  1   
 37  21  22  2   
 38  21  23  1   
 39  23  38  1   
 40  23  39  1   
 41  23  40  1   
@<TRIPOS>SUBSTRUCTURE
  1 ****  12 GROUP 4 **** **** 0

# MOE 2024.06 (io_trps.svl 2023.06)
