@<TRIPOS>MOLECULE
NONAME
49 52 1 0 0 
SMALL
USER_CHARGES


@<TRIPOS>ATOM
  1 S        0.1710    -0.0780    -0.2300 S.o2  1 <1>   1.2570 
  2 O        0.0530    -0.1510    -1.6720 O.2   1 <1>  -0.6500 
  3 O        0.8390    -1.1670     0.4530 O.2   1 <1>  -0.6500 
  4 C        1.0780     1.4520     0.1600 C.2   1 <1>   0.1240 
  5 C       -1.4350     0.2380     0.5090 C.3   1 <1>   0.0890 
  6 N        0.6980     2.3640     1.0020 N.2   1 <1>  -0.5650 
  7 N        2.2780     1.7420    -0.4320 N.pl3 1 <1>   0.0480 
  8 C       -2.4190    -0.9120     0.3440 C.ar  1 <1>  -0.1440 
  9 C        1.6650     3.3150     0.9550 C.ar  1 <1>   0.2270 
 10 C        2.6520     2.9570     0.0590 C.ar  1 <1>  -0.1520 
 11 C        3.0300     0.9070    -1.4100 C.3   1 <1>   0.1570 
 12 C       -3.0380    -1.1280    -0.8770 C.ar  1 <1>  -0.1500 
 13 C       -2.6970    -1.7550     1.4090 C.ar  1 <1>  -0.1500 
 14 C        1.7480     4.5160     1.6570 C.ar  1 <1>  -0.1500 
 15 C        3.7420     3.8040    -0.1730 C.ar  1 <1>  -0.1500 
 16 C        4.5140     0.8220    -1.0900 C.2   1 <1>   0.5690 
 17 C       -3.9300    -2.1750    -1.0310 C.ar  1 <1>  -0.1500 
 18 C       -3.5900    -2.8010     1.2560 C.ar  1 <1>  -0.1500 
 19 C        2.8240     5.3480     1.4390 C.ar  1 <1>  -0.1500 
 20 C        3.8190     4.9900     0.5210 C.ar  1 <1>  -0.1500 
 21 O        5.2690     1.2790    -1.9170 O.2   1 <1>  -0.5700 
 22 N        4.9840     0.2490     0.0670 N.am  1 <1>  -0.6600 
 23 C       -4.2080    -3.0110     0.0350 C.ar  1 <1>  -0.1500 
 24 C        6.4440     0.2320     0.3890 C.3   1 <1>   0.1400 
 25 C        4.1540    -0.3820     1.1390 C.3   1 <1>   0.1400 
 26 C        6.8890    -1.1700     0.8370 C.3   1 <1>   0.1200 
 27 C        4.7300    -1.7470     1.5510 C.3   1 <1>   0.1200 
 28 O        6.0840    -1.6330     1.8840 O.3   1 <1>  -0.5600 
 29 H       -1.8600     1.1180     0.0670 H     1 <1>   0.0800 
 30 H       -1.3070     0.4400     1.5550 H     1 <1>   0.0800 
 31 H        2.9080     1.3410    -2.3850 H     1 <1>   0.0800 
 32 H        2.6380    -0.0900    -1.4380 H     1 <1>   0.0800 
 33 H       -2.8280    -0.4890    -1.7190 H     1 <1>   0.1500 
 34 H       -2.2210    -1.6080     2.3640 H     1 <1>   0.1500 
 35 H        0.9690     4.7670     2.3520 H     1 <1>   0.1500 
 36 H        4.5090     3.5390    -0.8800 H     1 <1>   0.1500 
 37 H       -4.4070    -2.3400    -1.9820 H     1 <1>   0.1500 
 38 H       -3.8040    -3.4540     2.0840 H     1 <1>   0.1500 
 39 H        2.9080     6.2800     1.9700 H     1 <1>   0.1500 
 40 H        4.6490     5.6570     0.3620 H     1 <1>   0.1500 
 41 H       -4.9010    -3.8250    -0.0850 H     1 <1>   0.1500 
 42 H        6.6390     0.9340     1.1810 H     1 <1>   0.0800 
 43 H        7.0270     0.5290    -0.4650 H     1 <1>   0.0800 
 44 H        3.1470    -0.5280     0.8090 H     1 <1>   0.0800 
 45 H        4.1330     0.2660     1.9980 H     1 <1>   0.0800 
 46 H        7.9040    -1.1410     1.1910 H     1 <1>   0.0800 
 47 H        6.8270    -1.8660     0.0180 H     1 <1>   0.0800 
 48 H        4.6290    -2.4590     0.7500 H     1 <1>   0.0800 
 49 H        4.2090    -2.1240     2.4130 H     1 <1>   0.0800 
@<TRIPOS>BOND
  1   1   2  2   
  2   1   3  2   
  3   1   4  1   
  4   1   5  1   
  5   4   6  2   
  6   4   7  1   
  7   5   8  1   
  8   5  29  1   
  9   5  30  1   
 10   6   9  1   
 11   7  10  1   
 12   7  11  1   
 13   8  12  ar  
 14   8  13  ar  
 15   9  10  ar  
 16   9  14  ar  
 17  10  15  ar  
 18  11  16  1   
 19  11  31  1   
 20  11  32  1   
 21  12  17  ar  
 22  12  33  1   
 23  13  18  ar  
 24  13  34  1   
 25  14  19  ar  
 26  14  35  1   
 27  15  20  ar  
 28  15  36  1   
 29  16  21  2   
 30  16  22  am  
 31  17  23  ar  
 32  17  37  1   
 33  18  23  ar  
 34  18  38  1   
 35  19  20  ar  
 36  19  39  1   
 37  20  40  1   
 38  22  24  1   
 39  22  25  1   
 40  23  41  1   
 41  24  26  1   
 42  24  42  1   
 43  24  43  1   
 44  25  27  1   
 45  25  44  1   
 46  25  45  1   
 47  26  28  1   
 48  26  46  1   
 49  26  47  1   
 50  27  28  1   
 51  27  48  1   
 52  27  49  1   
@<TRIPOS>SUBSTRUCTURE
  1 ****   4 GROUP 4 **** **** 0

# MOE 2024.06 (io_trps.svl 2023.06)
