@<TRIPOS>MOLECULE
NONAME
46 48 1 0 0 
SMALL
USER_CHARGES


@<TRIPOS>ATOM
  1 N        0.0060     0.2150     0.3580 N.pl3 1 <1>  -0.8380 
  2 C       -1.2660     0.7730     0.3110 C.ar  1 <1>   0.1000 
  3 C        1.0470     0.8790    -0.4760 C.3   1 <1>   0.2090 
  4 C        0.0720    -1.2740     0.3750 C.3   1 <1>   0.2090 
  5 C       -2.0620     0.6790    -0.8250 C.ar  1 <1>  -0.1500 
  6 C       -1.7620     1.4420     1.4220 C.ar  1 <1>  -0.1500 
  7 C        2.4540     0.3710    -0.0970 C.3   1 <1>   0.3430 
  8 C        1.4930    -1.7530     0.7390 C.3   1 <1>   0.3430 
  9 C       -3.3250     1.2420    -0.8500 C.ar  1 <1>  -0.1500 
 10 C       -3.0240     2.0070     1.4020 C.ar  1 <1>  -0.1500 
 11 N        2.5590    -1.1380    -0.1380 N.4   1 <1>  -0.9590 
 12 C       -3.8070     1.9080     0.2650 C.ar  1 <1>  -0.1500 
 13 C        3.9200    -1.6130     0.2740 C.3   1 <1>   0.3430 
 14 C        4.8770    -1.8240    -0.9130 C.3   1 <1>   0.0630 
 15 C        6.1950    -2.3500    -0.3610 C.ar  1 <1>  -0.1430 
 16 C        5.1190    -0.5750    -1.7770 C.3   1 <1>  -0.2400 
 17 C        6.6050    -3.6420    -0.6610 C.ar  1 <1>  -0.1500 
 18 C        6.9980    -1.5600     0.4530 C.ar  1 <1>  -0.1500 
 19 C        7.7920    -4.1380    -0.1510 C.ar  1 <1>  -0.1500 
 20 C        8.1850    -2.0580     0.9630 C.ar  1 <1>  -0.1500 
 21 C        8.5820    -3.3470     0.6630 C.ar  1 <1>  -0.1500 
 22 H        0.9960     1.9440    -0.3180 H     1 <1>   0.0800 
 23 H        0.8540     0.6900    -1.5180 H     1 <1>   0.0800 
 24 H       -0.2130    -1.6620    -0.5870 H     1 <1>   0.0800 
 25 H       -0.6300    -1.6480     1.1020 H     1 <1>   0.0800 
 26 H       -1.6950     0.1650    -1.6930 H     1 <1>   0.1500 
 27 H       -1.1510     1.5170     2.3020 H     1 <1>   0.1500 
 28 H        2.6720     0.7190     0.8990 H     1 <1>   0.0800 
 29 H        3.1740     0.8140    -0.7640 H     1 <1>   0.0800 
 30 H        1.5290    -2.8280     0.6640 H     1 <1>   0.0800 
 31 H        1.6770    -1.4890     1.7680 H     1 <1>   0.0800 
 32 H       -3.9350     1.1660    -1.7330 H     1 <1>   0.1500 
 33 H       -3.3980     2.5240     2.2690 H     1 <1>   0.1500 
 34 H        2.3790    -1.4440    -1.1030 H     1 <1>   0.4500 
 35 H       -4.7900     2.3470     0.2480 H     1 <1>   0.1500 
 36 H        3.8310    -2.5570     0.7870 H     1 <1>   0.0800 
 37 H        4.3580    -0.9130     0.9670 H     1 <1>   0.0800 
 38 H        4.4550    -2.5860    -1.5460 H     1 <1>   0.0800 
 39 H        5.4470     0.2560    -1.1780 H     1 <1>   0.0800 
 40 H        4.2330    -0.2960    -2.3160 H     1 <1>   0.0800 
 41 H        5.8890    -0.7850    -2.5010 H     1 <1>   0.0800 
 42 H        6.0130    -4.2780    -1.2950 H     1 <1>   0.1500 
 43 H        6.7200    -0.5510     0.6990 H     1 <1>   0.1500 
 44 H        8.1040    -5.1410    -0.3880 H     1 <1>   0.1500 
 45 H        8.8050    -1.4420     1.5920 H     1 <1>   0.1500 
 46 H        9.5050    -3.7340     1.0580 H     1 <1>   0.1500 
@<TRIPOS>BOND
  1   1   2  1   
  2   1   3  1   
  3   1   4  1   
  4   2   5  ar  
  5   2   6  ar  
  6   3   7  1   
  7   3  22  1   
  8   3  23  1   
  9   4   8  1   
 10   4  24  1   
 11   4  25  1   
 12   5   9  ar  
 13   5  26  1   
 14   6  10  ar  
 15   6  27  1   
 16   7  11  1   
 17   7  28  1   
 18   7  29  1   
 19   8  11  1   
 20   8  30  1   
 21   8  31  1   
 22   9  12  ar  
 23   9  32  1   
 24  10  12  ar  
 25  10  33  1   
 26  11  13  1   
 27  11  34  1   
 28  12  35  1   
 29  13  14  1   
 30  13  36  1   
 31  13  37  1   
 32  14  15  1   
 33  14  16  1   
 34  14  38  1   
 35  15  17  ar  
 36  15  18  ar  
 37  16  39  1   
 38  16  40  1   
 39  16  41  1   
 40  17  19  ar  
 41  17  42  1   
 42  18  20  ar  
 43  18  43  1   
 44  19  21  ar  
 45  19  44  1   
 46  20  21  ar  
 47  20  45  1   
 48  21  46  1   
@<TRIPOS>SUBSTRUCTURE
  1 ****  11 GROUP 4 **** **** 0

# MOE 2024.06 (io_trps.svl 2023.06)
