@<TRIPOS>MOLECULE
NONAME
38 38 1 0 0 
SMALL
USER_CHARGES


@<TRIPOS>ATOM
  1 O       -0.0820    -0.3840    -1.1110 O.2   1 <1>  -0.5700 
  2 C        0.5010    -1.3210    -0.5940 C.2   1 <1>   0.5440 
  3 N        1.7500    -1.1290    -0.0640 N.am  1 <1>  -0.7300 
  4 C       -0.1190    -2.6310    -0.5100 C.ar  1 <1>   0.0860 
  5 C        2.5830     0.0790    -0.0400 C.3   1 <1>   0.3000 
  6 C       -1.4960    -2.7860    -0.2560 C.ar  1 <1>   0.1170 
  7 C        0.6580    -3.7810    -0.6720 C.ar  1 <1>  -0.1500 
  8 C        3.8880    -0.3130     0.6520 C.3   1 <1>  -0.2400 
  9 C        2.8810     0.5360    -1.4680 C.3   1 <1>  -0.2400 
 10 C        1.8860     1.1740     0.7680 C.3   1 <1>  -0.2400 
 11 N       -2.3030    -1.6460    -0.1230 N.am  1 <1>  -0.5470 
 12 C       -2.0280    -4.0700    -0.1580 C.ar  1 <1>  -0.1500 
 13 C        0.1140    -5.0450    -0.5710 C.ar  1 <1>  -0.1500 
 14 C       -3.5590    -1.4270     0.3680 C.2   1 <1>   0.5690 
 15 C       -1.2360    -5.1900    -0.3100 C.ar  1 <1>  -0.1500 
 16 O       -4.2560    -2.2840     0.8500 O.2   1 <1>  -0.5700 
 17 C       -4.0860    -0.0030     0.3150 C.3   1 <1>  -0.0990 
 18 C       -4.1140     0.5860    -1.1060 C.3   1 <1>  -0.2400 
 19 H        2.1550    -1.8950     0.4710 H     1 <1>   0.3700 
 20 H        1.7070    -3.6840    -0.8890 H     1 <1>   0.1500 
 21 H        3.7000    -0.6450     1.6570 H     1 <1>   0.0800 
 22 H        4.5480     0.5350     0.6990 H     1 <1>   0.0800 
 23 H        4.3860    -1.0940     0.1060 H     1 <1>   0.0800 
 24 H        3.3250    -0.2620    -2.0350 H     1 <1>   0.0800 
 25 H        3.5630     1.3670    -1.4560 H     1 <1>   0.0800 
 26 H        1.9820     0.8560    -1.9610 H     1 <1>   0.0800 
 27 H        1.6430     0.8200     1.7530 H     1 <1>   0.0800 
 28 H        0.9840     1.4910     0.2770 H     1 <1>   0.0800 
 29 H        2.5280     2.0300     0.8610 H     1 <1>   0.0800 
 30 H       -1.8350    -0.7980    -0.4710 H     1 <1>   0.3700 
 31 H       -3.0770    -4.2040     0.0330 H     1 <1>   0.1500 
 32 H        0.7320    -5.9180    -0.6970 H     1 <1>   0.1500 
 33 H       -1.6690    -6.1720    -0.2280 H     1 <1>   0.1500 
 34 H       -3.4730     0.6110     0.9500 H     1 <1>   0.0800 
 35 H       -5.0830     0.0050     0.7180 H     1 <1>   0.0800 
 36 H       -3.1200     0.6540    -1.5130 H     1 <1>   0.0800 
 37 H       -4.5420     1.5720    -1.0870 H     1 <1>   0.0800 
 38 H       -4.7100    -0.0360    -1.7520 H     1 <1>   0.0800 
@<TRIPOS>BOND
  1   1   2  2   
  2   2   3  am  
  3   2   4  1   
  4   3   5  1   
  5   3  19  1   
  6   4   6  ar  
  7   4   7  ar  
  8   5   8  1   
  9   5   9  1   
 10   5  10  1   
 11   6  11  1   
 12   6  12  ar  
 13   7  13  ar  
 14   7  20  1   
 15   8  21  1   
 16   8  22  1   
 17   8  23  1   
 18   9  24  1   
 19   9  25  1   
 20   9  26  1   
 21  10  27  1   
 22  10  28  1   
 23  10  29  1   
 24  11  14  am  
 25  11  30  1   
 26  12  15  ar  
 27  12  31  1   
 28  13  15  ar  
 29  13  32  1   
 30  14  16  2   
 31  14  17  1   
 32  15  33  1   
 33  17  18  1   
 34  17  34  1   
 35  17  35  1   
 36  18  36  1   
 37  18  37  1   
 38  18  38  1   
@<TRIPOS>SUBSTRUCTURE
  1 ****   4 GROUP 4 **** **** 0

# MOE 2024.06 (io_trps.svl 2023.06)
