@<TRIPOS>MOLECULE
NONAME
51 52 1 0 0 
SMALL
USER_CHARGES


@<TRIPOS>ATOM
  1 S        0.4080    -1.1630    -0.3950 S.o2  1 <1>   1.4470 
  2 O       -0.3350    -2.2380    -1.0090 O.2   1 <1>  -0.6500 
  3 O        1.6120    -1.4920     0.3340 O.2   1 <1>  -0.6500 
  4 N        0.9100    -0.3230    -1.7560 N.am  1 <1>  -0.9140 
  5 C       -0.6380     0.0100     0.5550 C.ar  1 <1>  -0.0090 
  6 C        2.0700    -0.9460    -2.4320 C.3   1 <1>   0.2570 
  7 C       -0.1930     1.3090     0.8440 C.ar  1 <1>  -0.1430 
  8 C       -1.9030    -0.3570     1.0390 C.ar  1 <1>  -0.1430 
  9 C        3.4360    -0.3160    -2.1140 C.2   1 <1>   0.5690 
 10 C       -0.9980     2.2000     1.5360 C.ar  1 <1>  -0.1500 
 11 C        1.1840     1.8280     0.4360 C.3   1 <1>  -0.0960 
 12 C       -2.6910     0.5500     1.7310 C.ar  1 <1>  -0.1500 
 13 C       -2.4910    -1.7530     0.8550 C.3   1 <1>  -0.0960 
 14 O        4.0620     0.1490    -3.0380 O.2   1 <1>  -0.5700 
 15 N        3.8890    -0.3120    -0.8220 N.am  1 <1>  -0.5470 
 16 C       -2.2500     1.8310     1.9810 C.ar  1 <1>  -0.1430 
 17 C        5.0360     0.2300    -0.2040 C.ar  1 <1>   0.1170 
 18 C       -3.1240     2.8170     2.7340 C.3   1 <1>  -0.0970 
 19 C        5.0570     0.3270     1.1930 C.ar  1 <1>   0.0830 
 20 C        6.1460     0.6620    -0.9210 C.ar  1 <1>  -0.1500 
 21 O        3.9510    -0.1130     1.8650 O.3   1 <1>  -0.3620 
 22 C        6.1670     0.8550     1.8430 C.ar  1 <1>  -0.1500 
 23 C        7.2540     1.1930    -0.2710 C.ar  1 <1>   0.0830 
 24 C        3.8940    -0.1220     3.2740 C.3   1 <1>   0.0400 
 25 C        7.2580     1.2860     1.1100 C.ar  1 <1>  -0.1500 
 26 O        8.3650     1.6410    -0.9130 O.3   1 <1>  -0.3620 
 27 C        8.4320     1.6520    -2.3230 C.3   1 <1>   0.0400 
 28 H        0.1140    -0.4350    -2.3820 H     1 <1>   0.4200 
 29 H        1.9260    -0.8500    -3.4930 H     1 <1>   0.0800 
 30 H        2.1150    -2.0010    -2.2160 H     1 <1>   0.0800 
 31 H       -0.6490     3.1980     1.7370 H     1 <1>   0.1500 
 32 H        1.2030     2.0600    -0.6130 H     1 <1>   0.0800 
 33 H        1.9450     1.1040     0.6520 H     1 <1>   0.0800 
 34 H        1.4380     2.7210     0.9770 H     1 <1>   0.0800 
 35 H       -3.6650     0.2590     2.0850 H     1 <1>   0.1500 
 36 H       -2.7610    -1.9110    -0.1740 H     1 <1>   0.0800 
 37 H       -3.3740    -1.8880     1.4530 H     1 <1>   0.0800 
 38 H       -1.7820    -2.5050     1.1550 H     1 <1>   0.0800 
 39 H        3.2330    -0.7140    -0.1330 H     1 <1>   0.3700 
 40 H       -2.5180     3.5170     3.2810 H     1 <1>   0.0800 
 41 H       -3.7570     2.3010     3.4330 H     1 <1>   0.0800 
 42 H       -3.7410     3.3590     2.0410 H     1 <1>   0.0800 
 43 H        6.1400     0.5760    -1.9870 H     1 <1>   0.1500 
 44 H        6.2050     0.9420     2.9120 H     1 <1>   0.1500 
 45 H        2.9440    -0.5340     3.5640 H     1 <1>   0.0800 
 46 H        3.9800     0.8880     3.6330 H     1 <1>   0.0800 
 47 H        4.6910    -0.7380     3.6520 H     1 <1>   0.0800 
 48 H        8.1210     1.6970     1.6030 H     1 <1>   0.1500 
 49 H        9.3770     2.0750    -2.6100 H     1 <1>   0.0800 
 50 H        7.6280     2.2560    -2.7070 H     1 <1>   0.0800 
 51 H        8.3590     0.6410    -2.6840 H     1 <1>   0.0800 
@<TRIPOS>BOND
  1   1   2  2   
  2   1   3  2   
  3   1   4  am  
  4   1   5  1   
  5   4   6  1   
  6   4  28  1   
  7   5   7  ar  
  8   5   8  ar  
  9   6   9  1   
 10   6  29  1   
 11   6  30  1   
 12   7  10  ar  
 13   7  11  1   
 14   8  12  ar  
 15   8  13  1   
 16   9  14  2   
 17   9  15  am  
 18  10  16  ar  
 19  10  31  1   
 20  11  32  1   
 21  11  33  1   
 22  11  34  1   
 23  12  16  ar  
 24  12  35  1   
 25  13  36  1   
 26  13  37  1   
 27  13  38  1   
 28  15  17  1   
 29  15  39  1   
 30  16  18  1   
 31  17  19  ar  
 32  17  20  ar  
 33  18  40  1   
 34  18  41  1   
 35  18  42  1   
 36  19  21  1   
 37  19  22  ar  
 38  20  23  ar  
 39  20  43  1   
 40  21  24  1   
 41  22  25  ar  
 42  22  44  1   
 43  23  25  ar  
 44  23  26  1   
 45  24  45  1   
 46  24  46  1   
 47  24  47  1   
 48  25  48  1   
 49  26  27  1   
 50  27  49  1   
 51  27  50  1   
 52  27  51  1   
@<TRIPOS>SUBSTRUCTURE
  1 ****  11 GROUP 4 **** **** 0

# MOE 2024.06 (io_trps.svl 2023.06)
