@<TRIPOS>MOLECULE
NONAME
22 22 1 0 0 
SMALL
USER_CHARGES


@<TRIPOS>ATOM
  1 S       -6.0970    -1.1460    -1.2700 S.3   1 <1>  -0.0800 
  2 C       -4.7690    -0.2400    -0.5340 C.2   1 <1>  -0.1400 
  3 C       -7.2870    -0.0970    -0.5180 C.2   1 <1>  -0.1100 
  4 C       -5.2540     0.7740     0.2150 C.2   1 <1>   0.0830 
  5 C       -3.3570    -0.7010    -0.8510 C.3   1 <1>   0.0200 
  6 C       -6.6840     0.8500     0.2220 C.2   1 <1>  -0.1500 
  7 N       -4.5000     1.6950     0.9350 N.pl3 1 <1>  -0.8830 
  8 C       -3.0020    -1.9980    -0.1190 C.3   1 <1>  -0.1600 
  9 C       -1.5580    -2.4340    -0.4290 C.3   1 <1>  -0.2660 
 10 C       -1.1650    -3.6970     0.3000 C.2   1 <1>   0.9060 
 11 O       -0.6060    -3.5940     1.3950 O.co2 1 <1>  -0.9000 
 12 O       -1.4050    -4.7840    -0.2340 O.co2 1 <1>  -0.9000 
 13 H       -8.3230    -0.3090    -0.7120 H     1 <1>   0.1500 
 14 H       -2.6620     0.0650    -0.5590 H     1 <1>   0.0800 
 15 H       -3.2630    -0.8460    -1.9130 H     1 <1>   0.0800 
 16 H       -7.1800     1.6120     0.7920 H     1 <1>   0.1500 
 17 H       -4.8140     2.6600     0.8110 H     1 <1>   0.4000 
 18 H       -3.4970     1.6150     0.7470 H     1 <1>   0.4000 
 19 H       -3.6760    -2.7850    -0.4130 H     1 <1>   0.0800 
 20 H       -3.1060    -1.8540     0.9430 H     1 <1>   0.0800 
 21 H       -0.8680    -1.6660    -0.1380 H     1 <1>   0.0800 
 22 H       -1.4440    -2.6180    -1.4800 H     1 <1>   0.0800 
@<TRIPOS>BOND
  1   1   2  1   
  2   1   3  1   
  3   2   4  2   
  4   2   5  1   
  5   3   6  2   
  6   3  13  1   
  7   4   6  1   
  8   4   7  1   
  9   5   8  1   
 10   5  14  1   
 11   5  15  1   
 12   6  16  1   
 13   7  17  1   
 14   7  18  1   
 15   8   9  1   
 16   8  19  1   
 17   8  20  1   
 18   9  10  1   
 19   9  21  1   
 20   9  22  1   
 21  10  11  ar  
 22  10  12  ar  
@<TRIPOS>SUBSTRUCTURE
  1 ****   5 GROUP 4 **** **** 0

# MOE 2024.06 (io_trps.svl 2023.06)
