@<TRIPOS>MOLECULE
NONAME
51 53 1 0 0 
SMALL
USER_CHARGES


@<TRIPOS>ATOM
  1 O        4.1240    -5.8180     2.8920 O.2   1 <1>  -0.5700 
  2 C        4.0040    -5.4220     1.7570 C.2   1 <1>   0.5690 
  3 N        3.0840    -5.9930     0.9010 N.am  1 <1>  -0.6600 
  4 C        4.9080    -4.2680     1.3320 C.3   1 <1>   0.0440 
  5 C        2.3950    -7.2580     1.2760 C.3   1 <1>   0.1400 
  6 C        2.8090    -5.5190    -0.4830 C.3   1 <1>   0.1400 
  7 C        5.7760    -4.5820     0.1150 C.ar  1 <1>  -0.1440 
  8 C        0.8860    -7.0690     1.1390 C.3   1 <1>  -0.1600 
  9 C        1.3020    -5.3240    -0.6550 C.3   1 <1>  -0.1600 
 10 C        5.9050    -3.6570    -0.9120 C.ar  1 <1>  -0.1500 
 11 C        6.4430    -5.7950     0.0220 C.ar  1 <1>  -0.1500 
 12 C        0.5430    -6.6020    -0.2830 C.3   1 <1>   0.4230 
 13 C        6.6770    -3.9480    -2.0230 C.ar  1 <1>  -0.1500 
 14 C        7.2140    -6.0870    -1.0890 C.ar  1 <1>  -0.1500 
 15 N       -0.9230    -6.3960    -0.4760 N.4   1 <1>  -0.9590 
 16 C        7.3310    -5.1640    -2.1140 C.ar  1 <1>  -0.1500 
 17 C       -1.5470    -5.4490     0.4900 C.3   1 <1>   0.3430 
 18 C       -1.6670    -7.6850    -0.4750 C.3   1 <1>   0.3430 
 19 C       -2.4630    -4.4710    -0.2460 C.3   1 <1>  -0.1600 
 20 C       -2.9170    -7.6000    -1.3540 C.3   1 <1>  -0.1600 
 21 C       -3.3590    -5.0710    -1.3460 C.3   1 <1>  -0.1600 
 22 C       -3.9080    -6.4690    -1.0210 C.3   1 <1>  -0.1600 
 23 H        5.5570    -4.0230     2.1530 H     1 <1>   0.0800 
 24 H        4.2930    -3.4090     1.1450 H     1 <1>   0.0800 
 25 H        2.6310    -7.5410     2.2890 H     1 <1>   0.0800 
 26 H        2.7390    -8.0490     0.6300 H     1 <1>   0.0800 
 27 H        3.1840    -6.2460    -1.1840 H     1 <1>   0.0800 
 28 H        3.3020    -4.5850    -0.6810 H     1 <1>   0.0800 
 29 H        0.5820    -6.3480     1.8760 H     1 <1>   0.0800 
 30 H        0.4090    -8.0070     1.3550 H     1 <1>   0.0800 
 31 H        1.1070    -5.0670    -1.6800 H     1 <1>   0.0800 
 32 H        1.0030    -4.5010    -0.0320 H     1 <1>   0.0800 
 33 H        5.4100    -2.7040    -0.8540 H     1 <1>   0.1500 
 34 H        6.3660    -6.5200     0.8140 H     1 <1>   0.1500 
 35 H        0.8690    -7.3720    -0.9640 H     1 <1>   0.0800 
 36 H        6.7730    -3.2270    -2.8160 H     1 <1>   0.1500 
 37 H        7.7270    -7.0310    -1.1550 H     1 <1>   0.1500 
 38 H       -1.0590    -5.9840    -1.4060 H     1 <1>   0.4500 
 39 H        7.9320    -5.3900    -2.9770 H     1 <1>   0.1500 
 40 H       -0.7920    -4.8900     1.0180 H     1 <1>   0.0800 
 41 H       -2.1200    -5.9990     1.2190 H     1 <1>   0.0800 
 42 H       -1.9460    -7.9460     0.5340 H     1 <1>   0.0800 
 43 H       -1.0360    -8.4710    -0.8570 H     1 <1>   0.0800 
 44 H       -1.8690    -3.6810    -0.6700 H     1 <1>   0.0800 
 45 H       -3.0950    -4.0110     0.4950 H     1 <1>   0.0800 
 46 H       -3.4410    -8.5360    -1.2570 H     1 <1>   0.0800 
 47 H       -2.6190    -7.5270    -2.3860 H     1 <1>   0.0800 
 48 H       -2.8290    -5.1000    -2.2830 H     1 <1>   0.0800 
 49 H       -4.1920    -4.4020    -1.4910 H     1 <1>   0.0800 
 50 H       -4.2260    -6.5250     0.0070 H     1 <1>   0.0800 
 51 H       -4.7870    -6.6220    -1.6260 H     1 <1>   0.0800 
@<TRIPOS>BOND
  1   1   2  2   
  2   2   3  am  
  3   2   4  1   
  4   3   5  1   
  5   3   6  1   
  6   4   7  1   
  7   4  23  1   
  8   4  24  1   
  9   5   8  1   
 10   5  25  1   
 11   5  26  1   
 12   6   9  1   
 13   6  27  1   
 14   6  28  1   
 15   7  10  ar  
 16   7  11  ar  
 17   8  12  1   
 18   8  29  1   
 19   8  30  1   
 20   9  12  1   
 21   9  31  1   
 22   9  32  1   
 23  10  13  ar  
 24  10  33  1   
 25  11  14  ar  
 26  11  34  1   
 27  12  15  1   
 28  12  35  1   
 29  13  16  ar  
 30  13  36  1   
 31  14  16  ar  
 32  14  37  1   
 33  15  17  1   
 34  15  18  1   
 35  15  38  1   
 36  16  39  1   
 37  17  19  1   
 38  17  40  1   
 39  17  41  1   
 40  18  20  1   
 41  18  42  1   
 42  18  43  1   
 43  19  21  1   
 44  19  44  1   
 45  19  45  1   
 46  20  22  1   
 47  20  46  1   
 48  20  47  1   
 49  21  22  1   
 50  21  48  1   
 51  21  49  1   
 52  22  50  1   
 53  22  51  1   
@<TRIPOS>SUBSTRUCTURE
  1 ****   6 GROUP 4 **** **** 0

# MOE 2024.06 (io_trps.svl 2023.06)
