@<TRIPOS>MOLECULE
NONAME
38 39 1 0 0 
SMALL
USER_CHARGES


@<TRIPOS>ATOM
  1 F       -0.3110     1.1320     0.6820 F     1 <1>  -0.3400 
  2 C       -1.5480     1.5670     0.8900 C.3   1 <1>   1.1640 
  3 F       -1.7000     2.6350     0.1140 F     1 <1>  -0.3400 
  4 F       -1.5830     2.0070     2.1410 F     1 <1>  -0.3400 
  5 C       -2.5940     0.4700     0.6340 C.ar  1 <1>  -0.1440 
  6 C       -3.7300     0.7100    -0.1330 C.ar  1 <1>  -0.1500 
  7 C       -2.4120    -0.7970     1.1810 C.ar  1 <1>  -0.1500 
  8 C       -4.6650    -0.2970    -0.3480 C.ar  1 <1>   0.0830 
  9 C       -3.3360    -1.8090     0.9710 C.ar  1 <1>  -0.1440 
 10 O       -5.7900    -0.1410    -1.0860 O.3   1 <1>  -0.3630 
 11 C       -4.4620    -1.5460     0.2110 C.ar  1 <1>  -0.1500 
 12 C       -3.1230    -3.1960     1.5610 C.3   1 <1>  -0.0160 
 13 C       -6.1300     1.1010    -1.6630 C.3   1 <1>   0.0400 
 14 C       -2.8280    -4.2410     0.4660 C.3   1 <1>  -0.0800 
 15 C       -2.6510    -5.6410     1.0770 C.3   1 <1>  -0.1600 
 16 C       -1.5860    -3.8710    -0.3660 C.3   1 <1>  -0.1600 
 17 C       -2.3080    -6.6860     0.0120 C.3   1 <1>   0.3430 
 18 C       -1.2620    -4.9420    -1.4070 C.3   1 <1>   0.3430 
 19 N       -1.0920    -6.2580    -0.7320 N.4   1 <1>  -0.9060 
 20 H       -3.8830     1.6840    -0.5610 H     1 <1>   0.1500 
 21 H       -1.5380    -0.9930     1.7800 H     1 <1>   0.1500 
 22 H       -5.2040    -2.3060     0.0410 H     1 <1>   0.1500 
 23 H       -4.0120    -3.4760     2.0990 H     1 <1>   0.0800 
 24 H       -2.3150    -3.1690     2.2710 H     1 <1>   0.0800 
 25 H       -7.0670     0.9840    -2.1780 H     1 <1>   0.0800 
 26 H       -5.3630     1.3850    -2.3600 H     1 <1>   0.0800 
 27 H       -6.2330     1.8330    -0.8810 H     1 <1>   0.0800 
 28 H       -3.6790    -4.2700    -0.1960 H     1 <1>   0.0800 
 29 H       -3.5640    -5.9360     1.5660 H     1 <1>   0.0800 
 30 H       -1.8770    -5.6280     1.8260 H     1 <1>   0.0800 
 31 H       -0.7350    -3.7220     0.2760 H     1 <1>   0.0800 
 32 H       -1.7610    -2.9430    -0.8850 H     1 <1>   0.0800 
 33 H       -3.1370    -6.7870    -0.6700 H     1 <1>   0.0800 
 34 H       -2.1390    -7.6410     0.4830 H     1 <1>   0.0800 
 35 H       -0.3590    -4.6740    -1.9340 H     1 <1>   0.0800 
 36 H       -2.0670    -4.9990    -2.1230 H     1 <1>   0.0800 
 37 H       -0.8410    -6.9730    -1.4270 H     1 <1>   0.4500 
 38 H       -0.3080    -6.1880    -0.0730 H     1 <1>   0.4500 
@<TRIPOS>BOND
  1   1   2  1   
  2   2   3  1   
  3   2   4  1   
  4   2   5  1   
  5   5   6  ar  
  6   5   7  ar  
  7   6   8  ar  
  8   6  20  1   
  9   7   9  ar  
 10   7  21  1   
 11   8  10  1   
 12   8  11  ar  
 13   9  11  ar  
 14   9  12  1   
 15  10  13  1   
 16  11  22  1   
 17  12  14  1   
 18  12  23  1   
 19  12  24  1   
 20  13  25  1   
 21  13  26  1   
 22  13  27  1   
 23  14  15  1   
 24  14  16  1   
 25  14  28  1   
 26  15  17  1   
 27  15  29  1   
 28  15  30  1   
 29  16  18  1   
 30  16  31  1   
 31  16  32  1   
 32  17  19  1   
 33  17  33  1   
 34  17  34  1   
 35  18  19  1   
 36  18  35  1   
 37  18  36  1   
 38  19  37  1   
 39  19  38  1   
@<TRIPOS>SUBSTRUCTURE
  1 ****   9 GROUP 4 **** **** 0

# MOE 2024.06 (io_trps.svl 2023.06)
