@<TRIPOS>MOLECULE
NONAME
30 31 1 0 0 
SMALL
USER_CHARGES


@<TRIPOS>ATOM
  1 CL      -0.9840     0.4630     0.4660 Cl    1 <1>  -0.1770 
  2 C       -1.9600    -0.9590     0.2050 C.ar  1 <1>   0.1770 
  3 C       -1.9610    -1.9640     1.1540 C.ar  1 <1>  -0.1500 
  4 C       -2.7200    -1.0590    -0.9450 C.ar  1 <1>  -0.1500 
  5 C       -2.7380    -3.0920     0.9460 C.ar  1 <1>  -0.1500 
  6 C       -3.4960    -2.1880    -1.1480 C.ar  1 <1>  -0.1500 
  7 C       -3.5070    -3.2080    -0.2050 C.ar  1 <1>  -0.1430 
  8 C       -4.3650    -4.4390    -0.4290 C.3   1 <1>   0.2840 
  9 N       -5.7060    -4.1520     0.1040 N.am  1 <1>  -0.7300 
 10 C       -6.8360    -4.8030    -0.2820 C.2   1 <1>   0.5690 
 11 O       -6.7770    -5.7270    -1.0590 O.2   1 <1>  -0.5700 
 12 C       -8.2080    -4.3830     0.2930 C.3   1 <1>   0.2810 
 13 N       -9.3540    -4.6880    -0.5880 N.am  1 <1>  -0.7300 
 14 C       -8.3800    -2.8660     0.5350 C.3   1 <1>  -0.1600 
 15 C      -10.2370    -3.6920    -0.7100 C.2   1 <1>   0.5690 
 16 C       -9.8400    -2.5370     0.1660 C.3   1 <1>  -0.0990 
 17 O      -11.1990    -3.6980    -1.4320 O.2   1 <1>  -0.5700 
 18 H       -1.3610    -1.8620     2.0400 H     1 <1>   0.1500 
 19 H       -2.7000    -0.2630    -1.6680 H     1 <1>   0.1500 
 20 H       -2.7400    -3.8770     1.6830 H     1 <1>   0.1500 
 21 H       -4.0920    -2.2700    -2.0420 H     1 <1>   0.1500 
 22 H       -3.9490    -5.2900     0.0820 H     1 <1>   0.0800 
 23 H       -4.4290    -4.6700    -1.4800 H     1 <1>   0.0800 
 24 H       -5.7360    -3.3530     0.7390 H     1 <1>   0.3700 
 25 H       -8.3560    -4.9140     1.2170 H     1 <1>   0.0800 
 26 H       -9.3230    -5.4940    -1.2180 H     1 <1>   0.3700 
 27 H       -7.7280    -2.3220    -0.1270 H     1 <1>   0.0800 
 28 H       -8.1480    -2.5970     1.5500 H     1 <1>   0.0800 
 29 H       -9.9250    -1.6070    -0.3670 H     1 <1>   0.0800 
 30 H      -10.4730    -2.5260     1.0340 H     1 <1>   0.0800 
@<TRIPOS>BOND
  1   1   2  1   
  2   2   3  ar  
  3   2   4  ar  
  4   3   5  ar  
  5   3  18  1   
  6   4   6  ar  
  7   4  19  1   
  8   5   7  ar  
  9   5  20  1   
 10   6   7  ar  
 11   6  21  1   
 12   7   8  1   
 13   8   9  1   
 14   8  22  1   
 15   8  23  1   
 16   9  10  am  
 17   9  24  1   
 18  10  11  2   
 19  10  12  1   
 20  12  13  1   
 21  12  14  1   
 22  12  25  1   
 23  13  15  am  
 24  13  26  1   
 25  14  16  1   
 26  14  27  1   
 27  14  28  1   
 28  15  16  1   
 29  15  17  2   
 30  16  29  1   
 31  16  30  1   
@<TRIPOS>SUBSTRUCTURE
  1 ****   9 GROUP 4 **** **** 0

# MOE 2024.06 (io_trps.svl 2023.06)
