@<TRIPOS>MOLECULE
NONAME
39 40 1 0 0 
SMALL
USER_CHARGES


@<TRIPOS>ATOM
  1 O       -0.9930    -1.7500     1.6790 O.2   1 <1>  -0.5700 
  2 C       -2.1010    -1.7780     1.2090 C.2   1 <1>   0.5690 
  3 N       -2.5210    -0.8910     0.2740 N.am  1 <1>  -0.5470 
  4 C       -3.0870    -2.8630     1.6300 C.3   1 <1>   0.2010 
  5 C       -3.7590    -1.0190    -0.3800 C.ar  1 <1>   0.1170 
  6 N       -3.9050    -3.3170     0.4480 N.am  1 <1>  -0.4770 
  7 C       -4.4740    -2.2280    -0.2770 C.ar  1 <1>   0.1170 
  8 C       -4.2800     0.0380    -1.1100 C.ar  1 <1>  -0.1500 
  9 C       -3.8610    -4.6120    -0.0330 C.2   1 <1>   0.5690 
 10 C       -5.7190    -2.3160    -0.8900 C.ar  1 <1>  -0.1500 
 11 C       -5.5130    -0.0770    -1.7250 C.ar  1 <1>  -0.1500 
 12 O       -4.5120    -4.9880    -0.9820 O.2   1 <1>  -0.5700 
 13 C       -2.9440    -5.6840     0.5810 C.3   1 <1>   0.4040 
 14 C       -6.2340    -1.2520    -1.6110 C.ar  1 <1>  -0.1500 
 15 N       -2.6830    -6.8180    -0.3800 N.4   1 <1>  -0.9060 
 16 C       -2.1020    -8.0510     0.1390 C.3   1 <1>   0.5030 
 17 C       -1.9340    -8.9830    -1.0560 C.3   1 <1>  -0.2400 
 18 C       -3.0540    -8.6750     1.1580 C.3   1 <1>  -0.2400 
 19 C       -0.7420    -7.7500     0.7660 C.3   1 <1>  -0.2400 
 20 H       -1.8830    -0.1310     0.0320 H     1 <1>   0.3700 
 21 H       -3.7490    -2.4410     2.3660 H     1 <1>   0.0800 
 22 H       -2.5480    -3.6650     2.0920 H     1 <1>   0.0800 
 23 H       -3.7280     0.9570    -1.1970 H     1 <1>   0.1500 
 24 H       -6.2950    -3.2200    -0.8130 H     1 <1>   0.1500 
 25 H       -5.9150     0.7470    -2.2910 H     1 <1>   0.1500 
 26 H       -3.4280    -6.0590     1.4650 H     1 <1>   0.0800 
 27 H       -2.0100    -5.2320     0.8650 H     1 <1>   0.0800 
 28 H       -7.1970    -1.3400    -2.0850 H     1 <1>   0.1500 
 29 H       -2.1030    -6.4750    -1.1520 H     1 <1>   0.4500 
 30 H       -3.5890    -7.0270    -0.8260 H     1 <1>   0.4500 
 31 H       -2.8820    -9.1980    -1.5180 H     1 <1>   0.0800 
 32 H       -1.5100    -9.9190    -0.7340 H     1 <1>   0.0800 
 33 H       -1.2700    -8.5610    -1.7890 H     1 <1>   0.0800 
 34 H       -4.0290    -8.8330     0.7320 H     1 <1>   0.0800 
 35 H       -3.1440    -8.0720     2.0430 H     1 <1>   0.0800 
 36 H       -2.6730    -9.6340     1.4670 H     1 <1>   0.0800 
 37 H       -0.0870    -7.2720     0.0590 H     1 <1>   0.0800 
 38 H       -0.2750    -8.6690     1.0730 H     1 <1>   0.0800 
 39 H       -0.8350    -7.1320     1.6400 H     1 <1>   0.0800 
@<TRIPOS>BOND
  1   1   2  2   
  2   2   3  am  
  3   2   4  1   
  4   3   5  1   
  5   3  20  1   
  6   4   6  1   
  7   4  21  1   
  8   4  22  1   
  9   5   7  ar  
 10   5   8  ar  
 11   6   7  1   
 12   6   9  am  
 13   7  10  ar  
 14   8  11  ar  
 15   8  23  1   
 16   9  12  2   
 17   9  13  1   
 18  10  14  ar  
 19  10  24  1   
 20  11  14  ar  
 21  11  25  1   
 22  13  15  1   
 23  13  26  1   
 24  13  27  1   
 25  14  28  1   
 26  15  16  1   
 27  15  29  1   
 28  15  30  1   
 29  16  17  1   
 30  16  18  1   
 31  16  19  1   
 32  17  31  1   
 33  17  32  1   
 34  17  33  1   
 35  18  34  1   
 36  18  35  1   
 37  18  36  1   
 38  19  37  1   
 39  19  38  1   
 40  19  39  1   
@<TRIPOS>SUBSTRUCTURE
  1 ****   6 GROUP 4 **** **** 0

# MOE 2024.06 (io_trps.svl 2023.06)
