@<TRIPOS>MOLECULE
NONAME
39 41 1 0 0 
SMALL
USER_CHARGES


@<TRIPOS>ATOM
  1 BR       1.9160     1.5840    -3.6610 Br    1 <1>  -0.1110 
  2 C        2.8650     1.6690    -1.9930 C.ar  1 <1>   0.1110 
  3 C        4.2160     1.3760    -1.9820 C.ar  1 <1>  -0.1500 
  4 C        2.1640     2.0210    -0.8480 C.ar  1 <1>  -0.1500 
  5 C        4.8830     1.4430    -0.7660 C.ar  1 <1>   0.0860 
  6 C        2.8410     2.0850     0.3590 C.ar  1 <1>  -0.1500 
  7 C        6.2490     1.2110    -0.3930 C.2   1 <1>   0.5440 
  8 C        4.2020     1.7940     0.3940 C.ar  1 <1>   0.0860 
  9 O        7.1630     0.8770    -1.1180 O.2   1 <1>  -0.5700 
 10 N        6.3800     1.4130     0.9540 N.am  1 <1>  -0.4200 
 11 C        5.1600     1.7710     1.4620 C.2   1 <1>   0.5440 
 12 C        7.6760     1.7160     1.6120 C.3   1 <1>   0.2010 
 13 O        4.9570     2.0010     2.6360 O.2   1 <1>  -0.5700 
 14 C        8.2780     3.0370     1.1150 C.2   1 <1>   0.5690 
 15 O        7.5130     3.9620     0.9440 O.2   1 <1>  -0.5700 
 16 N        9.6290     3.1770     0.8850 N.am  1 <1>  -0.6600 
 17 C       10.6350     2.1200     1.1780 C.3   1 <1>   0.1400 
 18 C       10.1530     4.4580     0.3210 C.3   1 <1>   0.1400 
 19 C       10.7930     1.1900    -0.0320 C.3   1 <1>  -0.1600 
 20 C       11.2870     4.2810    -0.7010 C.3   1 <1>  -0.1600 
 21 C       11.6030     1.7910    -1.1910 C.3   1 <1>  -0.1600 
 22 C       11.0720     3.1370    -1.7060 C.3   1 <1>  -0.1600 
 23 H        4.7400     1.1070    -2.8830 H     1 <1>   0.1500 
 24 H        1.1120     2.2420    -0.9070 H     1 <1>   0.1500 
 25 H        2.3330     2.3570     1.2700 H     1 <1>   0.1500 
 26 H        8.3400     0.8980     1.4160 H     1 <1>   0.0800 
 27 H        7.5260     1.7880     2.6730 H     1 <1>   0.0800 
 28 H       10.3210     1.5490     2.0340 H     1 <1>   0.0800 
 29 H       11.5810     2.5680     1.4310 H     1 <1>   0.0800 
 30 H       10.4920     5.0820     1.1290 H     1 <1>   0.0800 
 31 H        9.3500     4.9790    -0.1730 H     1 <1>   0.0800 
 32 H        9.8220     0.8970    -0.3920 H     1 <1>   0.0800 
 33 H       11.2950     0.2960     0.2930 H     1 <1>   0.0800 
 34 H       12.2240     4.1570    -0.1890 H     1 <1>   0.0800 
 35 H       11.3620     5.2040    -1.2490 H     1 <1>   0.0800 
 36 H       11.5890     1.0870    -2.0050 H     1 <1>   0.0800 
 37 H       12.6300     1.9050    -0.8890 H     1 <1>   0.0800 
 38 H       11.6080     3.3770    -2.6080 H     1 <1>   0.0800 
 39 H       10.0290     3.0540    -1.9650 H     1 <1>   0.0800 
@<TRIPOS>BOND
  1   1   2  1   
  2   2   3  ar  
  3   2   4  ar  
  4   3   5  ar  
  5   3  23  1   
  6   4   6  ar  
  7   4  24  1   
  8   5   7  1   
  9   5   8  ar  
 10   6   8  ar  
 11   6  25  1   
 12   7   9  2   
 13   7  10  am  
 14   8  11  1   
 15  10  11  am  
 16  10  12  1   
 17  11  13  2   
 18  12  14  1   
 19  12  26  1   
 20  12  27  1   
 21  14  15  2   
 22  14  16  am  
 23  16  17  1   
 24  16  18  1   
 25  17  19  1   
 26  17  28  1   
 27  17  29  1   
 28  18  20  1   
 29  18  30  1   
 30  18  31  1   
 31  19  21  1   
 32  19  32  1   
 33  19  33  1   
 34  20  22  1   
 35  20  34  1   
 36  20  35  1   
 37  21  22  1   
 38  21  36  1   
 39  21  37  1   
 40  22  38  1   
 41  22  39  1   
@<TRIPOS>SUBSTRUCTURE
  1 ****   7 GROUP 4 **** **** 0

# MOE 2024.06 (io_trps.svl 2023.06)
