@<TRIPOS>MOLECULE
NONAME
31 32 1 0 0 
SMALL
USER_CHARGES


@<TRIPOS>ATOM
  1 O        0.1660     0.9790    -2.3330 O.2   1 <1>  -0.5700 
  2 C       -0.0190     1.8620    -1.5230 C.2   1 <1>   0.6900 
  3 N        0.9690     2.7640    -1.3080 N.am  1 <1>  -0.5470 
  4 N       -1.1690     1.9470    -0.8190 N.am  1 <1>  -0.7300 
  5 C        0.9700     3.9410    -0.5550 C.ar  1 <1>   0.1170 
  6 C       -2.3240     1.0450    -0.9210 C.3   1 <1>   0.2200 
  7 C        2.0500     4.2310     0.2690 C.ar  1 <1>  -0.1500 
  8 C       -0.0850     4.8450    -0.6170 C.ar  1 <1>  -0.1500 
  9 C       -3.5680     1.8760    -1.2040 C.3   1 <1>  -0.1600 
 10 C       -2.6040     0.4540     0.4550 C.3   1 <1>  -0.1600 
 11 C        2.0700     5.3890     1.0260 C.ar  1 <1>  -0.1500 
 12 C       -0.0690     6.0030     0.1390 C.ar  1 <1>  -0.1500 
 13 C       -4.0070     2.4440     0.1510 C.3   1 <1>  -0.1600 
 14 C       -3.3940     1.5250     1.2170 C.3   1 <1>  -0.1600 
 15 C        1.0090     6.2760     0.9630 C.ar  1 <1>  -0.1500 
 16 H        1.8330     2.5010    -1.7780 H     1 <1>   0.3700 
 17 H       -1.2250     2.6530    -0.0880 H     1 <1>   0.3700 
 18 H       -2.1540     0.2880    -1.6700 H     1 <1>   0.0800 
 19 H        2.8740     3.5430     0.3240 H     1 <1>   0.1500 
 20 H       -0.9180     4.6450    -1.2680 H     1 <1>   0.1500 
 21 H       -4.3370     1.2210    -1.5740 H     1 <1>   0.0800 
 22 H       -3.3870     2.6420    -1.9390 H     1 <1>   0.0800 
 23 H       -1.7020     0.1600     0.9620 H     1 <1>   0.0800 
 24 H       -3.2250    -0.4160     0.3300 H     1 <1>   0.0800 
 25 H        2.9100     5.6020     1.6640 H     1 <1>   0.1500 
 26 H       -0.8920     6.6950     0.0840 H     1 <1>   0.1500 
 27 H       -5.0810     2.4730     0.2260 H     1 <1>   0.0800 
 28 H       -3.6230     3.4420     0.2710 H     1 <1>   0.0800 
 29 H       -2.7290     2.0930     1.8450 H     1 <1>   0.0800 
 30 H       -4.1540     1.0750     1.8330 H     1 <1>   0.0800 
 31 H        1.0230     7.1770     1.5520 H     1 <1>   0.1500 
@<TRIPOS>BOND
  1   1   2  2   
  2   2   3  am  
  3   2   4  am  
  4   3   5  1   
  5   3  16  1   
  6   4   6  1   
  7   4  17  1   
  8   5   7  ar  
  9   5   8  ar  
 10   6   9  1   
 11   6  10  1   
 12   6  18  1   
 13   7  11  ar  
 14   7  19  1   
 15   8  12  ar  
 16   8  20  1   
 17   9  13  1   
 18   9  21  1   
 19   9  22  1   
 20  10  14  1   
 21  10  23  1   
 22  10  24  1   
 23  11  15  ar  
 24  11  25  1   
 25  12  15  ar  
 26  12  26  1   
 27  13  14  1   
 28  13  27  1   
 29  13  28  1   
 30  14  29  1   
 31  14  30  1   
 32  15  31  1   
@<TRIPOS>SUBSTRUCTURE
  1 ****   4 GROUP 4 **** **** 0

# MOE 2024.06 (io_trps.svl 2023.06)
