@<TRIPOS>MOLECULE
NONAME
51 53 1 0 0 
SMALL
USER_CHARGES


@<TRIPOS>ATOM
  1 CL       1.1720     0.0700     1.3760 Cl    1 <1>  -0.1770 
  2 C        1.7080     1.6680     0.9240 C.ar  1 <1>   0.1770 
  3 C        2.1080     1.9070    -0.3770 C.ar  1 <1>  -0.1500 
  4 C        1.7260     2.6710     1.8740 C.ar  1 <1>  -0.1500 
  5 C        2.5310     3.1770    -0.7320 C.ar  1 <1>  -0.1500 
  6 C        2.1510     3.9390     1.5130 C.ar  1 <1>  -0.1500 
  7 C        2.5520     4.1980     0.2080 C.ar  1 <1>  -0.1430 
  8 C        3.0090     5.5910    -0.1940 C.3   1 <1>   0.2640 
  9 O        4.4000     5.5810    -0.3010 O.3   1 <1>  -0.5600 
 10 C        4.9730     6.8070    -0.6350 C.3   1 <1>   0.1200 
 11 C        6.4960     6.6160    -0.7020 C.3   1 <1>   0.2000 
 12 O        6.8980     5.9010     0.4260 O.3   1 <1>  -0.6800 
 13 C        7.2810     7.9450    -0.7630 C.3   1 <1>   0.3430 
 14 N        8.6690     7.7490    -0.2440 N.4   1 <1>  -0.9590 
 15 C        9.2880     9.0110     0.3010 C.3   1 <1>   0.3430 
 16 C        9.5770     7.0630    -1.2350 C.3   1 <1>   0.3430 
 17 C       10.7060     8.7780     0.8670 C.3   1 <1>   0.2090 
 18 C       10.9930     6.8230    -0.6690 C.3   1 <1>   0.2090 
 19 N       11.5700     8.0910    -0.1350 N.pl3 1 <1>  -0.8380 
 20 C       12.9300     8.0690     0.1520 C.ar  1 <1>   0.1000 
 21 C       13.4450     7.2830     1.1780 C.ar  1 <1>  -0.1500 
 22 C       13.8030     8.8470    -0.5960 C.ar  1 <1>  -0.1500 
 23 C       14.8010     7.2760     1.4480 C.ar  1 <1>  -0.1500 
 24 C       15.1600     8.8440    -0.3290 C.ar  1 <1>  -0.1500 
 25 C       15.6610     8.0570     0.6940 C.ar  1 <1>  -0.1500 
 26 H        2.0870     1.1090    -1.0970 H     1 <1>   0.1500 
 27 H        1.4120     2.4580     2.8800 H     1 <1>   0.1500 
 28 H        2.8480     3.3670    -1.7430 H     1 <1>   0.1500 
 29 H        2.1670     4.7200     2.2530 H     1 <1>   0.1500 
 30 H        2.7200     6.3140     0.5500 H     1 <1>   0.0800 
 31 H        2.5860     5.8610    -1.1460 H     1 <1>   0.0800 
 32 H        4.7130     7.5260     0.1250 H     1 <1>   0.0800 
 33 H        4.5850     7.1280    -1.5870 H     1 <1>   0.0800 
 34 H        6.7290     6.0170    -1.5650 H     1 <1>   0.0800 
 35 H        6.1960     5.2240     0.5980 H     1 <1>   0.4000 
 36 H        6.7690     8.6620    -0.1430 H     1 <1>   0.0800 
 37 H        7.2960     8.3280    -1.7700 H     1 <1>   0.0800 
 38 H        8.5360     7.0760     0.5360 H     1 <1>   0.4500 
 39 H        8.6650     9.4200     1.0790 H     1 <1>   0.0800 
 40 H        9.3620     9.7440    -0.4850 H     1 <1>   0.0800 
 41 H        9.6710     7.6710    -2.1190 H     1 <1>   0.0800 
 42 H        9.1540     6.1150    -1.5230 H     1 <1>   0.0800 
 43 H       10.6490     8.1860     1.7640 H     1 <1>   0.0800 
 44 H       11.1490     9.7260     1.1240 H     1 <1>   0.0800 
 45 H       11.6320     6.4460    -1.4500 H     1 <1>   0.0800 
 46 H       10.9520     6.0840     0.1120 H     1 <1>   0.0800 
 47 H       12.7840     6.6760     1.7660 H     1 <1>   0.1500 
 48 H       13.4100     9.4560    -1.3890 H     1 <1>   0.1500 
 49 H       15.1910     6.6650     2.2430 H     1 <1>   0.1500 
 50 H       15.8260     9.4510    -0.9160 H     1 <1>   0.1500 
 51 H       16.7170     8.0540     0.9030 H     1 <1>   0.1500 
@<TRIPOS>BOND
  1   1   2  1   
  2   2   3  ar  
  3   2   4  ar  
  4   3   5  ar  
  5   3  26  1   
  6   4   6  ar  
  7   4  27  1   
  8   5   7  ar  
  9   5  28  1   
 10   6   7  ar  
 11   6  29  1   
 12   7   8  1   
 13   8   9  1   
 14   8  30  1   
 15   8  31  1   
 16   9  10  1   
 17  10  11  1   
 18  10  32  1   
 19  10  33  1   
 20  11  12  1   
 21  11  13  1   
 22  11  34  1   
 23  12  35  1   
 24  13  14  1   
 25  13  36  1   
 26  13  37  1   
 27  14  15  1   
 28  14  16  1   
 29  14  38  1   
 30  15  17  1   
 31  15  39  1   
 32  15  40  1   
 33  16  18  1   
 34  16  41  1   
 35  16  42  1   
 36  17  19  1   
 37  17  43  1   
 38  17  44  1   
 39  18  19  1   
 40  18  45  1   
 41  18  46  1   
 42  19  20  1   
 43  20  21  ar  
 44  20  22  ar  
 45  21  23  ar  
 46  21  47  1   
 47  22  24  ar  
 48  22  48  1   
 49  23  25  ar  
 50  23  49  1   
 51  24  25  ar  
 52  24  50  1   
 53  25  51  1   
@<TRIPOS>SUBSTRUCTURE
  1 ****  12 GROUP 4 **** **** 0

# MOE 2024.06 (io_trps.svl 2023.06)
