@<TRIPOS>MOLECULE
NONAME
39 41 1 0 0 
SMALL
USER_CHARGES


@<TRIPOS>ATOM
  1 S       -0.4280    -0.6470    -1.7370 S.3   1 <1>  -0.0800 
  2 C       -0.2940    -1.6680    -0.3060 C.2   1 <1>   0.3250 
  3 C       -2.0580    -0.2430    -1.3060 C.2   1 <1>  -0.1100 
  4 N       -1.3790    -1.6720     0.3890 N.2   1 <1>  -0.5650 
  5 C        0.9460    -2.3720    -0.0410 C.ar  1 <1>   0.0530 
  6 C       -2.3680    -0.8770    -0.1670 C.2   1 <1>   0.0460 
  7 C        2.0440    -2.3470    -0.9060 C.ar  1 <1>  -0.1500 
  8 C        1.0850    -3.1220     1.1270 C.ar  1 <1>  -0.1500 
  9 C       -3.7070    -0.7950     0.5490 C.3   1 <1>   0.3210 
 10 C        3.2110    -3.0300    -0.6160 C.ar  1 <1>  -0.1500 
 11 C        2.2490    -3.8070     1.4220 C.ar  1 <1>  -0.1500 
 12 N       -4.3480    -2.1210     0.5350 N.am  1 <1>  -0.7300 
 13 C        3.3220    -3.7670     0.5500 C.ar  1 <1>  -0.1430 
 14 C       -5.6240    -2.3900     0.1660 C.2   1 <1>   0.5690 
 15 C        4.6040    -4.5150     0.8690 C.3   1 <1>  -0.0970 
 16 O       -6.3930    -1.5040    -0.1310 O.2   1 <1>  -0.5700 
 17 C       -6.0970    -3.8530     0.1090 C.3   1 <1>   0.2610 
 18 O       -5.1640    -4.7460     0.6720 O.3   1 <1>  -0.5600 
 19 C       -6.3190    -4.3660    -1.3080 C.3   1 <1>  -0.1600 
 20 C       -5.1640    -5.9770     0.0150 C.3   1 <1>   0.1200 
 21 C       -6.1450    -5.8620    -1.1470 C.3   1 <1>  -0.1600 
 22 H       -2.6070     0.4190    -1.9510 H     1 <1>   0.1500 
 23 H        2.0010    -1.7890    -1.8230 H     1 <1>   0.1500 
 24 H        0.2610    -3.1670     1.8190 H     1 <1>   0.1500 
 25 H       -4.3420    -0.0740     0.0630 H     1 <1>   0.0800 
 26 H       -3.5510    -0.4860     1.5670 H     1 <1>   0.0800 
 27 H        4.0370    -2.9860    -1.3050 H     1 <1>   0.1500 
 28 H        2.3160    -4.3730     2.3350 H     1 <1>   0.1500 
 29 H       -3.7260    -2.9060     0.7520 H     1 <1>   0.3700 
 30 H        5.2730    -3.8740     1.4140 H     1 <1>   0.0800 
 31 H        5.0880    -4.8350    -0.0360 H     1 <1>   0.0800 
 32 H        4.3930    -5.3850     1.4660 H     1 <1>   0.0800 
 33 H       -7.0050    -3.9470     0.6780 H     1 <1>   0.0800 
 34 H       -5.5590    -3.9660    -1.9570 H     1 <1>   0.0800 
 35 H       -7.2890    -4.0920    -1.6850 H     1 <1>   0.0800 
 36 H       -5.4520    -6.7450     0.7130 H     1 <1>   0.0800 
 37 H       -4.1630    -6.1590    -0.3370 H     1 <1>   0.0800 
 38 H       -5.7690    -6.3340    -2.0380 H     1 <1>   0.0800 
 39 H       -7.0780    -6.3220    -0.8700 H     1 <1>   0.0800 
@<TRIPOS>BOND
  1   1   2  1   
  2   1   3  1   
  3   2   4  2   
  4   2   5  1   
  5   3   6  2   
  6   3  22  1   
  7   4   6  1   
  8   5   7  ar  
  9   5   8  ar  
 10   6   9  1   
 11   7  10  ar  
 12   7  23  1   
 13   8  11  ar  
 14   8  24  1   
 15   9  12  1   
 16   9  25  1   
 17   9  26  1   
 18  10  13  ar  
 19  10  27  1   
 20  11  13  ar  
 21  11  28  1   
 22  12  14  am  
 23  12  29  1   
 24  13  15  1   
 25  14  16  2   
 26  14  17  1   
 27  15  30  1   
 28  15  31  1   
 29  15  32  1   
 30  17  18  1   
 31  17  19  1   
 32  17  33  1   
 33  18  20  1   
 34  19  21  1   
 35  19  34  1   
 36  19  35  1   
 37  20  21  1   
 38  20  36  1   
 39  20  37  1   
 40  21  38  1   
 41  21  39  1   
@<TRIPOS>SUBSTRUCTURE
  1 ****   4 GROUP 4 **** **** 0

# MOE 2024.06 (io_trps.svl 2023.06)
