@<TRIPOS>MOLECULE
NONAME
58 60 1 0 0 
SMALL
USER_CHARGES


@<TRIPOS>ATOM
  1 S       -0.0570     0.6410    -2.2860 S.o2  1 <1>   1.4470 
  2 O        1.2120     1.2440    -2.6240 O.2   1 <1>  -0.6500 
  3 O       -1.2260     0.8900    -3.1010 O.2   1 <1>  -0.6500 
  4 N        0.1730    -1.0820    -2.2860 N.am  1 <1>  -0.6930 
  5 C       -0.4500     0.9470    -0.5420 C.ar  1 <1>  -0.0090 
  6 C        1.3260    -1.6630    -1.7820 C.ar  1 <1>   0.1990 
  7 C       -1.0240    -1.9220    -2.5280 C.3   1 <1>   0.1160 
  8 C        0.5500     0.9560     0.4230 C.ar  1 <1>  -0.1500 
  9 C       -1.7580     1.1480    -0.1190 C.ar  1 <1>  -0.1500 
 10 C        2.5460    -1.5050    -2.4290 C.ar  1 <1>  -0.1500 
 11 C        1.2970    -2.4330    -0.6240 C.ar  1 <1>  -0.1500 
 12 C        0.2580     1.1600     1.7610 C.ar  1 <1>  -0.1500 
 13 C       -2.0580     1.3520     1.2170 C.ar  1 <1>  -0.1500 
 14 C        3.6930    -2.1030    -1.9420 C.ar  1 <1>  -0.1500 
 15 C        2.4450    -3.0280    -0.1390 C.ar  1 <1>  -0.1500 
 16 C       -1.0500     1.3600     2.1650 C.ar  1 <1>  -0.1430 
 17 C        3.6760    -2.8800    -0.7820 C.ar  1 <1>   0.0860 
 18 C       -1.3750     1.5840     3.6310 C.3   1 <1>  -0.0970 
 19 C        4.8670    -3.5320    -0.2710 C.2   1 <1>   0.5440 
 20 O        4.7800    -4.6550     0.1910 O.2   1 <1>  -0.5700 
 21 N        6.1060    -2.9250    -0.2820 N.am  1 <1>  -0.6600 
 22 C        6.3020    -1.4520    -0.1100 C.3   1 <1>   0.1400 
 23 C        7.3640    -3.7230    -0.1210 C.3   1 <1>   0.1400 
 24 C        7.0030    -1.1390     1.2250 C.3   1 <1>   0.1400 
 25 C        8.0360    -3.4210     1.2250 C.3   1 <1>   0.1400 
 26 N        8.2460    -1.9510     1.3850 N.am  1 <1>  -0.6600 
 27 C        9.4900    -1.4120     1.5740 C.2   1 <1>   0.7800 
 28 O       10.4960    -2.0920     1.6470 O.2   1 <1>  -0.5700 
 29 O        9.5810    -0.0850     1.6700 O.3   1 <1>  -0.4300 
 30 C       10.8290     0.5400     1.8650 C.3   1 <1>   0.1200 
 31 C       10.5990     2.0470     1.9260 C.3   1 <1>  -0.2400 
 32 H       -1.4460    -1.6810    -3.4900 H     1 <1>   0.0800 
 33 H       -1.7620    -1.7390    -1.7660 H     1 <1>   0.0800 
 34 H       -0.7570    -2.9640    -2.5220 H     1 <1>   0.0800 
 35 H        1.5730     0.8020     0.1220 H     1 <1>   0.1500 
 36 H       -2.5560     1.1480    -0.8440 H     1 <1>   0.1500 
 37 H        2.5840    -0.9120    -3.3260 H     1 <1>   0.1500 
 38 H        0.3660    -2.5630    -0.1020 H     1 <1>   0.1500 
 39 H        1.0530     1.1620     2.4850 H     1 <1>   0.1500 
 40 H       -3.0810     1.5060     1.5140 H     1 <1>   0.1500 
 41 H        4.6210    -1.9770    -2.4730 H     1 <1>   0.1500 
 42 H        2.4010    -3.6290     0.7540 H     1 <1>   0.1500 
 43 H       -1.5150     0.6380     4.1220 H     1 <1>   0.0800 
 44 H       -2.2730     2.1650     3.7340 H     1 <1>   0.0800 
 45 H       -0.5740     2.1120     4.1160 H     1 <1>   0.0800 
 46 H        5.3580    -0.9390    -0.1330 H     1 <1>   0.0800 
 47 H        6.9030    -1.0790    -0.9210 H     1 <1>   0.0800 
 48 H        8.0420    -3.4760    -0.9180 H     1 <1>   0.0800 
 49 H        7.1540    -4.7770    -0.1860 H     1 <1>   0.0800 
 50 H        6.3330    -1.3670     2.0350 H     1 <1>   0.0800 
 51 H        7.2240    -0.0870     1.2680 H     1 <1>   0.0800 
 52 H        8.9740    -3.9470     1.2800 H     1 <1>   0.0800 
 53 H        7.4080    -3.7790     2.0220 H     1 <1>   0.0800 
 54 H       11.4730     0.2800     1.0420 H     1 <1>   0.0800 
 55 H       11.2520     0.1750     2.7860 H     1 <1>   0.0800 
 56 H       10.1650     2.3930     1.0050 H     1 <1>   0.0800 
 57 H       11.5370     2.5500     2.0730 H     1 <1>   0.0800 
 58 H        9.9480     2.2890     2.7470 H     1 <1>   0.0800 
@<TRIPOS>BOND
  1   1   2  2   
  2   1   3  2   
  3   1   4  am  
  4   1   5  1   
  5   4   6  1   
  6   4   7  1   
  7   5   8  ar  
  8   5   9  ar  
  9   6  10  ar  
 10   6  11  ar  
 11   7  32  1   
 12   7  33  1   
 13   7  34  1   
 14   8  12  ar  
 15   8  35  1   
 16   9  13  ar  
 17   9  36  1   
 18  10  14  ar  
 19  10  37  1   
 20  11  15  ar  
 21  11  38  1   
 22  12  16  ar  
 23  12  39  1   
 24  13  16  ar  
 25  13  40  1   
 26  14  17  ar  
 27  14  41  1   
 28  15  17  ar  
 29  15  42  1   
 30  16  18  1   
 31  17  19  1   
 32  18  43  1   
 33  18  44  1   
 34  18  45  1   
 35  19  20  2   
 36  19  21  am  
 37  21  22  1   
 38  21  23  1   
 39  22  24  1   
 40  22  46  1   
 41  22  47  1   
 42  23  25  1   
 43  23  48  1   
 44  23  49  1   
 45  24  26  1   
 46  24  50  1   
 47  24  51  1   
 48  25  26  1   
 49  25  52  1   
 50  25  53  1   
 51  26  27  am  
 52  27  28  2   
 53  27  29  1   
 54  29  30  1   
 55  30  31  1   
 56  30  54  1   
 57  30  55  1   
 58  31  56  1   
 59  31  57  1   
 60  31  58  1   
@<TRIPOS>SUBSTRUCTURE
  1 ****  17 GROUP 4 **** **** 0

# MOE 2024.06 (io_trps.svl 2023.06)
