@<TRIPOS>MOLECULE
NONAME
40 42 1 0 0 
SMALL
USER_CHARGES


@<TRIPOS>ATOM
  1 CL      -7.0390     0.3180     1.0000 Cl    1 <1>  -0.1770 
  2 C       -5.9490     1.6280     0.6200 C.ar  1 <1>   0.1770 
  3 C       -6.1170     2.3280    -0.5600 C.ar  1 <1>  -0.1500 
  4 C       -4.9350     1.9480     1.5040 C.ar  1 <1>  -0.1500 
  5 C       -5.2580     3.3720    -0.8530 C.ar  1 <1>  -0.1500 
  6 C       -4.0800     2.9940     1.2030 C.ar  1 <1>  -0.1500 
  7 C       -4.2380     3.7220     0.0290 C.ar  1 <1>   0.1170 
  8 N       -3.3880     4.7980    -0.2450 N.am  1 <1>  -0.5470 
  9 C       -3.6890     6.0530    -0.6810 C.2   1 <1>   0.6900 
 10 O       -2.8180     6.7060    -1.2080 O.2   1 <1>  -0.5700 
 11 N       -4.9320     6.5940    -0.5940 N.am  1 <1>  -0.4940 
 12 C       -5.9130     6.3490     0.3360 C.2   1 <1>   0.4420 
 13 S       -7.5580     6.5920    -0.1470 S.3   1 <1>  -0.0800 
 14 N       -5.8130     5.9440     1.5510 N.2   1 <1>  -0.3380 
 15 C       -8.0180     6.0280     1.4250 C.2   1 <1>   0.1980 
 16 N       -7.0190     5.7590     2.1650 N.2   1 <1>  -0.3380 
 17 C       -9.4960     5.8940     1.7330 C.3   1 <1>   0.1580 
 18 C      -10.1470     4.8080     0.8790 C.2   1 <1>  -0.2760 
 19 C      -11.0980     5.0630    -0.0270 C.2   1 <1>  -0.2880 
 20 C       -9.6270     3.3960     1.1510 C.3   1 <1>  -0.0220 
 21 C      -11.7840     4.0020    -0.8730 C.3   1 <1>  -0.0220 
 22 C      -10.0440     2.4130     0.0480 C.3   1 <1>  -0.1600 
 23 C      -11.5200     2.5920    -0.3270 C.3   1 <1>  -0.1600 
 24 H       -6.9100     2.0570    -1.2340 H     1 <1>   0.1500 
 25 H       -4.8250     1.3890     2.4160 H     1 <1>   0.1500 
 26 H       -5.3790     3.9220    -1.7690 H     1 <1>   0.1500 
 27 H       -3.2970     3.2610     1.8910 H     1 <1>   0.1500 
 28 H       -2.3860     4.6290    -0.1910 H     1 <1>   0.3700 
 29 H       -5.0770     7.3690    -1.2330 H     1 <1>   0.3700 
 30 H       -9.9730     6.8400     1.5560 H     1 <1>   0.0800 
 31 H       -9.6200     5.6530     2.7730 H     1 <1>   0.0800 
 32 H      -11.4600     6.0550    -0.2390 H     1 <1>   0.1500 
 33 H       -8.5530     3.3910     1.2170 H     1 <1>   0.0800 
 34 H      -10.0150     3.0590     2.0970 H     1 <1>   0.0800 
 35 H      -12.8460     4.1800    -0.8850 H     1 <1>   0.0800 
 36 H      -11.4200     4.0760    -1.8830 H     1 <1>   0.0800 
 37 H       -9.8670     1.4050     0.3810 H     1 <1>   0.0800 
 38 H       -9.4380     2.5870    -0.8230 H     1 <1>   0.0800 
 39 H      -11.8050     1.8610    -1.0630 H     1 <1>   0.0800 
 40 H      -12.1240     2.4350     0.5500 H     1 <1>   0.0800 
@<TRIPOS>BOND
  1   1   2  1   
  2   2   3  ar  
  3   2   4  ar  
  4   3   5  ar  
  5   3  24  1   
  6   4   6  ar  
  7   4  25  1   
  8   5   7  ar  
  9   5  26  1   
 10   6   7  ar  
 11   6  27  1   
 12   7   8  1   
 13   8   9  am  
 14   8  28  1   
 15   9  10  2   
 16   9  11  am  
 17  11  12  1   
 18  11  29  1   
 19  12  13  1   
 20  12  14  2   
 21  13  15  1   
 22  14  16  1   
 23  15  16  2   
 24  15  17  1   
 25  17  18  1   
 26  17  30  1   
 27  17  31  1   
 28  18  19  2   
 29  18  20  1   
 30  19  21  1   
 31  19  32  1   
 32  20  22  1   
 33  20  33  1   
 34  20  34  1   
 35  21  23  1   
 36  21  35  1   
 37  21  36  1   
 38  22  23  1   
 39  22  37  1   
 40  22  38  1   
 41  23  39  1   
 42  23  40  1   
@<TRIPOS>SUBSTRUCTURE
  1 ****  15 GROUP 4 **** **** 0

# MOE 2024.06 (io_trps.svl 2023.06)
