@<TRIPOS>MOLECULE
NONAME
50 51 1 0 0 
SMALL
USER_CHARGES


@<TRIPOS>ATOM
  1 S       -0.2840    -0.7570     0.4360 S.o2  1 <1>   1.3330 
  2 O        0.5270    -1.7960    -0.1480 O.2   1 <1>  -0.6500 
  3 O       -1.6940    -0.9650     0.6500 O.2   1 <1>  -0.6500 
  4 N       -0.0750     0.6530    -0.5560 N.am  1 <1>  -0.6930 
  5 C        0.4790    -0.2570     1.9640 C.3   1 <1>  -0.1350 
  6 C       -0.6810     1.8820    -0.2890 C.ar  1 <1>   0.1990 
  7 C        0.6510     0.4490    -1.8560 C.3   1 <1>   0.2570 
  8 C        0.0840     3.0430    -0.2140 C.ar  1 <1>  -0.1500 
  9 C       -2.0540     1.9880    -0.0920 C.ar  1 <1>  -0.1500 
 10 C        2.1770     0.4480    -1.7240 C.2   1 <1>   0.5690 
 11 C       -0.4930     4.2670     0.0710 C.ar  1 <1>  -0.1440 
 12 C       -2.6460     3.2050     0.1950 C.ar  1 <1>  -0.1440 
 13 O        2.8440     0.1010    -2.6690 O.2   1 <1>  -0.5700 
 14 N        2.7040     0.8920    -0.5440 N.am  1 <1>  -0.5470 
 15 C       -1.8610     4.3430     0.2760 C.ar  1 <1>  -0.1500 
 16 C        0.3570     5.5220     0.1550 C.3   1 <1>  -0.0970 
 17 C       -4.1450     3.3010     0.4130 C.3   1 <1>  -0.0970 
 18 C        4.0010     1.1120    -0.0570 C.ar  1 <1>   0.1170 
 19 C        4.1320     1.8110     1.1470 C.ar  1 <1>   0.0830 
 20 C        5.1430     0.6690    -0.7100 C.ar  1 <1>  -0.1500 
 21 O        2.9790     2.2270     1.7560 O.3   1 <1>  -0.3630 
 22 C        5.3970     2.0550     1.6710 C.ar  1 <1>  -0.1500 
 23 C        6.4030     0.9130    -0.1880 C.ar  1 <1>  -0.1430 
 24 C        3.0160     3.0900     2.8720 C.3   1 <1>   0.0400 
 25 C        6.5250     1.6090     1.0030 C.ar  1 <1>  -0.1500 
 26 C        7.6410     0.4250    -0.9180 C.3   1 <1>  -0.0970 
 27 H        0.3820    -1.0380     2.6920 H     1 <1>   0.0800 
 28 H        0.0060     0.6280     2.3440 H     1 <1>   0.0800 
 29 H        1.5220    -0.0600     1.8170 H     1 <1>   0.0800 
 30 H        0.3780     1.2320    -2.5390 H     1 <1>   0.0800 
 31 H        0.3460    -0.4830    -2.2960 H     1 <1>   0.0800 
 32 H        1.1430     2.9970    -0.3780 H     1 <1>   0.1500 
 33 H       -2.6670     1.1100    -0.1720 H     1 <1>   0.1500 
 34 H        1.9940     1.2110     0.1180 H     1 <1>   0.3700 
 35 H       -2.3180     5.2920     0.4960 H     1 <1>   0.1500 
 36 H        0.0520     6.1210     0.9950 H     1 <1>   0.0800 
 37 H        0.2410     6.1000    -0.7440 H     1 <1>   0.0800 
 38 H        1.3960     5.2730     0.2740 H     1 <1>   0.0800 
 39 H       -4.5650     2.3310     0.6090 H     1 <1>   0.0800 
 40 H       -4.6150     3.7100    -0.4640 H     1 <1>   0.0800 
 41 H       -4.3590     3.9390     1.2520 H     1 <1>   0.0800 
 42 H        5.0490     0.1280    -1.6340 H     1 <1>   0.1500 
 43 H        5.5300     2.5870     2.5930 H     1 <1>   0.1500 
 44 H        2.0040     3.3460     3.1310 H     1 <1>   0.0800 
 45 H        3.5610     3.9790     2.6090 H     1 <1>   0.0800 
 46 H        3.4860     2.5800     3.6940 H     1 <1>   0.0800 
 47 H        7.5000     1.8050     1.4140 H     1 <1>   0.1500 
 48 H        7.4050    -0.4220    -1.5380 H     1 <1>   0.0800 
 49 H        8.3990     0.1290    -0.2160 H     1 <1>   0.0800 
 50 H        8.0290     1.2110    -1.5410 H     1 <1>   0.0800 
@<TRIPOS>BOND
  1   1   2  2   
  2   1   3  2   
  3   1   4  am  
  4   1   5  1   
  5   4   6  1   
  6   4   7  1   
  7   5  27  1   
  8   5  28  1   
  9   5  29  1   
 10   6   8  ar  
 11   6   9  ar  
 12   7  10  1   
 13   7  30  1   
 14   7  31  1   
 15   8  11  ar  
 16   8  32  1   
 17   9  12  ar  
 18   9  33  1   
 19  10  13  2   
 20  10  14  am  
 21  11  15  ar  
 22  11  16  1   
 23  12  15  ar  
 24  12  17  1   
 25  14  18  1   
 26  14  34  1   
 27  15  35  1   
 28  16  36  1   
 29  16  37  1   
 30  16  38  1   
 31  17  39  1   
 32  17  40  1   
 33  17  41  1   
 34  18  19  ar  
 35  18  20  ar  
 36  19  21  1   
 37  19  22  ar  
 38  20  23  ar  
 39  20  42  1   
 40  21  24  1   
 41  22  25  ar  
 42  22  43  1   
 43  23  25  ar  
 44  23  26  1   
 45  24  44  1   
 46  24  45  1   
 47  24  46  1   
 48  25  47  1   
 49  26  48  1   
 50  26  49  1   
 51  26  50  1   
@<TRIPOS>SUBSTRUCTURE
  1 ****  14 GROUP 4 **** **** 0

# MOE 2024.06 (io_trps.svl 2023.06)
