@<TRIPOS>MOLECULE
NONAME
48 50 1 0 0 
SMALL
USER_CHARGES


@<TRIPOS>ATOM
  1 CL      -1.5970     3.2470    -2.4630 Cl    1 <1>  -0.1770 
  2 C       -2.4630     2.6580    -1.0610 C.ar  1 <1>   0.1770 
  3 C       -1.8070     2.5020     0.1550 C.ar  1 <1>   0.0830 
  4 C       -3.8010     2.3590    -1.2040 C.ar  1 <1>  -0.1500 
  5 O       -0.4900     2.8140     0.2260 O.3   1 <1>  -0.3630 
  6 C       -2.5420     2.0350     1.2410 C.ar  1 <1>  -0.1500 
  7 C       -4.5500     1.8870    -0.1260 C.ar  1 <1>   0.0860 
  8 C        0.2550     2.6900     1.4170 C.3   1 <1>   0.0400 
  9 C       -3.8860     1.7370     1.0970 C.ar  1 <1>  -0.1500 
 10 C       -5.9570     1.5780    -0.2830 C.2   1 <1>   0.5440 
 11 O       -6.6400     2.2590    -1.0250 O.2   1 <1>  -0.5700 
 12 N       -6.4930     0.5280     0.4210 N.am  1 <1>  -0.5470 
 13 C       -7.7250    -0.1730     0.3970 C.ar  1 <1>   0.1170 
 14 C       -9.0360     0.3700     0.3820 C.ar  1 <1>   0.1000 
 15 C       -7.5890    -1.5570     0.4370 C.ar  1 <1>  -0.1500 
 16 N       -9.3830     1.7280     0.3000 N.pl3 1 <1>  -0.8380 
 17 C      -10.1170    -0.5010     0.4260 C.ar  1 <1>  -0.1500 
 18 C       -8.6820    -2.4030     0.4720 C.ar  1 <1>  -0.1500 
 19 C       -9.6620     2.1730    -1.1100 C.3   1 <1>   0.2090 
 20 C       -8.8000     2.6700     1.3180 C.3   1 <1>   0.2090 
 21 C       -9.9540    -1.8720     0.4700 C.ar  1 <1>  -0.1500 
 22 C       -9.5930     3.6950    -1.3440 C.3   1 <1>   0.3430 
 23 C       -8.7580     4.1530     0.8870 C.3   1 <1>   0.3430 
 24 N       -8.4730     4.3080    -0.5720 N.4   1 <1>  -0.9590 
 25 C       -8.1700     5.7070    -0.9800 C.3   1 <1>   0.2630 
 26 H       -4.2670     2.4910    -2.1650 H     1 <1>   0.1500 
 27 H       -2.0800     1.9010     2.2020 H     1 <1>   0.1500 
 28 H        1.2650     2.9980     1.2110 H     1 <1>   0.0800 
 29 H        0.2460     1.6620     1.7320 H     1 <1>   0.0800 
 30 H       -0.1740     3.3300     2.1680 H     1 <1>   0.0800 
 31 H       -4.4280     1.3900     1.9600 H     1 <1>   0.1500 
 32 H       -5.7800    -0.0090     0.9140 H     1 <1>   0.3700 
 33 H       -6.6090    -1.9980     0.4380 H     1 <1>   0.1500 
 34 H      -11.1110    -0.0930     0.4270 H     1 <1>   0.1500 
 35 H       -8.5430    -3.4700     0.5010 H     1 <1>   0.1500 
 36 H      -10.6390     1.8250    -1.3960 H     1 <1>   0.0800 
 37 H       -8.9590     1.6940    -1.7700 H     1 <1>   0.0800 
 38 H       -7.8030     2.3630     1.5670 H     1 <1>   0.0800 
 39 H       -9.3770     2.5910     2.2220 H     1 <1>   0.0800 
 40 H      -10.8130    -2.5190     0.5020 H     1 <1>   0.1500 
 41 H      -10.5270     4.1370    -1.0430 H     1 <1>   0.0800 
 42 H       -9.4610     3.8750    -2.3980 H     1 <1>   0.0800 
 43 H       -8.0070     4.6600     1.4680 H     1 <1>   0.0800 
 44 H       -9.7100     4.6030     1.1150 H     1 <1>   0.0800 
 45 H       -7.6580     3.6840    -0.7730 H     1 <1>   0.4500 
 46 H       -9.0180     6.3450    -0.7930 H     1 <1>   0.0800 
 47 H       -7.9330     5.7440    -2.0310 H     1 <1>   0.0800 
 48 H       -7.3240     6.0810    -0.4270 H     1 <1>   0.0800 
@<TRIPOS>BOND
  1   1   2  1   
  2   2   3  ar  
  3   2   4  ar  
  4   3   5  1   
  5   3   6  ar  
  6   4   7  ar  
  7   4  26  1   
  8   5   8  1   
  9   6   9  ar  
 10   6  27  1   
 11   7   9  ar  
 12   7  10  1   
 13   8  28  1   
 14   8  29  1   
 15   8  30  1   
 16   9  31  1   
 17  10  11  2   
 18  10  12  am  
 19  12  13  1   
 20  12  32  1   
 21  13  14  ar  
 22  13  15  ar  
 23  14  16  1   
 24  14  17  ar  
 25  15  18  ar  
 26  15  33  1   
 27  16  19  1   
 28  16  20  1   
 29  17  21  ar  
 30  17  34  1   
 31  18  21  ar  
 32  18  35  1   
 33  19  22  1   
 34  19  36  1   
 35  19  37  1   
 36  20  23  1   
 37  20  38  1   
 38  20  39  1   
 39  21  40  1   
 40  22  24  1   
 41  22  41  1   
 42  22  42  1   
 43  23  24  1   
 44  23  43  1   
 45  23  44  1   
 46  24  25  1   
 47  24  45  1   
 48  25  46  1   
 49  25  47  1   
 50  25  48  1   
@<TRIPOS>SUBSTRUCTURE
  1 ****  10 GROUP 4 **** **** 0

# MOE 2024.06 (io_trps.svl 2023.06)
