@<TRIPOS>MOLECULE
NONAME
53 54 1 0 0 
SMALL
USER_CHARGES


@<TRIPOS>ATOM
  1 O       -9.5720     3.2180    -0.2480 O.3   1 <1>  -0.3630 
  2 C      -10.8220     3.7500    -0.3250 C.ar  1 <1>   0.0830 
  3 C       -8.4250     3.9220    -0.6840 C.3   1 <1>   0.1200 
  4 C      -11.9030     2.9560     0.0650 C.ar  1 <1>  -0.1440 
  5 C      -11.0450     5.0510    -0.7750 C.ar  1 <1>  -0.1500 
  6 C       -7.1890     3.0380    -0.4800 C.3   1 <1>   0.2000 
  7 C      -13.1820     3.4910    -0.0040 C.ar  1 <1>  -0.1500 
  8 C      -11.7170     1.5180     0.5670 C.3   1 <1>   0.0640 
  9 C      -12.3260     5.5680    -0.8420 C.ar  1 <1>  -0.1440 
 10 O       -7.1990     2.5760     0.8310 O.3   1 <1>  -0.6800 
 11 C       -5.8790     3.8000    -0.8120 C.3   1 <1>   0.1100 
 12 C      -13.3940     4.7820    -0.4530 C.ar  1 <1>  -0.1500 
 13 C      -12.4630     0.5210    -0.3280 C.3   1 <1>  -0.2400 
 14 C      -12.1750     1.3850     2.0230 C.3   1 <1>  -0.2400 
 15 C      -12.5650     6.9860    -1.3320 C.3   1 <1>  -0.0970 
 16 N       -4.5870     3.1220    -0.5130 N.3   1 <1>  -0.8100 
 17 C       -4.1750     3.2750     0.9070 C.3   1 <1>   0.1100 
 18 C       -4.5430     1.6990    -0.9280 C.3   1 <1>   0.1100 
 19 C       -2.8370     2.5630     1.2210 C.3   1 <1>   0.3430 
 20 C       -3.1470     1.0660    -0.7080 C.3   1 <1>   0.3430 
 21 N       -2.2090     2.0220    -0.0290 N.4   1 <1>  -0.9590 
 22 C       -0.8430     1.4650     0.1830 C.3   1 <1>   0.2630 
 23 H       -8.3380     4.8250    -0.1060 H     1 <1>   0.0800 
 24 H       -8.5480     4.1620    -1.7260 H     1 <1>   0.0800 
 25 H      -10.2320     5.6800    -1.0760 H     1 <1>   0.1500 
 26 H       -7.2790     2.1830    -1.1270 H     1 <1>   0.0800 
 27 H      -14.0310     2.9030     0.2930 H     1 <1>   0.1500 
 28 H      -10.6770     1.2480     0.5360 H     1 <1>   0.0800 
 29 H       -8.1330     2.3870     1.0720 H     1 <1>   0.4000 
 30 H       -5.8960     4.7520    -0.3100 H     1 <1>   0.0800 
 31 H       -5.8940     4.0160    -1.8670 H     1 <1>   0.0800 
 32 H      -14.3970     5.1700    -0.4950 H     1 <1>   0.1500 
 33 H      -13.5250     0.6780    -0.2830 H     1 <1>   0.0800 
 34 H      -12.2520    -0.4870    -0.0170 H     1 <1>   0.0800 
 35 H      -12.1410     0.6390    -1.3480 H     1 <1>   0.0800 
 36 H      -13.2300     1.5720     2.1140 H     1 <1>   0.0800 
 37 H      -11.6480     2.0940     2.6360 H     1 <1>   0.0800 
 38 H      -11.9690     0.3960     2.3900 H     1 <1>   0.0800 
 39 H      -11.7700     7.3020    -1.9830 H     1 <1>   0.0800 
 40 H      -12.6140     7.6560    -0.4930 H     1 <1>   0.0800 
 41 H      -13.4910     7.0420    -1.8760 H     1 <1>   0.0800 
 42 H       -4.9270     2.8810     1.5670 H     1 <1>   0.0800 
 43 H       -4.0730     4.3230     1.1320 H     1 <1>   0.0800 
 44 H       -4.8050     1.6190    -1.9690 H     1 <1>   0.0800 
 45 H       -5.2660     1.1330    -0.3640 H     1 <1>   0.0800 
 46 H       -3.0220     1.7610     1.9150 H     1 <1>   0.0800 
 47 H       -2.1720     3.2640     1.6980 H     1 <1>   0.0800 
 48 H       -2.7420     0.7780    -1.6640 H     1 <1>   0.0800 
 49 H       -3.2560     0.1730    -0.1160 H     1 <1>   0.0800 
 50 H       -2.1860     2.8370    -0.6630 H     1 <1>   0.4500 
 51 H       -0.8830     0.6180     0.8480 H     1 <1>   0.0800 
 52 H       -0.1980     2.2130     0.6160 H     1 <1>   0.0800 
 53 H       -0.4190     1.1490    -0.7560 H     1 <1>   0.0800 
@<TRIPOS>BOND
  1   1   2  1   
  2   1   3  1   
  3   2   4  ar  
  4   2   5  ar  
  5   3   6  1   
  6   3  23  1   
  7   3  24  1   
  8   4   7  ar  
  9   4   8  1   
 10   5   9  ar  
 11   5  25  1   
 12   6  10  1   
 13   6  11  1   
 14   6  26  1   
 15   7  12  ar  
 16   7  27  1   
 17   8  13  1   
 18   8  14  1   
 19   8  28  1   
 20   9  12  ar  
 21   9  15  1   
 22  10  29  1   
 23  11  16  1   
 24  11  30  1   
 25  11  31  1   
 26  12  32  1   
 27  13  33  1   
 28  13  34  1   
 29  13  35  1   
 30  14  36  1   
 31  14  37  1   
 32  14  38  1   
 33  15  39  1   
 34  15  40  1   
 35  15  41  1   
 36  16  17  1   
 37  16  18  1   
 38  17  19  1   
 39  17  42  1   
 40  17  43  1   
 41  18  20  1   
 42  18  44  1   
 43  18  45  1   
 44  19  21  1   
 45  19  46  1   
 46  19  47  1   
 47  20  21  1   
 48  20  48  1   
 49  20  49  1   
 50  21  22  1   
 51  21  50  1   
 52  22  51  1   
 53  22  52  1   
 54  22  53  1   
@<TRIPOS>SUBSTRUCTURE
  1 ****   3 GROUP 4 **** **** 0

# MOE 2024.06 (io_trps.svl 2023.06)
