@<TRIPOS>MOLECULE
NONAME
40 40 1 0 0 
SMALL
USER_CHARGES


@<TRIPOS>ATOM
  1 O        0.2530    -0.1140     0.3500 O.3   1 <1>  -0.5600 
  2 C        1.3870    -0.8000    -0.0470 C.3   1 <1>   0.1200 
  3 C       -0.9490    -0.7470     0.0340 C.3   1 <1>   0.0400 
  4 C        2.5810     0.0500     0.3960 C.3   1 <1>   0.3430 
  5 N        3.8920    -0.5540    -0.0120 N.4   1 <1>  -0.9060 
  6 C        5.0740     0.2230     0.4400 C.3   1 <1>   0.4230 
  7 C        5.1880     1.5410    -0.3340 C.3   1 <1>  -0.1600 
  8 C        6.3320    -0.6220     0.2320 C.3   1 <1>  -0.1600 
  9 C        6.4590     2.3000     0.0540 C.3   1 <1>   0.3430 
 10 C        7.5910     0.1570     0.6170 C.3   1 <1>   0.3430 
 11 N        7.6580     1.4370    -0.1510 N.4   1 <1>  -0.9590 
 12 C        8.8930     2.2100     0.1890 C.3   1 <1>   0.3430 
 13 C       10.1330     1.5280    -0.3940 C.3   1 <1>  -0.1600 
 14 C       11.3840     2.3790    -0.1530 C.3   1 <1>  -0.2400 
 15 H        1.3580    -0.9080    -1.1180 H     1 <1>   0.0800 
 16 H        1.3890    -1.7610     0.4370 H     1 <1>   0.0800 
 17 H       -1.7570    -0.1280     0.3860 H     1 <1>   0.0800 
 18 H       -0.9920    -1.7040     0.5240 H     1 <1>   0.0800 
 19 H       -1.0270    -0.8630    -1.0340 H     1 <1>   0.0800 
 20 H        2.5430     0.1530     1.4690 H     1 <1>   0.0800 
 21 H        2.4740     1.0290    -0.0430 H     1 <1>   0.0800 
 22 H        3.9050    -0.6650    -1.0350 H     1 <1>   0.4500 
 23 H        3.9360    -1.5030     0.3830 H     1 <1>   0.4500 
 24 H        4.9740     0.4400     1.4940 H     1 <1>   0.0800 
 25 H        4.3480     2.1750    -0.1110 H     1 <1>   0.0800 
 26 H        5.2010     1.3610    -1.3950 H     1 <1>   0.0800 
 27 H        6.4190    -0.9330    -0.7950 H     1 <1>   0.0800 
 28 H        6.2840    -1.5030     0.8470 H     1 <1>   0.0800 
 29 H        6.4020     2.6030     1.0880 H     1 <1>   0.0800 
 30 H        6.5430     3.1930    -0.5480 H     1 <1>   0.0800 
 31 H        8.4610    -0.4460     0.4080 H     1 <1>   0.0800 
 32 H        7.5820     0.3680     1.6760 H     1 <1>   0.0800 
 33 H        7.7380     1.2180    -1.1560 H     1 <1>   0.4500 
 34 H        8.9970     2.3070     1.2580 H     1 <1>   0.0800 
 35 H        8.8260     3.2030    -0.2290 H     1 <1>   0.0800 
 36 H       10.0150     1.3930    -1.4550 H     1 <1>   0.0800 
 37 H       10.2900     0.5680     0.0640 H     1 <1>   0.0800 
 38 H       11.2900     3.3440    -0.6210 H     1 <1>   0.0800 
 39 H       12.2480     1.8890    -0.5700 H     1 <1>   0.0800 
 40 H       11.5570     2.5210     0.9010 H     1 <1>   0.0800 
@<TRIPOS>BOND
  1   1   2  1   
  2   1   3  1   
  3   2   4  1   
  4   2  15  1   
  5   2  16  1   
  6   3  17  1   
  7   3  18  1   
  8   3  19  1   
  9   4   5  1   
 10   4  20  1   
 11   4  21  1   
 12   5   6  1   
 13   5  22  1   
 14   5  23  1   
 15   6   7  1   
 16   6   8  1   
 17   6  24  1   
 18   7   9  1   
 19   7  25  1   
 20   7  26  1   
 21   8  10  1   
 22   8  27  1   
 23   8  28  1   
 24   9  11  1   
 25   9  29  1   
 26   9  30  1   
 27  10  11  1   
 28  10  31  1   
 29  10  32  1   
 30  11  12  1   
 31  11  33  1   
 32  12  13  1   
 33  12  34  1   
 34  12  35  1   
 35  13  14  1   
 36  13  36  1   
 37  13  37  1   
 38  14  38  1   
 39  14  39  1   
 40  14  40  1   
@<TRIPOS>SUBSTRUCTURE
  1 ****   6 GROUP 4 **** **** 0

# MOE 2024.06 (io_trps.svl 2023.06)
