@<TRIPOS>MOLECULE
NONAME
43 44 1 0 0 
SMALL
USER_CHARGES


@<TRIPOS>ATOM
  1 S       -0.3290     0.2810    -0.0280 S.o2  1 <1>   1.3330 
  2 O       -0.6390     1.4810     0.7160 O.2   1 <1>  -0.6500 
  3 O       -0.0980     0.3600    -1.4540 O.2   1 <1>  -0.6500 
  4 N       -1.5840    -0.8300     0.2190 N.am  1 <1>  -0.8490 
  5 C        1.0660    -0.5310     0.7650 C.3   1 <1>  -0.0550 
  6 C       -2.8770    -0.1620     0.4790 C.3   1 <1>   0.1960 
  7 C       -1.6720    -1.8560    -0.8200 C.3   1 <1>   0.1960 
  8 C        2.3860     0.2580     0.6960 C.3   1 <1>  -0.2400 
  9 C       -4.0990    -1.0770     0.2630 C.3   1 <1>  -0.0190 
 10 C       -2.5790    -3.0060    -0.3510 C.3   1 <1>  -0.1600 
 11 C       -5.2680    -0.5850     1.1040 C.2   1 <1>   0.5690 
 12 C       -3.7460    -2.5470     0.5450 C.3   1 <1>  -0.1600 
 13 O       -5.1980    -0.6370     2.3080 O.2   1 <1>  -0.5700 
 14 N       -6.3610    -0.0920     0.4700 N.am  1 <1>  -0.7300 
 15 C       -7.5660     0.4300     1.1360 C.3   1 <1>   0.2200 
 16 C       -8.7830    -0.3010     0.5850 C.3   1 <1>  -0.1600 
 17 C       -7.7870     1.8680     0.6860 C.3   1 <1>  -0.1600 
 18 C       -9.1170     0.3860    -0.7460 C.3   1 <1>  -0.1600 
 19 C       -8.4710     1.7760    -0.6830 C.3   1 <1>  -0.1600 
 20 H        1.2170    -1.4890     0.3090 H     1 <1>   0.0800 
 21 H        0.8220    -0.6990     1.7970 H     1 <1>   0.0800 
 22 H       -2.9810     0.7020    -0.1580 H     1 <1>   0.0800 
 23 H       -2.8650     0.1900     1.4980 H     1 <1>   0.0800 
 24 H       -0.6930    -2.2460    -1.0450 H     1 <1>   0.0800 
 25 H       -2.0650    -1.4140    -1.7220 H     1 <1>   0.0800 
 26 H        2.6670     0.4200    -0.3310 H     1 <1>   0.0800 
 27 H        3.1720    -0.2850     1.1910 H     1 <1>   0.0800 
 28 H        2.2690     1.2140     1.1750 H     1 <1>   0.0800 
 29 H       -4.3850    -1.0000    -0.7700 H     1 <1>   0.0800 
 30 H       -1.9870    -3.7230     0.1890 H     1 <1>   0.0800 
 31 H       -2.9650    -3.5040    -1.2220 H     1 <1>   0.0800 
 32 H       -4.6040    -3.1800     0.3970 H     1 <1>   0.0800 
 33 H       -3.4490    -2.6310     1.5780 H     1 <1>   0.0800 
 34 H       -6.4040    -0.0540    -0.5470 H     1 <1>   0.3700 
 35 H       -7.4830     0.3420     2.2070 H     1 <1>   0.0800 
 36 H       -9.6020    -0.1550     1.2670 H     1 <1>   0.0800 
 37 H       -8.6110    -1.3580     0.4790 H     1 <1>   0.0800 
 38 H       -6.8710     2.4330     0.6600 H     1 <1>   0.0800 
 39 H       -8.4600     2.3400     1.3810 H     1 <1>   0.0800 
 40 H      -10.1830     0.4530    -0.8830 H     1 <1>   0.0800 
 41 H       -8.6980    -0.1740    -1.5640 H     1 <1>   0.0800 
 42 H       -7.7380     1.8720    -1.4660 H     1 <1>   0.0800 
 43 H       -9.2040     2.5570    -0.7980 H     1 <1>   0.0800 
@<TRIPOS>BOND
  1   1   2  2   
  2   1   3  2   
  3   1   4  am  
  4   1   5  1   
  5   4   6  1   
  6   4   7  1   
  7   5   8  1   
  8   5  20  1   
  9   5  21  1   
 10   6   9  1   
 11   6  22  1   
 12   6  23  1   
 13   7  10  1   
 14   7  24  1   
 15   7  25  1   
 16   8  26  1   
 17   8  27  1   
 18   8  28  1   
 19   9  11  1   
 20   9  12  1   
 21   9  29  1   
 22  10  12  1   
 23  10  30  1   
 24  10  31  1   
 25  11  13  2   
 26  11  14  am  
 27  12  32  1   
 28  12  33  1   
 29  14  15  1   
 30  14  34  1   
 31  15  16  1   
 32  15  17  1   
 33  15  35  1   
 34  16  18  1   
 35  16  36  1   
 36  16  37  1   
 37  17  19  1   
 38  17  38  1   
 39  17  39  1   
 40  18  19  1   
 41  18  40  1   
 42  18  41  1   
 43  19  42  1   
 44  19  43  1   
@<TRIPOS>SUBSTRUCTURE
  1 ****   9 GROUP 4 **** **** 0

# MOE 2024.06 (io_trps.svl 2023.06)
