@<TRIPOS>MOLECULE
NONAME
45 47 1 0 0 
SMALL
USER_CHARGES


@<TRIPOS>ATOM
  1 O       -0.5310     3.6910     1.5520 O.2   1 <1>  -0.5700 
  2 C       -0.6260     3.1210     0.4850 C.2   1 <1>   0.5690 
  3 N        0.4100     2.3050     0.0670 N.am  1 <1>  -0.6600 
  4 C       -1.9350     3.3270    -0.3430 C.3   1 <1>   0.2040 
  5 C        0.3860     1.3210    -1.0600 C.3   1 <1>   0.1400 
  6 C        1.6280     2.1080     0.9150 C.3   1 <1>   0.1400 
  7 C       -2.6550     1.9650    -0.4970 C.ar  1 <1>  -0.1440 
  8 C       -2.9430     4.2700     0.3670 C.3   1 <1>  -0.1600 
  9 C       -1.5880     4.0200    -1.6870 C.3   1 <1>  -0.1600 
 10 C        0.5320    -0.1090    -0.5160 C.3   1 <1>   0.1200 
 11 C        1.7250     0.6410     1.3660 C.3   1 <1>   0.1200 
 12 C       -3.1680     1.4940    -1.7040 C.ar  1 <1>  -0.1500 
 13 C       -2.7940     1.1570     0.6280 C.ar  1 <1>  -0.1500 
 14 C       -2.4610     5.7280     0.4300 C.3   1 <1>   0.1200 
 15 C       -1.0990     5.4520    -1.4570 C.3   1 <1>   0.1200 
 16 O        1.6920    -0.2210     0.2620 O.3   1 <1>  -0.5600 
 17 C       -3.7780     0.2550    -1.7800 C.ar  1 <1>  -0.1500 
 18 C       -3.4040    -0.0820     0.5560 C.ar  1 <1>  -0.1500 
 19 O       -2.1260     6.1670    -0.8500 O.3   1 <1>  -0.5600 
 20 C       -3.8970    -0.5440    -0.6580 C.ar  1 <1>   0.0820 
 21 O       -4.5000    -1.7480    -0.8220 O.3   1 <1>  -0.3630 
 22 C       -4.7000    -2.6220     0.2660 C.3   1 <1>   0.0400 
 23 H        1.2070     1.5260    -1.7250 H     1 <1>   0.0800 
 24 H       -0.5150     1.3830    -1.6330 H     1 <1>   0.0800 
 25 H        1.6080     2.7440     1.7820 H     1 <1>   0.0800 
 26 H        2.5030     2.3620     0.3450 H     1 <1>   0.0800 
 27 H       -3.1320     3.9230     1.3670 H     1 <1>   0.0800 
 28 H       -3.8800     4.2520    -0.1590 H     1 <1>   0.0800 
 29 H       -2.4590     4.0910    -2.3120 H     1 <1>   0.0800 
 30 H       -0.8360     3.4770    -2.2250 H     1 <1>   0.0800 
 31 H        0.6120    -0.8110    -1.3270 H     1 <1>   0.0800 
 32 H       -0.3190    -0.3740     0.0880 H     1 <1>   0.0800 
 33 H        0.9080     0.3940     2.0220 H     1 <1>   0.0800 
 34 H        2.6510     0.4720     1.8870 H     1 <1>   0.0800 
 35 H       -3.1070     2.0690    -2.6080 H     1 <1>   0.1500 
 36 H       -2.4230     1.4910     1.5830 H     1 <1>   0.1500 
 37 H       -1.6010     5.8440     1.0670 H     1 <1>   0.0800 
 38 H       -3.2460     6.3650     0.7980 H     1 <1>   0.0800 
 39 H       -0.8790     5.9320    -2.3940 H     1 <1>   0.0800 
 40 H       -0.2250     5.4890    -0.8280 H     1 <1>   0.0800 
 41 H       -4.1690    -0.1020    -2.7150 H     1 <1>   0.1500 
 42 H       -3.4840    -0.6690     1.4510 H     1 <1>   0.1500 
 43 H       -5.2020    -3.5000    -0.0990 H     1 <1>   0.0800 
 44 H       -5.3120    -2.1300     1.0010 H     1 <1>   0.0800 
 45 H       -3.7440    -2.8920     0.6770 H     1 <1>   0.0800 
@<TRIPOS>BOND
  1   1   2  2   
  2   2   3  am  
  3   2   4  1   
  4   3   5  1   
  5   3   6  1   
  6   4   7  1   
  7   4   8  1   
  8   4   9  1   
  9   5  10  1   
 10   5  23  1   
 11   5  24  1   
 12   6  11  1   
 13   6  25  1   
 14   6  26  1   
 15   7  12  ar  
 16   7  13  ar  
 17   8  14  1   
 18   8  27  1   
 19   8  28  1   
 20   9  15  1   
 21   9  29  1   
 22   9  30  1   
 23  10  16  1   
 24  10  31  1   
 25  10  32  1   
 26  11  16  1   
 27  11  33  1   
 28  11  34  1   
 29  12  17  ar  
 30  12  35  1   
 31  13  18  ar  
 32  13  36  1   
 33  14  19  1   
 34  14  37  1   
 35  14  38  1   
 36  15  19  1   
 37  15  39  1   
 38  15  40  1   
 39  17  20  ar  
 40  17  41  1   
 41  18  20  ar  
 42  18  42  1   
 43  20  21  1   
 44  21  22  1   
 45  22  43  1   
 46  22  44  1   
 47  22  45  1   
@<TRIPOS>SUBSTRUCTURE
  1 ****   7 GROUP 4 **** **** 0

# MOE 2024.06 (io_trps.svl 2023.06)
