@<TRIPOS>MOLECULE
NONAME
50 52 1 0 0 
SMALL
USER_CHARGES


@<TRIPOS>ATOM
  1 S       -0.3180     0.4610    -1.7280 S.3   1 <1>  -0.0800 
  2 C        0.8120     0.7590    -0.3970 C.2   1 <1>   0.1040 
  3 C       -1.4210     1.6500    -1.0860 C.2   1 <1>  -0.1400 
  4 N        2.0150     0.0740    -0.3480 N.am  1 <1>  -0.4940 
  5 C        0.3240     1.7150     0.4620 C.2   1 <1>  -0.0860 
  6 C       -0.9570     2.2030     0.0200 C.2   1 <1>  -0.1810 
  7 C       -2.7480     2.1230    -1.5810 C.3   1 <1>   0.0200 
  8 C        2.4910    -1.0310    -1.0170 C.2   1 <1>   0.5440 
  9 C        0.9620     2.1890     1.6580 C.2   1 <1>   0.8060 
 10 C       -1.9290     3.2440     0.5390 C.3   1 <1>   0.1620 
 11 C       -3.0900     3.1880    -0.5070 C.3   1 <1>  -0.1600 
 12 O        1.7350    -1.7750    -1.6130 O.2   1 <1>  -0.5700 
 13 C        3.9000    -1.3120    -0.9630 C.ar  1 <1>   0.0860 
 14 O        0.3930     2.8570     2.5030 O.2   1 <1>  -0.5700 
 15 O        2.2480     1.8620     1.8610 O.3   1 <1>  -0.4300 
 16 C       -1.3310     4.6470     0.6710 C.2   1 <1>   0.6590 
 17 C        4.8190    -0.9020    -1.9470 C.ar  1 <1>   0.0830 
 18 C        4.4100    -1.9940     0.1500 C.ar  1 <1>   0.0830 
 19 C        2.9490     2.2890     3.0130 C.3   1 <1>   0.0400 
 20 O       -0.3550     5.0080     0.0600 O.2   1 <1>  -0.5700 
 21 O       -1.9780     5.4660     1.4950 O.3   1 <1>  -0.4300 
 22 O        4.5050    -0.2120    -3.0710 O.3   1 <1>  -0.3630 
 23 C        6.1710    -1.1730    -1.7970 C.ar  1 <1>  -0.1500 
 24 O        3.5960    -2.3820     1.1510 O.3   1 <1>  -0.3620 
 25 C        5.7620    -2.2580     0.2860 C.ar  1 <1>  -0.1500 
 26 C       -1.5270     6.7830     1.7340 C.3   1 <1>   0.0400 
 27 C        3.3150    -0.4220    -3.8030 C.3   1 <1>   0.0400 
 28 C        6.6480    -1.8500    -0.6900 C.ar  1 <1>  -0.1500 
 29 C        2.9320    -3.6180     0.9950 C.3   1 <1>   0.0400 
 30 H        2.6760     0.4380     0.3420 H     1 <1>   0.3700 
 31 H       -3.4600     1.3170    -1.5910 H     1 <1>   0.0800 
 32 H       -2.6540     2.5590    -2.5610 H     1 <1>   0.0800 
 33 H       -2.2850     2.9330     1.5040 H     1 <1>   0.0800 
 34 H       -4.0110     2.9300    -0.0140 H     1 <1>   0.0800 
 35 H       -3.2150     4.1470    -0.9790 H     1 <1>   0.0800 
 36 H        2.4540     1.9010     3.8870 H     1 <1>   0.0800 
 37 H        2.9570     3.3650     3.0370 H     1 <1>   0.0800 
 38 H        3.9550     1.9130     2.9600 H     1 <1>   0.0800 
 39 H        6.8550    -0.8450    -2.5600 H     1 <1>   0.1500 
 40 H        6.1150    -2.7790     1.1590 H     1 <1>   0.1500 
 41 H       -2.2010     7.2540     2.4280 H     1 <1>   0.0800 
 42 H       -1.5150     7.3220     0.8020 H     1 <1>   0.0800 
 43 H       -0.5360     6.7400     2.1510 H     1 <1>   0.0800 
 44 H        3.4710    -0.0670    -4.8050 H     1 <1>   0.0800 
 45 H        2.5150     0.1340    -3.3480 H     1 <1>   0.0800 
 46 H        3.0890    -1.4740    -3.8210 H     1 <1>   0.0800 
 47 H        7.7000    -2.0530    -0.5910 H     1 <1>   0.1500 
 48 H        2.3490    -3.8010     1.8790 H     1 <1>   0.0800 
 49 H        3.6650    -4.3940     0.8670 H     1 <1>   0.0800 
 50 H        2.2860    -3.5700     0.1360 H     1 <1>   0.0800 
@<TRIPOS>BOND
  1   1   2  1   
  2   1   3  1   
  3   2   4  1   
  4   2   5  2   
  5   3   6  2   
  6   3   7  1   
  7   4   8  am  
  8   4  30  1   
  9   5   6  1   
 10   5   9  1   
 11   6  10  1   
 12   7  11  1   
 13   7  31  1   
 14   7  32  1   
 15   8  12  2   
 16   8  13  1   
 17   9  14  2   
 18   9  15  1   
 19  10  11  1   
 20  10  16  1   
 21  10  33  1   
 22  11  34  1   
 23  11  35  1   
 24  13  17  ar  
 25  13  18  ar  
 26  15  19  1   
 27  16  20  2   
 28  16  21  1   
 29  17  22  1   
 30  17  23  ar  
 31  18  24  1   
 32  18  25  ar  
 33  19  36  1   
 34  19  37  1   
 35  19  38  1   
 36  21  26  1   
 37  22  27  1   
 38  23  28  ar  
 39  23  39  1   
 40  24  29  1   
 41  25  28  ar  
 42  25  40  1   
 43  26  41  1   
 44  26  42  1   
 45  26  43  1   
 46  27  44  1   
 47  27  45  1   
 48  27  46  1   
 49  28  47  1   
 50  29  48  1   
 51  29  49  1   
 52  29  50  1   
@<TRIPOS>SUBSTRUCTURE
  1 ****   2 GROUP 4 **** **** 0

# MOE 2024.06 (io_trps.svl 2023.06)
