@<TRIPOS>MOLECULE
NONAME
32 32 1 0 0 
SMALL
USER_CHARGES


@<TRIPOS>ATOM
  1 CL      -0.4670    -0.1630    -0.1230 Cl    1 <1>  -0.1770 
  2 C        0.5640    -1.5770    -0.0500 C.ar  1 <1>   0.1770 
  3 C       -0.0020    -2.8460     0.0020 C.ar  1 <1>   0.0820 
  4 C        1.9330    -1.3950    -0.0460 C.ar  1 <1>  -0.1500 
  5 O       -1.3590    -2.9410    -0.0060 O.3   1 <1>  -0.3630 
  6 C        0.8450    -3.9500     0.0590 C.ar  1 <1>  -0.1500 
  7 C        2.7710    -2.4980     0.0130 C.ar  1 <1>  -0.1440 
  8 C       -2.0230    -4.1770     0.0460 C.3   1 <1>   0.1200 
  9 C        2.2190    -3.7690     0.0630 C.ar  1 <1>  -0.1500 
 10 C        4.2790    -2.3180     0.0170 C.3   1 <1>  -0.0960 
 11 C       -3.5220    -3.8680     0.0210 C.3   1 <1>   0.3430 
 12 N       -4.3540    -5.1100     0.0720 N.4   1 <1>  -0.9060 
 13 C       -5.8110    -4.7790     0.0460 C.3   1 <1>   0.3430 
 14 C       -6.6870    -6.0370     0.0970 C.3   1 <1>   0.1200 
 15 O       -8.0040    -5.6220     0.0680 O.3   1 <1>  -0.6800 
 16 H        2.3330    -0.3980    -0.0890 H     1 <1>   0.1500 
 17 H        0.4670    -4.9530     0.1000 H     1 <1>   0.1500 
 18 H       -1.7400    -4.6680     0.9610 H     1 <1>   0.0800 
 19 H       -1.7270    -4.7500    -0.8140 H     1 <1>   0.0800 
 20 H        2.8670    -4.6290     0.1060 H     1 <1>   0.1500 
 21 H        4.5440    -1.3420     0.3830 H     1 <1>   0.0800 
 22 H        4.6620    -2.4280    -0.9820 H     1 <1>   0.0800 
 23 H        4.7420    -3.0540     0.6500 H     1 <1>   0.0800 
 24 H       -3.7440    -3.3200    -0.8820 H     1 <1>   0.0800 
 25 H       -3.7570    -3.2400     0.8650 H     1 <1>   0.0800 
 26 H       -4.1400    -5.6350     0.9300 H     1 <1>   0.4500 
 27 H       -4.1270    -5.7120    -0.7310 H     1 <1>   0.4500 
 28 H       -6.0450    -4.2360    -0.8570 H     1 <1>   0.0800 
 29 H       -6.0580    -4.1550     0.8900 H     1 <1>   0.0800 
 30 H       -6.5330    -6.5860     1.0100 H     1 <1>   0.0800 
 31 H       -6.5190    -6.6680    -0.7590 H     1 <1>   0.0800 
 32 H       -8.6300    -6.3790     0.0980 H     1 <1>   0.4000 
@<TRIPOS>BOND
  1   1   2  1   
  2   2   3  ar  
  3   2   4  ar  
  4   3   5  1   
  5   3   6  ar  
  6   4   7  ar  
  7   4  16  1   
  8   5   8  1   
  9   6   9  ar  
 10   6  17  1   
 11   7   9  ar  
 12   7  10  1   
 13   8  11  1   
 14   8  18  1   
 15   8  19  1   
 16   9  20  1   
 17  10  21  1   
 18  10  22  1   
 19  10  23  1   
 20  11  12  1   
 21  11  24  1   
 22  11  25  1   
 23  12  13  1   
 24  12  26  1   
 25  12  27  1   
 26  13  14  1   
 27  13  28  1   
 28  13  29  1   
 29  14  15  1   
 30  14  30  1   
 31  14  31  1   
 32  15  32  1   
@<TRIPOS>SUBSTRUCTURE
  1 ****   5 GROUP 4 **** **** 0

# MOE 2024.06 (io_trps.svl 2023.06)
