@<TRIPOS>MOLECULE
NONAME
46 47 1 0 0 
SMALL
USER_CHARGES


@<TRIPOS>ATOM
  1 CL       2.6190     0.4960     0.0570 Cl    1 <1>  -0.1770 
  2 C        2.3730     2.1800     0.4390 C.ar  1 <1>   0.1770 
  3 C        1.1000     2.7080     0.3700 C.ar  1 <1>  -0.1500 
  4 C        3.4590     2.9560     0.8010 C.ar  1 <1>  -0.1500 
  5 C        0.8930     4.0480     0.6740 C.ar  1 <1>   0.1990 
  6 C        3.2600     4.2930     1.1010 C.ar  1 <1>  -0.1500 
  7 N       -0.3830     4.5960     0.6120 N.am  1 <1>  -0.6930 
  8 C        1.9850     4.8300     1.0360 C.ar  1 <1>  -0.1500 
  9 S       -0.7910     5.7490    -0.6150 S.o2  1 <1>   1.3330 
 10 C       -1.4490     4.0300     1.4950 C.3   1 <1>   0.3370 
 11 O        0.2090     6.7850    -0.5890 O.2   1 <1>  -0.6500 
 12 O       -2.1860     6.1030    -0.4640 O.2   1 <1>  -0.6500 
 13 C       -0.6050     4.7960    -2.1070 C.3   1 <1>  -0.1350 
 14 C       -2.7320     3.5570     0.7500 C.2   1 <1>   0.5690 
 15 C       -1.6020     4.9670     2.7010 C.3   1 <1>  -0.2400 
 16 O       -2.5710     2.8160    -0.1950 O.2   1 <1>  -0.5700 
 17 N       -4.0230     3.8790     1.1210 N.am  1 <1>  -0.6600 
 18 C       -4.4940     5.2910     1.2860 C.3   1 <1>   0.1400 
 19 C       -5.1310     2.9640     0.7110 C.3   1 <1>   0.1400 
 20 C       -5.1640     5.7940    -0.0110 C.3   1 <1>   0.3430 
 21 C       -5.7600     3.4530    -0.6070 C.3   1 <1>   0.3430 
 22 N       -6.2560     4.8730    -0.4970 N.4   1 <1>  -0.9590 
 23 C       -6.7920     5.3490    -1.8070 C.3   1 <1>   0.2630 
 24 H        0.2780     2.0810     0.0780 H     1 <1>   0.1500 
 25 H        4.4400     2.5190     0.8460 H     1 <1>   0.1500 
 26 H        4.0930     4.9150     1.3820 H     1 <1>   0.1500 
 27 H        1.8300     5.8700     1.2660 H     1 <1>   0.1500 
 28 H       -1.0570     3.1180     1.9080 H     1 <1>   0.0800 
 29 H        0.4050     4.4450    -2.1980 H     1 <1>   0.0800 
 30 H       -0.8320     5.4020    -2.9620 H     1 <1>   0.0800 
 31 H       -1.2620     3.9490    -2.0990 H     1 <1>   0.0800 
 32 H       -1.7770     5.9800     2.3910 H     1 <1>   0.0800 
 33 H       -2.4060     4.6360     3.3340 H     1 <1>   0.0800 
 34 H       -0.6960     4.9490     3.2800 H     1 <1>   0.0800 
 35 H       -3.6800     5.9490     1.5110 H     1 <1>   0.0800 
 36 H       -5.1890     5.3450     2.1060 H     1 <1>   0.0800 
 37 H       -5.8750     2.9240     1.4870 H     1 <1>   0.0800 
 38 H       -4.7520     1.9640     0.5750 H     1 <1>   0.0800 
 39 H       -4.4050     5.8780    -0.7710 H     1 <1>   0.0800 
 40 H       -5.5620     6.7810     0.1590 H     1 <1>   0.0800 
 41 H       -6.5720     2.7980    -0.8760 H     1 <1>   0.0800 
 42 H       -5.0100     3.3870    -1.3780 H     1 <1>   0.0800 
 43 H       -7.0140     4.8900     0.2000 H     1 <1>   0.4500 
 44 H       -6.0130     5.3440    -2.5530 H     1 <1>   0.0800 
 45 H       -7.1740     6.3530    -1.7150 H     1 <1>   0.0800 
 46 H       -7.5920     4.7080    -2.1410 H     1 <1>   0.0800 
@<TRIPOS>BOND
  1   1   2  1   
  2   2   3  ar  
  3   2   4  ar  
  4   3   5  ar  
  5   3  24  1   
  6   4   6  ar  
  7   4  25  1   
  8   5   7  1   
  9   5   8  ar  
 10   6   8  ar  
 11   6  26  1   
 12   7   9  am  
 13   7  10  1   
 14   8  27  1   
 15   9  11  2   
 16   9  12  2   
 17   9  13  1   
 18  10  14  1   
 19  10  15  1   
 20  10  28  1   
 21  13  29  1   
 22  13  30  1   
 23  13  31  1   
 24  14  16  2   
 25  14  17  am  
 26  15  32  1   
 27  15  33  1   
 28  15  34  1   
 29  17  18  1   
 30  17  19  1   
 31  18  20  1   
 32  18  35  1   
 33  18  36  1   
 34  19  21  1   
 35  19  37  1   
 36  19  38  1   
 37  20  22  1   
 38  20  39  1   
 39  20  40  1   
 40  21  22  1   
 41  21  41  1   
 42  21  42  1   
 43  22  23  1   
 44  22  43  1   
 45  23  44  1   
 46  23  45  1   
 47  23  46  1   
@<TRIPOS>SUBSTRUCTURE
  1 ****   7 GROUP 4 **** **** 0

# MOE 2024.06 (io_trps.svl 2023.06)
