@<TRIPOS>MOLECULE
NONAME
38 41 1 0 0 
SMALL
USER_CHARGES


@<TRIPOS>ATOM
  1 O       -0.4770     0.9960     0.3890 O.2   1 <1>  -0.5700 
  2 C       -0.3260    -0.1990     0.3980 C.2   1 <1>   0.7200 
  3 O        0.8320    -0.8080     0.1450 O.3   1 <1>  -0.2330 
  4 C       -1.4820    -1.1350     0.7240 C.3   1 <1>  -0.1000 
  5 C        2.0490    -0.2590    -0.1060 C.ar  1 <1>   0.0820 
  6 C       -1.9310    -2.1990    -0.2440 C.3   1 <1>  -0.1950 
  7 C       -2.7910    -1.0090    -0.0010 C.3   1 <1>  -0.1950 
  8 C        2.4480     0.9790     0.3370 C.ar  1 <1>  -0.1500 
  9 C        2.9370    -1.0440    -0.8530 C.ar  1 <1>  -0.1500 
 10 C       -2.7100    -3.4830     0.0460 C.3   1 <1>  -0.0650 
 11 C       -4.0720    -0.9460    -0.8360 C.3   1 <1>  -0.0650 
 12 C        3.7300     1.4830     0.0440 C.ar  1 <1>   0.0000 
 13 C        4.1890    -0.5810    -1.1480 C.ar  1 <1>  -0.1500 
 14 C       -3.9660    -3.5160    -0.8470 C.3   1 <1>  -0.1600 
 15 C       -4.8540    -2.2640    -0.6580 C.3   1 <1>  -0.1600 
 16 C        4.6200     0.6880    -0.7120 C.ar  1 <1>   0.0000 
 17 C        4.1610     2.7530     0.4790 C.ar  1 <1>  -0.1500 
 18 C        5.9030     1.1940    -0.9990 C.ar  1 <1>  -0.1500 
 19 C        5.4130     3.2190     0.1850 C.ar  1 <1>  -0.1500 
 20 C        6.2940     2.4300    -0.5630 C.ar  1 <1>  -0.1500 
 21 H       -1.4720    -1.4100     1.7630 H     1 <1>   0.1000 
 22 H       -1.4430    -2.2380    -1.2030 H     1 <1>   0.1000 
 23 H       -3.3410    -0.8300     0.9090 H     1 <1>   0.1000 
 24 H        1.7960     1.5980     0.9240 H     1 <1>   0.1500 
 25 H        2.6120    -2.0130    -1.1870 H     1 <1>   0.1500 
 26 H       -3.0070    -3.5060     1.0810 H     1 <1>   0.0800 
 27 H       -2.0890    -4.3410    -0.1440 H     1 <1>   0.0800 
 28 H       -3.8040    -0.8310    -1.8720 H     1 <1>   0.0800 
 29 H       -4.6820    -0.1030    -0.5570 H     1 <1>   0.0800 
 30 H        4.8710    -1.1830    -1.7210 H     1 <1>   0.1500 
 31 H       -4.5390    -4.3990    -0.6240 H     1 <1>   0.0800 
 32 H       -3.6600    -3.5760    -1.8770 H     1 <1>   0.0800 
 33 H       -5.6710    -2.2930    -1.3580 H     1 <1>   0.0800 
 34 H       -5.2750    -2.2870     0.3330 H     1 <1>   0.0800 
 35 H        3.4780     3.3550     1.0510 H     1 <1>   0.1500 
 36 H        6.5770     0.5850    -1.5740 H     1 <1>   0.1500 
 37 H        5.7340     4.1900     0.5200 H     1 <1>   0.1500 
 38 H        7.2760     2.8110    -0.7860 H     1 <1>   0.1500 
@<TRIPOS>BOND
  1   1   2  2   
  2   2   3  1   
  3   2   4  1   
  4   3   5  1   
  5   4   6  1   
  6   4   7  1   
  7   4  21  1   
  8   5   8  ar  
  9   5   9  ar  
 10   6   7  1   
 11   6  10  1   
 12   6  22  1   
 13   7  11  1   
 14   7  23  1   
 15   8  12  ar  
 16   8  24  1   
 17   9  13  ar  
 18   9  25  1   
 19  10  14  1   
 20  10  26  1   
 21  10  27  1   
 22  11  15  1   
 23  11  28  1   
 24  11  29  1   
 25  12  16  ar  
 26  12  17  ar  
 27  13  16  ar  
 28  13  30  1   
 29  14  15  1   
 30  14  31  1   
 31  14  32  1   
 32  15  33  1   
 33  15  34  1   
 34  16  18  ar  
 35  17  19  ar  
 36  17  35  1   
 37  18  20  ar  
 38  18  36  1   
 39  19  20  ar  
 40  19  37  1   
 41  20  38  1   
@<TRIPOS>SUBSTRUCTURE
  1 ****   3 GROUP 4 **** **** 0

# MOE 2024.06 (io_trps.svl 2023.06)
