@<TRIPOS>MOLECULE
NONAME
49 51 1 0 0 
SMALL
USER_CHARGES


@<TRIPOS>ATOM
  1 O        0.1770    -0.9720     0.3840 O.2   1 <1>  -0.5700 
  2 C       -0.0300     0.2100     0.2350 C.2   1 <1>   0.5690 
  3 N        0.9250     1.1720     0.3840 N.am  1 <1>  -0.5470 
  4 C       -1.4360     0.6480    -0.1520 C.3   1 <1>   0.1810 
  5 C        2.3000     1.1690     0.6640 C.ar  1 <1>   0.1170 
  6 O       -1.5060     2.0570    -0.3360 O.3   1 <1>  -0.3630 
  7 C        2.9700     2.3970     0.5530 C.ar  1 <1>   0.1000 
  8 C        3.0030     0.0340     1.0420 C.ar  1 <1>  -0.1500 
  9 C       -2.6670     2.6900    -0.6490 C.ar  1 <1>   0.0830 
 10 N        2.2640     3.5520     0.1620 N.pl3 1 <1>  -0.8380 
 11 C        4.3330     2.4460     0.8200 C.ar  1 <1>  -0.1500 
 12 C        4.3600     0.1010     1.3080 C.ar  1 <1>  -0.1500 
 13 C       -2.6750     4.0870    -0.6540 C.ar  1 <1>  -0.1430 
 14 C       -3.8270     1.9870    -0.9630 C.ar  1 <1>  -0.1500 
 15 C        2.3370     4.7740     1.0230 C.3   1 <1>   0.2090 
 16 C        2.2010     3.8370    -1.3050 C.3   1 <1>   0.2090 
 17 C        5.0250     1.3080     1.1960 C.ar  1 <1>  -0.1500 
 18 C       -3.8450     4.7640    -0.9920 C.ar  1 <1>  -0.1430 
 19 C       -1.4140     4.8750    -0.2960 C.3   1 <1>  -0.0970 
 20 C       -4.9840     2.6670    -1.2870 C.ar  1 <1>  -0.1500 
 21 C        3.2610     5.8620     0.4400 C.3   1 <1>   0.1200 
 22 C        3.1650     4.9630    -1.7160 C.3   1 <1>   0.1200 
 23 C       -4.9900     4.0480    -1.3020 C.ar  1 <1>  -0.1500 
 24 C       -3.9120     6.2860    -1.0340 C.3   1 <1>  -0.0970 
 25 O        2.9860     6.0950    -0.9120 O.3   1 <1>  -0.5600 
 26 H        0.6030     2.1310     0.2090 H     1 <1>   0.3700 
 27 H       -2.1230     0.3720     0.6270 H     1 <1>   0.0800 
 28 H       -1.7100     0.1700    -1.0740 H     1 <1>   0.0800 
 29 H        2.4950    -0.9080     1.1330 H     1 <1>   0.1500 
 30 H        4.8580     3.3760     0.7280 H     1 <1>   0.1500 
 31 H        4.8930    -0.7870     1.6010 H     1 <1>   0.1500 
 32 H       -3.8550     0.9150    -0.9660 H     1 <1>   0.1500 
 33 H        2.6800     4.5030     2.0070 H     1 <1>   0.0800 
 34 H        1.3480     5.1830     1.1280 H     1 <1>   0.0800 
 35 H        1.1970     4.1210    -1.5660 H     1 <1>   0.0800 
 36 H        2.4410     2.9440    -1.8570 H     1 <1>   0.0800 
 37 H        6.0810     1.3620     1.4000 H     1 <1>   0.1500 
 38 H       -0.6830     4.2640     0.1990 H     1 <1>   0.0800 
 39 H       -1.6520     5.6830     0.3710 H     1 <1>   0.0800 
 40 H       -0.9720     5.2780    -1.1890 H     1 <1>   0.0800 
 41 H       -5.8810     2.1240    -1.5290 H     1 <1>   0.1500 
 42 H        4.2920     5.5740     0.5350 H     1 <1>   0.0800 
 43 H        3.1160     6.7870     0.9680 H     1 <1>   0.0800 
 44 H        2.9820     5.2510    -2.7350 H     1 <1>   0.0800 
 45 H        4.1850     4.6330    -1.6280 H     1 <1>   0.0800 
 46 H       -5.8990     4.5630    -1.5590 H     1 <1>   0.1500 
 47 H       -3.8360     6.6840    -0.0390 H     1 <1>   0.0800 
 48 H       -4.8400     6.6200    -1.4620 H     1 <1>   0.0800 
 49 H       -3.1100     6.6770    -1.6330 H     1 <1>   0.0800 
@<TRIPOS>BOND
  1   1   2  2   
  2   2   3  am  
  3   2   4  1   
  4   3   5  1   
  5   3  26  1   
  6   4   6  1   
  7   4  27  1   
  8   4  28  1   
  9   5   7  ar  
 10   5   8  ar  
 11   6   9  1   
 12   7  10  1   
 13   7  11  ar  
 14   8  12  ar  
 15   8  29  1   
 16   9  13  ar  
 17   9  14  ar  
 18  10  15  1   
 19  10  16  1   
 20  11  17  ar  
 21  11  30  1   
 22  12  17  ar  
 23  12  31  1   
 24  13  18  ar  
 25  13  19  1   
 26  14  20  ar  
 27  14  32  1   
 28  15  21  1   
 29  15  33  1   
 30  15  34  1   
 31  16  22  1   
 32  16  35  1   
 33  16  36  1   
 34  17  37  1   
 35  18  23  ar  
 36  18  24  1   
 37  19  38  1   
 38  19  39  1   
 39  19  40  1   
 40  20  23  ar  
 41  20  41  1   
 42  21  25  1   
 43  21  42  1   
 44  21  43  1   
 45  22  25  1   
 46  22  44  1   
 47  22  45  1   
 48  23  46  1   
 49  24  47  1   
 50  24  48  1   
 51  24  49  1   
@<TRIPOS>SUBSTRUCTURE
  1 ****   3 GROUP 4 **** **** 0

# MOE 2024.06 (io_trps.svl 2023.06)
