@<TRIPOS>MOLECULE
NONAME
43 46 1 0 0 
SMALL
USER_CHARGES


@<TRIPOS>ATOM
  1 O       -1.6080    -5.9070    -0.4730 O.3   1 <1>  -0.5650 
  2 C       -0.7530    -5.1230    -1.2500 C.3   1 <1>   0.1110 
  3 C       -1.9480    -5.3550     0.7630 C.3   1 <1>   0.1110 
  4 C       -1.4050    -3.7580    -1.5420 C.3   1 <1>   0.3360 
  5 C       -2.6570    -4.0030     0.5610 C.3   1 <1>   0.3360 
  6 N       -1.8300    -3.0560    -0.2760 N.4   1 <1>  -0.9610 
  7 C       -2.5440    -1.7800    -0.6130 C.3   1 <1>   0.3360 
  8 C       -2.8490    -0.8950     0.6190 C.3   1 <1>   0.1590 
  9 N       -3.5940     0.3410     0.2410 N.pl3 1 <1>  -0.5800 
 10 C       -3.2130     1.6340     0.3560 C.cat 1 <1>   1.0690 
 11 C       -4.9160     0.3940    -0.2110 C.ar  1 <1>   0.3040 
 12 N       -2.1270     2.2860     0.7600 N.pl3 1 <1>  -0.7040 
 13 N       -4.1580     2.4850    -0.0200 N.pl3 1 <1>  -0.6420 
 14 C       -5.2630     1.7300    -0.3830 C.ar  1 <1>   0.3800 
 15 C       -5.8440    -0.6080    -0.4790 C.ar  1 <1>  -0.1580 
 16 C       -2.4010     3.6360     0.6350 C.2   1 <1>   0.1740 
 17 C       -3.6560     3.7630     0.1540 C.2   1 <1>   0.1920 
 18 C       -6.5210     2.0970    -0.8360 C.ar  1 <1>  -0.1580 
 19 C       -7.0990    -0.2450    -0.9300 C.ar  1 <1>  -0.1580 
 20 C       -1.3800     4.6910     1.0130 C.3   1 <1>  -0.0810 
 21 C       -7.4360     1.0980    -1.1090 C.ar  1 <1>  -0.1580 
 22 H       -0.5710    -5.6520    -2.1690 H     1 <1>   0.0710 
 23 H        0.1830    -5.0090    -0.7300 H     1 <1>   0.0710 
 24 H       -1.0550    -5.2480     1.3540 H     1 <1>   0.0710 
 25 H       -2.6060    -6.0490     1.2590 H     1 <1>   0.0710 
 26 H       -2.2630    -3.9250    -2.1720 H     1 <1>   0.0710 
 27 H       -0.7070    -3.1450    -2.0880 H     1 <1>   0.0710 
 28 H       -2.8580    -3.5680     1.5260 H     1 <1>   0.0710 
 29 H       -3.6010    -4.1890     0.0750 H     1 <1>   0.0710 
 30 H       -0.9640    -2.8640     0.2450 H     1 <1>   0.4440 
 31 H       -3.4690    -2.0220    -1.1110 H     1 <1>   0.0710 
 32 H       -1.9360    -1.2130    -1.2980 H     1 <1>   0.0710 
 33 H       -1.9260    -0.6200     1.0980 H     1 <1>   0.0710 
 34 H       -3.4490    -1.4450     1.3240 H     1 <1>   0.0710 
 35 H       -1.2630     1.8850     1.1220 H     1 <1>   0.4440 
 36 H       -5.6030    -1.6450    -0.3380 H     1 <1>   0.1420 
 37 H       -4.2260     4.6520    -0.0740 H     1 <1>   0.1420 
 38 H       -6.7740     3.1340    -0.9670 H     1 <1>   0.1420 
 39 H       -7.8390    -1.0000    -1.1480 H     1 <1>   0.1420 
 40 H       -0.4910     4.5790     0.4180 H     1 <1>   0.0710 
 41 H       -1.1180     4.6000     2.0520 H     1 <1>   0.0710 
 42 H       -1.7810     5.6750     0.8460 H     1 <1>   0.0710 
 43 H       -8.4240     1.3510    -1.4630 H     1 <1>   0.1420 
@<TRIPOS>BOND
  1   1   2  1   
  2   1   3  1   
  3   2   4  1   
  4   2  22  1   
  5   2  23  1   
  6   3   5  1   
  7   3  24  1   
  8   3  25  1   
  9   4   6  1   
 10   4  26  1   
 11   4  27  1   
 12   5   6  1   
 13   5  28  1   
 14   5  29  1   
 15   6   7  1   
 16   6  30  1   
 17   7   8  1   
 18   7  31  1   
 19   7  32  1   
 20   8   9  1   
 21   8  33  1   
 22   8  34  1   
 23   9  10  ar  
 24   9  11  1   
 25  10  12  ar  
 26  10  13  ar  
 27  11  14  ar  
 28  11  15  ar  
 29  12  16  1   
 30  12  35  1   
 31  13  14  1   
 32  13  17  1   
 33  14  18  ar  
 34  15  19  ar  
 35  15  36  1   
 36  16  17  2   
 37  16  20  1   
 38  17  37  1   
 39  18  21  ar  
 40  18  38  1   
 41  19  21  ar  
 42  19  39  1   
 43  20  40  1   
 44  20  41  1   
 45  20  42  1   
 46  21  43  1   
@<TRIPOS>SUBSTRUCTURE
  1 ****   9 GROUP 4 **** **** 0

# MOE 2024.06 (io_trps.svl 2023.06)
