@<TRIPOS>MOLECULE
NONAME
33 33 1 0 0 
SMALL
USER_CHARGES


@<TRIPOS>ATOM
  1 O       -0.7080     0.3940    -1.1300 O.2   1 <1>  -0.5700 
  2 C       -1.5770     0.7740    -0.3930 C.2   1 <1>   0.6590 
  3 O       -2.3920    -0.0450     0.2420 O.3   1 <1>  -0.4300 
  4 C       -1.9350     2.2230    -0.1190 C.3   1 <1>  -0.0190 
  5 C       -3.4350     0.6110     0.9120 C.3   1 <1>   0.2000 
  6 C       -3.0160     2.0850     0.9580 C.3   1 <1>  -0.1600 
  7 C       -0.7870     3.1410     0.3540 C.3   1 <1>  -0.1600 
  8 C       -4.7190     0.3770     0.1180 C.3   1 <1>  -0.2400 
  9 C        0.3450     3.2990    -0.6750 C.3   1 <1>  -0.0990 
 10 C        1.3220     4.3860    -0.2530 C.2   1 <1>   0.3280 
 11 N        2.2930     4.1050     0.5100 N.2   1 <1>  -0.5120 
 12 C        0.9950     5.7630    -0.8180 C.3   1 <1>  -0.1790 
 13 N        3.2290     5.0420     0.9340 N.am  1 <1>  -0.3680 
 14 C        4.2410     4.8710     1.8500 C.2   1 <1>   0.6900 
 15 O        4.3520     3.8880     2.5490 O.2   1 <1>  -0.5700 
 16 N        5.1570     5.8430     1.9890 N.am  1 <1>  -0.8000 
 17 H       -2.3730     2.6190    -1.0180 H     1 <1>   0.0800 
 18 H       -3.5170     0.1920     1.9020 H     1 <1>   0.0800 
 19 H       -3.8450     2.7510     0.7920 H     1 <1>   0.0800 
 20 H       -2.6120     2.2870     1.9350 H     1 <1>   0.0800 
 21 H       -1.1970     4.1100     0.5780 H     1 <1>   0.0800 
 22 H       -0.3610     2.7490     1.2640 H     1 <1>   0.0800 
 23 H       -4.6280     0.7670    -0.8810 H     1 <1>   0.0800 
 24 H       -5.5450     0.8640     0.6030 H     1 <1>   0.0800 
 25 H       -4.9300    -0.6760     0.0680 H     1 <1>   0.0800 
 26 H       -0.0520     3.5220    -1.6490 H     1 <1>   0.0800 
 27 H        0.8900     2.3730    -0.7500 H     1 <1>   0.0800 
 28 H       -0.0210     6.0180    -0.5820 H     1 <1>   0.0800 
 29 H        1.1090     5.7470    -1.8860 H     1 <1>   0.0800 
 30 H        1.6300     6.5300    -0.4200 H     1 <1>   0.0800 
 31 H        3.1640     5.9820     0.5530 H     1 <1>   0.3700 
 32 H        5.9230     5.6490     2.6340 H     1 <1>   0.3700 
 33 H        5.3430     6.5370     1.2720 H     1 <1>   0.3700 
@<TRIPOS>BOND
  1   1   2  2   
  2   2   3  1   
  3   2   4  1   
  4   3   5  1   
  5   4   6  1   
  6   4   7  1   
  7   4  17  1   
  8   5   6  1   
  9   5   8  1   
 10   5  18  1   
 11   6  19  1   
 12   6  20  1   
 13   7   9  1   
 14   7  21  1   
 15   7  22  1   
 16   8  23  1   
 17   8  24  1   
 18   8  25  1   
 19   9  10  1   
 20   9  26  1   
 21   9  27  1   
 22  10  11  2   
 23  10  12  1   
 24  11  13  1   
 25  12  28  1   
 26  12  29  1   
 27  12  30  1   
 28  13  14  am  
 29  13  31  1   
 30  14  15  2   
 31  14  16  am  
 32  16  32  1   
 33  16  33  1   
@<TRIPOS>SUBSTRUCTURE
  1 ****   7 GROUP 4 **** **** 0

# MOE 2024.06 (io_trps.svl 2023.06)
