@<TRIPOS>MOLECULE
NONAME
55 56 1 0 0 
SMALL
USER_CHARGES


@<TRIPOS>ATOM
  1 O        5.8780    -2.3120    -0.4420 O.3   1 <1>  -0.5600 
  2 C        5.6310    -1.7430     0.8150 C.3   1 <1>   0.2000 
  3 C        5.4800    -1.5960    -1.5840 C.3   1 <1>   0.2000 
  4 C        4.1110    -1.5000     1.0190 C.3   1 <1>   0.3430 
  5 C        6.4860    -0.4800     0.9830 C.3   1 <1>  -0.2400 
  6 C        4.1450    -0.8340    -1.3660 C.3   1 <1>   0.3430 
  7 C        5.3590    -2.6290    -2.7030 C.3   1 <1>  -0.2400 
  8 N        3.3410    -1.4620    -0.2730 N.4   1 <1>  -0.9590 
  9 C        1.9380    -0.9630    -0.1490 C.3   1 <1>   0.3430 
 10 C        1.0320    -2.0510     0.4670 C.3   1 <1>   0.2000 
 11 O        1.4390    -3.2990    -0.0060 O.3   1 <1>  -0.6800 
 12 C       -0.4510    -1.8500     0.1290 C.3   1 <1>   0.1200 
 13 O       -1.1670    -2.9730     0.5960 O.3   1 <1>  -0.3630 
 14 C       -2.5120    -3.0670     0.4430 C.ar  1 <1>   0.0830 
 15 C       -3.2910    -2.1180    -0.2100 C.ar  1 <1>  -0.1500 
 16 C       -3.1230    -4.1840     0.9790 C.ar  1 <1>  -0.1500 
 17 C       -4.6640    -2.2800    -0.3270 C.ar  1 <1>  -0.1430 
 18 C       -4.4890    -4.3510     0.8670 C.ar  1 <1>  -0.1500 
 19 C       -5.2790    -3.4100     0.2170 C.ar  1 <1>  -0.1430 
 20 C       -5.4510    -1.1980    -1.0570 C.3   1 <1>  -0.0970 
 21 C       -6.7920    -3.6590     0.1290 C.3   1 <1>   0.0630 
 22 C       -7.4210    -3.7150     1.5260 C.3   1 <1>  -0.2400 
 23 C       -7.0930    -4.9420    -0.6540 C.3   1 <1>  -0.2400 
 24 H        5.9590    -2.4620     1.5460 H     1 <1>   0.0800 
 25 H        6.2620    -0.8980    -1.8330 H     1 <1>   0.0800 
 26 H        3.9830    -0.5750     1.5550 H     1 <1>   0.0800 
 27 H        3.7190    -2.2890     1.6400 H     1 <1>   0.0800 
 28 H        6.1710     0.3140     0.3320 H     1 <1>   0.0800 
 29 H        7.5180    -0.7130     0.7870 H     1 <1>   0.0800 
 30 H        6.4160    -0.1270     1.9970 H     1 <1>   0.0800 
 31 H        3.5890    -0.8270    -2.2890 H     1 <1>   0.0800 
 32 H        4.3670     0.1880    -1.1100 H     1 <1>   0.0800 
 33 H        4.6050    -3.3590    -2.4690 H     1 <1>   0.0800 
 34 H        6.3010    -3.1310    -2.8360 H     1 <1>   0.0800 
 35 H        5.1020    -2.1500    -3.6310 H     1 <1>   0.0800 
 36 H        3.2280    -2.4630    -0.5350 H     1 <1>   0.4500 
 37 H        1.5580    -0.7330    -1.1300 H     1 <1>   0.0800 
 38 H        1.9000    -0.0630     0.4420 H     1 <1>   0.0800 
 39 H        1.1460    -2.0540     1.5380 H     1 <1>   0.0800 
 40 H        0.7230    -3.9520     0.1860 H     1 <1>   0.4000 
 41 H       -0.5940    -1.7750    -0.9350 H     1 <1>   0.0800 
 42 H       -0.8400    -0.9740     0.6170 H     1 <1>   0.0800 
 43 H       -2.8410    -1.2430    -0.6370 H     1 <1>   0.1500 
 44 H       -2.5290    -4.9220     1.4860 H     1 <1>   0.1500 
 45 H       -4.9370    -5.2300     1.2940 H     1 <1>   0.1500 
 46 H       -4.8070    -0.4100    -1.4040 H     1 <1>   0.0800 
 47 H       -6.1800    -0.7650    -0.3960 H     1 <1>   0.0800 
 48 H       -5.9510    -1.6200    -1.9100 H     1 <1>   0.0800 
 49 H       -7.2730    -2.8550    -0.3960 H     1 <1>   0.0800 
 50 H       -7.0460    -4.5520     2.0860 H     1 <1>   0.0800 
 51 H       -8.4900    -3.8050     1.4490 H     1 <1>   0.0800 
 52 H       -7.1910    -2.8130     2.0640 H     1 <1>   0.0800 
 53 H       -6.7110    -5.8060    -0.1420 H     1 <1>   0.0800 
 54 H       -6.6360    -4.8900    -1.6260 H     1 <1>   0.0800 
 55 H       -8.1540    -5.0610    -0.7810 H     1 <1>   0.0800 
@<TRIPOS>BOND
  1   1   2  1   
  2   1   3  1   
  3   2   4  1   
  4   2   5  1   
  5   2  24  1   
  6   3   6  1   
  7   3   7  1   
  8   3  25  1   
  9   4   8  1   
 10   4  26  1   
 11   4  27  1   
 12   5  28  1   
 13   5  29  1   
 14   5  30  1   
 15   6   8  1   
 16   6  31  1   
 17   6  32  1   
 18   7  33  1   
 19   7  34  1   
 20   7  35  1   
 21   8   9  1   
 22   8  36  1   
 23   9  10  1   
 24   9  37  1   
 25   9  38  1   
 26  10  11  1   
 27  10  12  1   
 28  10  39  1   
 29  11  40  1   
 30  12  13  1   
 31  12  41  1   
 32  12  42  1   
 33  13  14  1   
 34  14  15  ar  
 35  14  16  ar  
 36  15  17  ar  
 37  15  43  1   
 38  16  18  ar  
 39  16  44  1   
 40  17  19  ar  
 41  17  20  1   
 42  18  19  ar  
 43  18  45  1   
 44  19  21  1   
 45  20  46  1   
 46  20  47  1   
 47  20  48  1   
 48  21  22  1   
 49  21  23  1   
 50  21  49  1   
 51  22  50  1   
 52  22  51  1   
 53  22  52  1   
 54  23  53  1   
 55  23  54  1   
 56  23  55  1   
@<TRIPOS>SUBSTRUCTURE
  1 ****  12 GROUP 4 **** **** 0

# MOE 2024.06 (io_trps.svl 2023.06)
