@<TRIPOS>MOLECULE
NONAME
39 40 1 0 0 
SMALL
USER_CHARGES


@<TRIPOS>ATOM
  1 O        5.2740     3.8090     1.3900 O.2   1 <1>  -0.5700 
  2 C        4.5650     3.7780     0.4130 C.2   1 <1>   0.4230 
  3 C        3.1420     3.4970     0.5020 C.ar  1 <1>   0.0860 
  4 C        5.2410     4.0270    -0.9460 C.3   1 <1>  -0.0190 
  5 C        2.5060     3.5390     1.7470 C.ar  1 <1>  -0.1500 
  6 C        2.3420     3.1700    -0.5990 C.ar  1 <1>  -0.1500 
  7 C        6.7820     4.0620    -0.8450 C.3   1 <1>   0.3430 
  8 C        4.7640     5.3570    -1.5630 C.3   1 <1>  -0.2400 
  9 C        1.1570     3.2750     1.8900 C.ar  1 <1>  -0.1500 
 10 C        0.9910     2.9050    -0.4630 C.ar  1 <1>  -0.1500 
 11 N        7.3550     2.8920    -0.1150 N.4   1 <1>  -0.9590 
 12 C        0.3950     2.9570     0.7820 C.ar  1 <1>  -0.1500 
 13 C        8.7710     3.1400     0.2720 C.3   1 <1>   0.3430 
 14 C        7.1760     1.5860    -0.8110 C.3   1 <1>   0.3430 
 15 C        9.2510     2.0290     1.2080 C.3   1 <1>  -0.1600 
 16 C        7.6270     0.4490     0.1070 C.3   1 <1>  -0.1600 
 17 C        9.0730     0.6390     0.5820 C.3   1 <1>  -0.1600 
 18 H        4.9780     3.2320    -1.6170 H     1 <1>   0.0800 
 19 H        3.0800     3.7840     2.6250 H     1 <1>   0.1500 
 20 H        2.7560     3.1130    -1.5870 H     1 <1>   0.1500 
 21 H        7.0520     4.9610    -0.3130 H     1 <1>   0.0800 
 22 H        7.2090     4.1230    -1.8320 H     1 <1>   0.0800 
 23 H        5.0150     6.1830    -0.9190 H     1 <1>   0.0800 
 24 H        3.6970     5.3600    -1.7030 H     1 <1>   0.0800 
 25 H        5.2230     5.5190    -2.5230 H     1 <1>   0.0800 
 26 H        0.6980     3.3170     2.8630 H     1 <1>   0.1500 
 27 H        0.3960     2.6570    -1.3260 H     1 <1>   0.1500 
 28 H        6.8150     2.8560     0.7750 H     1 <1>   0.4500 
 29 H       -0.6570     2.7520     0.8900 H     1 <1>   0.1500 
 30 H        8.8550     4.0900     0.7750 H     1 <1>   0.0800 
 31 H        9.3920     3.1630    -0.6090 H     1 <1>   0.0800 
 32 H        7.7620     1.5720    -1.7160 H     1 <1>   0.0800 
 33 H        6.1410     1.4400    -1.0710 H     1 <1>   0.0800 
 34 H        8.7040     2.0860     2.1340 H     1 <1>   0.0800 
 35 H       10.2900     2.1870     1.4390 H     1 <1>   0.0800 
 36 H        7.5460    -0.4850    -0.4220 H     1 <1>   0.0800 
 37 H        6.9670     0.3960     0.9560 H     1 <1>   0.0800 
 38 H        9.3250    -0.1210     1.3030 H     1 <1>   0.0800 
 39 H        9.7450     0.5330    -0.2540 H     1 <1>   0.0800 
@<TRIPOS>BOND
  1   1   2  2   
  2   2   3  1   
  3   2   4  1   
  4   3   5  ar  
  5   3   6  ar  
  6   4   7  1   
  7   4   8  1   
  8   4  18  1   
  9   5   9  ar  
 10   5  19  1   
 11   6  10  ar  
 12   6  20  1   
 13   7  11  1   
 14   7  21  1   
 15   7  22  1   
 16   8  23  1   
 17   8  24  1   
 18   8  25  1   
 19   9  12  ar  
 20   9  26  1   
 21  10  12  ar  
 22  10  27  1   
 23  11  13  1   
 24  11  14  1   
 25  11  28  1   
 26  12  29  1   
 27  13  15  1   
 28  13  30  1   
 29  13  31  1   
 30  14  16  1   
 31  14  32  1   
 32  14  33  1   
 33  15  17  1   
 34  15  34  1   
 35  15  35  1   
 36  16  17  1   
 37  16  36  1   
 38  16  37  1   
 39  17  38  1   
 40  17  39  1   
@<TRIPOS>SUBSTRUCTURE
  1 ****   2 GROUP 4 **** **** 0

# MOE 2024.06 (io_trps.svl 2023.06)
