@<TRIPOS>MOLECULE
NONAME
46 48 1 0 0 
SMALL
USER_CHARGES


@<TRIPOS>ATOM
  1 F        0.7850    -1.3860     1.6190 F     1 <1>  -0.1900 
  2 C        0.2270    -1.8030     0.5080 C.ar  1 <1>   0.1900 
  3 C        1.0220    -2.2250    -0.5670 C.ar  1 <1>   0.1000 
  4 C       -1.1540    -1.8130     0.4690 C.ar  1 <1>  -0.1500 
  5 N        2.4270    -2.2430    -0.5920 N.pl3 1 <1>  -0.8380 
  6 C        0.3470    -2.6670    -1.7000 C.ar  1 <1>  -0.1500 
  7 C       -1.7920    -2.2600    -0.6770 C.ar  1 <1>  -0.1500 
  8 C        3.1310    -3.5590    -0.5760 C.3   1 <1>   0.2090 
  9 C        3.2370    -1.1060    -0.0540 C.3   1 <1>   0.2090 
 10 C       -1.0380    -2.6860    -1.7580 C.ar  1 <1>  -0.1500 
 11 C        3.8070    -3.8200     0.7830 C.3   1 <1>   0.1100 
 12 C        3.9560    -1.4650     1.2650 C.3   1 <1>   0.1100 
 13 N        4.7300    -2.7230     1.1700 N.3   1 <1>  -0.8100 
 14 C        5.4030    -3.0310     2.4670 C.3   1 <1>   0.1710 
 15 C        6.5340    -4.0530     2.3300 C.2   1 <1>   0.5690 
 16 O        6.8690    -4.7010     3.2910 O.2   1 <1>  -0.5700 
 17 N        7.0940    -4.1690     1.0890 N.am  1 <1>  -0.5470 
 18 C        8.1280    -4.9890     0.6030 C.ar  1 <1>   0.1170 
 19 C        8.1360    -5.4510    -0.7180 C.ar  1 <1>  -0.1430 
 20 C        9.1810    -5.3420     1.4430 C.ar  1 <1>  -0.1500 
 21 C        9.1920    -6.2490    -1.1550 C.ar  1 <1>  -0.1500 
 22 C        6.9890    -5.0970    -1.6700 C.3   1 <1>   1.1630 
 23 C       10.2210    -6.1330     0.9990 C.ar  1 <1>  -0.1500 
 24 C       10.2280    -6.5880    -0.3050 C.ar  1 <1>  -0.1500 
 25 F        7.1930    -5.4990    -2.9190 F     1 <1>  -0.3400 
 26 F        6.7730    -3.7880    -1.7430 F     1 <1>  -0.3400 
 27 F        5.8350    -5.6390    -1.2990 F     1 <1>  -0.3400 
 28 H       -1.7190    -1.4790     1.3190 H     1 <1>   0.1500 
 29 H        0.9230    -2.9910    -2.5460 H     1 <1>   0.1500 
 30 H       -2.8670    -2.2760    -0.7270 H     1 <1>   0.1500 
 31 H        3.8760    -3.5680    -1.3510 H     1 <1>   0.0800 
 32 H        2.4300    -4.3490    -0.7800 H     1 <1>   0.0800 
 33 H        2.6040    -0.2510     0.1010 H     1 <1>   0.0800 
 34 H        3.9760    -0.8360    -0.7880 H     1 <1>   0.0800 
 35 H       -1.5300    -3.0320    -2.6500 H     1 <1>   0.1500 
 36 H        4.3450    -4.7500     0.7250 H     1 <1>   0.0800 
 37 H        3.0370    -3.9320     1.5290 H     1 <1>   0.0800 
 38 H        3.2240    -1.5490     2.0500 H     1 <1>   0.0800 
 39 H        4.6190    -0.6570     1.5190 H     1 <1>   0.0800 
 40 H        4.6860    -3.3920     3.1820 H     1 <1>   0.0800 
 41 H        5.8410    -2.1320     2.8630 H     1 <1>   0.0800 
 42 H        6.5950    -3.5710     0.4170 H     1 <1>   0.3700 
 43 H        9.1910    -4.9930     2.4600 H     1 <1>   0.1500 
 44 H        9.2240    -6.6210    -2.1660 H     1 <1>   0.1500 
 45 H       11.0240    -6.3940     1.6680 H     1 <1>   0.1500 
 46 H       11.0380    -7.2050    -0.6550 H     1 <1>   0.1500 
@<TRIPOS>BOND
  1   1   2  1   
  2   2   3  ar  
  3   2   4  ar  
  4   3   5  1   
  5   3   6  ar  
  6   4   7  ar  
  7   4  28  1   
  8   5   8  1   
  9   5   9  1   
 10   6  10  ar  
 11   6  29  1   
 12   7  10  ar  
 13   7  30  1   
 14   8  11  1   
 15   8  31  1   
 16   8  32  1   
 17   9  12  1   
 18   9  33  1   
 19   9  34  1   
 20  10  35  1   
 21  11  13  1   
 22  11  36  1   
 23  11  37  1   
 24  12  13  1   
 25  12  38  1   
 26  12  39  1   
 27  13  14  1   
 28  14  15  1   
 29  14  40  1   
 30  14  41  1   
 31  15  16  2   
 32  15  17  am  
 33  17  18  1   
 34  17  42  1   
 35  18  19  ar  
 36  18  20  ar  
 37  19  21  ar  
 38  19  22  1   
 39  20  23  ar  
 40  20  43  1   
 41  21  24  ar  
 42  21  44  1   
 43  22  25  1   
 44  22  26  1   
 45  22  27  1   
 46  23  24  ar  
 47  23  45  1   
 48  24  46  1   
@<TRIPOS>SUBSTRUCTURE
  1 ****  11 GROUP 4 **** **** 0

# MOE 2024.06 (io_trps.svl 2023.06)
