@<TRIPOS>MOLECULE
NONAME
56 58 1 0 0 
SMALL
USER_CHARGES


@<TRIPOS>ATOM
  1 S        0.6510     0.5110     0.6710 S.o2  1 <1>   1.4470 
  2 O        0.1820     0.9640     1.9590 O.2   1 <1>  -0.6500 
  3 O        2.0710     0.5950     0.3930 O.2   1 <1>  -0.6500 
  4 N       -0.0610     1.6080    -0.4730 N.am  1 <1>  -0.6930 
  5 C       -0.0330    -1.0940     0.1870 C.ar  1 <1>  -0.0090 
  6 C       -1.4460     1.7560    -0.5280 C.ar  1 <1>   0.1990 
  7 C        0.7700     2.0770    -1.6190 C.3   1 <1>   0.1960 
  8 C       -1.3420    -1.4370     0.5020 C.ar  1 <1>  -0.1500 
  9 C        0.7200    -2.0100    -0.5390 C.ar  1 <1>  -0.1500 
 10 C       -2.1770     1.2350    -1.5910 C.ar  1 <1>  -0.1500 
 11 C       -2.1300     2.4160     0.4870 C.ar  1 <1>  -0.1500 
 12 C        1.5500     3.3780    -1.3110 C.3   1 <1>   0.3430 
 13 C       -1.8830    -2.6470     0.1060 C.ar  1 <1>  -0.1500 
 14 C        0.1850    -3.2230    -0.9370 C.ar  1 <1>  -0.1500 
 15 C       -3.5500     1.3840    -1.6430 C.ar  1 <1>  -0.1500 
 16 C       -3.5040     2.5660     0.4410 C.ar  1 <1>  -0.1500 
 17 N        2.3390     3.3350    -0.0350 N.4   1 <1>  -0.9590 
 18 C       -1.1210    -3.5480    -0.6160 C.ar  1 <1>  -0.1430 
 19 C       -4.2230     2.0500    -0.6330 C.ar  1 <1>   0.0830 
 20 C        1.5530     3.8590     1.1220 C.3   1 <1>   0.3430 
 21 C        3.6590     4.0100    -0.1600 C.3   1 <1>   0.3430 
 22 C       -1.7140    -4.8760    -1.0520 C.3   1 <1>  -0.0970 
 23 O       -5.5730     2.1510    -0.7640 O.3   1 <1>  -0.3630 
 24 C        2.3300     3.6310     2.4190 C.3   1 <1>  -0.1600 
 25 C        4.4770     3.7750     1.1110 C.3   1 <1>  -0.1600 
 26 C       -6.3520     2.7850     0.2270 C.3   1 <1>   0.0400 
 27 C        3.7310     4.2540     2.3630 C.3   1 <1>  -0.1600 
 28 H        0.1360     2.2650    -2.4690 H     1 <1>   0.0800 
 29 H        1.4600     1.3040    -1.9110 H     1 <1>   0.0800 
 30 H       -1.9530    -0.7500     1.0640 H     1 <1>   0.1500 
 31 H        1.7400    -1.7810    -0.7980 H     1 <1>   0.1500 
 32 H       -1.6770     0.6990    -2.3780 H     1 <1>   0.1500 
 33 H       -1.5860     2.8080     1.3270 H     1 <1>   0.1500 
 34 H        0.8550     4.2010    -1.2770 H     1 <1>   0.0800 
 35 H        2.2180     3.5600    -2.1360 H     1 <1>   0.0800 
 36 H       -2.9020    -2.8840     0.3630 H     1 <1>   0.1500 
 37 H        0.7900    -3.9160    -1.4980 H     1 <1>   0.1500 
 38 H       -4.1140     0.9810    -2.4660 H     1 <1>   0.1500 
 39 H       -3.9960     3.0810     1.2440 H     1 <1>   0.1500 
 40 H        2.5320     2.3350     0.1810 H     1 <1>   0.4500 
 41 H        0.6020     3.3550     1.1870 H     1 <1>   0.0800 
 42 H        1.3700     4.9130     0.9930 H     1 <1>   0.0800 
 43 H        3.5170     5.0690    -0.3070 H     1 <1>   0.0800 
 44 H        4.1980     3.6160    -1.0070 H     1 <1>   0.0800 
 45 H       -2.2030    -4.7630    -2.0030 H     1 <1>   0.0800 
 46 H       -2.4340    -5.2200    -0.3310 H     1 <1>   0.0800 
 47 H       -0.9450    -5.6220    -1.1430 H     1 <1>   0.0800 
 48 H        2.4070     2.5730     2.6040 H     1 <1>   0.0800 
 49 H        1.7790     4.0570     3.2390 H     1 <1>   0.0800 
 50 H        5.4130     4.3000     1.0320 H     1 <1>   0.0800 
 51 H        4.7020     2.7260     1.1990 H     1 <1>   0.0800 
 52 H       -7.3820     2.7390    -0.0790 H     1 <1>   0.0800 
 53 H       -6.0420     3.8110     0.3130 H     1 <1>   0.0800 
 54 H       -6.2250     2.2620     1.1590 H     1 <1>   0.0800 
 55 H        4.2860     3.9840     3.2460 H     1 <1>   0.0800 
 56 H        3.6460     5.3280     2.3440 H     1 <1>   0.0800 
@<TRIPOS>BOND
  1   1   2  2   
  2   1   3  2   
  3   1   4  am  
  4   1   5  1   
  5   4   6  1   
  6   4   7  1   
  7   5   8  ar  
  8   5   9  ar  
  9   6  10  ar  
 10   6  11  ar  
 11   7  12  1   
 12   7  28  1   
 13   7  29  1   
 14   8  13  ar  
 15   8  30  1   
 16   9  14  ar  
 17   9  31  1   
 18  10  15  ar  
 19  10  32  1   
 20  11  16  ar  
 21  11  33  1   
 22  12  17  1   
 23  12  34  1   
 24  12  35  1   
 25  13  18  ar  
 26  13  36  1   
 27  14  18  ar  
 28  14  37  1   
 29  15  19  ar  
 30  15  38  1   
 31  16  19  ar  
 32  16  39  1   
 33  17  20  1   
 34  17  21  1   
 35  17  40  1   
 36  18  22  1   
 37  19  23  1   
 38  20  24  1   
 39  20  41  1   
 40  20  42  1   
 41  21  25  1   
 42  21  43  1   
 43  21  44  1   
 44  22  45  1   
 45  22  46  1   
 46  22  47  1   
 47  23  26  1   
 48  24  27  1   
 49  24  48  1   
 50  24  49  1   
 51  25  27  1   
 52  25  50  1   
 53  25  51  1   
 54  26  52  1   
 55  26  53  1   
 56  26  54  1   
 57  27  55  1   
 58  27  56  1   
@<TRIPOS>SUBSTRUCTURE
  1 ****   4 GROUP 4 **** **** 0

# MOE 2024.06 (io_trps.svl 2023.06)
