@<TRIPOS>MOLECULE
NONAME
49 52 1 0 0 
SMALL
USER_CHARGES


@<TRIPOS>ATOM
  1 O        1.0710    -2.6430    -1.9880 O.2   1 <1>  -0.5700 
  2 C        1.5310    -2.5570    -0.8690 C.2   1 <1>   0.5440 
  3 N        2.5340    -1.6920    -0.5160 N.am  1 <1>  -0.4200 
  4 C        1.1430    -3.3110     0.2900 C.ar  1 <1>   0.0860 
  5 C        2.8030    -1.8570     0.8180 C.2   1 <1>   0.5440 
  6 C        3.1980    -0.7240    -1.4130 C.3   1 <1>   0.1400 
  7 C        1.9340    -2.8730     1.3410 C.ar  1 <1>   0.0860 
  8 C        0.1940    -4.3050     0.4920 C.ar  1 <1>  -0.1500 
  9 O        3.6520    -1.2320     1.4200 O.2   1 <1>  -0.5700 
 10 C        4.6050    -1.2190    -1.7580 C.3   1 <1>  -0.1600 
 11 C        1.7870    -3.4250     2.6080 C.ar  1 <1>  -0.1500 
 12 C        0.0480    -4.8560     1.7550 C.ar  1 <1>  -0.1500 
 13 C        5.3920    -0.1660    -2.5580 C.3   1 <1>  -0.0990 
 14 C        0.8410    -4.4170     2.8090 C.ar  1 <1>  -0.1500 
 15 C        6.8230    -0.6000    -2.8130 C.2   1 <1>   0.5690 
 16 O        7.1570    -0.8390    -3.9460 O.2   1 <1>  -0.5700 
 17 N        7.6430    -0.7010    -1.7250 N.am  1 <1>  -0.5470 
 18 C        8.9820    -1.1070    -1.5930 C.ar  1 <1>   0.1170 
 19 C        9.4340    -1.6340    -0.3760 C.ar  1 <1>  -0.1430 
 20 C        9.8770    -0.9840    -2.6500 C.ar  1 <1>  -0.1500 
 21 C       10.7600    -2.0410    -0.2490 C.ar  1 <1>  -0.1430 
 22 C        8.4570    -1.7880     0.7970 C.3   1 <1>  -0.0170 
 23 C       11.1910    -1.3820    -2.5180 C.ar  1 <1>  -0.1500 
 24 C       11.6300    -1.9100    -1.3200 C.ar  1 <1>  -0.1500 
 25 C       11.3150    -2.6310     1.0420 C.3   1 <1>  -0.0170 
 26 C        9.1360    -2.0790     2.1390 C.3   1 <1>  -0.1600 
 27 C       10.2160    -3.1470     1.9740 C.3   1 <1>  -0.1600 
 28 H        3.2530     0.2270    -0.9090 H     1 <1>   0.0800 
 29 H        2.6150    -0.6030    -2.3110 H     1 <1>   0.0800 
 30 H       -0.4150    -4.6360    -0.3320 H     1 <1>   0.1500 
 31 H        4.5330    -2.1240    -2.3390 H     1 <1>   0.0800 
 32 H        5.1330    -1.4400    -0.8470 H     1 <1>   0.0800 
 33 H        2.4060    -3.0760     3.4170 H     1 <1>   0.1500 
 34 H       -0.6840    -5.6280     1.9230 H     1 <1>   0.1500 
 35 H        5.4110     0.7670    -2.0250 H     1 <1>   0.0800 
 36 H        4.9090     0.0030    -3.5040 H     1 <1>   0.0800 
 37 H        0.7180    -4.8520     3.7870 H     1 <1>   0.1500 
 38 H        7.1830    -0.5300    -0.8350 H     1 <1>   0.3700 
 39 H        9.5500    -0.5720    -3.5860 H     1 <1>   0.1500 
 40 H        7.7870    -2.5980     0.5660 H     1 <1>   0.0800 
 41 H        7.8710    -0.8950     0.9150 H     1 <1>   0.0800 
 42 H       11.8700    -1.2810    -3.3460 H     1 <1>   0.1500 
 43 H       12.6560    -2.2190    -1.2250 H     1 <1>   0.1500 
 44 H       11.8780    -1.8670     1.5480 H     1 <1>   0.0800 
 45 H       11.9870    -3.4400     0.8140 H     1 <1>   0.0800 
 46 H        8.3990    -2.4070     2.8520 H     1 <1>   0.0800 
 47 H        9.5840    -1.1750     2.5150 H     1 <1>   0.0800 
 48 H       10.6410    -3.3950     2.9310 H     1 <1>   0.0800 
 49 H        9.7820    -4.0400     1.5570 H     1 <1>   0.0800 
@<TRIPOS>BOND
  1   1   2  2   
  2   2   3  am  
  3   2   4  1   
  4   3   5  am  
  5   3   6  1   
  6   4   7  ar  
  7   4   8  ar  
  8   5   7  1   
  9   5   9  2   
 10   6  10  1   
 11   6  28  1   
 12   6  29  1   
 13   7  11  ar  
 14   8  12  ar  
 15   8  30  1   
 16  10  13  1   
 17  10  31  1   
 18  10  32  1   
 19  11  14  ar  
 20  11  33  1   
 21  12  14  ar  
 22  12  34  1   
 23  13  15  1   
 24  13  35  1   
 25  13  36  1   
 26  14  37  1   
 27  15  16  2   
 28  15  17  am  
 29  17  18  1   
 30  17  38  1   
 31  18  19  ar  
 32  18  20  ar  
 33  19  21  ar  
 34  19  22  1   
 35  20  23  ar  
 36  20  39  1   
 37  21  24  ar  
 38  21  25  1   
 39  22  26  1   
 40  22  40  1   
 41  22  41  1   
 42  23  24  ar  
 43  23  42  1   
 44  24  43  1   
 45  25  27  1   
 46  25  44  1   
 47  25  45  1   
 48  26  27  1   
 49  26  46  1   
 50  26  47  1   
 51  27  48  1   
 52  27  49  1   
@<TRIPOS>SUBSTRUCTURE
  1 ****  10 GROUP 4 **** **** 0

# MOE 2024.06 (io_trps.svl 2023.06)
