@<TRIPOS>MOLECULE
NONAME
34 34 1 0 0 
SMALL
USER_CHARGES


@<TRIPOS>ATOM
  1 O       -1.4270     1.1590     1.8220 O.2   1 <1>  -0.5700 
  2 C       -2.3820     1.3750     1.1230 C.2   1 <1>   0.5690 
  3 N       -3.5210     0.6690     1.2970 N.am  1 <1>  -0.7300 
  4 C       -2.2850     2.4340     0.0530 C.3   1 <1>  -0.1790 
  5 C       -4.8050     0.7780     0.5580 C.3   1 <1>   0.1400 
  6 C       -4.9460    -0.3770    -0.4360 C.3   1 <1>   0.1200 
  7 O       -6.0960    -0.1750    -1.2300 O.3   1 <1>  -0.3630 
  8 C       -7.2980    -0.4640    -0.6550 C.ar  1 <1>   0.0820 
  9 C       -7.7120    -1.7910    -0.5150 C.ar  1 <1>   0.0820 
 10 C       -8.1210     0.5820    -0.2360 C.ar  1 <1>   0.0820 
 11 O       -6.8760    -2.7800    -0.9450 O.3   1 <1>  -0.3630 
 12 C       -8.9550    -2.0590     0.0520 C.ar  1 <1>  -0.1500 
 13 O       -7.6680     1.8610    -0.3870 O.3   1 <1>  -0.3630 
 14 C       -9.3610     0.2910     0.3280 C.ar  1 <1>  -0.1500 
 15 C       -7.3180    -4.1140    -1.0710 C.3   1 <1>   0.0400 
 16 C       -9.7720    -1.0220     0.4680 C.ar  1 <1>  -0.1500 
 17 C       -8.5350     2.9650    -0.2560 C.3   1 <1>   0.0400 
 18 H       -3.4870    -0.0310     2.0420 H     1 <1>   0.3700 
 19 H       -2.9600     3.2380     0.2770 H     1 <1>   0.0800 
 20 H       -2.5290     2.0120    -0.9040 H     1 <1>   0.0800 
 21 H       -1.2830     2.8200     0.0160 H     1 <1>   0.0800 
 22 H       -4.8490     1.7110     0.0240 H     1 <1>   0.0800 
 23 H       -5.6180     0.7510     1.2640 H     1 <1>   0.0800 
 24 H       -5.0310    -1.3210     0.0710 H     1 <1>   0.0800 
 25 H       -4.1030    -0.3990    -1.1010 H     1 <1>   0.0800 
 26 H       -9.3050    -3.0660     0.1790 H     1 <1>   0.1500 
 27 H      -10.0170     1.0700     0.6660 H     1 <1>   0.1500 
 28 H       -6.5270    -4.6850    -1.5220 H     1 <1>   0.0800 
 29 H       -8.1890    -4.1350    -1.7020 H     1 <1>   0.0800 
 30 H       -7.5380    -4.5030    -0.0930 H     1 <1>   0.0800 
 31 H      -10.7320    -1.2390     0.9050 H     1 <1>   0.1500 
 32 H       -7.9930     3.8500    -0.5340 H     1 <1>   0.0800 
 33 H       -8.8550     3.0400     0.7680 H     1 <1>   0.0800 
 34 H       -9.3740     2.8290    -0.9160 H     1 <1>   0.0800 
@<TRIPOS>BOND
  1   1   2  2   
  2   2   3  am  
  3   2   4  1   
  4   3   5  1   
  5   3  18  1   
  6   4  19  1   
  7   4  20  1   
  8   4  21  1   
  9   5   6  1   
 10   5  22  1   
 11   5  23  1   
 12   6   7  1   
 13   6  24  1   
 14   6  25  1   
 15   7   8  1   
 16   8   9  ar  
 17   8  10  ar  
 18   9  11  1   
 19   9  12  ar  
 20  10  13  1   
 21  10  14  ar  
 22  11  15  1   
 23  12  16  ar  
 24  12  26  1   
 25  13  17  1   
 26  14  16  ar  
 27  14  27  1   
 28  15  28  1   
 29  15  29  1   
 30  15  30  1   
 31  16  31  1   
 32  17  32  1   
 33  17  33  1   
 34  17  34  1   
@<TRIPOS>SUBSTRUCTURE
  1 ****   7 GROUP 4 **** **** 0

# MOE 2024.06 (io_trps.svl 2023.06)
