@<TRIPOS>MOLECULE
NONAME
40 42 1 0 0 
SMALL
USER_CHARGES


@<TRIPOS>ATOM
  1 S        0.5310    -0.7160    -1.0700 S.3   1 <1>  -0.0800 
  2 C        1.5860     0.5210    -0.3840 C.2   1 <1>   0.1660 
  3 C       -0.8660     0.2870    -0.7280 C.2   1 <1>  -0.1400 
  4 N        2.9280     0.3740    -0.3280 N.2   1 <1>  -0.5760 
  5 C        0.8780     1.5970     0.0580 C.2   1 <1>  -0.0860 
  6 C       -0.5300     1.4320    -0.1540 C.2   1 <1>  -0.1810 
  7 C       -2.3230     0.0650    -0.9730 C.3   1 <1>   0.0200 
  8 C        3.5530     1.3700     0.2030 C.2   1 <1>   0.6510 
  9 C        1.6130     2.6670     0.6350 C.2   1 <1>   0.7160 
 10 C       -1.7490     2.2690     0.1260 C.3   1 <1>   0.0210 
 11 C       -2.9140     1.3830    -0.4050 C.3   1 <1>  -0.1600 
 12 S        5.3290     1.2170     0.2870 S.3   1 <1>  -0.3710 
 13 N        2.9880     2.5270     0.7050 N.am  1 <1>  -0.4200 
 14 O        1.0630     3.6770     1.0570 O.2   1 <1>  -0.5700 
 15 C        5.6780    -0.4290    -0.5080 C.3   1 <1>   0.1310 
 16 C        3.7970     3.6280     1.3040 C.3   1 <1>   0.1400 
 17 C        7.1640    -0.7270    -0.5000 C.2   1 <1>   0.6590 
 18 C        4.2330     4.6100     0.2150 C.3   1 <1>  -0.2400 
 19 O        7.8140    -0.7170    -1.5150 O.2   1 <1>  -0.5700 
 20 O        7.6960    -1.0190     0.6830 O.3   1 <1>  -0.4300 
 21 C        9.0590    -1.3460     0.8490 C.3   1 <1>   0.1200 
 22 C        9.2390    -2.8440     0.6110 C.3   1 <1>  -0.2400 
 23 H       -2.6730    -0.7970    -0.4320 H     1 <1>   0.0800 
 24 H       -2.5210    -0.0420    -2.0250 H     1 <1>   0.0800 
 25 H       -1.6910     3.2040    -0.4040 H     1 <1>   0.0800 
 26 H       -1.8430     2.4540     1.1820 H     1 <1>   0.0800 
 27 H       -3.5980     1.1620     0.3960 H     1 <1>   0.0800 
 28 H       -3.4480     1.9070    -1.1780 H     1 <1>   0.0800 
 29 H        5.3100    -0.3820    -1.5160 H     1 <1>   0.0800 
 30 H        5.1420    -1.1770     0.0460 H     1 <1>   0.0800 
 31 H        4.6570     3.2330     1.8160 H     1 <1>   0.0800 
 32 H        3.2120     4.1520     2.0410 H     1 <1>   0.0800 
 33 H        4.8430     4.1170    -0.5210 H     1 <1>   0.0800 
 34 H        4.8100     5.4030     0.6550 H     1 <1>   0.0800 
 35 H        3.3720     5.0430    -0.2630 H     1 <1>   0.0800 
 36 H        9.3350    -1.0890     1.8570 H     1 <1>   0.0800 
 37 H        9.6510    -0.7630     0.1630 H     1 <1>   0.0800 
 38 H        8.6280    -3.4060     1.2940 H     1 <1>   0.0800 
 39 H       10.2670    -3.1130     0.7700 H     1 <1>   0.0800 
 40 H        8.9770    -3.0950    -0.4020 H     1 <1>   0.0800 
@<TRIPOS>BOND
  1   1   2  1   
  2   1   3  1   
  3   2   4  1   
  4   2   5  2   
  5   3   6  2   
  6   3   7  1   
  7   4   8  2   
  8   5   6  1   
  9   5   9  1   
 10   6  10  1   
 11   7  11  1   
 12   7  23  1   
 13   7  24  1   
 14   8  12  1   
 15   8  13  1   
 16   9  13  am  
 17   9  14  2   
 18  10  11  1   
 19  10  25  1   
 20  10  26  1   
 21  11  27  1   
 22  11  28  1   
 23  12  15  1   
 24  13  16  1   
 25  15  17  1   
 26  15  29  1   
 27  15  30  1   
 28  16  18  1   
 29  16  31  1   
 30  16  32  1   
 31  17  19  2   
 32  17  20  1   
 33  18  33  1   
 34  18  34  1   
 35  18  35  1   
 36  20  21  1   
 37  21  22  1   
 38  21  36  1   
 39  21  37  1   
 40  22  38  1   
 41  22  39  1   
 42  22  40  1   
@<TRIPOS>SUBSTRUCTURE
  1 ****   4 GROUP 4 **** **** 0

# MOE 2024.06 (io_trps.svl 2023.06)
