@<TRIPOS>MOLECULE
NONAME
48 49 1 0 0 
SMALL
USER_CHARGES


@<TRIPOS>ATOM
  1 CL      -0.9630     0.2610     1.6180 Cl    1 <1>  -0.1770 
  2 C       -0.2560     1.5390     0.6450 C.ar  1 <1>   0.1770 
  3 C       -0.2860     1.4290    -0.7390 C.ar  1 <1>  -0.1440 
  4 C        0.3170     2.6350     1.2780 C.ar  1 <1>  -0.1440 
  5 C        0.2760     2.4450    -1.4960 C.ar  1 <1>  -0.1500 
  6 C       -0.9170     0.2260    -1.4250 C.3   1 <1>  -0.0960 
  7 C        0.8720     3.6400     0.5020 C.ar  1 <1>  -0.1500 
  8 C        0.3360     2.7410     2.7960 C.3   1 <1>  -0.0960 
  9 C        0.8570     3.5470    -0.8880 C.ar  1 <1>   0.0830 
 10 O        1.3820     4.4840    -1.7200 O.3   1 <1>  -0.3630 
 11 C        2.1850     5.5550    -1.2720 C.3   1 <1>   0.1200 
 12 C        3.5950     5.0350    -0.9660 C.3   1 <1>  -0.1600 
 13 C        4.5420     6.1740    -0.5620 C.3   1 <1>  -0.1600 
 14 C        5.9580     5.6410    -0.3000 C.3   1 <1>  -0.1600 
 15 C        6.9100     6.7760     0.0820 C.3   1 <1>   0.3430 
 16 N        8.3050     6.2700     0.1900 N.4   1 <1>  -0.9590 
 17 C        8.5350     5.3150     1.3310 C.3   1 <1>   0.3430 
 18 C        9.3190     7.3770     0.2290 C.3   1 <1>   0.3430 
 19 C       10.0190     4.8870     1.4250 C.3   1 <1>   0.1200 
 20 C       10.7610     6.8200     0.3050 C.3   1 <1>   0.1200 
 21 O       10.7660     5.4190     0.3640 O.3   1 <1>  -0.5600 
 22 H        0.2710     2.3950    -2.5690 H     1 <1>   0.1500 
 23 H       -1.9550     0.1530    -1.1530 H     1 <1>   0.0800 
 24 H       -0.4140    -0.6740    -1.1210 H     1 <1>   0.0800 
 25 H       -0.8490     0.3120    -2.4940 H     1 <1>   0.0800 
 26 H        1.3090     4.4880     0.9900 H     1 <1>   0.1500 
 27 H        0.8610     1.9010     3.2160 H     1 <1>   0.0800 
 28 H       -0.6700     2.7450     3.1750 H     1 <1>   0.0800 
 29 H        0.8240     3.6430     3.1170 H     1 <1>   0.0800 
 30 H        1.7180     6.0220    -0.4240 H     1 <1>   0.0800 
 31 H        2.2230     6.2700    -2.0750 H     1 <1>   0.0800 
 32 H        3.9750     4.5480    -1.8480 H     1 <1>   0.0800 
 33 H        3.5460     4.3100    -0.1730 H     1 <1>   0.0800 
 34 H        4.1600     6.6540     0.3240 H     1 <1>   0.0800 
 35 H        4.5700     6.9050    -1.3540 H     1 <1>   0.0800 
 36 H        6.3150     5.1580    -1.1930 H     1 <1>   0.0800 
 37 H        5.9090     4.9150     0.4920 H     1 <1>   0.0800 
 38 H        6.6010     7.2170     1.0160 H     1 <1>   0.0800 
 39 H        6.8640     7.5370    -0.6810 H     1 <1>   0.0800 
 40 H        8.5380     5.7300    -0.6580 H     1 <1>   0.4500 
 41 H        7.9290     4.4340     1.2020 H     1 <1>   0.0800 
 42 H        8.2450     5.7740     2.2620 H     1 <1>   0.0800 
 43 H        9.1430     8.0070     1.0850 H     1 <1>   0.0800 
 44 H        9.2290     7.9930    -0.6510 H     1 <1>   0.0800 
 45 H       10.0990     3.8140     1.3780 H     1 <1>   0.0800 
 46 H       10.4540     5.2160     2.3530 H     1 <1>   0.0800 
 47 H       11.2720     7.2040     1.1720 H     1 <1>   0.0800 
 48 H       11.3170     7.1120    -0.5680 H     1 <1>   0.0800 
@<TRIPOS>BOND
  1   1   2  1   
  2   2   3  ar  
  3   2   4  ar  
  4   3   5  ar  
  5   3   6  1   
  6   4   7  ar  
  7   4   8  1   
  8   5   9  ar  
  9   5  22  1   
 10   6  23  1   
 11   6  24  1   
 12   6  25  1   
 13   7   9  ar  
 14   7  26  1   
 15   8  27  1   
 16   8  28  1   
 17   8  29  1   
 18   9  10  1   
 19  10  11  1   
 20  11  12  1   
 21  11  30  1   
 22  11  31  1   
 23  12  13  1   
 24  12  32  1   
 25  12  33  1   
 26  13  14  1   
 27  13  34  1   
 28  13  35  1   
 29  14  15  1   
 30  14  36  1   
 31  14  37  1   
 32  15  16  1   
 33  15  38  1   
 34  15  39  1   
 35  16  17  1   
 36  16  18  1   
 37  16  40  1   
 38  17  19  1   
 39  17  41  1   
 40  17  42  1   
 41  18  20  1   
 42  18  43  1   
 43  18  44  1   
 44  19  21  1   
 45  19  45  1   
 46  19  46  1   
 47  20  21  1   
 48  20  47  1   
 49  20  48  1   
@<TRIPOS>SUBSTRUCTURE
  1 ****  12 GROUP 4 **** **** 0

# MOE 2024.06 (io_trps.svl 2023.06)
