@<TRIPOS>MOLECULE
NONAME
41 42 1 0 0 
SMALL
USER_CHARGES


@<TRIPOS>ATOM
  1 O        0.0920    -0.6420     0.8210 O.2   1 <1>  -0.5700 
  2 C       -0.3340    -1.4520     0.0240 C.2   1 <1>   0.6340 
  3 O        0.3410    -1.6570    -1.1120 O.3   1 <1>  -0.4300 
  4 C       -1.5530    -2.2100     0.2420 C.ar  1 <1>   0.0860 
  5 C        1.5380    -0.9630    -1.4040 C.3   1 <1>   0.0400 
  6 C       -2.0590    -3.1010    -0.7080 C.ar  1 <1>  -0.1500 
  7 C       -2.2780    -2.0780     1.4280 C.ar  1 <1>  -0.1500 
  8 C       -3.2240    -3.8140    -0.4910 C.ar  1 <1>  -0.1500 
  9 C       -3.4440    -2.7870     1.6550 C.ar  1 <1>  -0.1500 
 10 C       -3.9310    -3.6570     0.6920 C.ar  1 <1>  -0.1440 
 11 C       -5.2210    -4.4210     0.9300 C.3   1 <1>   0.4860 
 12 N       -6.2890    -3.8240     0.0870 N.4   1 <1>  -0.9590 
 13 C       -6.5450    -2.3730     0.3670 C.3   1 <1>   0.3430 
 14 C       -7.5820    -4.5930     0.1140 C.3   1 <1>   0.3430 
 15 C       -7.4950    -1.7710    -0.7010 C.3   1 <1>   0.2000 
 16 C       -8.7520    -3.8190    -0.5540 C.3   1 <1>   0.2000 
 17 O       -8.2610    -2.7640    -1.3380 O.3   1 <1>  -0.5600 
 18 C       -6.7160    -1.0660    -1.8090 C.3   1 <1>  -0.2400 
 19 C       -9.7820    -3.2800     0.4470 C.3   1 <1>  -0.2400 
 20 H        1.8980    -1.2890    -2.3630 H     1 <1>   0.0800 
 21 H        2.2630    -1.1840    -0.6400 H     1 <1>   0.0800 
 22 H        1.3310     0.0940    -1.4240 H     1 <1>   0.0800 
 23 H       -1.5250    -3.2380    -1.6340 H     1 <1>   0.1500 
 24 H       -1.9110    -1.4050     2.1860 H     1 <1>   0.1500 
 25 H       -3.5650    -4.4920    -1.2560 H     1 <1>   0.1500 
 26 H       -3.9590    -2.6490     2.5910 H     1 <1>   0.1500 
 27 H       -5.4930    -4.3660     1.9720 H     1 <1>   0.0800 
 28 H       -5.0750    -5.4560     0.6680 H     1 <1>   0.0800 
 29 H       -5.9670    -3.8380    -0.8900 H     1 <1>   0.4500 
 30 H       -5.6230    -1.8150     0.3690 H     1 <1>   0.0800 
 31 H       -6.9960    -2.2630     1.3390 H     1 <1>   0.0800 
 32 H       -7.8590    -4.8190     1.1300 H     1 <1>   0.0800 
 33 H       -7.4540    -5.5310    -0.4000 H     1 <1>   0.0800 
 34 H       -8.1680    -1.0670    -0.2410 H     1 <1>   0.0800 
 35 H       -9.2630    -4.4880    -1.2260 H     1 <1>   0.0800 
 36 H       -6.0550    -1.7500    -2.3100 H     1 <1>   0.0800 
 37 H       -6.1330    -0.2590    -1.4020 H     1 <1>   0.0800 
 38 H       -7.4010    -0.6510    -2.5280 H     1 <1>   0.0800 
 39 H       -9.3320    -2.6590     1.2000 H     1 <1>   0.0800 
 40 H      -10.2720    -4.1000     0.9420 H     1 <1>   0.0800 
 41 H      -10.5340    -2.7150    -0.0760 H     1 <1>   0.0800 
@<TRIPOS>BOND
  1   1   2  2   
  2   2   3  1   
  3   2   4  1   
  4   3   5  1   
  5   4   6  ar  
  6   4   7  ar  
  7   5  20  1   
  8   5  21  1   
  9   5  22  1   
 10   6   8  ar  
 11   6  23  1   
 12   7   9  ar  
 13   7  24  1   
 14   8  10  ar  
 15   8  25  1   
 16   9  10  ar  
 17   9  26  1   
 18  10  11  1   
 19  11  12  1   
 20  11  27  1   
 21  11  28  1   
 22  12  13  1   
 23  12  14  1   
 24  12  29  1   
 25  13  15  1   
 26  13  30  1   
 27  13  31  1   
 28  14  16  1   
 29  14  32  1   
 30  14  33  1   
 31  15  17  1   
 32  15  18  1   
 33  15  34  1   
 34  16  17  1   
 35  16  19  1   
 36  16  35  1   
 37  18  36  1   
 38  18  37  1   
 39  18  38  1   
 40  19  39  1   
 41  19  40  1   
 42  19  41  1   
@<TRIPOS>SUBSTRUCTURE
  1 ****  10 GROUP 4 **** **** 0

# MOE 2024.06 (io_trps.svl 2023.06)
