@<TRIPOS>MOLECULE
NONAME
46 49 1 0 0 
SMALL
USER_CHARGES


@<TRIPOS>ATOM
  1 CL      -0.4380     1.7830    -1.4260 Cl    1 <1>  -0.1770 
  2 C       -0.7700     2.7950    -0.0390 C.ar  1 <1>   0.1770 
  3 C       -1.8800     2.5550     0.7590 C.ar  1 <1>  -0.1440 
  4 C        0.1030     3.8400     0.2200 C.ar  1 <1>  -0.1500 
  5 C       -2.0740     3.4130     1.8300 C.ar  1 <1>   0.1900 
  6 C       -2.8420     1.4060     0.4930 C.3   1 <1>   0.2540 
  7 C       -0.1220     4.6800     1.3000 C.ar  1 <1>  -0.1500 
  8 F       -3.1010     3.2350     2.6190 F     1 <1>  -0.1900 
  9 C       -1.2210     4.4660     2.1140 C.ar  1 <1>  -0.1500 
 10 N       -4.0670     1.8930    -0.1720 N.3   1 <1>  -0.8100 
 11 C       -3.8180     2.4030    -1.5440 C.3   1 <1>   0.1100 
 12 C       -5.1260     0.8560    -0.1830 C.3   1 <1>   0.1100 
 13 C       -5.1070     2.9420    -2.2120 C.3   1 <1>   0.3430 
 14 C       -6.4290     1.3500    -0.8590 C.3   1 <1>   0.3430 
 15 N       -6.2920     2.7750    -1.3110 N.4   1 <1>  -0.9590 
 16 C       -7.5440     3.3790    -1.8340 C.3   1 <1>   0.4860 
 17 C       -8.6370     3.2360    -0.7910 C.ar  1 <1>  -0.1430 
 18 C       -8.5700     3.9690     0.3920 C.ar  1 <1>  -0.1500 
 19 C       -9.7050     2.3650    -1.0130 C.ar  1 <1>  -0.1500 
 20 C       -9.5730     3.7940     1.3230 C.ar  1 <1>   0.0830 
 21 C      -10.7060     2.2070    -0.0620 C.ar  1 <1>  -0.1500 
 22 O       -9.7040     4.3830     2.5150 O.3   1 <1>  -0.3630 
 23 C      -10.6110     2.9380     1.1040 C.ar  1 <1>   0.0830 
 24 C      -10.9100     3.8780     3.0900 C.3   1 <1>   0.4000 
 25 O      -11.4440     2.9480     2.1490 O.3   1 <1>  -0.3620 
 26 H        0.9550     3.9930    -0.4200 H     1 <1>   0.1500 
 27 H       -3.1050     0.9610     1.4390 H     1 <1>   0.0800 
 28 H       -2.3760     0.6390    -0.1020 H     1 <1>   0.0800 
 29 H        0.5550     5.4920     1.5060 H     1 <1>   0.1500 
 30 H       -1.4170     5.1020     2.9590 H     1 <1>   0.1500 
 31 H       -3.3990     1.6210    -2.1560 H     1 <1>   0.0800 
 32 H       -3.0990     3.2040    -1.5090 H     1 <1>   0.0800 
 33 H       -5.3540     0.5710     0.8300 H     1 <1>   0.0800 
 34 H       -4.7740    -0.0240    -0.6960 H     1 <1>   0.0800 
 35 H       -5.2680     2.4180    -3.1390 H     1 <1>   0.0800 
 36 H       -4.9650     3.9850    -2.4430 H     1 <1>   0.0800 
 37 H       -7.2380     1.2630    -0.1520 H     1 <1>   0.0800 
 38 H       -6.6590     0.7150    -1.6990 H     1 <1>   0.0800 
 39 H       -6.0230     3.2640    -0.4420 H     1 <1>   0.4500 
 40 H       -7.8420     2.8830    -2.7430 H     1 <1>   0.0800 
 41 H       -7.3900     4.4240    -2.0480 H     1 <1>   0.0800 
 42 H       -7.7740     4.6600     0.6070 H     1 <1>   0.1500 
 43 H       -9.7750     1.8000    -1.9280 H     1 <1>   0.1500 
 44 H      -11.5380     1.5420    -0.2140 H     1 <1>   0.1500 
 45 H      -11.6060     4.6850     3.2350 H     1 <1>   0.0800 
 46 H      -10.6870     3.3730     4.0130 H     1 <1>   0.0800 
@<TRIPOS>BOND
  1   1   2  1   
  2   2   3  ar  
  3   2   4  ar  
  4   3   5  ar  
  5   3   6  1   
  6   4   7  ar  
  7   4  26  1   
  8   5   8  1   
  9   5   9  ar  
 10   6  10  1   
 11   6  27  1   
 12   6  28  1   
 13   7   9  ar  
 14   7  29  1   
 15   9  30  1   
 16  10  11  1   
 17  10  12  1   
 18  11  13  1   
 19  11  31  1   
 20  11  32  1   
 21  12  14  1   
 22  12  33  1   
 23  12  34  1   
 24  13  15  1   
 25  13  35  1   
 26  13  36  1   
 27  14  15  1   
 28  14  37  1   
 29  14  38  1   
 30  15  16  1   
 31  15  39  1   
 32  16  17  1   
 33  16  40  1   
 34  16  41  1   
 35  17  18  ar  
 36  17  19  ar  
 37  18  20  ar  
 38  18  42  1   
 39  19  21  ar  
 40  19  43  1   
 41  20  22  1   
 42  20  23  ar  
 43  21  23  ar  
 44  21  44  1   
 45  22  24  1   
 46  23  25  1   
 47  24  25  1   
 48  24  45  1   
 49  24  46  1   
@<TRIPOS>SUBSTRUCTURE
  1 ****  15 GROUP 4 **** **** 0

# MOE 2024.06 (io_trps.svl 2023.06)
