@<TRIPOS>MOLECULE
NONAME
34 37 1 0 0 
SMALL
USER_CHARGES


@<TRIPOS>ATOM
  1 O        0.0200    -5.5860     0.6690 O.3   1 <1>  -0.2800 
  2 C       -0.3710    -4.4150     0.1200 C.ar  1 <1>   0.1400 
  3 C        1.3460    -5.6660     0.5020 C.ar  1 <1>   0.1400 
  4 C       -1.6370    -3.8310     0.0240 C.ar  1 <1>   0.4100 
  5 C        0.7000    -3.7400    -0.3940 C.ar  1 <1>   0.2560 
  6 C        1.8350    -4.5500    -0.1550 C.ar  1 <1>   0.0000 
  7 C        2.1780    -6.6980     0.9070 C.ar  1 <1>  -0.1500 
  8 N       -1.7570    -2.6440    -0.5460 N.ar  1 <1>  -0.6200 
  9 N       -2.7960    -4.4320     0.4990 N.pl3 1 <1>  -0.8380 
 10 N        0.5920    -2.5490    -0.9820 N.ar  1 <1>  -0.5660 
 11 C        3.1980    -4.4520    -0.4220 C.ar  1 <1>  -0.1500 
 12 C        3.5310    -6.5960     0.6390 C.ar  1 <1>  -0.1500 
 13 C       -0.6390    -2.0870    -1.0120 C.ar  1 <1>   0.4700 
 14 C       -3.9730    -3.6330     0.9400 C.3   1 <1>   0.2090 
 15 C       -3.0520    -5.8880     0.3300 C.3   1 <1>   0.2090 
 16 C        4.0370    -5.4760    -0.0230 C.ar  1 <1>  -0.1500 
 17 C       -5.1290    -3.8310    -0.0440 C.3   1 <1>  -0.1600 
 18 C       -4.2160    -6.0980    -0.6450 C.3   1 <1>  -0.1600 
 19 C       -5.4690    -5.3170    -0.2260 C.3   1 <1>  -0.1600 
 20 H        1.7650    -7.5500     1.4160 H     1 <1>   0.1500 
 21 H        3.5750    -3.5830    -0.9330 H     1 <1>   0.1500 
 22 H        4.2020    -7.3820     0.9410 H     1 <1>   0.1500 
 23 H       -0.7690    -1.1230    -1.4770 H     1 <1>   0.1500 
 24 H       -3.7210    -2.5890     1.0070 H     1 <1>   0.0800 
 25 H       -4.2680    -3.9640     1.9210 H     1 <1>   0.0800 
 26 H       -3.2900    -6.3150     1.2890 H     1 <1>   0.0800 
 27 H       -2.1810    -6.3870    -0.0550 H     1 <1>   0.0800 
 28 H        5.0930    -5.4130    -0.2230 H     1 <1>   0.1500 
 29 H       -4.8460    -3.4020    -0.9900 H     1 <1>   0.0800 
 30 H       -5.9930    -3.3000     0.3130 H     1 <1>   0.0800 
 31 H       -4.4440    -7.1470    -0.7020 H     1 <1>   0.0800 
 32 H       -3.9010    -5.7770    -1.6220 H     1 <1>   0.0800 
 33 H       -6.2340    -5.4260    -0.9750 H     1 <1>   0.0800 
 34 H       -5.8470    -5.7140     0.7000 H     1 <1>   0.0800 
@<TRIPOS>BOND
  1   1   2  1   
  2   1   3  1   
  3   2   4  ar  
  4   2   5  ar  
  5   3   6  ar  
  6   3   7  ar  
  7   4   8  ar  
  8   4   9  1   
  9   5   6  1   
 10   5  10  ar  
 11   6  11  ar  
 12   7  12  ar  
 13   7  20  1   
 14   8  13  ar  
 15   9  14  1   
 16   9  15  1   
 17  10  13  ar  
 18  11  16  ar  
 19  11  21  1   
 20  12  16  ar  
 21  12  22  1   
 22  13  23  1   
 23  14  17  1   
 24  14  24  1   
 25  14  25  1   
 26  15  18  1   
 27  15  26  1   
 28  15  27  1   
 29  16  28  1   
 30  17  19  1   
 31  17  29  1   
 32  17  30  1   
 33  18  19  1   
 34  18  31  1   
 35  18  32  1   
 36  19  33  1   
 37  19  34  1   
@<TRIPOS>SUBSTRUCTURE
  1 ****   2 GROUP 4 **** **** 0

# MOE 2024.06 (io_trps.svl 2023.06)
