@<TRIPOS>MOLECULE
NONAME
51 53 1 0 0 
SMALL
USER_CHARGES


@<TRIPOS>ATOM
  1 BR       0.8430     0.3800     0.2210 Br    1 <1>  -0.1110 
  2 C        0.2470    -1.4530     0.1500 C.ar  1 <1>   0.1110 
  3 C        0.9280    -2.3800    -0.6230 C.ar  1 <1>   0.0820 
  4 C       -0.8700    -1.7950     0.8860 C.ar  1 <1>  -0.1500 
  5 O        2.0140    -2.0340    -1.3430 O.3   1 <1>  -0.5330 
  6 C        0.4790    -3.6970    -0.6520 C.ar  1 <1>   0.0830 
  7 C       -1.3330    -3.1040     0.8440 C.ar  1 <1>  -0.1430 
  8 O        1.1860    -4.5770    -1.4160 O.3   1 <1>  -0.3630 
  9 C       -0.6520    -4.0510     0.0830 C.ar  1 <1>  -0.1500 
 10 C       -2.5790    -3.4870     1.6230 C.3   1 <1>   0.4860 
 11 C        0.9950    -5.9720    -1.3090 C.3   1 <1>   0.0400 
 12 N       -3.7300    -3.5650     0.6820 N.4   1 <1>  -0.9590 
 13 C       -4.0080    -2.2360     0.0130 C.3   1 <1>   0.3430 
 14 C       -4.9700    -4.0900     1.3650 C.3   1 <1>   0.3430 
 15 C       -5.2060    -2.2880    -0.9600 C.3   1 <1>   0.2090 
 16 C       -6.1690    -4.2110     0.4030 C.3   1 <1>   0.2090 
 17 N       -6.3960    -2.9400    -0.3400 N.pl3 1 <1>  -0.8380 
 18 C       -7.4690    -2.1470     0.0720 C.ar  1 <1>   0.1000 
 19 C       -8.7570    -2.3340    -0.4440 C.ar  1 <1>  -0.1430 
 20 C       -7.2600    -1.1630     1.0320 C.ar  1 <1>  -0.1500 
 21 C       -9.8100    -1.5540     0.0270 C.ar  1 <1>  -0.1430 
 22 C       -9.0040    -3.3940    -1.5200 C.3   1 <1>  -0.0970 
 23 C       -8.3020    -0.3820     1.4860 C.ar  1 <1>  -0.1500 
 24 C       -9.5740    -0.5810     0.9860 C.ar  1 <1>  -0.1500 
 25 C      -11.2380    -1.7280    -0.4760 C.3   1 <1>  -0.0970 
 26 H       -1.3540    -1.0340     1.4740 H     1 <1>   0.1500 
 27 H        2.3710    -2.8150    -1.8120 H     1 <1>   0.4500 
 28 H       -1.0030    -5.0660     0.0620 H     1 <1>   0.1500 
 29 H       -2.7730    -2.7540     2.3890 H     1 <1>   0.0800 
 30 H       -2.4220    -4.4420     2.0980 H     1 <1>   0.0800 
 31 H        1.7370    -6.4570    -1.9190 H     1 <1>   0.0800 
 32 H        0.0130    -6.2220    -1.6680 H     1 <1>   0.0800 
 33 H        1.1220    -6.2670    -0.2820 H     1 <1>   0.0800 
 34 H       -3.4760    -4.2190    -0.0670 H     1 <1>   0.4500 
 35 H       -3.1380    -1.9080    -0.5320 H     1 <1>   0.0800 
 36 H       -4.2210    -1.4940     0.7630 H     1 <1>   0.0800 
 37 H       -5.2530    -3.4230     2.1620 H     1 <1>   0.0800 
 38 H       -4.7730    -5.0570     1.7970 H     1 <1>   0.0800 
 39 H       -4.9310    -2.8340    -1.8460 H     1 <1>   0.0800 
 40 H       -5.4640    -1.2880    -1.2650 H     1 <1>   0.0800 
 41 H       -7.0540    -4.4580     0.9660 H     1 <1>   0.0800 
 42 H       -6.0000    -5.0060    -0.3010 H     1 <1>   0.0800 
 43 H       -6.2810    -1.0040     1.4340 H     1 <1>   0.1500 
 44 H       -8.1130    -3.5980    -2.0830 H     1 <1>   0.0800 
 45 H       -9.7480    -3.0670    -2.2220 H     1 <1>   0.0800 
 46 H       -9.3370    -4.3060    -1.0590 H     1 <1>   0.0800 
 47 H       -8.1330     0.3780     2.2280 H     1 <1>   0.1500 
 48 H      -10.3810     0.0310     1.3490 H     1 <1>   0.1500 
 49 H      -11.5210    -2.7650    -0.4430 H     1 <1>   0.0800 
 50 H      -11.3150    -1.3720    -1.4870 H     1 <1>   0.0800 
 51 H      -11.9310    -1.1760     0.1320 H     1 <1>   0.0800 
@<TRIPOS>BOND
  1   1   2  1   
  2   2   3  ar  
  3   2   4  ar  
  4   3   5  1   
  5   3   6  ar  
  6   4   7  ar  
  7   4  26  1   
  8   5  27  1   
  9   6   8  1   
 10   6   9  ar  
 11   7   9  ar  
 12   7  10  1   
 13   8  11  1   
 14   9  28  1   
 15  10  12  1   
 16  10  29  1   
 17  10  30  1   
 18  11  31  1   
 19  11  32  1   
 20  11  33  1   
 21  12  13  1   
 22  12  14  1   
 23  12  34  1   
 24  13  15  1   
 25  13  35  1   
 26  13  36  1   
 27  14  16  1   
 28  14  37  1   
 29  14  38  1   
 30  15  17  1   
 31  15  39  1   
 32  15  40  1   
 33  16  17  1   
 34  16  41  1   
 35  16  42  1   
 36  17  18  1   
 37  18  19  ar  
 38  18  20  ar  
 39  19  21  ar  
 40  19  22  1   
 41  20  23  ar  
 42  20  43  1   
 43  21  24  ar  
 44  21  25  1   
 45  22  44  1   
 46  22  45  1   
 47  22  46  1   
 48  23  24  ar  
 49  23  47  1   
 50  24  48  1   
 51  25  49  1   
 52  25  50  1   
 53  25  51  1   
@<TRIPOS>SUBSTRUCTURE
  1 ****  13 GROUP 4 **** **** 0

# MOE 2024.06 (io_trps.svl 2023.06)
