@<TRIPOS>MOLECULE
NONAME
39 40 1 0 0 
SMALL
USER_CHARGES


@<TRIPOS>ATOM
  1 O       -0.0710     0.7300    -1.4920 O.2   1 <1>  -0.5700 
  2 C       -0.0760     1.6090    -0.6510 C.2   1 <1>   0.5440 
  3 N       -1.2310     1.8390     0.0380 N.am  1 <1>  -0.7300 
  4 C        1.1170     2.3940    -0.3810 C.ar  1 <1>   0.0860 
  5 C       -2.5420     1.2130    -0.2070 C.3   1 <1>   0.2200 
  6 C        2.3870     1.8890    -0.6600 C.ar  1 <1>  -0.1500 
  7 C        1.0530     3.6770     0.1640 C.ar  1 <1>  -0.1500 
  8 C       -3.5680     2.3350    -0.5000 C.3   1 <1>   0.2000 
  9 C       -2.8640     0.3600     1.0240 C.3   1 <1>  -0.2400 
 10 C        3.5430     2.6090    -0.4060 C.ar  1 <1>  -0.1440 
 11 C        2.1980     4.4060     0.4240 C.ar  1 <1>  -0.1500 
 12 O       -3.6240     3.2560     0.5530 O.3   1 <1>  -0.5600 
 13 C       -5.0150     1.9100    -0.7180 C.3   1 <1>  -0.1600 
 14 C        3.4490     3.8820     0.1450 C.ar  1 <1>  -0.1430 
 15 C        4.8900     1.9840    -0.7390 C.3   1 <1>  -0.0970 
 16 C       -4.8540     3.9130     0.5810 C.3   1 <1>   0.1200 
 17 C       -5.7690     3.1870    -0.4040 C.3   1 <1>  -0.1600 
 18 C        4.6880     4.7140     0.4450 C.3   1 <1>  -0.0970 
 19 H       -1.2830     2.5920     0.7260 H     1 <1>   0.3700 
 20 H       -2.4780     0.5700    -1.0700 H     1 <1>   0.0800 
 21 H        2.4530     0.9040    -1.0890 H     1 <1>   0.1500 
 22 H        0.0970     4.1170     0.3820 H     1 <1>   0.1500 
 23 H       -3.2370     2.8780    -1.3690 H     1 <1>   0.0800 
 24 H       -3.0150     0.9850     1.8860 H     1 <1>   0.0800 
 25 H       -2.0540    -0.3200     1.2150 H     1 <1>   0.0800 
 26 H       -3.7510    -0.2220     0.8590 H     1 <1>   0.0800 
 27 H        2.1080     5.3920     0.8460 H     1 <1>   0.1500 
 28 H       -5.2990     1.1430    -0.0220 H     1 <1>   0.0800 
 29 H       -5.1850     1.5630    -1.7220 H     1 <1>   0.0800 
 30 H        4.7670     1.0040    -1.1630 H     1 <1>   0.0800 
 31 H        5.4850     1.8930     0.1520 H     1 <1>   0.0800 
 32 H        5.4140     2.5950    -1.4510 H     1 <1>   0.0800 
 33 H       -4.7040     4.9420     0.3030 H     1 <1>   0.0800 
 34 H       -5.2340     3.8550     1.5860 H     1 <1>   0.0800 
 35 H       -6.7410     2.9990     0.0160 H     1 <1>   0.0800 
 36 H       -5.8800     3.7870    -1.2910 H     1 <1>   0.0800 
 37 H        5.3200     4.1950     1.1430 H     1 <1>   0.0800 
 38 H        4.4210     5.6630     0.8740 H     1 <1>   0.0800 
 39 H        5.2380     4.8950    -0.4600 H     1 <1>   0.0800 
@<TRIPOS>BOND
  1   1   2  2   
  2   2   3  am  
  3   2   4  1   
  4   3   5  1   
  5   3  19  1   
  6   4   6  ar  
  7   4   7  ar  
  8   5   8  1   
  9   5   9  1   
 10   5  20  1   
 11   6  10  ar  
 12   6  21  1   
 13   7  11  ar  
 14   7  22  1   
 15   8  12  1   
 16   8  13  1   
 17   8  23  1   
 18   9  24  1   
 19   9  25  1   
 20   9  26  1   
 21  10  14  ar  
 22  10  15  1   
 23  11  14  ar  
 24  11  27  1   
 25  12  16  1   
 26  13  17  1   
 27  13  28  1   
 28  13  29  1   
 29  14  18  1   
 30  15  30  1   
 31  15  31  1   
 32  15  32  1   
 33  16  17  1   
 34  16  33  1   
 35  16  34  1   
 36  17  35  1   
 37  17  36  1   
 38  18  37  1   
 39  18  38  1   
 40  18  39  1   
@<TRIPOS>SUBSTRUCTURE
  1 ****   2 GROUP 4 **** **** 0

# MOE 2024.06 (io_trps.svl 2023.06)
