@<TRIPOS>MOLECULE
NONAME
35 36 1 0 0 
SMALL
USER_CHARGES


@<TRIPOS>ATOM
  1 O        0.7870     0.0290     0.5100 O.2   1 <1>  -0.5700 
  2 C        1.7460    -0.6500     0.2280 C.2   1 <1>   0.4950 
  3 C        3.0790    -0.2750     0.5150 C.2   1 <1>  -0.1360 
  4 C        1.5120    -1.9620    -0.4990 C.3   1 <1>  -0.0990 
  5 C        4.1790    -1.0140     0.2280 C.2   1 <1>  -0.0380 
  6 C        2.6160    -3.0030    -0.2100 C.3   1 <1>   0.0000 
  7 N        5.4470    -0.5730     0.5030 N.pl3 1 <1>  -0.8690 
  8 C        4.0150    -2.3800    -0.4390 C.3   1 <1>  -0.0220 
  9 C        2.4320    -4.2110    -1.1420 C.3   1 <1>  -0.2400 
 10 C        2.4960    -3.4990     1.2440 C.3   1 <1>  -0.2400 
 11 C        6.7390    -1.1840     0.1280 C.3   1 <1>   0.3530 
 12 C        7.7680    -0.0740     0.0290 C.ar  1 <1>  -0.1430 
 13 C        7.6860     0.8980    -0.9490 C.ar  1 <1>  -0.1500 
 14 C        8.8290     0.0320     0.9060 C.ar  1 <1>  -0.1500 
 15 C        8.6420     1.8970    -1.0040 C.ar  1 <1>   0.1600 
 16 C        9.7320     1.0730     0.7640 C.ar  1 <1>   0.1600 
 17 N        9.6640     2.0070    -0.1710 N.ar  1 <1>  -0.6200 
 18 H        3.1810     0.6800     0.9920 H     1 <1>   0.1500 
 19 H        1.4780    -1.7450    -1.5510 H     1 <1>   0.0800 
 20 H        0.5510    -2.3520    -0.2140 H     1 <1>   0.0800 
 21 H        5.5820     0.3370     0.9620 H     1 <1>   0.4000 
 22 H        4.7560    -3.0610    -0.0620 H     1 <1>   0.0800 
 23 H        4.1900    -2.2550    -1.4930 H     1 <1>   0.0800 
 24 H        2.5020    -3.9130    -2.1730 H     1 <1>   0.0800 
 25 H        1.4670    -4.6640    -0.9870 H     1 <1>   0.0800 
 26 H        3.1870    -4.9540    -0.9530 H     1 <1>   0.0800 
 27 H        2.6400    -2.6950     1.9450 H     1 <1>   0.0800 
 28 H        3.2360    -4.2530     1.4500 H     1 <1>   0.0800 
 29 H        1.5250    -3.9260     1.4210 H     1 <1>   0.0800 
 30 H        6.6510    -1.6850    -0.8210 H     1 <1>   0.0800 
 31 H        7.0260    -1.9010     0.8770 H     1 <1>   0.0800 
 32 H        6.8820     0.8840    -1.6640 H     1 <1>   0.1500 
 33 H        8.9620    -0.6800     1.7000 H     1 <1>   0.1500 
 34 H        8.5610     2.6470    -1.7730 H     1 <1>   0.1500 
 35 H       10.5540     1.1410     1.4560 H     1 <1>   0.1500 
@<TRIPOS>BOND
  1   1   2  2   
  2   2   3  1   
  3   2   4  1   
  4   3   5  2   
  5   3  18  1   
  6   4   6  1   
  7   4  19  1   
  8   4  20  1   
  9   5   7  1   
 10   5   8  1   
 11   6   8  1   
 12   6   9  1   
 13   6  10  1   
 14   7  11  1   
 15   7  21  1   
 16   8  22  1   
 17   8  23  1   
 18   9  24  1   
 19   9  25  1   
 20   9  26  1   
 21  10  27  1   
 22  10  28  1   
 23  10  29  1   
 24  11  12  1   
 25  11  30  1   
 26  11  31  1   
 27  12  13  ar  
 28  12  14  ar  
 29  13  15  ar  
 30  13  32  1   
 31  14  16  ar  
 32  14  33  1   
 33  15  17  ar  
 34  15  34  1   
 35  16  17  ar  
 36  16  35  1   
@<TRIPOS>SUBSTRUCTURE
  1 ****   7 GROUP 4 **** **** 0

# MOE 2024.06 (io_trps.svl 2023.06)
