@<TRIPOS>MOLECULE
NONAME
41 42 1 0 0 
SMALL
USER_CHARGES


@<TRIPOS>ATOM
  1 S        0.1660     0.2760     0.4070 S.3   1 <1>  -0.2420 
  2 C       -1.2160    -0.6680    -0.1460 C.2   1 <1>   0.6510 
  3 C        1.2550    -1.0920     0.1710 C.2   1 <1>   0.1150 
  4 N       -2.4700    -0.1440    -0.2030 N.am  1 <1>  -0.4900 
  5 N       -0.9350    -1.8600    -0.4790 N.2   1 <1>  -0.6610 
  6 C        0.4040    -2.1450    -0.3350 C.2   1 <1>   0.7670 
  7 C        2.5680    -0.9230     0.4670 C.2   1 <1>  -0.1780 
  8 C       -2.9650     1.0870     0.1060 C.2   1 <1>   0.5690 
  9 O        0.7910    -3.2500    -0.6440 O.2   1 <1>  -0.5700 
 10 C        3.6670    -1.8460     0.3960 C.ar  1 <1>   0.0280 
 11 O       -2.3000     1.9960     0.5210 O.2   1 <1>  -0.5700 
 12 C       -4.4450     1.3050    -0.0930 C.3   1 <1>  -0.1790 
 13 C        4.9320    -1.3820     0.0480 C.ar  1 <1>  -0.1500 
 14 C        3.5440    -3.2020     0.6820 C.ar  1 <1>  -0.1500 
 15 C        6.0320    -2.2160    -0.0360 C.ar  1 <1>   0.0820 
 16 C        4.6230    -4.0590     0.5920 C.ar  1 <1>  -0.1500 
 17 O        7.1940    -1.5900    -0.3800 O.3   1 <1>  -0.3630 
 18 C        5.8810    -3.5890     0.2210 C.ar  1 <1>   0.0820 
 19 C        8.4510    -2.0870     0.0180 C.3   1 <1>   0.1200 
 20 O        6.9400    -4.4350     0.0930 O.3   1 <1>  -0.3630 
 21 C        9.4660    -0.9550    -0.1000 C.3   1 <1>  -0.2400 
 22 C        6.7840    -5.8350     0.0590 C.3   1 <1>   0.1200 
 23 C        8.1400    -6.4490    -0.2710 C.3   1 <1>  -0.2400 
 24 H       -3.1470    -0.8190    -0.5440 H     1 <1>   0.3700 
 25 H        2.8700     0.0540     0.8030 H     1 <1>   0.1500 
 26 H       -5.0030     0.6250     0.5230 H     1 <1>   0.0800 
 27 H       -4.7040     1.1570    -1.1240 H     1 <1>   0.0800 
 28 H       -4.7020     2.3110     0.1850 H     1 <1>   0.0800 
 29 H        5.0710    -0.3390    -0.1690 H     1 <1>   0.1500 
 30 H        2.5930    -3.6000     0.9850 H     1 <1>   0.1500 
 31 H        4.4580    -5.0950     0.8180 H     1 <1>   0.1500 
 32 H        8.3770    -2.4320     1.0360 H     1 <1>   0.0800 
 33 H        8.7150    -2.9020    -0.6320 H     1 <1>   0.0800 
 34 H        9.1850    -0.1390     0.5410 H     1 <1>   0.0800 
 35 H        9.5180    -0.6120    -1.1180 H     1 <1>   0.0800 
 36 H       10.4380    -1.3070     0.1950 H     1 <1>   0.0800 
 37 H        6.4420    -6.1640     1.0250 H     1 <1>   0.0800 
 38 H        6.0600    -6.0790    -0.7000 H     1 <1>   0.0800 
 39 H        8.8580    -6.1860     0.4850 H     1 <1>   0.0800 
 40 H        8.4790    -6.1000    -1.2290 H     1 <1>   0.0800 
 41 H        8.0540    -7.5200    -0.3060 H     1 <1>   0.0800 
@<TRIPOS>BOND
  1   1   2  1   
  2   1   3  1   
  3   2   4  1   
  4   2   5  2   
  5   3   6  1   
  6   3   7  2   
  7   4   8  am  
  8   4  24  1   
  9   5   6  1   
 10   6   9  2   
 11   7  10  1   
 12   7  25  1   
 13   8  11  2   
 14   8  12  1   
 15  10  13  ar  
 16  10  14  ar  
 17  12  26  1   
 18  12  27  1   
 19  12  28  1   
 20  13  15  ar  
 21  13  29  1   
 22  14  16  ar  
 23  14  30  1   
 24  15  17  1   
 25  15  18  ar  
 26  16  18  ar  
 27  16  31  1   
 28  17  19  1   
 29  18  20  1   
 30  19  21  1   
 31  19  32  1   
 32  19  33  1   
 33  20  22  1   
 34  21  34  1   
 35  21  35  1   
 36  21  36  1   
 37  22  23  1   
 38  22  37  1   
 39  22  38  1   
 40  23  39  1   
 41  23  40  1   
 42  23  41  1   
@<TRIPOS>SUBSTRUCTURE
  1 ****  10 GROUP 4 **** **** 0

# MOE 2024.06 (io_trps.svl 2023.06)
