@<TRIPOS>MOLECULE
21913
54 56 1 0 0 
SMALL
USER_CHARGES


@<TRIPOS>ATOM
  1 O        0.2570    -1.6850     1.6410 O.2   1 <1>  -0.5740 
  2 C       -0.1760    -1.9560     0.5520 C.2   1 <1>   0.4900 
  3 C       -1.5700    -2.1860     0.3570 C.2   1 <1>  -0.1310 
  4 C        0.8240    -1.9890    -0.5840 C.3   1 <1>  -0.1850 
  5 C       -2.2060    -3.0240    -0.5090 C.2   1 <1>   0.1580 
  6 C       -2.3960    -1.2960     1.2940 C.3   1 <1>   0.7130 
  7 N       -3.5860    -3.0890    -0.5430 N.pl3 1 <1>  -0.6930 
  8 C       -1.5380    -3.9820    -1.4830 C.3   1 <1>  -0.1090 
  9 N       -3.8330    -1.6640     1.2800 N.pl3 1 <1>  -0.4620 
 10 C       -2.2900     0.1550     0.8280 C.ar  1 <1>  -0.1500 
 11 C       -4.3400    -2.4490     0.3640 C.cat 1 <1>   1.0690 
 12 N       -4.8160    -1.1590     2.0850 N.2   1 <1>  -0.2660 
 13 C       -2.7150     0.5260    -0.4400 C.ar  1 <1>  -0.1570 
 14 C       -1.7610     1.1270     1.6610 C.ar  1 <1>  -0.1570 
 15 N       -5.6390    -2.4810     0.5320 N.pl3 1 <1>  -0.7030 
 16 C       -5.8910    -1.6680     1.6050 C.2   1 <1>   0.4990 
 17 C       -2.6360     1.8340    -0.8850 C.ar  1 <1>   0.0760 
 18 C       -1.6710     2.4400     1.2370 C.ar  1 <1>  -0.1570 
 19 O       -3.1080     2.0010    -2.1550 O.3   1 <1>  -0.3680 
 20 C       -2.1060     2.8190    -0.0320 C.ar  1 <1>   0.0760 
 21 C       -3.0450     3.2260    -2.8510 C.3   1 <1>   0.0330 
 22 O       -2.0250     4.1160    -0.4430 O.3   1 <1>  -0.3680 
 23 C       -1.4950     5.1410     0.3670 C.3   1 <1>   0.1130 
 24 C       -1.5580     6.4510    -0.4180 C.3   1 <1>  -0.1670 
 25 C       -0.9930     7.6170     0.4040 C.3   1 <1>  -0.1670 
 26 C       -1.0560     8.9290    -0.3850 C.3   1 <1>  -0.1670 
 27 C       -0.4930    10.0920     0.4360 C.3   1 <1>  -0.2460 
 28 H        0.3400    -1.8630    -1.5350 H     1 <1>   0.0730 
 29 H        1.3690    -2.9150    -0.5680 H     1 <1>   0.0730 
 30 H        1.5260    -1.1840    -0.4600 H     1 <1>   0.0730 
 31 H       -2.0460    -1.3880     2.3090 H     1 <1>   0.0730 
 32 H       -4.0490    -3.6850    -1.2310 H     1 <1>   0.4450 
 33 H       -2.0530    -4.9260    -1.4970 H     1 <1>   0.0730 
 34 H       -0.5220    -4.1880    -1.2060 H     1 <1>   0.0730 
 35 H       -1.5500    -3.5690    -2.4770 H     1 <1>   0.0730 
 36 H       -3.1220    -0.1940    -1.1250 H     1 <1>   0.1430 
 37 H       -1.4080     0.8750     2.6490 H     1 <1>   0.1430 
 38 H       -6.3290    -2.9880    -0.0160 H     1 <1>   0.4450 
 39 H       -6.8850    -1.4870     1.9890 H     1 <1>   0.1430 
 40 H       -1.2540     3.1560     1.9200 H     1 <1>   0.1430 
 41 H       -3.4310     3.0720    -3.8420 H     1 <1>   0.0730 
 42 H       -2.0200     3.5470    -2.9030 H     1 <1>   0.0730 
 43 H       -3.6470     3.9520    -2.3340 H     1 <1>   0.0730 
 44 H       -0.4760     4.8920     0.6080 H     1 <1>   0.0730 
 45 H       -2.0880     5.2070     1.2630 H     1 <1>   0.0730 
 46 H       -2.5820     6.6570    -0.6750 H     1 <1>   0.0730 
 47 H       -0.9880     6.3430    -1.3250 H     1 <1>   0.0730 
 48 H        0.0300     7.4080     0.6670 H     1 <1>   0.0730 
 49 H       -1.5590     7.7210     1.3140 H     1 <1>   0.0730 
 50 H       -2.0780     9.1440    -0.6480 H     1 <1>   0.0730 
 51 H       -0.4900     8.8320    -1.2950 H     1 <1>   0.0730 
 52 H       -1.0590    10.2220     1.3410 H     1 <1>   0.0730 
 53 H       -0.5460    11.0030    -0.1340 H     1 <1>   0.0730 
 54 H        0.5360     9.9080     0.6920 H     1 <1>   0.0730 
@<TRIPOS>BOND
  1   1   2  2   
  2   2   3  1   
  3   2   4  1   
  4   3   5  2   
  5   3   6  1   
  6   4  28  1   
  7   4  29  1   
  8   4  30  1   
  9   5   7  1   
 10   5   8  1   
 11   6   9  1   
 12   6  10  1   
 13   6  31  1   
 14   7  11  ar  
 15   7  32  1   
 16   8  33  1   
 17   8  34  1   
 18   8  35  1   
 19   9  11  ar  
 20   9  12  1   
 21  10  13  ar  
 22  10  14  ar  
 23  11  15  ar  
 24  12  16  2   
 25  13  17  ar  
 26  13  36  1   
 27  14  18  ar  
 28  14  37  1   
 29  15  16  1   
 30  15  38  1   
 31  16  39  1   
 32  17  19  1   
 33  17  20  ar  
 34  18  20  ar  
 35  18  40  1   
 36  19  21  1   
 37  20  22  1   
 38  21  41  1   
 39  21  42  1   
 40  21  43  1   
 41  22  23  1   
 42  23  24  1   
 43  23  44  1   
 44  23  45  1   
 45  24  25  1   
 46  24  46  1   
 47  24  47  1   
 48  25  26  1   
 49  25  48  1   
 50  25  49  1   
 51  26  27  1   
 52  26  50  1   
 53  26  51  1   
 54  27  52  1   
 55  27  53  1   
 56  27  54  1   
@<TRIPOS>SUBSTRUCTURE
  1 ****  13 GROUP 4 **** **** 0

# MOE 2024.06 (io_trps.svl 2023.06)
