@<TRIPOS>MOLECULE
NONAME
25 26 1 0 0 
SMALL
USER_CHARGES


@<TRIPOS>ATOM
  1 N       -0.3320     0.8270    -0.2440 N.4   1 <1>  -0.9060 
  2 C        0.5510     1.4060     0.7890 C.3   1 <1>   0.4230 
  3 C       -1.7600     1.2410    -0.1030 C.3   1 <1>   0.3430 
  4 C        0.6140     2.9360     0.6060 C.3   1 <1>  -0.0800 
  5 C        1.9760     0.9240     0.5490 C.3   1 <1>  -0.1600 
  6 C       -1.8810     2.7220     0.2940 C.3   1 <1>  -0.1600 
  7 C       -0.6340     3.5390    -0.0740 C.3   1 <1>  -0.1600 
  8 C        1.9140     3.2400    -0.1630 C.3   1 <1>  -0.1600 
  9 C        2.5590     1.8890    -0.4820 C.3   1 <1>  -0.1600 
 10 H       -0.2440    -0.1950    -0.2520 H     1 <1>   0.4500 
 11 H        0.0240     1.1750    -1.1400 H     1 <1>   0.4500 
 12 H        0.2030     1.1370     1.7750 H     1 <1>   0.0800 
 13 H       -2.2500     0.6370     0.6440 H     1 <1>   0.0800 
 14 H       -2.2680     1.0820    -1.0410 H     1 <1>   0.0800 
 15 H        0.7060     3.3650     1.5900 H     1 <1>   0.0800 
 16 H        2.0350    -0.1040     0.2390 H     1 <1>   0.0800 
 17 H        2.5290     1.0330     1.4670 H     1 <1>   0.0800 
 18 H       -2.0460     2.7850     1.3560 H     1 <1>   0.0800 
 19 H       -2.7510     3.1440    -0.1800 H     1 <1>   0.0800 
 20 H       -0.5230     3.5330    -1.1450 H     1 <1>   0.0800 
 21 H       -0.7560     4.5660     0.2320 H     1 <1>   0.0800 
 22 H        2.5750     3.8080     0.4710 H     1 <1>   0.0800 
 23 H        1.7530     3.8090    -1.0630 H     1 <1>   0.0800 
 24 H        2.2840     1.5800    -1.4770 H     1 <1>   0.0800 
 25 H        3.6340     1.9370    -0.4240 H     1 <1>   0.0800 
@<TRIPOS>BOND
  1   1   2  1   
  2   1   3  1   
  3   1  10  1   
  4   1  11  1   
  5   2   4  1   
  6   2   5  1   
  7   2  12  1   
  8   3   6  1   
  9   3  13  1   
 10   3  14  1   
 11   4   7  1   
 12   4   8  1   
 13   4  15  1   
 14   5   9  1   
 15   5  16  1   
 16   5  17  1   
 17   6   7  1   
 18   6  18  1   
 19   6  19  1   
 20   7  20  1   
 21   7  21  1   
 22   8   9  1   
 23   8  22  1   
 24   8  23  1   
 25   9  24  1   
 26   9  25  1   
@<TRIPOS>SUBSTRUCTURE
  1 ****   2 GROUP 4 **** **** 0

# MOE 2024.06 (io_trps.svl 2023.06)
