@<TRIPOS>MOLECULE
NONAME
47 49 1 0 0 
SMALL
USER_CHARGES


@<TRIPOS>ATOM
  1 O      -10.7880    -1.1480     1.3820 O.3   1 <1>  -0.3630 
  2 C      -11.7810    -0.3530     0.9050 C.ar  1 <1>   0.0830 
  3 C       -9.8720    -1.7850     0.5100 C.3   1 <1>   0.1200 
  4 C      -12.3370    -0.5010    -0.3620 C.ar  1 <1>  -0.1500 
  5 C      -12.2250     0.6640     1.7350 C.ar  1 <1>  -0.1500 
  6 C       -9.0920    -0.7280    -0.2910 C.3   1 <1>   0.2000 
  7 C      -13.2980     0.3940    -0.7980 C.ar  1 <1>  -0.1500 
  8 C      -13.1890     1.5560     1.2990 C.ar  1 <1>  -0.1500 
  9 O       -7.9630    -1.3100    -0.8750 O.3   1 <1>  -0.6800 
 10 C       -8.6380     0.4410     0.6100 C.3   1 <1>   0.3430 
 11 C      -13.7240     1.4280     0.0200 C.ar  1 <1>   0.0830 
 12 N       -7.5460     1.2240    -0.0420 N.4   1 <1>  -0.9590 
 13 O      -14.6610     2.2640    -0.4940 O.3   1 <1>  -0.3620 
 14 C       -6.6820     1.9270     0.9430 C.3   1 <1>   0.4860 
 15 C       -8.0390     2.1620    -1.0900 C.3   1 <1>   0.3430 
 16 C      -15.3040     3.2230     0.3150 C.3   1 <1>   0.0400 
 17 C       -5.5730     2.6920     0.2370 C.ar  1 <1>  -0.1430 
 18 C       -6.8670     2.6450    -1.9470 C.3   1 <1>  -0.0170 
 19 C       -5.6610     3.0410    -1.1070 C.ar  1 <1>  -0.1430 
 20 C       -4.4500     3.0590     0.9650 C.ar  1 <1>  -0.1500 
 21 C       -4.6310     3.7500    -1.7030 C.ar  1 <1>  -0.1500 
 22 C       -3.4250     3.7660     0.3640 C.ar  1 <1>  -0.1500 
 23 C       -3.5150     4.1120    -0.9710 C.ar  1 <1>  -0.1500 
 24 H      -10.4130    -2.4600    -0.1290 H     1 <1>   0.0800 
 25 H       -9.2000    -2.3510     1.1300 H     1 <1>   0.0800 
 26 H      -12.0490    -1.3030    -1.0140 H     1 <1>   0.1500 
 27 H      -11.8150     0.7550     2.7260 H     1 <1>   0.1500 
 28 H       -9.7090    -0.3530    -1.0880 H     1 <1>   0.0800 
 29 H      -13.7350     0.2950    -1.7760 H     1 <1>   0.1500 
 30 H      -13.5120     2.3370     1.9620 H     1 <1>   0.1500 
 31 H       -8.2070    -2.0780    -1.4370 H     1 <1>   0.4000 
 32 H       -8.2780     0.0200     1.5340 H     1 <1>   0.0800 
 33 H       -9.4790     1.0730     0.8440 H     1 <1>   0.0800 
 34 H       -6.9580     0.5140    -0.5140 H     1 <1>   0.4500 
 35 H       -6.2440     1.2110     1.6190 H     1 <1>   0.0800 
 36 H       -7.2730     2.6210     1.5180 H     1 <1>   0.0800 
 37 H       -8.5120     3.0100    -0.6210 H     1 <1>   0.0800 
 38 H       -8.7620     1.6740    -1.7220 H     1 <1>   0.0800 
 39 H      -16.0540     3.7130    -0.2800 H     1 <1>   0.0800 
 40 H      -14.5790     3.9420     0.6520 H     1 <1>   0.0800 
 41 H      -15.7680     2.7240     1.1480 H     1 <1>   0.0800 
 42 H       -7.1910     3.4840    -2.5370 H     1 <1>   0.0800 
 43 H       -6.5790     1.8610    -2.6250 H     1 <1>   0.0800 
 44 H       -4.3570     2.8020     2.0070 H     1 <1>   0.1500 
 45 H       -4.6840     4.0240    -2.7430 H     1 <1>   0.1500 
 46 H       -2.5550     4.0490     0.9330 H     1 <1>   0.1500 
 47 H       -2.7170     4.6630    -1.4390 H     1 <1>   0.1500 
@<TRIPOS>BOND
  1   1   2  1   
  2   1   3  1   
  3   2   4  ar  
  4   2   5  ar  
  5   3   6  1   
  6   3  24  1   
  7   3  25  1   
  8   4   7  ar  
  9   4  26  1   
 10   5   8  ar  
 11   5  27  1   
 12   6   9  1   
 13   6  10  1   
 14   6  28  1   
 15   7  11  ar  
 16   7  29  1   
 17   8  11  ar  
 18   8  30  1   
 19   9  31  1   
 20  10  12  1   
 21  10  32  1   
 22  10  33  1   
 23  11  13  1   
 24  12  14  1   
 25  12  15  1   
 26  12  34  1   
 27  13  16  1   
 28  14  17  1   
 29  14  35  1   
 30  14  36  1   
 31  15  18  1   
 32  15  37  1   
 33  15  38  1   
 34  16  39  1   
 35  16  40  1   
 36  16  41  1   
 37  17  19  ar  
 38  17  20  ar  
 39  18  19  1   
 40  18  42  1   
 41  18  43  1   
 42  19  21  ar  
 43  20  22  ar  
 44  20  44  1   
 45  21  23  ar  
 46  21  45  1   
 47  22  23  ar  
 48  22  46  1   
 49  23  47  1   
@<TRIPOS>SUBSTRUCTURE
  1 ****  10 GROUP 4 **** **** 0

# MOE 2024.06 (io_trps.svl 2023.06)
