@<TRIPOS>MOLECULE
NONAME
48 49 1 0 0 
SMALL
USER_CHARGES


@<TRIPOS>ATOM
  1 O       -7.8150     5.5470    -0.6430 O.3   1 <1>  -0.3630 
  2 C       -9.0750     5.9860    -0.3790 C.ar  1 <1>   0.0830 
  3 C       -6.6870     6.0910     0.0080 C.3   1 <1>   0.1200 
  4 C      -10.1170     5.4250    -1.1110 C.ar  1 <1>  -0.1440 
  5 C       -9.3510     6.9600     0.5800 C.ar  1 <1>  -0.1500 
  6 C       -5.4360     5.3890    -0.5340 C.3   1 <1>   0.2000 
  7 C      -11.4170     5.8430    -0.8770 C.ar  1 <1>  -0.1500 
  8 C       -9.8500     4.3600    -2.1650 C.3   1 <1>  -0.0960 
  9 C      -10.6530     7.3720     0.8100 C.ar  1 <1>  -0.1430 
 10 O       -5.6210     4.0070    -0.4540 O.3   1 <1>  -0.6800 
 11 C       -4.1550     5.7690     0.2410 C.3   1 <1>   0.3430 
 12 C      -11.6840     6.8100     0.0760 C.ar  1 <1>  -0.1500 
 13 C      -10.9570     8.4330     1.8530 C.3   1 <1>  -0.0970 
 14 N       -3.1150     4.7080     0.0780 N.4   1 <1>  -0.9590 
 15 C       -2.1830     4.6110     1.2450 C.3   1 <1>   0.3430 
 16 C       -2.4040     4.7590    -1.2270 C.3   1 <1>   0.3430 
 17 C       -0.9670     3.7070     0.9530 C.3   1 <1>  -0.0800 
 18 C       -1.6840     3.4260    -1.4650 C.3   1 <1>  -0.1600 
 19 C       -1.2530     2.7010    -0.1750 C.3   1 <1>  -0.1600 
 20 C       -0.5250     2.9710     2.2240 C.3   1 <1>  -0.2400 
 21 H       -6.7920     5.9220     1.0660 H     1 <1>   0.0800 
 22 H       -6.6530     7.1470    -0.1970 H     1 <1>   0.0800 
 23 H       -8.5700     7.4100     1.1590 H     1 <1>   0.1500 
 24 H       -5.3180     5.6430    -1.5730 H     1 <1>   0.0800 
 25 H      -12.2330     5.4190    -1.4350 H     1 <1>   0.1500 
 26 H       -9.1700     4.7410    -2.9050 H     1 <1>   0.0800 
 27 H      -10.7590     4.0650    -2.6570 H     1 <1>   0.0800 
 28 H       -9.4140     3.4920    -1.7040 H     1 <1>   0.0800 
 29 H       -6.5530     3.8080    -0.7130 H     1 <1>   0.4000 
 30 H       -4.4120     5.8530     1.2830 H     1 <1>   0.0800 
 31 H       -3.7840     6.7250    -0.0890 H     1 <1>   0.0800 
 32 H      -12.7000     7.1230     0.2420 H     1 <1>   0.1500 
 33 H      -10.2090     8.4320     2.6250 H     1 <1>   0.0800 
 34 H      -11.9120     8.2470     2.3090 H     1 <1>   0.0800 
 35 H      -10.9770     9.4030     1.3890 H     1 <1>   0.0800 
 36 H       -3.6760     3.8340     0.0470 H     1 <1>   0.4500 
 37 H       -2.7240     4.2100     2.0860 H     1 <1>   0.0800 
 38 H       -1.8280     5.5910     1.5180 H     1 <1>   0.0800 
 39 H       -1.6830     5.5610    -1.2090 H     1 <1>   0.0800 
 40 H       -3.0990     4.9400    -2.0320 H     1 <1>   0.0800 
 41 H       -0.1520     4.3390     0.6430 H     1 <1>   0.0800 
 42 H       -0.8170     3.6230    -2.0710 H     1 <1>   0.0800 
 43 H       -2.3220     2.7750    -2.0380 H     1 <1>   0.0800 
 44 H       -2.0400     2.0350     0.1370 H     1 <1>   0.0800 
 45 H       -0.3810     2.1000    -0.3740 H     1 <1>   0.0800 
 46 H       -1.3010     2.3130     2.5780 H     1 <1>   0.0800 
 47 H       -0.2860     3.6720     3.0050 H     1 <1>   0.0800 
 48 H        0.3540     2.3810     2.0270 H     1 <1>   0.0800 
@<TRIPOS>BOND
  1   1   2  1   
  2   1   3  1   
  3   2   4  ar  
  4   2   5  ar  
  5   3   6  1   
  6   3  21  1   
  7   3  22  1   
  8   4   7  ar  
  9   4   8  1   
 10   5   9  ar  
 11   5  23  1   
 12   6  10  1   
 13   6  11  1   
 14   6  24  1   
 15   7  12  ar  
 16   7  25  1   
 17   8  26  1   
 18   8  27  1   
 19   8  28  1   
 20   9  12  ar  
 21   9  13  1   
 22  10  29  1   
 23  11  14  1   
 24  11  30  1   
 25  11  31  1   
 26  12  32  1   
 27  13  33  1   
 28  13  34  1   
 29  13  35  1   
 30  14  15  1   
 31  14  16  1   
 32  14  36  1   
 33  15  17  1   
 34  15  37  1   
 35  15  38  1   
 36  16  18  1   
 37  16  39  1   
 38  16  40  1   
 39  17  19  1   
 40  17  20  1   
 41  17  41  1   
 42  18  19  1   
 43  18  42  1   
 44  18  43  1   
 45  19  44  1   
 46  19  45  1   
 47  20  46  1   
 48  20  47  1   
 49  20  48  1   
@<TRIPOS>SUBSTRUCTURE
  1 ****   3 GROUP 4 **** **** 0

# MOE 2024.06 (io_trps.svl 2023.06)
