@<TRIPOS>MOLECULE
NONAME
42 42 1 0 0 
SMALL
USER_CHARGES


@<TRIPOS>ATOM
  1 O       -8.8650    -0.2990     2.3410 O.3   1 <1>  -0.3630 
  2 C       -9.8900    -0.2630     1.4430 C.ar  1 <1>   0.0830 
  3 C       -7.5920    -0.5820     1.8170 C.3   1 <1>   0.1200 
  4 C      -10.4680    -1.4480     0.9860 C.ar  1 <1>   0.0830 
  5 C      -10.3680     0.9710     1.0010 C.ar  1 <1>   0.0830 
  6 C       -7.1230     0.6400     1.0230 C.3   1 <1>   0.3430 
  7 O       -9.9520    -2.6310     1.4260 O.3   1 <1>  -0.3630 
  8 C      -11.5360    -1.3850     0.0960 C.ar  1 <1>  -0.1500 
  9 O       -9.7510     2.1060     1.4330 O.3   1 <1>  -0.3630 
 10 C      -11.4360     1.0150     0.1120 C.ar  1 <1>  -0.1500 
 11 N       -5.7800     0.4210     0.4010 N.4   1 <1>  -0.9060 
 12 C      -10.7250    -3.8110     1.3850 C.3   1 <1>   0.0400 
 13 C      -12.0160    -0.1600    -0.3340 C.ar  1 <1>  -0.1500 
 14 C      -10.5420     3.2430     1.7150 C.3   1 <1>   0.0400 
 15 C       -5.2720     1.5200    -0.4240 C.3   1 <1>   0.5030 
 16 C       -6.2160     1.7620    -1.6020 C.3   1 <1>  -0.2400 
 17 C       -5.1210     2.7800     0.4280 C.3   1 <1>  -0.2400 
 18 C       -3.9070     1.0730    -0.9360 C.3   1 <1>  -0.2400 
 19 H       -7.6670    -1.4580     1.1970 H     1 <1>   0.0800 
 20 H       -6.9430    -0.7750     2.6510 H     1 <1>   0.0800 
 21 H       -7.0900     1.4880     1.6880 H     1 <1>   0.0800 
 22 H       -7.8480     0.8430     0.2530 H     1 <1>   0.0800 
 23 H      -12.0030    -2.2770    -0.2770 H     1 <1>   0.1500 
 24 H      -11.8180     1.9530    -0.2460 H     1 <1>   0.1500 
 25 H       -5.8170    -0.4120    -0.1940 H     1 <1>   0.4500 
 26 H       -5.0890     0.2410     1.1340 H     1 <1>   0.4500 
 27 H      -10.2020    -4.5720     1.9360 H     1 <1>   0.0800 
 28 H      -10.8440    -4.1190     0.3620 H     1 <1>   0.0800 
 29 H      -11.6790    -3.6200     1.8440 H     1 <1>   0.0800 
 30 H      -12.8450    -0.1200    -1.0210 H     1 <1>   0.1500 
 31 H       -9.9440     3.9380     2.2770 H     1 <1>   0.0800 
 32 H      -11.3930     2.9410     2.3000 H     1 <1>   0.0800 
 33 H      -10.8550     3.6960     0.7920 H     1 <1>   0.0800 
 34 H       -6.3680     0.8620    -2.1700 H     1 <1>   0.0800 
 35 H       -5.7890     2.4980    -2.2610 H     1 <1>   0.0800 
 36 H       -7.1670     2.1440    -1.2770 H     1 <1>   0.0800 
 37 H       -6.0750     3.1570     0.7510 H     1 <1>   0.0800 
 38 H       -4.6550     3.5560    -0.1550 H     1 <1>   0.0800 
 39 H       -4.5000     2.5970     1.2870 H     1 <1>   0.0800 
 40 H       -3.9890     0.1840    -1.5370 H     1 <1>   0.0800 
 41 H       -3.2260     0.8920    -0.1240 H     1 <1>   0.0800 
 42 H       -3.4790     1.8440    -1.5540 H     1 <1>   0.0800 
@<TRIPOS>BOND
  1   1   2  1   
  2   1   3  1   
  3   2   4  ar  
  4   2   5  ar  
  5   3   6  1   
  6   3  19  1   
  7   3  20  1   
  8   4   7  1   
  9   4   8  ar  
 10   5   9  1   
 11   5  10  ar  
 12   6  11  1   
 13   6  21  1   
 14   6  22  1   
 15   7  12  1   
 16   8  13  ar  
 17   8  23  1   
 18   9  14  1   
 19  10  13  ar  
 20  10  24  1   
 21  11  15  1   
 22  11  25  1   
 23  11  26  1   
 24  12  27  1   
 25  12  28  1   
 26  12  29  1   
 27  13  30  1   
 28  14  31  1   
 29  14  32  1   
 30  14  33  1   
 31  15  16  1   
 32  15  17  1   
 33  15  18  1   
 34  16  34  1   
 35  16  35  1   
 36  16  36  1   
 37  17  37  1   
 38  17  38  1   
 39  17  39  1   
 40  18  40  1   
 41  18  41  1   
 42  18  42  1   
@<TRIPOS>SUBSTRUCTURE
  1 ****   2 GROUP 4 **** **** 0

# MOE 2024.06 (io_trps.svl 2023.06)
