@<TRIPOS>MOLECULE
NONAME
46 49 1 0 0 
SMALL
USER_CHARGES


@<TRIPOS>ATOM
  1 CL      -2.2720    -2.3930     2.9480 Cl    1 <1>  -0.1770 
  2 C       -2.8800    -1.0720     1.9820 C.ar  1 <1>   0.1770 
  3 C       -4.2120    -1.0750     1.6160 C.ar  1 <1>  -0.1500 
  4 C       -2.0160    -0.0720     1.5720 C.ar  1 <1>  -0.1500 
  5 C       -4.7050    -0.0900     0.7670 C.ar  1 <1>   0.1170 
  6 C       -2.5020     0.9470     0.7680 C.ar  1 <1>  -0.1500 
  7 N       -6.0260    -0.1780     0.2670 N.am  1 <1>  -0.2940 
  8 C       -3.8320     0.9280     0.3850 C.ar  1 <1>   0.1020 
  9 C       -6.7970     1.0030     0.1240 C.ar  1 <1>   0.1170 
 10 C       -6.4200    -1.3370    -0.3820 C.2   1 <1>   0.5690 
 11 S       -4.4520     2.2790    -0.6220 S.3   1 <1>  -0.2030 
 12 C       -6.2260     2.1910    -0.3340 C.ar  1 <1>   0.1020 
 13 C       -8.1620     1.0180     0.4000 C.ar  1 <1>  -0.1500 
 14 O       -7.5000    -1.8540    -0.2130 O.2   1 <1>  -0.5700 
 15 C       -5.4440    -2.0190    -1.3570 C.3   1 <1>   0.1710 
 16 C       -6.9730     3.3320    -0.5580 C.ar  1 <1>  -0.1500 
 17 C       -8.9210     2.1580     0.1920 C.ar  1 <1>  -0.1500 
 18 N       -4.4740    -2.9480    -0.7050 N.3   1 <1>  -0.8100 
 19 C       -8.3320     3.3130    -0.2940 C.ar  1 <1>  -0.1500 
 20 C       -3.3480    -3.3200    -1.5770 C.3   1 <1>   0.1100 
 21 C       -5.1280    -4.1370    -0.1200 C.3   1 <1>   0.1100 
 22 C       -2.3040    -4.1400    -0.7900 C.3   1 <1>   0.3430 
 23 C       -4.1140    -4.9740     0.6870 C.3   1 <1>   0.3430 
 24 N       -2.9120    -5.3550    -0.1380 N.4   1 <1>  -0.9590 
 25 C       -1.9040    -6.0720     0.6980 C.3   1 <1>   0.2630 
 26 H       -4.8600    -1.8560     1.9650 H     1 <1>   0.1500 
 27 H       -0.9850    -0.0880     1.8800 H     1 <1>   0.1500 
 28 H       -1.8600     1.7490     0.4470 H     1 <1>   0.1500 
 29 H       -8.6410     0.1320     0.7770 H     1 <1>   0.1500 
 30 H       -4.9040    -1.2420    -1.8680 H     1 <1>   0.0800 
 31 H       -6.0180    -2.5540    -2.0930 H     1 <1>   0.0800 
 32 H       -6.4990     4.2250    -0.9240 H     1 <1>   0.1500 
 33 H       -9.9760     2.1430     0.4060 H     1 <1>   0.1500 
 34 H       -8.9270     4.1950    -0.4600 H     1 <1>   0.1500 
 35 H       -2.8750    -2.4260    -1.9470 H     1 <1>   0.0800 
 36 H       -3.7030    -3.8850    -2.4230 H     1 <1>   0.0800 
 37 H       -5.5700    -4.7380    -0.8960 H     1 <1>   0.0800 
 38 H       -5.9170    -3.8280     0.5450 H     1 <1>   0.0800 
 39 H       -1.8790    -3.5010    -0.0330 H     1 <1>   0.0800 
 40 H       -1.5110    -4.4390    -1.4560 H     1 <1>   0.0800 
 41 H       -4.6020    -5.8600     1.0580 H     1 <1>   0.0800 
 42 H       -3.7980    -4.3900     1.5350 H     1 <1>   0.0800 
 43 H       -3.2390    -5.9790    -0.8880 H     1 <1>   0.4500 
 44 H       -1.5540    -5.4300     1.4920 H     1 <1>   0.0800 
 45 H       -1.0590    -6.3670     0.0970 H     1 <1>   0.0800 
 46 H       -2.3400    -6.9550     1.1360 H     1 <1>   0.0800 
@<TRIPOS>BOND
  1   1   2  1   
  2   2   3  ar  
  3   2   4  ar  
  4   3   5  ar  
  5   3  26  1   
  6   4   6  ar  
  7   4  27  1   
  8   5   7  1   
  9   5   8  ar  
 10   6   8  ar  
 11   6  28  1   
 12   7   9  1   
 13   7  10  am  
 14   8  11  1   
 15   9  12  ar  
 16   9  13  ar  
 17  10  14  2   
 18  10  15  1   
 19  11  12  1   
 20  12  16  ar  
 21  13  17  ar  
 22  13  29  1   
 23  15  18  1   
 24  15  30  1   
 25  15  31  1   
 26  16  19  ar  
 27  16  32  1   
 28  17  19  ar  
 29  17  33  1   
 30  18  20  1   
 31  18  21  1   
 32  19  34  1   
 33  20  22  1   
 34  20  35  1   
 35  20  36  1   
 36  21  23  1   
 37  21  37  1   
 38  21  38  1   
 39  22  24  1   
 40  22  39  1   
 41  22  40  1   
 42  23  24  1   
 43  23  41  1   
 44  23  42  1   
 45  24  25  1   
 46  24  43  1   
 47  25  44  1   
 48  25  45  1   
 49  25  46  1   
@<TRIPOS>SUBSTRUCTURE
  1 ****   5 GROUP 4 **** **** 0

# MOE 2024.06 (io_trps.svl 2023.06)
