@<TRIPOS>MOLECULE
NONAME
39 40 1 0 0 
SMALL
USER_CHARGES


@<TRIPOS>ATOM
  1 O        0.8240     0.7380     2.4320 O.2   1 <1>  -0.5700 
  2 C        1.3130     1.0800     1.3850 C.2   1 <1>   0.6590 
  3 O        0.5730     1.3580     0.3180 O.3   1 <1>  -0.4300 
  4 C        2.8150     1.2340     1.2190 C.3   1 <1>   0.1810 
  5 C       -0.8290     1.2250     0.3400 C.3   1 <1>   0.1200 
  6 O        3.3160     0.3160     0.2550 O.3   1 <1>  -0.3630 
  7 C       -1.3600     1.5990    -1.0400 C.3   1 <1>  -0.2400 
  8 C        4.6240     0.2980    -0.0750 C.ar  1 <1>   0.3920 
  9 N        5.4250     1.1540     0.5520 N.ar  1 <1>  -0.6200 
 10 C        5.0420    -0.6110    -1.0470 C.ar  1 <1>   0.0730 
 11 C        6.7010     1.1140     0.2100 C.ar  1 <1>   0.1670 
 12 C        4.1170    -1.4990    -1.6810 C.1   1 <1>   0.4840 
 13 C        6.3840    -0.6300    -1.3830 C.ar  1 <1>  -0.1500 
 14 C        7.2290     0.2520    -0.7390 C.ar  1 <1>  -0.1440 
 15 C        7.6110     2.1020     0.9110 C.3   1 <1>  -0.0160 
 16 N        3.4160    -2.2260    -2.2110 N.1   1 <1>  -0.5570 
 17 C        8.7180     0.2580    -1.0640 C.3   1 <1>   0.2630 
 18 C        9.0930     1.7110     0.8020 C.3   1 <1>   0.2800 
 19 O        9.3700     1.3710    -0.5210 O.3   1 <1>  -0.5600 
 20 C        9.4720     0.5490     1.7350 C.3   1 <1>  -0.2400 
 21 C        9.9880     2.9120     1.1120 C.3   1 <1>  -0.2400 
 22 H        3.3030     1.0430     2.1570 H     1 <1>   0.0800 
 23 H        3.0380     2.2320     0.8880 H     1 <1>   0.0800 
 24 H       -1.2230     1.8800     1.0990 H     1 <1>   0.0800 
 25 H       -1.0700     0.2030     0.5830 H     1 <1>   0.0800 
 26 H       -1.1020     2.6170    -1.2730 H     1 <1>   0.0800 
 27 H       -2.4300     1.5040    -1.0550 H     1 <1>   0.0800 
 28 H       -0.9460     0.9430    -1.7850 H     1 <1>   0.0800 
 29 H        6.7540    -1.3160    -2.1270 H     1 <1>   0.1500 
 30 H        7.3360     2.1770     1.9470 H     1 <1>   0.0800 
 31 H        7.4590     3.0680     0.4640 H     1 <1>   0.0800 
 32 H        8.8650     0.2940    -2.1290 H     1 <1>   0.0800 
 33 H        9.1920    -0.6300    -0.6840 H     1 <1>   0.0800 
 34 H        8.8090    -0.2880     1.6150 H     1 <1>   0.0800 
 35 H        9.4040     0.8680     2.7590 H     1 <1>   0.0800 
 36 H       10.4830     0.2360     1.5470 H     1 <1>   0.0800 
 37 H        9.7810     3.7190     0.4310 H     1 <1>   0.0800 
 38 H       11.0230     2.6380     1.0180 H     1 <1>   0.0800 
 39 H        9.8170     3.2590     2.1150 H     1 <1>   0.0800 
@<TRIPOS>BOND
  1   1   2  2   
  2   2   3  1   
  3   2   4  1   
  4   3   5  1   
  5   4   6  1   
  6   4  22  1   
  7   4  23  1   
  8   5   7  1   
  9   5  24  1   
 10   5  25  1   
 11   6   8  1   
 12   7  26  1   
 13   7  27  1   
 14   7  28  1   
 15   8   9  ar  
 16   8  10  ar  
 17   9  11  ar  
 18  10  12  1   
 19  10  13  ar  
 20  11  14  ar  
 21  11  15  1   
 22  12  16  3   
 23  13  14  ar  
 24  13  29  1   
 25  14  17  1   
 26  15  18  1   
 27  15  30  1   
 28  15  31  1   
 29  17  19  1   
 30  17  32  1   
 31  17  33  1   
 32  18  19  1   
 33  18  20  1   
 34  18  21  1   
 35  20  34  1   
 36  20  35  1   
 37  20  36  1   
 38  21  37  1   
 39  21  38  1   
 40  21  39  1   
@<TRIPOS>SUBSTRUCTURE
  1 ****   8 GROUP 4 **** **** 0

# MOE 2024.06 (io_trps.svl 2023.06)
