@<TRIPOS>MOLECULE
NONAME
46 48 1 0 0 
SMALL
USER_CHARGES


@<TRIPOS>ATOM
  1 S       -0.5760     0.6710     2.0440 S.o2  1 <1>   1.4470 
  2 O       -0.7280     1.3740     3.2990 O.2   1 <1>  -0.6500 
  3 O       -0.8100    -0.7560     1.9920 O.2   1 <1>  -0.6500 
  4 N       -1.6760     1.3730     0.9660 N.am  1 <1>  -0.8490 
  5 C        1.0310     1.0410     1.2880 C.ar  1 <1>  -0.0090 
  6 C       -3.0600     0.9390     1.3030 C.3   1 <1>   0.2570 
  7 C       -1.5830     2.8370     0.9260 C.3   1 <1>   0.1960 
  8 C        1.3010     0.7120    -0.0160 C.ar  1 <1>  -0.1500 
  9 C        2.0400     1.6850     2.0270 C.ar  1 <1>  -0.1500 
 10 C       -4.1400     1.3220     0.2810 C.2   1 <1>   0.5690 
 11 C       -1.5620     3.2930    -0.5290 C.3   1 <1>  -0.2400 
 12 C        2.5330     1.0040    -0.6320 C.ar  1 <1>   0.0000 
 13 C        3.2490     1.9820     1.4630 C.ar  1 <1>  -0.1500 
 14 O       -4.9500     2.1650     0.5960 O.2   1 <1>  -0.5700 
 15 N       -4.1760     0.7190    -0.9490 N.am  1 <1>  -0.6600 
 16 C        3.5300     1.6550     0.1230 C.ar  1 <1>   0.0000 
 17 C        2.8070     0.6720    -1.9750 C.ar  1 <1>  -0.1500 
 18 C       -3.1500    -0.2100    -1.4720 C.3   1 <1>   0.1400 
 19 C       -5.1520     1.0840    -1.9950 C.3   1 <1>   0.1400 
 20 C        4.7620     1.9520    -0.4940 C.ar  1 <1>  -0.1500 
 21 C        4.0120     0.9720    -2.5480 C.ar  1 <1>  -0.1500 
 22 C       -3.6410    -0.5860    -2.8650 C.3   1 <1>  -0.1600 
 23 C       -4.5300     0.5800    -3.2920 C.3   1 <1>  -0.1600 
 24 C        5.0010     1.6200    -1.7980 C.ar  1 <1>  -0.1500 
 25 H       -3.3400     1.3450     2.2600 H     1 <1>   0.0800 
 26 H       -3.0910    -0.1310     1.3950 H     1 <1>   0.0800 
 27 H       -0.6730     3.1750     1.3960 H     1 <1>   0.0800 
 28 H       -2.4060     3.2960     1.4520 H     1 <1>   0.0800 
 29 H        0.5490     0.2140    -0.6020 H     1 <1>   0.1500 
 30 H        1.8410     1.9430     3.0550 H     1 <1>   0.1500 
 31 H       -2.4810     3.0410    -1.0250 H     1 <1>   0.0800 
 32 H       -0.7380     2.8390    -1.0500 H     1 <1>   0.0800 
 33 H       -1.4430     4.3600    -0.5680 H     1 <1>   0.0800 
 34 H        4.0130     2.4750     2.0390 H     1 <1>   0.1500 
 35 H        2.0460     0.1730    -2.5460 H     1 <1>   0.1500 
 36 H       -3.0500    -1.0760    -0.8400 H     1 <1>   0.0800 
 37 H       -2.2060     0.3060    -1.5340 H     1 <1>   0.0800 
 38 H       -5.3170     2.1490    -2.0170 H     1 <1>   0.0800 
 39 H       -6.0820     0.5790    -1.7970 H     1 <1>   0.0800 
 40 H        5.5190     2.4490     0.0860 H     1 <1>   0.1500 
 41 H        4.2160     0.7170    -3.5730 H     1 <1>   0.1500 
 42 H       -4.2280    -1.4850    -2.7960 H     1 <1>   0.0800 
 43 H       -2.8250    -0.7520    -3.5460 H     1 <1>   0.0800 
 44 H       -3.9270     1.3640    -3.7160 H     1 <1>   0.0800 
 45 H       -5.2780     0.2880    -4.0070 H     1 <1>   0.0800 
 46 H        5.9430     1.8490    -2.2640 H     1 <1>   0.1500 
@<TRIPOS>BOND
  1   1   2  2   
  2   1   3  2   
  3   1   4  am  
  4   1   5  1   
  5   4   6  1   
  6   4   7  1   
  7   5   8  ar  
  8   5   9  ar  
  9   6  10  1   
 10   6  25  1   
 11   6  26  1   
 12   7  11  1   
 13   7  27  1   
 14   7  28  1   
 15   8  12  ar  
 16   8  29  1   
 17   9  13  ar  
 18   9  30  1   
 19  10  14  2   
 20  10  15  am  
 21  11  31  1   
 22  11  32  1   
 23  11  33  1   
 24  12  16  ar  
 25  12  17  ar  
 26  13  16  ar  
 27  13  34  1   
 28  15  18  1   
 29  15  19  1   
 30  16  20  ar  
 31  17  21  ar  
 32  17  35  1   
 33  18  22  1   
 34  18  36  1   
 35  18  37  1   
 36  19  23  1   
 37  19  38  1   
 38  19  39  1   
 39  20  24  ar  
 40  20  40  1   
 41  21  24  ar  
 42  21  41  1   
 43  22  23  1   
 44  22  42  1   
 45  22  43  1   
 46  23  44  1   
 47  23  45  1   
 48  24  46  1   
@<TRIPOS>SUBSTRUCTURE
  1 ****   4 GROUP 4 **** **** 0

# MOE 2024.06 (io_trps.svl 2023.06)
