@<TRIPOS>MOLECULE
NONAME
32 33 1 0 0 
SMALL
USER_CHARGES


@<TRIPOS>ATOM
  1 CL      -1.7420     0.6340    -2.9680 Cl    1 <1>  -0.1770 
  2 C       -2.3300     1.2260    -1.4380 C.ar  1 <1>   0.1770 
  3 C       -3.4440     0.6330    -0.8730 C.ar  1 <1>  -0.1500 
  4 C       -1.6800     2.2750    -0.8180 C.ar  1 <1>  -0.1500 
  5 C       -3.9280     1.1030     0.3420 C.ar  1 <1>  -0.1440 
  6 C       -2.1560     2.7380     0.3970 C.ar  1 <1>  -0.1500 
  7 C       -3.2730     2.1540     0.9730 C.ar  1 <1>  -0.1500 
  8 C       -5.1580     0.4760     0.9700 C.3   1 <1>   0.4870 
  9 N       -6.3610     0.9080     0.2030 N.4   1 <1>  -0.9590 
 10 C       -6.5680     2.3880     0.2980 C.3   1 <1>   0.3430 
 11 C       -7.5680     0.1310     0.6110 C.3   1 <1>   0.3430 
 12 C       -7.7440     2.8060    -0.5810 C.3   1 <1>  -0.1600 
 13 C       -8.7560     0.5160    -0.2670 C.3   1 <1>  -0.1600 
 14 C       -8.9940     2.0220    -0.1960 C.3   1 <1>   0.2000 
 15 O      -10.0050     2.3480    -1.0650 O.3   1 <1>  -0.6800 
 16 H       -3.9050    -0.1870    -1.3930 H     1 <1>   0.1500 
 17 H       -0.8140     2.7180    -1.2790 H     1 <1>   0.1500 
 18 H       -1.6520     3.5530     0.8920 H     1 <1>   0.1500 
 19 H       -3.6170     2.5310     1.9220 H     1 <1>   0.1500 
 20 H       -5.2420     0.7800     2.0010 H     1 <1>   0.0800 
 21 H       -5.0630    -0.5970     0.9370 H     1 <1>   0.0800 
 22 H       -6.1610     0.7010    -0.7840 H     1 <1>   0.4500 
 23 H       -5.6810     2.9100    -0.0250 H     1 <1>   0.0800 
 24 H       -6.7690     2.6640     1.3210 H     1 <1>   0.0800 
 25 H       -7.8050     0.3380     1.6430 H     1 <1>   0.0800 
 26 H       -7.3800    -0.9270     0.5120 H     1 <1>   0.0800 
 27 H       -7.4920     2.6410    -1.6140 H     1 <1>   0.0800 
 28 H       -7.9270     3.8570    -0.4420 H     1 <1>   0.0800 
 29 H       -9.6330     0.0030     0.0870 H     1 <1>   0.0800 
 30 H       -8.5680     0.2070    -1.2800 H     1 <1>   0.0800 
 31 H       -9.3210     2.3020     0.7930 H     1 <1>   0.0800 
 32 H       -9.7770     2.1420    -1.9920 H     1 <1>   0.4000 
@<TRIPOS>BOND
  1   1   2  1   
  2   2   3  ar  
  3   2   4  ar  
  4   3   5  ar  
  5   3  16  1   
  6   4   6  ar  
  7   4  17  1   
  8   5   7  ar  
  9   5   8  1   
 10   6   7  ar  
 11   6  18  1   
 12   7  19  1   
 13   8   9  1   
 14   8  20  1   
 15   8  21  1   
 16   9  10  1   
 17   9  11  1   
 18   9  22  1   
 19  10  12  1   
 20  10  23  1   
 21  10  24  1   
 22  11  13  1   
 23  11  25  1   
 24  11  26  1   
 25  12  14  1   
 26  12  27  1   
 27  12  28  1   
 28  13  14  1   
 29  13  29  1   
 30  13  30  1   
 31  14  15  1   
 32  14  31  1   
 33  15  32  1   
@<TRIPOS>SUBSTRUCTURE
  1 ****   9 GROUP 4 **** **** 0

# MOE 2024.06 (io_trps.svl 2023.06)
