@<TRIPOS>MOLECULE
NONAME
25 25 1 0 0 
SMALL
USER_CHARGES


@<TRIPOS>ATOM
  1 O       -3.5100     0.3630     2.7270 O.3   1 <1>  -0.3370 
  2 N       -3.6650    -0.8000     2.1150 N.2   1 <1>  -0.5130 
  3 C       -4.3280    -0.9240     1.0390 C.2   1 <1>   0.3280 
  4 C       -4.4920    -2.2940     0.3370 C.3   1 <1>   0.3170 
  5 C       -4.9870     0.2460     0.2920 C.3   1 <1>  -0.0990 
  6 N       -3.6350    -2.2730    -0.8840 N.4   1 <1>  -0.2260 
  7 C       -5.9770    -2.5170    -0.0360 C.3   1 <1>  -0.1600 
  8 C       -4.0260    -3.4690     1.2210 C.3   1 <1>  -0.2400 
  9 C       -6.4530    -0.0400    -0.0570 C.3   1 <1>  -0.1600 
 10 O       -3.7870    -3.3790    -1.6690 O.2   1 <1>  -0.7500 
 11 C       -6.5930    -1.3560    -0.8290 C.3   1 <1>  -0.1600 
 12 H       -4.2090     1.0310     2.5910 H     1 <1>   0.4000 
 13 H       -4.9500     1.1530     0.8640 H     1 <1>   0.0800 
 14 H       -4.4400     0.4300    -0.6150 H     1 <1>   0.0800 
 15 H       -2.6510    -2.2200    -0.5980 H     1 <1>   0.3600 
 16 H       -3.8560    -1.4560    -1.4560 H     1 <1>   0.3600 
 17 H       -6.0780    -3.4310    -0.5980 H     1 <1>   0.0800 
 18 H       -6.5420    -2.6450     0.8710 H     1 <1>   0.0800 
 19 H       -4.5900    -3.4930     2.1360 H     1 <1>   0.0800 
 20 H       -2.9850    -3.3710     1.4710 H     1 <1>   0.0800 
 21 H       -4.1730    -4.4050     0.7100 H     1 <1>   0.0800 
 22 H       -7.0310    -0.0990     0.8510 H     1 <1>   0.0800 
 23 H       -6.8520     0.7670    -0.6480 H     1 <1>   0.0800 
 24 H       -6.1150    -1.2780    -1.7920 H     1 <1>   0.0800 
 25 H       -7.6360    -1.5600    -1.0040 H     1 <1>   0.0800 
@<TRIPOS>BOND
  1   1   2  1   
  2   1  12  1   
  3   2   3  2   
  4   3   4  1   
  5   3   5  1   
  6   4   6  1   
  7   4   7  1   
  8   4   8  1   
  9   5   9  1   
 10   5  13  1   
 11   5  14  1   
 12   6  10  2   
 13   6  15  1   
 14   6  16  1   
 15   7  11  1   
 16   7  17  1   
 17   7  18  1   
 18   8  19  1   
 19   8  20  1   
 20   8  21  1   
 21   9  11  1   
 22   9  22  1   
 23   9  23  1   
 24  11  24  1   
 25  11  25  1   
@<TRIPOS>SUBSTRUCTURE
  1 ****   4 GROUP 4 **** **** 0

# MOE 2024.06 (io_trps.svl 2023.06)
