@<TRIPOS>MOLECULE
NONAME
37 38 1 0 0 
SMALL
USER_CHARGES


@<TRIPOS>ATOM
  1 CL      -0.3640    -0.3380    -1.0980 Cl    1 <1>  -0.1770 
  2 C       -1.7010     0.6990    -0.6710 C.ar  1 <1>   0.1770 
  3 C       -2.8620     0.1360    -0.1730 C.ar  1 <1>  -0.1500 
  4 C       -1.5760     2.0660    -0.8370 C.ar  1 <1>  -0.1500 
  5 C       -3.9260     0.9570     0.1710 C.ar  1 <1>  -0.1440 
  6 C       -2.6390     2.8850    -0.4970 C.ar  1 <1>  -0.1500 
  7 C       -3.8060     2.3310     0.0040 C.ar  1 <1>  -0.1500 
  8 C       -5.2150     0.3760     0.7270 C.3   1 <1>   0.2840 
  9 N       -6.3060     0.6160    -0.2200 N.am  1 <1>  -0.7300 
 10 C       -7.5730     0.2000     0.0050 C.2   1 <1>   0.5690 
 11 O       -7.7920    -0.6950     0.7920 O.2   1 <1>  -0.5700 
 12 C       -8.7210     0.8700    -0.7800 C.3   1 <1>  -0.0190 
 13 C       -8.9850     2.3640    -0.4080 C.3   1 <1>  -0.1860 
 14 C      -10.0300     0.0290    -0.7470 C.3   1 <1>  -0.1600 
 15 C       -7.7070     3.1340    -0.0960 C.2   1 <1>   0.9060 
 16 C      -10.0860     2.4760     0.6660 C.3   1 <1>  -0.1600 
 17 C      -11.2850     0.8830    -0.9660 C.3   1 <1>  -0.1600 
 18 O       -7.4960     3.5940     1.0280 O.co2 1 <1>  -0.9000 
 19 O       -6.8650     3.2220    -0.9990 O.co2 1 <1>  -0.9000 
 20 C      -11.4340     1.9300     0.1540 C.3   1 <1>  -0.1600 
 21 H       -2.9300    -0.9300    -0.0610 H     1 <1>   0.1500 
 22 H       -0.6650     2.4790    -1.2280 H     1 <1>   0.1500 
 23 H       -2.5740     3.9520    -0.6240 H     1 <1>   0.1500 
 24 H       -4.6360     2.9770     0.2590 H     1 <1>   0.1500 
 25 H       -5.4560     0.8570     1.6600 H     1 <1>   0.0800 
 26 H       -5.1190    -0.6820     0.9000 H     1 <1>   0.0800 
 27 H       -6.2180     1.5350    -0.7030 H     1 <1>   0.3700 
 28 H       -8.3870     0.8860    -1.8020 H     1 <1>   0.0800 
 29 H       -9.3670     2.8500    -1.2860 H     1 <1>   0.0800 
 30 H      -10.1390    -0.4470     0.2110 H     1 <1>   0.0800 
 31 H       -9.9720    -0.7480    -1.4880 H     1 <1>   0.0800 
 32 H      -10.1990     3.5030     0.9690 H     1 <1>   0.0800 
 33 H       -9.7680     1.9200     1.5330 H     1 <1>   0.0800 
 34 H      -12.1590     0.2550    -0.9930 H     1 <1>   0.0800 
 35 H      -11.2080     1.3800    -1.9180 H     1 <1>   0.0800 
 36 H      -12.0300     2.7450    -0.2160 H     1 <1>   0.0800 
 37 H      -11.9600     1.4950     0.9860 H     1 <1>   0.0800 
@<TRIPOS>BOND
  1   1   2  1   
  2   2   3  ar  
  3   2   4  ar  
  4   3   5  ar  
  5   3  21  1   
  6   4   6  ar  
  7   4  22  1   
  8   5   7  ar  
  9   5   8  1   
 10   6   7  ar  
 11   6  23  1   
 12   7  24  1   
 13   8   9  1   
 14   8  25  1   
 15   8  26  1   
 16   9  10  am  
 17   9  27  1   
 18  10  11  2   
 19  10  12  1   
 20  12  13  1   
 21  12  14  1   
 22  12  28  1   
 23  13  15  1   
 24  13  16  1   
 25  13  29  1   
 26  14  17  1   
 27  14  30  1   
 28  14  31  1   
 29  15  18  ar  
 30  15  19  ar  
 31  16  20  1   
 32  16  32  1   
 33  16  33  1   
 34  17  20  1   
 35  17  34  1   
 36  17  35  1   
 37  20  36  1   
 38  20  37  1   
@<TRIPOS>SUBSTRUCTURE
  1 ****   9 GROUP 4 **** **** 0

# MOE 2024.06 (io_trps.svl 2023.06)
