@<TRIPOS>MOLECULE
NONAME
44 45 1 0 0 
SMALL
USER_CHARGES


@<TRIPOS>ATOM
  1 BR       0.8280    -0.3950    -2.0310 Br    1 <1>  -0.1110 
  2 C       -0.0150    -1.6610    -0.8450 C.ar  1 <1>   0.1110 
  3 C        0.4930    -1.8710     0.4290 C.ar  1 <1>   0.0830 
  4 C       -1.1320    -2.3310    -1.3070 C.ar  1 <1>  -0.1500 
  5 O        1.5710    -1.2020     0.8870 O.3   1 <1>  -0.3630 
  6 C       -0.1470    -2.7770     1.2580 C.ar  1 <1>  -0.1500 
  7 C       -1.7730    -3.2340    -0.4670 C.ar  1 <1>  -0.1430 
  8 C        2.8300    -1.7590     0.5820 C.3   1 <1>   0.0400 
  9 C       -1.2700    -3.4570     0.8110 C.ar  1 <1>  -0.1500 
 10 C       -3.0180    -3.9620    -0.9420 C.3   1 <1>   0.4870 
 11 N       -4.2110    -3.3450    -0.2980 N.4   1 <1>  -0.9590 
 12 C       -5.4370    -4.1660    -0.5590 C.3   1 <1>   0.3430 
 13 C       -4.3860    -1.9200    -0.7160 C.3   1 <1>   0.3430 
 14 C       -6.6680    -3.5900     0.1510 C.3   1 <1>  -0.0190 
 15 C       -5.5770    -1.3070     0.0230 C.3   1 <1>  -0.1600 
 16 C       -7.8780    -4.4260    -0.2270 C.2   1 <1>   0.6590 
 17 C       -6.8680    -2.1050    -0.2070 C.3   1 <1>  -0.1600 
 18 O       -7.8220    -5.2340    -1.1170 O.2   1 <1>  -0.5700 
 19 O       -8.9760    -4.2110     0.4790 O.3   1 <1>  -0.4300 
 20 C      -10.1690    -4.9170     0.2240 C.3   1 <1>   0.1200 
 21 C      -11.2280    -4.4240     1.2050 C.3   1 <1>  -0.2400 
 22 H       -1.4790    -2.1350    -2.3060 H     1 <1>   0.1500 
 23 H        0.2410    -2.9420     2.2490 H     1 <1>   0.1500 
 24 H        3.5890    -1.1260     1.0060 H     1 <1>   0.0800 
 25 H        2.9450    -1.8040    -0.4870 H     1 <1>   0.0800 
 26 H        2.8890    -2.7440     1.0090 H     1 <1>   0.0800 
 27 H       -1.7400    -4.1610     1.4770 H     1 <1>   0.1500 
 28 H       -2.9440    -5.0030    -0.6680 H     1 <1>   0.0800 
 29 H       -3.0970    -3.8980    -2.0150 H     1 <1>   0.0800 
 30 H       -4.0240    -3.3350     0.7120 H     1 <1>   0.4500 
 31 H       -5.2840    -5.1810    -0.2280 H     1 <1>   0.0800 
 32 H       -5.6340    -4.1940    -1.6200 H     1 <1>   0.0800 
 33 H       -4.5580    -1.8690    -1.7790 H     1 <1>   0.0800 
 34 H       -3.4960    -1.3540    -0.4890 H     1 <1>   0.0800 
 35 H       -6.5310    -3.6880     1.2130 H     1 <1>   0.0800 
 36 H       -5.7180    -0.2970    -0.3230 H     1 <1>   0.0800 
 37 H       -5.3560    -1.2540     1.0760 H     1 <1>   0.0800 
 38 H       -7.6640    -1.6890     0.3900 H     1 <1>   0.0800 
 39 H       -7.1610    -2.0200    -1.2410 H     1 <1>   0.0800 
 40 H       -9.9810    -5.9690     0.3560 H     1 <1>   0.0800 
 41 H      -10.4690    -4.7280    -0.7940 H     1 <1>   0.0800 
 42 H      -10.9150    -4.6100     2.2160 H     1 <1>   0.0800 
 43 H      -12.1520    -4.9460     1.0320 H     1 <1>   0.0800 
 44 H      -11.4010    -3.3710     1.0680 H     1 <1>   0.0800 
@<TRIPOS>BOND
  1   1   2  1   
  2   2   3  ar  
  3   2   4  ar  
  4   3   5  1   
  5   3   6  ar  
  6   4   7  ar  
  7   4  22  1   
  8   5   8  1   
  9   6   9  ar  
 10   6  23  1   
 11   7   9  ar  
 12   7  10  1   
 13   8  24  1   
 14   8  25  1   
 15   8  26  1   
 16   9  27  1   
 17  10  11  1   
 18  10  28  1   
 19  10  29  1   
 20  11  12  1   
 21  11  13  1   
 22  11  30  1   
 23  12  14  1   
 24  12  31  1   
 25  12  32  1   
 26  13  15  1   
 27  13  33  1   
 28  13  34  1   
 29  14  16  1   
 30  14  17  1   
 31  14  35  1   
 32  15  17  1   
 33  15  36  1   
 34  15  37  1   
 35  16  18  2   
 36  16  19  1   
 37  17  38  1   
 38  17  39  1   
 39  19  20  1   
 40  20  21  1   
 41  20  40  1   
 42  20  41  1   
 43  21  42  1   
 44  21  43  1   
 45  21  44  1   
@<TRIPOS>SUBSTRUCTURE
  1 ****  11 GROUP 4 **** **** 0

# MOE 2024.06 (io_trps.svl 2023.06)
