@<TRIPOS>MOLECULE
NONAME
40 43 1 0 0 
SMALL
USER_CHARGES


@<TRIPOS>ATOM
  1 BR      -0.2050     0.5100     0.3390 Br    1 <1>  -0.1110 
  2 C       -1.9220     1.0450    -0.3440 C.ar  1 <1>   0.1110 
  3 C       -3.0600     0.6240     0.3120 C.ar  1 <1>  -0.1500 
  4 C       -1.9670     1.8350    -1.4750 C.ar  1 <1>  -0.1500 
  5 C       -4.3170     0.9940    -0.1660 C.ar  1 <1>   0.0860 
  6 C       -3.2060     2.2170    -1.9570 C.ar  1 <1>  -0.1500 
  7 C       -5.5250     0.5480     0.5060 C.2   1 <1>   0.5440 
  8 C       -4.3590     1.8030    -1.3080 C.ar  1 <1>  -0.1500 
  9 O       -5.5170     0.3000     1.6960 O.2   1 <1>  -0.5700 
 10 N       -6.6860     0.3840    -0.1930 N.am  1 <1>  -0.7300 
 11 C       -7.9800    -0.0650     0.3640 C.3   1 <1>   0.2200 
 12 C       -8.3290    -1.4730    -0.1660 C.3   1 <1>  -0.0800 
 13 C       -9.1000     0.9230    -0.0280 C.3   1 <1>  -0.0800 
 14 C       -8.5340    -1.4500    -1.6980 C.3   1 <1>  -0.1600 
 15 C       -9.6440    -1.9320     0.4980 C.3   1 <1>  -0.1600 
 16 C       -9.3040     0.9450    -1.5610 C.3   1 <1>  -0.1600 
 17 C      -10.4130     0.4600     0.6360 C.3   1 <1>  -0.1600 
 18 C       -9.6630    -0.4670    -2.0650 C.3   1 <1>  -0.0800 
 19 C      -10.7830    -0.9540     0.1460 C.3   1 <1>  -0.0800 
 20 C      -10.9670    -0.9250    -1.3830 C.3   1 <1>  -0.1600 
 21 H       -2.9790     0.0110     1.1930 H     1 <1>   0.1500 
 22 H       -1.0580     2.1440    -1.9610 H     1 <1>   0.1500 
 23 H       -3.2730     2.8390    -2.8340 H     1 <1>   0.1500 
 24 H       -5.3110     2.1230    -1.6910 H     1 <1>   0.1500 
 25 H       -6.6820     0.4610    -1.2070 H     1 <1>   0.3700 
 26 H       -7.9070    -0.1030     1.4390 H     1 <1>   0.0800 
 27 H       -7.5410    -2.1570     0.0970 H     1 <1>   0.0800 
 28 H       -8.8490     1.9060     0.3300 H     1 <1>   0.0800 
 29 H       -8.7890    -2.4370    -2.0420 H     1 <1>   0.0800 
 30 H       -7.6230    -1.1660    -2.1940 H     1 <1>   0.0800 
 31 H       -9.8960    -2.9220     0.1620 H     1 <1>   0.0800 
 32 H       -9.5170    -1.9740     1.5660 H     1 <1>   0.0800 
 33 H      -10.0980     1.6290    -1.8080 H     1 <1>   0.0800 
 34 H       -8.4160     1.2970    -2.0530 H     1 <1>   0.0800 
 35 H      -11.2060     1.1480     0.3960 H     1 <1>   0.0800 
 36 H      -10.2990     0.4560     1.7060 H     1 <1>   0.0800 
 37 H       -9.8000    -0.4490    -3.1330 H     1 <1>   0.0800 
 38 H      -11.6970    -1.2750     0.6160 H     1 <1>   0.0800 
 39 H      -11.2370    -1.9050    -1.7360 H     1 <1>   0.0800 
 40 H      -11.7680    -0.2550    -1.6410 H     1 <1>   0.0800 
@<TRIPOS>BOND
  1   1   2  1   
  2   2   3  ar  
  3   2   4  ar  
  4   3   5  ar  
  5   3  21  1   
  6   4   6  ar  
  7   4  22  1   
  8   5   7  1   
  9   5   8  ar  
 10   6   8  ar  
 11   6  23  1   
 12   7   9  2   
 13   7  10  am  
 14   8  24  1   
 15  10  11  1   
 16  10  25  1   
 17  11  12  1   
 18  11  13  1   
 19  11  26  1   
 20  12  14  1   
 21  12  15  1   
 22  12  27  1   
 23  13  16  1   
 24  13  17  1   
 25  13  28  1   
 26  14  18  1   
 27  14  29  1   
 28  14  30  1   
 29  15  19  1   
 30  15  31  1   
 31  15  32  1   
 32  16  18  1   
 33  16  33  1   
 34  16  34  1   
 35  17  19  1   
 36  17  35  1   
 37  17  36  1   
 38  18  20  1   
 39  18  37  1   
 40  19  20  1   
 41  19  38  1   
 42  20  39  1   
 43  20  40  1   
@<TRIPOS>SUBSTRUCTURE
  1 ****  10 GROUP 4 **** **** 0

# MOE 2024.06 (io_trps.svl 2023.06)
