@<TRIPOS>MOLECULE
NONAME
56 59 1 0 0 
SMALL
USER_CHARGES


@<TRIPOS>ATOM
  1 O       -0.9170     0.6010     0.8340 O.2   1 <1>  -0.5700 
  2 C       -1.9190     1.2460     0.6040 C.2   1 <1>   0.6900 
  3 N       -3.0860     0.5990     0.2100 N.am  1 <1>  -0.4200 
  4 N       -1.8980     2.6270     0.7350 N.am  1 <1>  -0.4360 
  5 C       -4.2520     1.3080    -0.0460 C.2   1 <1>   0.7030 
  6 C       -3.0740    -0.8940     0.0910 C.3   1 <1>   0.0600 
  7 C       -3.0550     3.3240     0.4450 C.2   1 <1>   0.4260 
  8 C       -0.6580     3.3430     1.1570 C.3   1 <1>   0.0600 
  9 O       -5.2790     0.7280    -0.3560 O.2   1 <1>  -0.5700 
 10 C       -4.2170     2.7390     0.0680 C.2   1 <1>   0.2770 
 11 N       -3.2500     4.6640     0.4740 N.pl3 1 <1>  -0.7000 
 12 N       -5.1420     3.7740    -0.1310 N.pl3 1 <1>  -0.7640 
 13 C       -4.5050     4.9140     0.1220 C.cat 1 <1>   0.6560 
 14 C       -6.5530     3.5540    -0.5640 C.3   1 <1>   0.3540 
 15 C       -5.0450     6.3520     0.0520 C.3   1 <1>   0.2540 
 16 C       -7.4270     3.1540     0.6250 C.3   1 <1>  -0.0170 
 17 N       -3.9370     7.3450     0.0660 N.3   1 <1>  -0.8100 
 18 C       -8.8600     2.9750     0.1580 C.ar  1 <1>  -0.1430 
 19 C       -3.3470     7.5220    -1.2760 C.3   1 <1>   0.1100 
 20 C       -4.3790     8.6410     0.6130 C.3   1 <1>   0.1100 
 21 C       -9.7850     3.9990     0.3020 C.ar  1 <1>  -0.1500 
 22 C       -9.2500     1.7800    -0.4270 C.ar  1 <1>  -0.1500 
 23 C       -2.1020     8.4080    -1.1820 C.3   1 <1>  -0.1600 
 24 C       -3.1740     9.5730     0.7710 C.3   1 <1>  -0.1600 
 25 C      -11.0850     3.8300    -0.1420 C.ar  1 <1>  -0.1500 
 26 C      -10.5500     1.6120    -0.8700 C.ar  1 <1>  -0.1500 
 27 C       -2.4380     9.7680    -0.5600 C.3   1 <1>  -0.1600 
 28 C      -11.4680     2.6370    -0.7290 C.ar  1 <1>  -0.1500 
 29 H       -2.1540    -1.2210    -0.3640 H     1 <1>   0.0800 
 30 H       -3.8910    -1.2440    -0.5160 H     1 <1>   0.0800 
 31 H       -3.1510    -1.3340     1.0700 H     1 <1>   0.0800 
 32 H        0.0190     2.6720     1.6600 H     1 <1>   0.0800 
 33 H       -0.9010     4.1410     1.8370 H     1 <1>   0.0800 
 34 H       -0.1600     3.7480     0.2930 H     1 <1>   0.0800 
 35 H       -2.6040     5.4290     0.6940 H     1 <1>   0.4500 
 36 H       -6.5870     2.7790    -1.3130 H     1 <1>   0.0800 
 37 H       -6.9470     4.4520    -1.0080 H     1 <1>   0.0800 
 38 H       -5.6710     6.5010     0.9140 H     1 <1>   0.0800 
 39 H       -5.6480     6.4820    -0.8290 H     1 <1>   0.0800 
 40 H       -7.3870     3.9130     1.3860 H     1 <1>   0.0800 
 41 H       -7.0770     2.2290     1.0480 H     1 <1>   0.0800 
 42 H       -4.0640     7.9790    -1.9380 H     1 <1>   0.0800 
 43 H       -3.0640     6.5690    -1.6900 H     1 <1>   0.0800 
 44 H       -4.8320     8.4980     1.5800 H     1 <1>   0.0800 
 45 H       -5.1060     9.0930    -0.0420 H     1 <1>   0.0800 
 46 H       -9.5090     4.9320     0.7600 H     1 <1>   0.1500 
 47 H       -8.5490     0.9700    -0.5420 H     1 <1>   0.1500 
 48 H       -1.6910     8.5560    -2.1660 H     1 <1>   0.0800 
 49 H       -1.3570     7.9110    -0.5870 H     1 <1>   0.0800 
 50 H       -2.5010     9.1550     1.5000 H     1 <1>   0.0800 
 51 H       -3.5050    10.5270     1.1410 H     1 <1>   0.0800 
 52 H      -11.8020     4.6250    -0.0290 H     1 <1>   0.1500 
 53 H      -10.8500     0.6830    -1.3230 H     1 <1>   0.1500 
 54 H       -3.0650    10.3250    -1.2360 H     1 <1>   0.0800 
 55 H       -1.5350    10.3340    -0.4020 H     1 <1>   0.0800 
 56 H      -12.4800     2.5060    -1.0720 H     1 <1>   0.1500 
@<TRIPOS>BOND
  1   1   2  2   
  2   2   3  am  
  3   2   4  am  
  4   3   5  am  
  5   3   6  1   
  6   4   7  1   
  7   4   8  1   
  8   5   9  2   
  9   5  10  1   
 10   6  29  1   
 11   6  30  1   
 12   6  31  1   
 13   7  10  2   
 14   7  11  1   
 15   8  32  1   
 16   8  33  1   
 17   8  34  1   
 18  10  12  1   
 19  11  13  ar  
 20  11  35  1   
 21  12  13  ar  
 22  12  14  1   
 23  13  15  1   
 24  14  16  1   
 25  14  36  1   
 26  14  37  1   
 27  15  17  1   
 28  15  38  1   
 29  15  39  1   
 30  16  18  1   
 31  16  40  1   
 32  16  41  1   
 33  17  19  1   
 34  17  20  1   
 35  18  21  ar  
 36  18  22  ar  
 37  19  23  1   
 38  19  42  1   
 39  19  43  1   
 40  20  24  1   
 41  20  44  1   
 42  20  45  1   
 43  21  25  ar  
 44  21  46  1   
 45  22  26  ar  
 46  22  47  1   
 47  23  27  1   
 48  23  48  1   
 49  23  49  1   
 50  24  27  1   
 51  24  50  1   
 52  24  51  1   
 53  25  28  ar  
 54  25  52  1   
 55  26  28  ar  
 56  26  53  1   
 57  27  54  1   
 58  27  55  1   
 59  28  56  1   
@<TRIPOS>SUBSTRUCTURE
  1 ****  12 GROUP 4 **** **** 0

# MOE 2024.06 (io_trps.svl 2023.06)
