@<TRIPOS>MOLECULE
NONAME
37 39 1 0 0 
SMALL
USER_CHARGES


@<TRIPOS>ATOM
  1 CL      -0.2220    -0.4890    -0.5770 Cl    1 <1>  -0.1770 
  2 C        1.3320    -1.2810    -0.4750 C.ar  1 <1>   0.1770 
  3 C        1.6020    -2.3570    -1.3000 C.ar  1 <1>  -0.1500 
  4 C        2.2700    -0.8190     0.4300 C.ar  1 <1>  -0.1500 
  5 C        2.8350    -2.9800    -1.2150 C.ar  1 <1>  -0.1500 
  6 C        3.5010    -1.4480     0.5090 C.ar  1 <1>  -0.1500 
  7 C        3.7940    -2.5350    -0.3130 C.ar  1 <1>   0.1000 
  8 N        5.0230    -3.1810    -0.2490 N.pl3 1 <1>  -0.8380 
  9 C        5.2890    -3.9790     0.9810 C.3   1 <1>   0.2090 
 10 C        6.2000    -2.4190    -0.7580 C.3   1 <1>   0.2090 
 11 C        6.5040    -4.9090     0.7720 C.3   1 <1>   0.3430 
 12 C        7.4150    -3.3520    -0.9480 C.3   1 <1>   0.3430 
 13 N        7.7280    -4.1700     0.2860 N.4   1 <1>  -0.9590 
 14 C        8.8680    -5.1000     0.0610 C.3   1 <1>   0.5230 
 15 C       10.1410    -4.2950    -0.0910 C.2   1 <1>  -0.1400 
 16 S       10.6110    -3.8260    -1.7190 S.3   1 <1>  -0.0800 
 17 C       11.0450    -3.8540     0.8050 C.2   1 <1>  -0.1500 
 18 C       12.0460    -3.0170    -1.1210 C.2   1 <1>  -0.1100 
 19 C       12.1270    -3.1230     0.2170 C.2   1 <1>  -0.1500 
 20 H        0.8560    -2.6960    -1.9960 H     1 <1>   0.1500 
 21 H        2.0330     0.0200     1.0590 H     1 <1>   0.1500 
 22 H        3.0620    -3.8170    -1.8490 H     1 <1>   0.1500 
 23 H        4.2340    -1.0950     1.2090 H     1 <1>   0.1500 
 24 H        4.4200    -4.5720     1.2120 H     1 <1>   0.0800 
 25 H        5.4680    -3.3190     1.8120 H     1 <1>   0.0800 
 26 H        6.4480    -1.6300    -0.0690 H     1 <1>   0.0800 
 27 H        5.9470    -1.9660    -1.7020 H     1 <1>   0.0800 
 28 H        6.2240    -5.6560     0.0470 H     1 <1>   0.0800 
 29 H        6.7200    -5.4130     1.6990 H     1 <1>   0.0800 
 30 H        8.2680    -2.7510    -1.2170 H     1 <1>   0.0800 
 31 H        7.2030    -4.0100    -1.7740 H     1 <1>   0.0800 
 32 H        8.0260    -3.5110     1.0150 H     1 <1>   0.4500 
 33 H        8.7040    -5.7050    -0.8170 H     1 <1>   0.0800 
 34 H        8.9750    -5.7540     0.9110 H     1 <1>   0.0800 
 35 H       11.0190    -4.0060     1.8710 H     1 <1>   0.1500 
 36 H       12.6900    -2.5430    -1.8430 H     1 <1>   0.1500 
 37 H       12.9170    -2.7150     0.8260 H     1 <1>   0.1500 
@<TRIPOS>BOND
  1   1   2  1   
  2   2   3  ar  
  3   2   4  ar  
  4   3   5  ar  
  5   3  20  1   
  6   4   6  ar  
  7   4  21  1   
  8   5   7  ar  
  9   5  22  1   
 10   6   7  ar  
 11   6  23  1   
 12   7   8  1   
 13   8   9  1   
 14   8  10  1   
 15   9  11  1   
 16   9  24  1   
 17   9  25  1   
 18  10  12  1   
 19  10  26  1   
 20  10  27  1   
 21  11  13  1   
 22  11  28  1   
 23  11  29  1   
 24  12  13  1   
 25  12  30  1   
 26  12  31  1   
 27  13  14  1   
 28  13  32  1   
 29  14  15  1   
 30  14  33  1   
 31  14  34  1   
 32  15  16  1   
 33  15  17  2   
 34  16  18  1   
 35  17  19  1   
 36  17  35  1   
 37  18  19  2   
 38  18  36  1   
 39  19  37  1   
@<TRIPOS>SUBSTRUCTURE
  1 ****  10 GROUP 4 **** **** 0

# MOE 2024.06 (io_trps.svl 2023.06)
