@<TRIPOS>MOLECULE
NONAME
40 41 1 0 0 
SMALL
USER_CHARGES


@<TRIPOS>ATOM
  1 BR       1.1940    -0.2630    -0.8510 Br    1 <1>  -0.1110 
  2 C        0.3390    -1.8410    -0.1490 C.ar  1 <1>   0.1110 
  3 C        0.8940    -2.5260     0.9160 C.ar  1 <1>   0.1900 
  4 C       -0.8400    -2.2700    -0.7320 C.ar  1 <1>  -0.1500 
  5 F        2.0060    -2.1100     1.4600 F     1 <1>  -0.1900 
  6 C        0.2820    -3.6580     1.4200 C.ar  1 <1>  -0.1500 
  7 C       -1.4720    -3.4030    -0.2280 C.ar  1 <1>  -0.1440 
  8 C       -0.9020    -4.0940     0.8410 C.ar  1 <1>  -0.1500 
  9 C       -2.7730    -3.8850    -0.8470 C.3   1 <1>   0.4870 
 10 N       -3.9100    -3.5790     0.0860 N.4   1 <1>  -0.9590 
 11 C       -5.2010    -4.2580    -0.2820 C.3   1 <1>   0.4230 
 12 C       -4.0350    -2.0810     0.2110 C.3   1 <1>   0.2630 
 13 C       -6.3110    -3.8900     0.7180 C.3   1 <1>  -0.1600 
 14 C       -5.0250    -5.7860    -0.3080 C.3   1 <1>  -0.1600 
 15 C       -7.6130    -4.6420     0.4390 C.3   1 <1>   0.3430 
 16 C       -6.3450    -6.5150    -0.5730 C.3   1 <1>   0.3430 
 17 N       -7.3640    -6.1100     0.4340 N.4   1 <1>  -0.9590 
 18 C       -8.6480    -6.8500     0.1960 C.3   1 <1>   0.2630 
 19 H       -1.2370    -1.7140    -1.5650 H     1 <1>   0.1500 
 20 H        0.7320    -4.1840     2.2450 H     1 <1>   0.1500 
 21 H       -1.3610    -4.9850     1.2370 H     1 <1>   0.1500 
 22 H       -2.6900    -4.9450    -1.0140 H     1 <1>   0.0800 
 23 H       -2.9280    -3.4030    -1.7990 H     1 <1>   0.0800 
 24 H       -3.6030    -3.9220     1.0070 H     1 <1>   0.4500 
 25 H       -5.5040    -3.9280    -1.2650 H     1 <1>   0.0800 
 26 H       -4.3500    -1.6460    -0.7240 H     1 <1>   0.0800 
 27 H       -3.0870    -1.6450     0.4870 H     1 <1>   0.0800 
 28 H       -4.7480    -1.8170     0.9750 H     1 <1>   0.0800 
 29 H       -6.5410    -2.8420     0.6510 H     1 <1>   0.0800 
 30 H       -5.9970    -4.1020     1.7250 H     1 <1>   0.0800 
 31 H       -4.6190    -6.1350     0.6250 H     1 <1>   0.0800 
 32 H       -4.3540    -6.0740    -1.0960 H     1 <1>   0.0800 
 33 H       -8.0140    -4.3380    -0.5160 H     1 <1>   0.0800 
 34 H       -8.3410    -4.3970     1.1980 H     1 <1>   0.0800 
 35 H       -6.1850    -7.5810    -0.5230 H     1 <1>   0.0800 
 36 H       -6.7010    -6.2780    -1.5640 H     1 <1>   0.0800 
 37 H       -7.0340    -6.3920     1.3720 H     1 <1>   0.4500 
 38 H       -9.0550    -6.6030    -0.7710 H     1 <1>   0.0800 
 39 H       -9.3760    -6.5930     0.9500 H     1 <1>   0.0800 
 40 H       -8.4820    -7.9150     0.2360 H     1 <1>   0.0800 
@<TRIPOS>BOND
  1   1   2  1   
  2   2   3  ar  
  3   2   4  ar  
  4   3   5  1   
  5   3   6  ar  
  6   4   7  ar  
  7   4  19  1   
  8   6   8  ar  
  9   6  20  1   
 10   7   8  ar  
 11   7   9  1   
 12   8  21  1   
 13   9  10  1   
 14   9  22  1   
 15   9  23  1   
 16  10  11  1   
 17  10  12  1   
 18  10  24  1   
 19  11  13  1   
 20  11  14  1   
 21  11  25  1   
 22  12  26  1   
 23  12  27  1   
 24  12  28  1   
 25  13  15  1   
 26  13  29  1   
 27  13  30  1   
 28  14  16  1   
 29  14  31  1   
 30  14  32  1   
 31  15  17  1   
 32  15  33  1   
 33  15  34  1   
 34  16  17  1   
 35  16  35  1   
 36  16  36  1   
 37  17  18  1   
 38  17  37  1   
 39  18  38  1   
 40  18  39  1   
 41  18  40  1   
@<TRIPOS>SUBSTRUCTURE
  1 ****  10 GROUP 4 **** **** 0

# MOE 2024.06 (io_trps.svl 2023.06)
