@<TRIPOS>MOLECULE
NONAME
39 40 1 0 0 
SMALL
USER_CHARGES


@<TRIPOS>ATOM
  1 CL       1.6480    -0.7850     0.4600 Cl    1 <1>  -0.1770 
  2 C        1.1870     0.8910     0.2990 C.ar  1 <1>   0.1770 
  3 C        2.0450     1.9200     0.6810 C.ar  1 <1>  -0.1440 
  4 C       -0.0740     1.1460    -0.2080 C.ar  1 <1>  -0.1500 
  5 C        1.5740     3.2230     0.5710 C.ar  1 <1>  -0.1500 
  6 C        3.4520     1.6740     1.2430 C.3   1 <1>  -0.0160 
  7 C       -0.5140     2.4510    -0.3310 C.ar  1 <1>  -0.1500 
  8 C        0.3120     3.4880     0.0650 C.ar  1 <1>  -0.1500 
  9 C        4.6250     1.7830     0.2200 C.3   1 <1>   0.0000 
 10 C        5.9650     1.7580     1.0020 C.3   1 <1>  -0.1600 
 11 C        4.5840     3.1500    -0.5050 C.3   1 <1>  -0.1600 
 12 C        4.5340     0.6390    -0.8330 C.3   1 <1>   0.0400 
 13 C        7.2220     2.0690     0.1490 C.3   1 <1>   0.2800 
 14 C        5.9060     3.5690    -1.1720 C.3   1 <1>   0.1200 
 15 C        4.8120    -0.7190    -0.2820 C.1   1 <1>   0.3570 
 16 O        6.8600     2.5540    -1.1070 O.3   1 <1>  -0.5600 
 17 C        8.0350     0.8030    -0.1290 C.3   1 <1>  -0.2400 
 18 C        8.1350     3.0990     0.8260 C.3   1 <1>  -0.2400 
 19 N        5.0580    -1.7420     0.1510 N.1   1 <1>  -0.5570 
 20 H       -0.7050     0.3250    -0.4990 H     1 <1>   0.1500 
 21 H        2.1850     4.0510     0.8840 H     1 <1>   0.1500 
 22 H        3.4860     0.7140     1.7270 H     1 <1>   0.0800 
 23 H        3.6090     2.3950     2.0260 H     1 <1>   0.0800 
 24 H       -1.4940     2.6580    -0.7250 H     1 <1>   0.1500 
 25 H       -0.0300     4.5050    -0.0180 H     1 <1>   0.1500 
 26 H        6.0930     0.8220     1.5160 H     1 <1>   0.0800 
 27 H        5.9080     2.4970     1.7810 H     1 <1>   0.0800 
 28 H        4.3490     3.9220     0.2040 H     1 <1>   0.0800 
 29 H        3.8010     3.1590    -1.2430 H     1 <1>   0.0800 
 30 H        5.2310     0.7990    -1.6320 H     1 <1>   0.0800 
 31 H        3.5580     0.6280    -1.2800 H     1 <1>   0.0800 
 32 H        6.3110     4.4510    -0.7060 H     1 <1>   0.0800 
 33 H        5.7430     3.7860    -2.2130 H     1 <1>   0.0800 
 34 H        7.4520     0.0820    -0.6680 H     1 <1>   0.0800 
 35 H        8.3590     0.3550     0.7930 H     1 <1>   0.0800 
 36 H        8.9060     1.0440    -0.7120 H     1 <1>   0.0800 
 37 H        7.5990     3.9980     1.0660 H     1 <1>   0.0800 
 38 H        8.9600     3.3420     0.1810 H     1 <1>   0.0800 
 39 H        8.5280     2.6940     1.7400 H     1 <1>   0.0800 
@<TRIPOS>BOND
  1   1   2  1   
  2   2   3  ar  
  3   2   4  ar  
  4   3   5  ar  
  5   3   6  1   
  6   4   7  ar  
  7   4  20  1   
  8   5   8  ar  
  9   5  21  1   
 10   6   9  1   
 11   6  22  1   
 12   6  23  1   
 13   7   8  ar  
 14   7  24  1   
 15   8  25  1   
 16   9  10  1   
 17   9  11  1   
 18   9  12  1   
 19  10  13  1   
 20  10  26  1   
 21  10  27  1   
 22  11  14  1   
 23  11  28  1   
 24  11  29  1   
 25  12  15  1   
 26  12  30  1   
 27  12  31  1   
 28  13  16  1   
 29  13  17  1   
 30  13  18  1   
 31  14  16  1   
 32  14  32  1   
 33  14  33  1   
 34  15  19  3   
 35  17  34  1   
 36  17  35  1   
 37  17  36  1   
 38  18  37  1   
 39  18  38  1   
 40  18  39  1   
@<TRIPOS>SUBSTRUCTURE
  1 ****   9 GROUP 4 **** **** 0

# MOE 2024.06 (io_trps.svl 2023.06)
