@<TRIPOS>MOLECULE
NONAME
42 45 1 0 0 
SMALL
USER_CHARGES


@<TRIPOS>ATOM
  1 O       -0.5550     0.3180     0.8170 O.2   1 <1>  -0.5700 
  2 C       -1.0810     1.3910     0.5880 C.2   1 <1>   0.5440 
  3 N       -2.4340     1.4280     0.3230 N.am  1 <1>  -0.6600 
  4 C       -0.2700     2.5910     0.6010 C.ar  1 <1>   0.0860 
  5 C       -3.3080     0.2190     0.4780 C.3   1 <1>   0.1400 
  6 C       -3.1650     2.6200    -0.2160 C.3   1 <1>   0.1400 
  7 C        0.7850     2.7500    -0.2960 C.ar  1 <1>  -0.1500 
  8 C       -0.5130     3.6210     1.5140 C.ar  1 <1>  -0.1500 
  9 C       -4.5700     0.5360     1.2990 C.3   1 <1>   0.2090 
 10 C       -4.4090     2.9340     0.6320 C.3   1 <1>   0.2090 
 11 C        1.5560     3.8960    -0.2950 C.ar  1 <1>   0.0820 
 12 C        0.2510     4.7750     1.5200 C.ar  1 <1>  -0.1500 
 13 N       -5.2870     1.7270     0.7410 N.pl3 1 <1>  -0.8380 
 14 O        2.5810     4.0000    -1.1800 O.3   1 <1>  -0.3630 
 15 C        1.2830     4.9230     0.6100 C.ar  1 <1>   0.0820 
 16 C       -6.4640     1.6010     0.0340 C.ar  1 <1>   0.7200 
 17 C        3.5490     4.9980    -0.9190 C.3   1 <1>   0.1200 
 18 O        2.0070     6.0660     0.6170 O.3   1 <1>  -0.3630 
 19 N       -7.2440     0.5650     0.3390 N.ar  1 <1>  -0.6200 
 20 N       -6.7180     2.5220    -0.8960 N.ar  1 <1>  -0.6200 
 21 C        2.8650     6.3020    -0.4850 C.3   1 <1>   0.1200 
 22 C       -8.3630     0.4580    -0.3350 C.ar  1 <1>   0.1600 
 23 C       -7.8430     2.3890    -1.5550 C.ar  1 <1>   0.1600 
 24 C       -8.7170     1.3580    -1.3090 C.ar  1 <1>  -0.1500 
 25 H       -2.7700    -0.5780     0.9600 H     1 <1>   0.0800 
 26 H       -3.6020    -0.1260    -0.4970 H     1 <1>   0.0800 
 27 H       -3.4830     2.4080    -1.2230 H     1 <1>   0.0800 
 28 H       -2.5290     3.4840    -0.2510 H     1 <1>   0.0800 
 29 H        1.0050     1.9640    -0.9960 H     1 <1>   0.1500 
 30 H       -1.3100     3.5040     2.2270 H     1 <1>   0.1500 
 31 H       -4.2870     0.7420     2.3160 H     1 <1>   0.0800 
 32 H       -5.2040    -0.3330     1.3120 H     1 <1>   0.0800 
 33 H       -4.9390     3.7650     0.2030 H     1 <1>   0.0800 
 34 H       -4.0980     3.2290     1.6180 H     1 <1>   0.0800 
 35 H        0.0540     5.5640     2.2240 H     1 <1>   0.1500 
 36 H        4.1220     5.1470    -1.8160 H     1 <1>   0.0800 
 37 H        4.1990     4.6390    -0.1400 H     1 <1>   0.0800 
 38 H        2.2720     6.6980    -1.2900 H     1 <1>   0.0800 
 39 H        3.5920     7.0360    -0.1880 H     1 <1>   0.0800 
 40 H       -9.0130    -0.3680    -0.1040 H     1 <1>   0.1500 
 41 H       -8.0750     3.1200    -2.3100 H     1 <1>   0.1500 
 42 H       -9.6360     1.2610    -1.8540 H     1 <1>   0.1500 
@<TRIPOS>BOND
  1   1   2  2   
  2   2   3  am  
  3   2   4  1   
  4   3   5  1   
  5   3   6  1   
  6   4   7  ar  
  7   4   8  ar  
  8   5   9  1   
  9   5  25  1   
 10   5  26  1   
 11   6  10  1   
 12   6  27  1   
 13   6  28  1   
 14   7  11  ar  
 15   7  29  1   
 16   8  12  ar  
 17   8  30  1   
 18   9  13  1   
 19   9  31  1   
 20   9  32  1   
 21  10  13  1   
 22  10  33  1   
 23  10  34  1   
 24  11  14  1   
 25  11  15  ar  
 26  12  15  ar  
 27  12  35  1   
 28  13  16  1   
 29  14  17  1   
 30  15  18  1   
 31  16  19  ar  
 32  16  20  ar  
 33  17  21  1   
 34  17  36  1   
 35  17  37  1   
 36  18  21  1   
 37  19  22  ar  
 38  20  23  ar  
 39  21  38  1   
 40  21  39  1   
 41  22  24  ar  
 42  22  40  1   
 43  23  24  ar  
 44  23  41  1   
 45  24  42  1   
@<TRIPOS>SUBSTRUCTURE
  1 ****   6 GROUP 4 **** **** 0

# MOE 2024.06 (io_trps.svl 2023.06)
