@<TRIPOS>MOLECULE
NONAME
49 51 1 0 0 
SMALL
USER_CHARGES


@<TRIPOS>ATOM
  1 O       -1.3390    -0.3690     1.7080 O.2   1 <1>  -0.5700 
  2 C       -1.3690    -1.2690     0.8840 C.2   1 <1>   0.7150 
  3 N       -2.4380    -2.1450     0.9140 N.am  1 <1>  -0.6600 
  4 C       -0.2790    -1.3660    -0.0690 C.2   1 <1>   0.0550 
  5 C       -3.3560    -2.2350     2.0940 C.3   1 <1>   0.1400 
  6 C       -2.8610    -2.9850    -0.2550 C.3   1 <1>   0.1400 
  7 O        0.0610    -2.5110    -0.6610 O.3   1 <1>  -0.2800 
  8 C        0.5780    -0.3980    -0.4990 C.2   1 <1>  -0.1500 
  9 C       -4.8140    -1.9950     1.6880 C.3   1 <1>   0.1400 
 10 C       -4.3530    -2.8300    -0.5950 C.3   1 <1>   0.1400 
 11 C        1.0890    -2.2950    -1.4500 C.2   1 <1>  -0.0100 
 12 C        1.4600    -0.9990    -1.3970 C.2   1 <1>  -0.1500 
 13 N       -5.2210    -2.9510     0.6180 N.am  1 <1>  -0.6600 
 14 C       -6.3880    -3.6750     0.7250 C.2   1 <1>   0.5690 
 15 O       -6.9280    -3.7670     1.8080 O.2   1 <1>  -0.5700 
 16 C       -7.0070    -4.4330    -0.4730 C.3   1 <1>  -0.0190 
 17 C       -7.8240    -3.5460    -1.4400 C.3   1 <1>  -0.1860 
 18 C       -7.9100    -5.6070    -0.0290 C.3   1 <1>  -0.0220 
 19 C       -6.9710    -2.5280    -2.1750 C.2   1 <1>   0.9060 
 20 C       -9.0280    -2.9260    -0.7170 C.3   1 <1>  -0.0220 
 21 C       -9.3420    -5.1960     0.3280 C.2   1 <1>  -0.2760 
 22 O       -7.0520    -1.3240    -1.9130 O.co2 1 <1>  -0.9000 
 23 O       -6.1790    -2.9550    -3.0240 O.co2 1 <1>  -0.9000 
 24 C       -9.8380    -3.9810     0.0360 C.2   1 <1>  -0.2760 
 25 C      -10.0720    -6.3260     1.0430 C.3   1 <1>  -0.1020 
 26 C      -11.2180    -3.4480     0.3980 C.3   1 <1>  -0.1020 
 27 H       -3.0820    -1.5190     2.8480 H     1 <1>   0.0800 
 28 H       -3.2740    -3.2160     2.5290 H     1 <1>   0.0800 
 29 H       -2.6600    -4.0180    -0.0310 H     1 <1>   0.0800 
 30 H       -2.3040    -2.7220    -1.1340 H     1 <1>   0.0800 
 31 H        0.5840     0.6370    -0.2050 H     1 <1>   0.1500 
 32 H       -4.9240    -0.9900     1.3190 H     1 <1>   0.0800 
 33 H       -5.4430    -2.0960     2.5540 H     1 <1>   0.0800 
 34 H       -4.5960    -3.5780    -1.3230 H     1 <1>   0.0800 
 35 H       -4.5200    -1.8680    -1.0510 H     1 <1>   0.0800 
 36 H        1.4970    -3.1160    -2.0150 H     1 <1>   0.1500 
 37 H        2.2600    -0.5060    -1.9200 H     1 <1>   0.1500 
 38 H       -6.2020    -4.8770    -1.0240 H     1 <1>   0.0800 
 39 H       -8.2150    -4.1830    -2.2110 H     1 <1>   0.0800 
 40 H       -7.4490    -6.0990     0.8100 H     1 <1>   0.0800 
 41 H       -7.9630    -6.3200    -0.8310 H     1 <1>   0.0800 
 42 H       -9.6430    -2.4390    -1.4540 H     1 <1>   0.0800 
 43 H       -8.6920    -2.1740    -0.0240 H     1 <1>   0.0800 
 44 H       -9.6080    -6.5090     1.9950 H     1 <1>   0.0800 
 45 H      -10.0180    -7.2240     0.4530 H     1 <1>   0.0800 
 46 H      -11.1080    -6.1110     1.2100 H     1 <1>   0.0800 
 47 H      -11.7850    -3.2700    -0.4980 H     1 <1>   0.0800 
 48 H      -11.1130    -2.5180     0.9290 H     1 <1>   0.0800 
 49 H      -11.7730    -4.1170     1.0230 H     1 <1>   0.0800 
@<TRIPOS>BOND
  1   1   2  2   
  2   2   3  am  
  3   2   4  1   
  4   3   5  1   
  5   3   6  1   
  6   4   7  1   
  7   4   8  2   
  8   5   9  1   
  9   5  27  1   
 10   5  28  1   
 11   6  10  1   
 12   6  29  1   
 13   6  30  1   
 14   7  11  1   
 15   8  12  1   
 16   8  31  1   
 17   9  13  1   
 18   9  32  1   
 19   9  33  1   
 20  10  13  1   
 21  10  34  1   
 22  10  35  1   
 23  11  12  2   
 24  11  36  1   
 25  12  37  1   
 26  13  14  am  
 27  14  15  2   
 28  14  16  1   
 29  16  17  1   
 30  16  18  1   
 31  16  38  1   
 32  17  19  1   
 33  17  20  1   
 34  17  39  1   
 35  18  21  1   
 36  18  40  1   
 37  18  41  1   
 38  19  22  ar  
 39  19  23  ar  
 40  20  24  1   
 41  20  42  1   
 42  20  43  1   
 43  21  24  2   
 44  21  25  1   
 45  24  26  1   
 46  25  44  1   
 47  25  45  1   
 48  25  46  1   
 49  26  47  1   
 50  26  48  1   
 51  26  49  1   
@<TRIPOS>SUBSTRUCTURE
  1 ****  13 GROUP 4 **** **** 0

# MOE 2024.06 (io_trps.svl 2023.06)
