@<TRIPOS>MOLECULE
NONAME
37 38 1 0 0 
SMALL
USER_CHARGES


@<TRIPOS>ATOM
  1 S       -0.0890     0.1730    -1.1970 S.o2  1 <1>   1.4470 
  2 O       -0.9000     0.3120    -2.3850 O.2   1 <1>  -0.6500 
  3 O        1.2260     0.7690    -1.1400 O.2   1 <1>  -0.6500 
  4 N       -0.8960     0.9000     0.0780 N.am  1 <1>  -0.9140 
  5 C       -0.0210    -1.5690    -0.6940 C.ar  1 <1>  -0.0090 
  6 C       -1.5170     2.1580    -0.2710 C.3   1 <1>   0.2760 
  7 C       -1.1860    -2.2620    -0.3820 C.ar  1 <1>  -0.1500 
  8 C        1.1890    -2.2510    -0.6120 C.ar  1 <1>  -0.1500 
  9 C       -1.3610     3.1080     0.9210 C.3   1 <1>  -0.1600 
 10 C       -3.0010     1.9220    -0.5820 C.3   1 <1>  -0.1600 
 11 C       -1.1540    -3.5920     0.0040 C.ar  1 <1>  -0.1500 
 12 C        1.2360    -3.5810    -0.2280 C.ar  1 <1>  -0.1500 
 13 C       -2.0880     4.4380     0.6750 C.3   1 <1>  -0.1600 
 14 C       -3.7380     3.2460    -0.8320 C.3   1 <1>  -0.1600 
 15 C        0.0640    -4.2450     0.0780 C.ar  1 <1>   0.1010 
 16 C       -3.5690     4.2070     0.3520 C.3   1 <1>  -0.1600 
 17 S        0.2030    -5.9710     0.5710 S.3   1 <1>  -0.3320 
 18 C       -1.5120    -6.5730     0.8970 C.3   1 <1>  -0.0100 
 19 H       -0.1330     1.1360     0.7070 H     1 <1>   0.4200 
 20 H       -1.0300     2.6000    -1.1280 H     1 <1>   0.0800 
 21 H       -2.1320    -1.7490    -0.4430 H     1 <1>   0.1500 
 22 H        2.1060    -1.7380    -0.8510 H     1 <1>   0.1500 
 23 H       -0.3180     3.3080     1.0910 H     1 <1>   0.0800 
 24 H       -1.7710     2.6460     1.8030 H     1 <1>   0.0800 
 25 H       -3.4610     1.4140     0.2470 H     1 <1>   0.0800 
 26 H       -3.0980     1.3010    -1.4550 H     1 <1>   0.0800 
 27 H       -2.0730    -4.0950     0.2370 H     1 <1>   0.1500 
 28 H        2.1750    -4.1030    -0.1660 H     1 <1>   0.1500 
 29 H       -1.6200     4.9550    -0.1460 H     1 <1>   0.0800 
 30 H       -2.0030     5.0630     1.5480 H     1 <1>   0.0800 
 31 H       -4.7840     3.0510    -0.9920 H     1 <1>   0.0800 
 32 H       -3.3490     3.7060    -1.7250 H     1 <1>   0.0800 
 33 H       -4.0400     5.1480     0.1220 H     1 <1>   0.0800 
 34 H       -4.0630     3.7960     1.2160 H     1 <1>   0.0800 
 35 H       -1.4430    -7.6060     1.1880 H     1 <1>   0.0800 
 36 H       -2.0790    -6.4700    -0.0110 H     1 <1>   0.0800 
 37 H       -1.9280    -5.9800     1.6910 H     1 <1>   0.0800 
@<TRIPOS>BOND
  1   1   2  2   
  2   1   3  2   
  3   1   4  am  
  4   1   5  1   
  5   4   6  1   
  6   4  19  1   
  7   5   7  ar  
  8   5   8  ar  
  9   6   9  1   
 10   6  10  1   
 11   6  20  1   
 12   7  11  ar  
 13   7  21  1   
 14   8  12  ar  
 15   8  22  1   
 16   9  13  1   
 17   9  23  1   
 18   9  24  1   
 19  10  14  1   
 20  10  25  1   
 21  10  26  1   
 22  11  15  ar  
 23  11  27  1   
 24  12  15  ar  
 25  12  28  1   
 26  13  16  1   
 27  13  29  1   
 28  13  30  1   
 29  14  16  1   
 30  14  31  1   
 31  14  32  1   
 32  15  17  1   
 33  16  33  1   
 34  16  34  1   
 35  17  18  1   
 36  18  35  1   
 37  18  36  1   
 38  18  37  1   
@<TRIPOS>SUBSTRUCTURE
  1 ****   4 GROUP 4 **** **** 0

# MOE 2024.06 (io_trps.svl 2023.06)
