@<TRIPOS>MOLECULE
NONAME
38 42 1 0 0 
SMALL
USER_CHARGES


@<TRIPOS>ATOM
  1 CL       0.2470    -0.5110    -1.3430 Cl    1 <1>  -0.1770 
  2 C       -1.1950    -1.2510    -0.6880 C.ar  1 <1>   0.1770 
  3 C       -1.1430    -2.5330    -0.1620 C.ar  1 <1>  -0.1440 
  4 C       -2.3690    -0.5230    -0.7110 C.ar  1 <1>  -0.1500 
  5 C       -2.3090    -3.0800     0.3490 C.ar  1 <1>  -0.1500 
  6 C        0.1550    -3.3270    -0.1400 C.3   1 <1>  -0.0960 
  7 C       -3.5410    -1.0680    -0.1980 C.ar  1 <1>   0.1170 
  8 C       -3.4890    -2.3560     0.3300 C.ar  1 <1>  -0.1500 
  9 N       -4.7510    -0.3360    -0.2120 N.am  1 <1>  -0.2370 
 10 C       -5.7230    -0.3550     0.7790 C.2   1 <1>   0.5690 
 11 C       -5.1610     0.5360    -1.2120 C.2   1 <1>   0.5690 
 12 O       -5.6440    -0.8000     1.8950 O.2   1 <1>  -0.5700 
 13 C       -6.9620     0.2660     0.2020 C.3   1 <1>  -0.0190 
 14 O       -4.7020     0.6780    -2.3150 O.2   1 <1>  -0.5700 
 15 C       -6.2890     1.3490    -0.6490 C.3   1 <1>  -0.0190 
 16 C       -8.2650     0.9640     0.6650 C.3   1 <1>   0.1530 
 17 C       -7.4650     2.2500    -1.0690 C.3   1 <1>   0.1530 
 18 C       -9.1690     0.7560    -0.5460 C.2   1 <1>  -0.2880 
 19 C       -7.9830     2.4360     0.3660 C.3   1 <1>  -0.1900 
 20 C       -8.6680     1.4600    -1.5670 C.2   1 <1>  -0.2880 
 21 C       -8.8850     3.5470     0.7890 C.3   1 <1>  -0.2000 
 22 C       -7.4910     3.4320     1.3650 C.3   1 <1>  -0.2000 
 23 H       -2.3590     0.4650    -1.1330 H     1 <1>   0.1500 
 24 H       -2.3060    -4.0720     0.7670 H     1 <1>   0.1500 
 25 H        0.8980    -2.8000     0.4320 H     1 <1>   0.0800 
 26 H        0.5200    -3.4600    -1.1430 H     1 <1>   0.0800 
 27 H        0.0090    -4.2970     0.3010 H     1 <1>   0.0800 
 28 H       -4.3800    -2.8030     0.7370 H     1 <1>   0.1500 
 29 H       -7.2930    -0.5370    -0.4400 H     1 <1>   0.0800 
 30 H       -5.7180     2.0020    -0.0050 H     1 <1>   0.0800 
 31 H       -8.6790     0.7140     1.6270 H     1 <1>   0.0800 
 32 H       -7.2330     3.1700    -1.5780 H     1 <1>   0.0800 
 33 H      -10.0190     0.0980    -0.4890 H     1 <1>   0.1500 
 34 H       -8.9860     1.5420    -2.5930 H     1 <1>   0.1500 
 35 H       -9.7290     3.3180     1.4180 H     1 <1>   0.1000 
 36 H       -9.0960     4.3380     0.0910 H     1 <1>   0.1000 
 37 H       -6.7640     4.1700     1.0720 H     1 <1>   0.1000 
 38 H       -7.3880     3.1370     2.3960 H     1 <1>   0.1000 
@<TRIPOS>BOND
  1   1   2  1   
  2   2   3  ar  
  3   2   4  ar  
  4   3   5  ar  
  5   3   6  1   
  6   4   7  ar  
  7   4  23  1   
  8   5   8  ar  
  9   5  24  1   
 10   6  25  1   
 11   6  26  1   
 12   6  27  1   
 13   7   8  ar  
 14   7   9  1   
 15   8  28  1   
 16   9  10  am  
 17   9  11  am  
 18  10  12  2   
 19  10  13  1   
 20  11  14  2   
 21  11  15  1   
 22  13  15  1   
 23  13  16  1   
 24  13  29  1   
 25  15  17  1   
 26  15  30  1   
 27  16  18  1   
 28  16  19  1   
 29  16  31  1   
 30  17  19  1   
 31  17  20  1   
 32  17  32  1   
 33  18  20  2   
 34  18  33  1   
 35  19  21  1   
 36  19  22  1   
 37  20  34  1   
 38  21  22  1   
 39  21  35  1   
 40  21  36  1   
 41  22  37  1   
 42  22  38  1   
@<TRIPOS>SUBSTRUCTURE
  1 ****   9 GROUP 4 **** **** 0

# MOE 2024.06 (io_trps.svl 2023.06)
