@<TRIPOS>MOLECULE
NONAME
39 40 1 0 0 
SMALL
USER_CHARGES


@<TRIPOS>ATOM
  1 O        0.7030     1.0150     0.1900 O.2   1 <1>  -0.5760 
  2 C        1.8960     1.1730     0.0790 C.2   1 <1>   0.6850 
  3 N        2.7990     0.1280     0.2140 N.am  1 <1>  -0.4430 
  4 N        2.3650     2.4250    -0.1880 N.am  1 <1>  -0.4970 
  5 C        4.1470     0.4230     0.0750 C.2   1 <1>   0.4190 
  6 C        2.3370    -1.2600     0.5040 C.3   1 <1>   0.0500 
  7 C        3.6880     2.7290    -0.3360 C.2   1 <1>   0.6980 
  8 N        5.1920    -0.4350     0.1690 N.pl3 1 <1>  -0.7050 
  9 C        4.6310     1.6560    -0.1870 C.2   1 <1>   0.2680 
 10 O        3.9950     3.8760    -0.5920 O.2   1 <1>  -0.5760 
 11 C        6.3330     0.2380    -0.0090 C.cat 1 <1>   1.0680 
 12 N        6.0350     1.5300    -0.2540 N.pl3 1 <1>  -0.7680 
 13 N        7.5370    -0.3860     0.0700 N.pl3 1 <1>  -0.5980 
 14 C        6.8680     2.6730    -0.7000 C.3   1 <1>   0.3460 
 15 C        8.8400     0.2710     0.3780 C.3   1 <1>   0.1580 
 16 C        7.6590    -1.8730     0.0010 C.3   1 <1>   0.1580 
 17 C        7.2460     3.5240     0.5080 C.3   1 <1>  -0.2490 
 18 C        9.0710     0.2560     1.8880 C.3   1 <1>  -0.2490 
 19 C        7.5560    -2.3240    -1.4530 C.3   1 <1>  -0.2490 
 20 H        1.6790     3.1710    -0.2860 H     1 <1>   0.3620 
 21 H        1.2610    -1.3120     0.5250 H     1 <1>   0.0700 
 22 H        2.7100    -1.5760     1.4630 H     1 <1>   0.0700 
 23 H        2.6920    -1.9310    -0.2580 H     1 <1>   0.0700 
 24 H        5.1460    -1.4280     0.3680 H     1 <1>   0.4430 
 25 H        6.3130     3.2770    -1.3980 H     1 <1>   0.0700 
 26 H        7.7410     2.3280    -1.2240 H     1 <1>   0.0700 
 27 H        8.8750     1.2820     0.0330 H     1 <1>   0.0700 
 28 H        9.6390    -0.2570    -0.1170 H     1 <1>   0.0700 
 29 H        6.8950    -2.3460     0.5940 H     1 <1>   0.0700 
 30 H        8.6090    -2.1900     0.4010 H     1 <1>   0.0700 
 31 H        6.3650     3.9390     0.9650 H     1 <1>   0.0700 
 32 H        7.8670     4.3420     0.1880 H     1 <1>   0.0700 
 33 H        7.7880     2.9530     1.2370 H     1 <1>   0.0700 
 34 H        8.2870     0.7840     2.4010 H     1 <1>   0.0700 
 35 H       10.0040     0.7430     2.1110 H     1 <1>   0.0700 
 36 H        9.1270    -0.7510     2.2600 H     1 <1>   0.0700 
 37 H        6.6010    -2.0680    -1.8770 H     1 <1>   0.0700 
 38 H        7.6700    -3.3930    -1.5060 H     1 <1>   0.0700 
 39 H        8.3390    -1.8770    -2.0400 H     1 <1>   0.0700 
@<TRIPOS>BOND
  1   1   2  2   
  2   2   3  am  
  3   2   4  am  
  4   3   5  1   
  5   3   6  1   
  6   4   7  am  
  7   4  20  1   
  8   5   8  1   
  9   5   9  2   
 10   6  21  1   
 11   6  22  1   
 12   6  23  1   
 13   7   9  1   
 14   7  10  2   
 15   8  11  ar  
 16   8  24  1   
 17   9  12  1   
 18  11  12  ar  
 19  11  13  ar  
 20  12  14  1   
 21  13  15  1   
 22  13  16  1   
 23  14  17  1   
 24  14  25  1   
 25  14  26  1   
 26  15  18  1   
 27  15  27  1   
 28  15  28  1   
 29  16  19  1   
 30  16  29  1   
 31  16  30  1   
 32  17  31  1   
 33  17  32  1   
 34  17  33  1   
 35  18  34  1   
 36  18  35  1   
 37  18  36  1   
 38  19  37  1   
 39  19  38  1   
 40  19  39  1   
@<TRIPOS>SUBSTRUCTURE
  1 ****   9 GROUP 4 **** **** 0

# MOE 2024.06 (io_trps.svl 2023.06)
