@<TRIPOS>MOLECULE
NONAME
50 52 1 0 0 
SMALL
USER_CHARGES


@<TRIPOS>ATOM
  1 O        0.3250    -0.5730     0.5000 O.2   1 <1>  -0.5700 
  2 C        0.1520    -1.6480    -0.0440 C.2   1 <1>   0.5440 
  3 N        1.2440    -2.3120    -0.5620 N.am  1 <1>  -0.6600 
  4 C       -1.1890    -2.1960    -0.1190 C.ar  1 <1>   0.0860 
  5 C        2.5800    -1.6470    -0.7000 C.3   1 <1>   0.1400 
  6 C        1.2960    -3.7960    -0.7760 C.3   1 <1>   0.1400 
  7 C       -2.0160    -2.2230     1.0050 C.ar  1 <1>  -0.1500 
  8 C       -1.7090    -2.7040    -1.3110 C.ar  1 <1>  -0.1500 
  9 C        3.6400    -2.3260     0.1830 C.3   1 <1>   0.2090 
 10 C        2.3870    -4.4570     0.0850 C.3   1 <1>   0.2090 
 11 C       -3.2940    -2.7480     0.9530 C.ar  1 <1>  -0.1500 
 12 C       -2.9860    -3.2310    -1.3710 C.ar  1 <1>  -0.1500 
 13 N        3.7120    -3.7890    -0.1000 N.pl3 1 <1>  -0.8380 
 14 C       -3.7880    -3.2610    -0.2430 C.ar  1 <1>   0.0830 
 15 C        4.8430    -4.4530     0.3330 C.ar  1 <1>   0.4100 
 16 O       -5.0220    -3.7930    -0.3830 O.3   1 <1>  -0.3630 
 17 N        4.7100    -5.2850     1.3610 N.ar  1 <1>  -0.6200 
 18 C        6.0580    -4.2250    -0.3090 C.ar  1 <1>  -0.1500 
 19 C       -5.9430    -3.8330     0.6870 C.3   1 <1>   0.1200 
 20 C        5.8150    -5.8940     1.7580 C.ar  1 <1>   0.1600 
 21 C        7.1990    -4.8650     0.1150 C.ar  1 <1>  -0.1500 
 22 C       -7.2500    -4.4850     0.2120 C.3   1 <1>  -0.0800 
 23 C        7.0620    -5.7250     1.1850 C.ar  1 <1>  -0.1500 
 24 C       -8.2930    -4.4590     1.3360 C.3   1 <1>  -0.2400 
 25 C       -7.0290    -5.9310    -0.2560 C.3   1 <1>  -0.2400 
 26 H        2.5160    -0.6060    -0.4370 H     1 <1>   0.0800 
 27 H        2.8940    -1.7050    -1.7270 H     1 <1>   0.0800 
 28 H        1.5060    -3.9930    -1.8120 H     1 <1>   0.0800 
 29 H        0.3520    -4.2490    -0.5350 H     1 <1>   0.0800 
 30 H       -1.6380    -1.8200     1.9290 H     1 <1>   0.1500 
 31 H       -1.1020    -2.6770    -2.1980 H     1 <1>   0.1500 
 32 H        3.3880    -2.1750     1.2180 H     1 <1>   0.0800 
 33 H        4.5980    -1.8710     0.0040 H     1 <1>   0.0800 
 34 H        2.4730    -5.4970    -0.1800 H     1 <1>   0.0800 
 35 H        2.1050    -4.4030     1.1230 H     1 <1>   0.0800 
 36 H       -3.8890    -2.7470     1.8470 H     1 <1>   0.1500 
 37 H       -3.3740    -3.6210    -2.2950 H     1 <1>   0.1500 
 38 H        6.0830    -3.5480    -1.1400 H     1 <1>   0.1500 
 39 H       -6.1230    -2.8220     1.0090 H     1 <1>   0.0800 
 40 H       -5.5070    -4.4040     1.4880 H     1 <1>   0.0800 
 41 H        5.7190    -6.5680     2.5920 H     1 <1>   0.1500 
 42 H        8.1500    -4.7060    -0.3640 H     1 <1>   0.1500 
 43 H       -7.6320    -3.9060    -0.6130 H     1 <1>   0.0800 
 44 H        7.9120    -6.2600     1.5690 H     1 <1>   0.1500 
 45 H       -7.9530    -5.0270     2.1840 H     1 <1>   0.0800 
 46 H       -9.2210    -4.8810     0.9920 H     1 <1>   0.0800 
 47 H       -8.4810    -3.4470     1.6500 H     1 <1>   0.0800 
 48 H       -6.6350    -6.5330     0.5440 H     1 <1>   0.0800 
 49 H       -6.3340    -5.9570    -1.0770 H     1 <1>   0.0800 
 50 H       -7.9560    -6.3630    -0.5890 H     1 <1>   0.0800 
@<TRIPOS>BOND
  1   1   2  2   
  2   2   3  am  
  3   2   4  1   
  4   3   5  1   
  5   3   6  1   
  6   4   7  ar  
  7   4   8  ar  
  8   5   9  1   
  9   5  26  1   
 10   5  27  1   
 11   6  10  1   
 12   6  28  1   
 13   6  29  1   
 14   7  11  ar  
 15   7  30  1   
 16   8  12  ar  
 17   8  31  1   
 18   9  13  1   
 19   9  32  1   
 20   9  33  1   
 21  10  13  1   
 22  10  34  1   
 23  10  35  1   
 24  11  14  ar  
 25  11  36  1   
 26  12  14  ar  
 27  12  37  1   
 28  13  15  1   
 29  14  16  1   
 30  15  17  ar  
 31  15  18  ar  
 32  16  19  1   
 33  17  20  ar  
 34  18  21  ar  
 35  18  38  1   
 36  19  22  1   
 37  19  39  1   
 38  19  40  1   
 39  20  23  ar  
 40  20  41  1   
 41  21  23  ar  
 42  21  42  1   
 43  22  24  1   
 44  22  25  1   
 45  22  43  1   
 46  23  44  1   
 47  24  45  1   
 48  24  46  1   
 49  24  47  1   
 50  25  48  1   
 51  25  49  1   
 52  25  50  1   
@<TRIPOS>SUBSTRUCTURE
  1 ****   6 GROUP 4 **** **** 0

# MOE 2024.06 (io_trps.svl 2023.06)
