@<TRIPOS>MOLECULE
NONAME
35 36 1 0 0 
SMALL
USER_CHARGES


@<TRIPOS>ATOM
  1 BR       0.2110     0.8670     2.2740 Br    1 <1>  -0.1110 
  2 C        1.6280     1.4390     1.1020 C.ar  1 <1>   0.1110 
  3 C        1.5260     2.6300     0.3910 C.ar  1 <1>  -0.1790 
  4 C        2.7220     0.6030     0.9980 C.ar  1 <1>  -0.1500 
  5 C        0.4090     3.5370     0.5210 C.2   1 <1>   0.9790 
  6 C        2.5820     2.9330    -0.4700 C.ar  1 <1>  -0.1500 
  7 C        3.7590     0.9530     0.1530 C.ar  1 <1>  -0.1500 
  8 O        0.1060     4.0170     1.6250 O.co2 1 <1>  -0.9000 
  9 O       -0.2060     3.9050    -0.4930 O.co2 1 <1>  -0.9000 
 10 C        3.7060     2.1240    -0.5970 C.ar  1 <1>  -0.0090 
 11 S        5.0970     2.5990    -1.6640 S.o2  1 <1>   1.4470 
 12 O        4.7400     3.6880    -2.5490 O.2   1 <1>  -0.6500 
 13 O        5.6750     1.3980    -2.2310 O.2   1 <1>  -0.6500 
 14 N        6.2340     3.2320    -0.5720 N.am  1 <1>  -0.8490 
 15 C        7.5350     3.4250    -1.2240 C.3   1 <1>   0.1960 
 16 C        5.7280     4.4560     0.0650 C.3   1 <1>   0.1960 
 17 C        8.6660     3.3540    -0.1940 C.3   1 <1>  -0.1600 
 18 C        6.6050     4.9560     1.2200 C.3   1 <1>  -0.1600 
 19 C        9.0500     4.6950     0.4520 C.3   1 <1>  -0.1600 
 20 C        7.8890     5.6530     0.7480 C.3   1 <1>  -0.1600 
 21 H        2.7570    -0.3050     1.5720 H     1 <1>   0.1500 
 22 H        2.5070     3.8400    -1.0500 H     1 <1>   0.1500 
 23 H        4.6230     0.3150     0.0710 H     1 <1>   0.1500 
 24 H        7.5570     4.3480    -1.7790 H     1 <1>   0.0800 
 25 H        7.7060     2.6250    -1.9250 H     1 <1>   0.0800 
 26 H        4.7540     4.2580     0.4790 H     1 <1>   0.0800 
 27 H        5.6100     5.2350    -0.6720 H     1 <1>   0.0800 
 28 H        9.5420     2.9640    -0.6810 H     1 <1>   0.0800 
 29 H        8.3930     2.6440     0.5680 H     1 <1>   0.0800 
 30 H        6.8200     4.1520     1.9020 H     1 <1>   0.0800 
 31 H        6.0230     5.6810     1.7610 H     1 <1>   0.0800 
 32 H        9.7480     5.2050    -0.1890 H     1 <1>   0.0800 
 33 H        9.5680     4.4810     1.3710 H     1 <1>   0.0800 
 34 H        8.2130     6.3400     1.5110 H     1 <1>   0.0800 
 35 H        7.6730     6.2390    -0.1290 H     1 <1>   0.0800 
@<TRIPOS>BOND
  1   1   2  1   
  2   2   3  ar  
  3   2   4  ar  
  4   3   5  1   
  5   3   6  ar  
  6   4   7  ar  
  7   4  21  1   
  8   5   8  ar  
  9   5   9  ar  
 10   6  10  ar  
 11   6  22  1   
 12   7  10  ar  
 13   7  23  1   
 14  10  11  1   
 15  11  12  2   
 16  11  13  2   
 17  11  14  am  
 18  14  15  1   
 19  14  16  1   
 20  15  17  1   
 21  15  24  1   
 22  15  25  1   
 23  16  18  1   
 24  16  26  1   
 25  16  27  1   
 26  17  19  1   
 27  17  28  1   
 28  17  29  1   
 29  18  20  1   
 30  18  30  1   
 31  18  31  1   
 32  19  20  1   
 33  19  32  1   
 34  19  33  1   
 35  20  34  1   
 36  20  35  1   
@<TRIPOS>SUBSTRUCTURE
  1 ****  10 GROUP 4 **** **** 0

# MOE 2024.06 (io_trps.svl 2023.06)
