@<TRIPOS>MOLECULE
NONAME
38 39 1 0 0 
SMALL
USER_CHARGES


@<TRIPOS>ATOM
  1 CL       1.8330    -2.4540    -1.5540 Cl    1 <1>  -0.1500 
  2 C        1.1570    -2.2080     0.0360 C.2   1 <1>  -0.0100 
  3 C       -0.1440    -2.3820     0.2860 C.2   1 <1>  -0.2970 
  4 C        2.2150    -1.7930     1.0370 C.3   1 <1>  -0.1130 
  5 C       -1.1980    -2.7800    -0.7220 C.3   1 <1>   0.4850 
  6 N       -1.5570    -4.1890    -0.4570 N.pl3 1 <1>  -0.7690 
  7 C       -0.7940    -5.2670    -0.6160 C.cat 1 <1>   1.0680 
  8 C       -2.8020    -4.6280     0.0290 C.2   1 <1>   0.2680 
  9 N       -1.4730    -6.3580    -0.2730 N.pl3 1 <1>  -0.7050 
 10 N        0.4640    -5.2640    -1.0430 N.pl3 1 <1>  -0.7200 
 11 C       -4.0340    -4.0000     0.4100 C.2   1 <1>   0.6980 
 12 C       -2.7150    -5.9750     0.1300 C.2   1 <1>   0.4180 
 13 C        1.3570    -6.4270    -1.2840 C.3   1 <1>   0.1570 
 14 O       -4.2210    -2.8010     0.3600 O.2   1 <1>  -0.5770 
 15 N       -5.0390    -4.8110     0.8520 N.am  1 <1>  -0.4970 
 16 N       -3.7470    -6.7850     0.5790 N.am  1 <1>  -0.4440 
 17 C        2.4810    -6.4750    -0.2450 C.3   1 <1>   0.1090 
 18 C       -4.9340    -6.1680     0.9490 C.2   1 <1>   0.6840 
 19 C       -3.5830    -8.2650     0.6670 C.3   1 <1>   0.0490 
 20 O        3.0620    -7.7260    -0.3160 O.3   1 <1>  -0.6860 
 21 O       -5.8860    -6.7910     1.3580 O.2   1 <1>  -0.5770 
 22 H       -0.5600    -2.2390     1.2680 H     1 <1>   0.1400 
 23 H        2.6720    -0.8710     0.7250 H     1 <1>   0.0690 
 24 H        2.9760    -2.5490     1.1080 H     1 <1>   0.0690 
 25 H        1.7810    -1.6470     2.0110 H     1 <1>   0.0690 
 26 H       -0.8250    -2.6880    -1.7280 H     1 <1>   0.0690 
 27 H       -2.0560    -2.1360    -0.6300 H     1 <1>   0.0690 
 28 H       -1.0970    -7.3020    -0.2970 H     1 <1>   0.4420 
 29 H        0.9060    -4.3520    -1.1970 H     1 <1>   0.4420 
 30 H        0.7920    -7.3420    -1.2340 H     1 <1>   0.0690 
 31 H        1.7870    -6.3480    -2.2680 H     1 <1>   0.0690 
 32 H       -5.9240    -4.3890     1.1310 H     1 <1>   0.3620 
 33 H        2.1000    -6.3470     0.7540 H     1 <1>   0.0690 
 34 H        3.2350    -5.7360    -0.4560 H     1 <1>   0.0690 
 35 H       -2.8280    -8.5060     1.3940 H     1 <1>   0.0690 
 36 H       -3.2980    -8.6600    -0.2930 H     1 <1>   0.0690 
 37 H       -4.5050    -8.7370     0.9650 H     1 <1>   0.0690 
 38 H        3.8620    -7.7820     0.2480 H     1 <1>   0.3920 
@<TRIPOS>BOND
  1   1   2  1   
  2   2   3  2   
  3   2   4  1   
  4   3   5  1   
  5   3  22  1   
  6   4  23  1   
  7   4  24  1   
  8   4  25  1   
  9   5   6  1   
 10   5  26  1   
 11   5  27  1   
 12   6   7  ar  
 13   6   8  1   
 14   7   9  ar  
 15   7  10  ar  
 16   8  11  1   
 17   8  12  2   
 18   9  12  1   
 19   9  28  1   
 20  10  13  1   
 21  10  29  1   
 22  11  14  2   
 23  11  15  am  
 24  12  16  1   
 25  13  17  1   
 26  13  30  1   
 27  13  31  1   
 28  15  18  am  
 29  15  32  1   
 30  16  18  am  
 31  16  19  1   
 32  17  20  1   
 33  17  33  1   
 34  17  34  1   
 35  18  21  2   
 36  19  35  1   
 37  19  36  1   
 38  19  37  1   
 39  20  38  1   
@<TRIPOS>SUBSTRUCTURE
  1 ****   6 GROUP 4 **** **** 0

# MOE 2024.06 (io_trps.svl 2023.06)
