@<TRIPOS>MOLECULE
NONAME
53 55 1 0 0 
SMALL
USER_CHARGES


@<TRIPOS>ATOM
  1 O        2.7750    -2.7570     1.9730 O.2   1 <1>  -0.5700 
  2 C        2.5760    -2.2620     0.8890 C.2   1 <1>   0.5690 
  3 N        2.7550    -0.9230     0.6750 N.am  1 <1>  -0.6600 
  4 C        2.1130    -3.1990    -0.2310 C.3   1 <1>  -0.0190 
  5 C        2.5670    -0.1660    -0.5850 C.3   1 <1>   0.1400 
  6 C        3.1600    -0.0150     1.7730 C.3   1 <1>   0.1400 
  7 C        0.7370    -3.8050     0.1080 C.3   1 <1>  -0.1600 
  8 C        3.1440    -4.3210    -0.4630 C.3   1 <1>  -0.1600 
  9 C        3.0820     1.2370    -0.2840 C.3   1 <1>  -0.1600 
 10 C        2.9350     1.3880     1.2260 C.3   1 <1>  -0.1600 
 11 C        0.2940    -4.8420    -0.9200 C.3   1 <1>   0.3430 
 12 C        2.6610    -5.3510    -1.4800 C.3   1 <1>   0.3430 
 13 N        1.3460    -5.8860    -1.0470 N.4   1 <1>  -0.9590 
 14 C        0.9070    -7.0490    -1.8600 C.3   1 <1>   0.4860 
 15 C       -0.2710    -7.7080    -1.1650 C.ar  1 <1>  -0.1440 
 16 C       -0.1340    -8.2020     0.1300 C.ar  1 <1>   0.0820 
 17 C       -1.4840    -7.8070    -1.8280 C.ar  1 <1>  -0.1500 
 18 O        1.1130    -8.0760     0.6830 O.3   1 <1>  -0.3630 
 19 C       -1.2460    -8.7670     0.7780 C.ar  1 <1>   0.0820 
 20 C       -2.5700    -8.3870    -1.2020 C.ar  1 <1>  -0.1500 
 21 C        1.6090    -9.0190     1.6140 C.3   1 <1>   0.0400 
 22 O       -1.1340    -9.1890     2.0710 O.3   1 <1>  -0.3630 
 23 C       -2.4530    -8.8610     0.0920 C.ar  1 <1>  -0.1500 
 24 C       -2.2310    -9.6990     2.8000 C.3   1 <1>   0.0400 
 25 H        2.0140    -2.6460    -1.1460 H     1 <1>   0.0800 
 26 H        1.5180    -0.1320    -0.8250 H     1 <1>   0.0800 
 27 H        3.1200    -0.6120    -1.3940 H     1 <1>   0.0800 
 28 H        4.2030    -0.1750     1.9920 H     1 <1>   0.0800 
 29 H        2.5760    -0.1960     2.6600 H     1 <1>   0.0800 
 30 H        0.0030    -3.0190     0.1570 H     1 <1>   0.0800 
 31 H        0.7700    -4.2690     1.0790 H     1 <1>   0.0800 
 32 H        3.3560    -4.8230     0.4660 H     1 <1>   0.0800 
 33 H        4.0680    -3.8890    -0.8080 H     1 <1>   0.0800 
 34 H        2.5370     1.9900    -0.8260 H     1 <1>   0.0800 
 35 H        4.1220     1.2950    -0.5560 H     1 <1>   0.0800 
 36 H        3.6340     2.0940     1.6400 H     1 <1>   0.0800 
 37 H        1.9350     1.7020     1.4690 H     1 <1>   0.0800 
 38 H        0.1290    -4.3670    -1.8730 H     1 <1>   0.0800 
 39 H       -0.6340    -5.2880    -0.5950 H     1 <1>   0.0800 
 40 H        3.3820    -6.1510    -1.5480 H     1 <1>   0.0800 
 41 H        2.5670    -4.8900    -2.4500 H     1 <1>   0.0800 
 42 H        1.4630    -6.2960    -0.1010 H     1 <1>   0.4500 
 43 H        1.7080    -7.7670    -1.9370 H     1 <1>   0.0800 
 44 H        0.6280    -6.7320    -2.8510 H     1 <1>   0.0800 
 45 H       -1.6010    -7.4400    -2.8350 H     1 <1>   0.1500 
 46 H       -3.5120    -8.4700    -1.7190 H     1 <1>   0.1500 
 47 H        1.2280    -8.7790     2.5910 H     1 <1>   0.0800 
 48 H        1.2980   -10.0070     1.3190 H     1 <1>   0.0800 
 49 H        2.6820    -8.9590     1.6210 H     1 <1>   0.0800 
 50 H       -3.3240    -9.2980     0.5440 H     1 <1>   0.1500 
 51 H       -1.8910    -9.9340     3.7930 H     1 <1>   0.0800 
 52 H       -3.0000    -8.9500     2.8460 H     1 <1>   0.0800 
 53 H       -2.5880   -10.5920     2.3180 H     1 <1>   0.0800 
@<TRIPOS>BOND
  1   1   2  2   
  2   2   3  am  
  3   2   4  1   
  4   3   5  1   
  5   3   6  1   
  6   4   7  1   
  7   4   8  1   
  8   4  25  1   
  9   5   9  1   
 10   5  26  1   
 11   5  27  1   
 12   6  10  1   
 13   6  28  1   
 14   6  29  1   
 15   7  11  1   
 16   7  30  1   
 17   7  31  1   
 18   8  12  1   
 19   8  32  1   
 20   8  33  1   
 21   9  10  1   
 22   9  34  1   
 23   9  35  1   
 24  10  36  1   
 25  10  37  1   
 26  11  13  1   
 27  11  38  1   
 28  11  39  1   
 29  12  13  1   
 30  12  40  1   
 31  12  41  1   
 32  13  14  1   
 33  13  42  1   
 34  14  15  1   
 35  14  43  1   
 36  14  44  1   
 37  15  16  ar  
 38  15  17  ar  
 39  16  18  1   
 40  16  19  ar  
 41  17  20  ar  
 42  17  45  1   
 43  18  21  1   
 44  19  22  1   
 45  19  23  ar  
 46  20  23  ar  
 47  20  46  1   
 48  21  47  1   
 49  21  48  1   
 50  21  49  1   
 51  22  24  1   
 52  23  50  1   
 53  24  51  1   
 54  24  52  1   
 55  24  53  1   
@<TRIPOS>SUBSTRUCTURE
  1 ****  11 GROUP 4 **** **** 0

# MOE 2024.06 (io_trps.svl 2023.06)
