@<TRIPOS>MOLECULE
NONAME
44 46 1 0 0 
SMALL
USER_CHARGES


@<TRIPOS>ATOM
  1 O       -4.0690    -2.8000     1.2420 O.2   1 <1>  -0.5700 
  2 C       -3.4840    -1.7610     1.1210 C.2   1 <1>   0.6590 
  3 O       -3.9680    -0.7460     0.4130 O.3   1 <1>  -0.4300 
  4 C       -2.1450    -1.5270     1.7710 C.3   1 <1>  -0.1790 
  5 C       -5.2320    -0.8490    -0.2280 C.3   1 <1>   0.2000 
  6 C       -5.4890     0.2460    -1.2720 C.3   1 <1>  -0.0800 
  7 C       -6.3970    -0.6200     0.7330 C.3   1 <1>  -0.0800 
  8 C       -5.2300     1.6770    -0.7030 C.3   1 <1>   0.4230 
  9 C       -6.9910     0.0300    -1.5540 C.3   1 <1>  -0.1600 
 10 C       -6.2150     0.7140     1.4970 C.3   1 <1>  -0.1600 
 11 C       -7.5810    -0.5350    -0.2450 C.3   1 <1>  -0.1600 
 12 N       -3.7690     1.8580    -0.4000 N.4   1 <1>  -0.9590 
 13 C       -6.1300     1.9220     0.5380 C.3   1 <1>  -0.1600 
 14 C       -3.4120     3.0510     0.4290 C.3   1 <1>   0.3430 
 15 C       -2.9340     1.8130    -1.6400 C.3   1 <1>   0.3430 
 16 C       -1.9370     2.9890     0.8330 C.3   1 <1>  -0.1600 
 17 C       -1.4530     1.7130    -1.2740 C.3   1 <1>  -0.1600 
 18 C       -1.0120     2.8780    -0.3830 C.3   1 <1>  -0.1600 
 19 H       -2.2100    -0.6980     2.4500 H     1 <1>   0.0800 
 20 H       -1.4060    -1.3240     1.0200 H     1 <1>   0.0800 
 21 H       -1.8540    -2.4040     2.3190 H     1 <1>   0.0800 
 22 H       -5.3060    -1.8230    -0.6880 H     1 <1>   0.0800 
 23 H       -4.9430     0.0630    -2.1780 H     1 <1>   0.0800 
 24 H       -6.5170    -1.4480     1.4130 H     1 <1>   0.0800 
 25 H       -5.5080     2.4000    -1.4540 H     1 <1>   0.0800 
 26 H       -7.1130    -0.7030    -2.3350 H     1 <1>   0.0800 
 27 H       -7.4900     0.9320    -1.8660 H     1 <1>   0.0800 
 28 H       -7.0460     0.8520     2.1690 H     1 <1>   0.0800 
 29 H       -5.3270     0.6630     2.1030 H     1 <1>   0.0800 
 30 H       -8.3840     0.0710     0.1400 H     1 <1>   0.0800 
 31 H       -7.9690    -1.5240    -0.4260 H     1 <1>   0.0800 
 32 H       -3.5280     1.0190     0.1510 H     1 <1>   0.4500 
 33 H       -7.1240     2.1130     0.1740 H     1 <1>   0.0800 
 34 H       -5.8800     2.8140     1.0770 H     1 <1>   0.0800 
 35 H       -3.9990     3.0750     1.3300 H     1 <1>   0.0800 
 36 H       -3.6000     3.9540    -0.1290 H     1 <1>   0.0800 
 37 H       -3.1020     2.7030    -2.2250 H     1 <1>   0.0800 
 38 H       -3.1930     0.9590    -2.2420 H     1 <1>   0.0800 
 39 H       -1.7850     2.1490     1.4890 H     1 <1>   0.0800 
 40 H       -1.6890     3.8780     1.3880 H     1 <1>   0.0800 
 41 H       -0.8670     1.7160    -2.1770 H     1 <1>   0.0800 
 42 H       -1.2710     0.7770    -0.7760 H     1 <1>   0.0800 
 43 H        0.0050     2.7300    -0.0590 H     1 <1>   0.0800 
 44 H       -1.0460     3.7960    -0.9460 H     1 <1>   0.0800 
@<TRIPOS>BOND
  1   1   2  2   
  2   2   3  1   
  3   2   4  1   
  4   3   5  1   
  5   4  19  1   
  6   4  20  1   
  7   4  21  1   
  8   5   6  1   
  9   5   7  1   
 10   5  22  1   
 11   6   8  1   
 12   6   9  1   
 13   6  23  1   
 14   7  10  1   
 15   7  11  1   
 16   7  24  1   
 17   8  12  1   
 18   8  13  1   
 19   8  25  1   
 20   9  11  1   
 21   9  26  1   
 22   9  27  1   
 23  10  13  1   
 24  10  28  1   
 25  10  29  1   
 26  11  30  1   
 27  11  31  1   
 28  12  14  1   
 29  12  15  1   
 30  12  32  1   
 31  13  33  1   
 32  13  34  1   
 33  14  16  1   
 34  14  35  1   
 35  14  36  1   
 36  15  17  1   
 37  15  37  1   
 38  15  38  1   
 39  16  18  1   
 40  16  39  1   
 41  16  40  1   
 42  17  18  1   
 43  17  41  1   
 44  17  42  1   
 45  18  43  1   
 46  18  44  1   
@<TRIPOS>SUBSTRUCTURE
  1 ****   3 GROUP 4 **** **** 0

# MOE 2024.06 (io_trps.svl 2023.06)
