@<TRIPOS>MOLECULE
NONAME
44 46 1 0 0 
SMALL
USER_CHARGES


@<TRIPOS>ATOM
  1 CL      -0.2270     0.3890    -0.6460 Cl    1 <1>  -0.1770 
  2 C       -1.7110    -0.4630    -0.3110 C.ar  1 <1>   0.1770 
  3 C       -2.2970    -0.3410     0.9330 C.ar  1 <1>  -0.1500 
  4 C       -2.2790    -1.2480    -1.2960 C.ar  1 <1>  -0.1500 
  5 C       -3.4780    -1.0150     1.1960 C.ar  1 <1>  -0.1500 
  6 C       -3.4600    -1.9210    -1.0310 C.ar  1 <1>  -0.1500 
  7 C       -4.0680    -1.8020     0.2140 C.ar  1 <1>  -0.1430 
  8 C       -5.3700    -2.5280     0.5010 C.3   1 <1>   0.4870 
  9 N       -6.4760    -1.8200    -0.1950 N.4   1 <1>  -0.9590 
 10 C       -6.6500    -0.4090     0.3270 C.3   1 <1>   0.3430 
 11 C       -7.7700    -2.5970    -0.1120 C.3   1 <1>   0.3430 
 12 C       -7.8170     0.3390    -0.3520 C.3   1 <1>   0.2090 
 13 C       -8.9490    -1.8690    -0.7910 C.3   1 <1>   0.2090 
 14 N       -9.0610    -0.4770    -0.2740 N.pl3 1 <1>  -0.8380 
 15 C      -10.3060     0.1440    -0.3580 C.ar  1 <1>   0.1000 
 16 C      -11.3270    -0.2560     0.4910 C.ar  1 <1>  -0.1500 
 17 C      -10.5630     1.1560    -1.2780 C.ar  1 <1>  -0.1500 
 18 C      -12.5790     0.3290     0.4340 C.ar  1 <1>   0.0830 
 19 C      -11.8100     1.7510    -1.3420 C.ar  1 <1>  -0.1500 
 20 O      -13.5090    -0.1370     1.3070 O.3   1 <1>  -0.3630 
 21 C      -12.8210     1.3420    -0.4900 C.ar  1 <1>  -0.1500 
 22 C      -14.8090     0.4100     1.3480 C.3   1 <1>   0.0400 
 23 H       -1.8270     0.2730     1.6820 H     1 <1>   0.1500 
 24 H       -1.7930    -1.3290    -2.2530 H     1 <1>   0.1500 
 25 H       -3.9220    -0.9180     2.1740 H     1 <1>   0.1500 
 26 H       -3.8860    -2.5380    -1.8050 H     1 <1>   0.1500 
 27 H       -5.5520    -2.5520     1.5630 H     1 <1>   0.0800 
 28 H       -5.2950    -3.5430     0.1450 H     1 <1>   0.0800 
 29 H       -6.2110    -1.7380    -1.1840 H     1 <1>   0.4500 
 30 H       -5.7430     0.1540     0.1770 H     1 <1>   0.0800 
 31 H       -6.8490    -0.4390     1.3850 H     1 <1>   0.0800 
 32 H       -8.0310    -2.7490     0.9220 H     1 <1>   0.0800 
 33 H       -7.6500    -3.5660    -0.5680 H     1 <1>   0.0800 
 34 H       -7.5770     0.5390    -1.3810 H     1 <1>   0.0800 
 35 H       -7.9770     1.2810     0.1450 H     1 <1>   0.0800 
 36 H       -9.8640    -2.4020    -0.5920 H     1 <1>   0.0800 
 37 H       -8.8080    -1.8450    -1.8570 H     1 <1>   0.0800 
 38 H      -11.1490    -1.0280     1.2130 H     1 <1>   0.1500 
 39 H       -9.7920     1.4780    -1.9510 H     1 <1>   0.1500 
 40 H      -11.9970     2.5330    -2.0580 H     1 <1>   0.1500 
 41 H      -13.7800     1.8180    -0.5610 H     1 <1>   0.1500 
 42 H      -15.3620    -0.1030     2.1140 H     1 <1>   0.0800 
 43 H      -15.2810     0.2600     0.3940 H     1 <1>   0.0800 
 44 H      -14.7390     1.4570     1.5860 H     1 <1>   0.0800 
@<TRIPOS>BOND
  1   1   2  1   
  2   2   3  ar  
  3   2   4  ar  
  4   3   5  ar  
  5   3  23  1   
  6   4   6  ar  
  7   4  24  1   
  8   5   7  ar  
  9   5  25  1   
 10   6   7  ar  
 11   6  26  1   
 12   7   8  1   
 13   8   9  1   
 14   8  27  1   
 15   8  28  1   
 16   9  10  1   
 17   9  11  1   
 18   9  29  1   
 19  10  12  1   
 20  10  30  1   
 21  10  31  1   
 22  11  13  1   
 23  11  32  1   
 24  11  33  1   
 25  12  14  1   
 26  12  34  1   
 27  12  35  1   
 28  13  14  1   
 29  13  36  1   
 30  13  37  1   
 31  14  15  1   
 32  15  16  ar  
 33  15  17  ar  
 34  16  18  ar  
 35  16  38  1   
 36  17  19  ar  
 37  17  39  1   
 38  18  20  1   
 39  18  21  ar  
 40  19  21  ar  
 41  19  40  1   
 42  20  22  1   
 43  21  41  1   
 44  22  42  1   
 45  22  43  1   
 46  22  44  1   
@<TRIPOS>SUBSTRUCTURE
  1 ****  12 GROUP 4 **** **** 0

# MOE 2024.06 (io_trps.svl 2023.06)
