@<TRIPOS>MOLECULE
NONAME
44 45 1 0 0 
SMALL
USER_CHARGES


@<TRIPOS>ATOM
  1 O       -0.5860    -1.4610    -2.0980 O.2   1 <1>  -0.5700 
  2 C       -0.8960    -1.6230    -0.9340 C.2   1 <1>   0.5440 
  3 N        0.0710    -1.9070    -0.0140 N.am  1 <1>  -0.7300 
  4 C       -2.2760    -1.5220    -0.5000 C.ar  1 <1>   0.0860 
  5 C        1.5100    -2.0430    -0.2880 C.3   1 <1>   0.2200 
  6 C       -3.1060    -2.6490    -0.4800 C.ar  1 <1>  -0.1440 
  7 C       -2.8060    -0.2990    -0.0720 C.ar  1 <1>  -0.1430 
  8 C        1.9520    -3.4590     0.0910 C.3   1 <1>  -0.1600 
  9 C        2.2680    -0.9880     0.5230 C.3   1 <1>  -0.1600 
 10 C       -4.4120    -2.5510    -0.0320 C.ar  1 <1>  -0.1500 
 11 C       -2.5850    -3.9990    -0.9580 C.3   1 <1>  -0.0970 
 12 C       -4.1140    -0.2190     0.3740 C.ar  1 <1>  -0.1500 
 13 C       -1.9510     0.9620    -0.0950 C.3   1 <1>  -0.0970 
 14 C        3.4710    -3.6270    -0.0680 C.3   1 <1>  -0.1600 
 15 C        3.7870    -1.1540     0.3640 C.3   1 <1>  -0.1600 
 16 C       -4.9220    -1.3410     0.4000 C.ar  1 <1>  -0.1430 
 17 C        4.2390    -2.5730     0.7460 C.3   1 <1>  -0.0800 
 18 C       -6.3560    -1.2420     0.8880 C.3   1 <1>  -0.0970 
 19 C        5.7490    -2.7290     0.5330 C.3   1 <1>  -0.2400 
 20 H       -0.2070    -2.0400     0.9570 H     1 <1>   0.3700 
 21 H        1.6990    -1.8840    -1.3370 H     1 <1>   0.0800 
 22 H        1.4480    -4.1670    -0.5440 H     1 <1>   0.0800 
 23 H        1.6830    -3.6620     1.1120 H     1 <1>   0.0800 
 24 H        2.0130    -1.0790     1.5640 H     1 <1>   0.0800 
 25 H        1.9800    -0.0090     0.1830 H     1 <1>   0.0800 
 26 H       -5.0430    -3.4220    -0.0210 H     1 <1>   0.1500 
 27 H       -3.3580    -4.7450    -0.9360 H     1 <1>   0.0800 
 28 H       -2.2250    -3.9160    -1.9690 H     1 <1>   0.0800 
 29 H       -1.7760    -4.3280    -0.3300 H     1 <1>   0.0800 
 30 H       -4.5130     0.7250     0.7010 H     1 <1>   0.1500 
 31 H       -1.1140     0.8540     0.5710 H     1 <1>   0.0800 
 32 H       -2.5190     1.8230     0.2060 H     1 <1>   0.0800 
 33 H       -1.5800     1.1340    -1.0910 H     1 <1>   0.0800 
 34 H        3.7270    -3.5340    -1.1100 H     1 <1>   0.0800 
 35 H        3.7550    -4.6140     0.2540 H     1 <1>   0.0800 
 36 H        4.2900    -0.4330     0.9850 H     1 <1>   0.0800 
 37 H        4.0570    -0.9530    -0.6590 H     1 <1>   0.0800 
 38 H        4.0290    -2.7290     1.7910 H     1 <1>   0.0800 
 39 H       -6.6690    -2.1720     1.3280 H     1 <1>   0.0800 
 40 H       -7.0050    -1.0120     0.0620 H     1 <1>   0.0800 
 41 H       -6.4500    -0.4690     1.6290 H     1 <1>   0.0800 
 42 H        6.0040    -2.5810    -0.5020 H     1 <1>   0.0800 
 43 H        6.0670    -3.7130     0.8270 H     1 <1>   0.0800 
 44 H        6.2850    -2.0090     1.1250 H     1 <1>   0.0800 
@<TRIPOS>BOND
  1   1   2  2   
  2   2   3  am  
  3   2   4  1   
  4   3   5  1   
  5   3  20  1   
  6   4   6  ar  
  7   4   7  ar  
  8   5   8  1   
  9   5   9  1   
 10   5  21  1   
 11   6  10  ar  
 12   6  11  1   
 13   7  12  ar  
 14   7  13  1   
 15   8  14  1   
 16   8  22  1   
 17   8  23  1   
 18   9  15  1   
 19   9  24  1   
 20   9  25  1   
 21  10  16  ar  
 22  10  26  1   
 23  11  27  1   
 24  11  28  1   
 25  11  29  1   
 26  12  16  ar  
 27  12  30  1   
 28  13  31  1   
 29  13  32  1   
 30  13  33  1   
 31  14  17  1   
 32  14  34  1   
 33  14  35  1   
 34  15  17  1   
 35  15  36  1   
 36  15  37  1   
 37  16  18  1   
 38  17  19  1   
 39  17  38  1   
 40  18  39  1   
 41  18  40  1   
 42  18  41  1   
 43  19  42  1   
 44  19  43  1   
 45  19  44  1   
@<TRIPOS>SUBSTRUCTURE
  1 ****   3 GROUP 4 **** **** 0

# MOE 2024.06 (io_trps.svl 2023.06)
