@<TRIPOS>MOLECULE
NONAME
31 32 1 0 0 
SMALL
USER_CHARGES


@<TRIPOS>ATOM
  1 S       -0.0500     0.2730    -0.2560 S.o2  1 <1>   1.3330 
  2 O        1.2590    -0.3220    -0.3140 O.2   1 <1>  -0.6500 
  3 O       -0.5280     1.1580    -1.2880 O.2   1 <1>  -0.6500 
  4 N       -1.1100    -1.0730    -0.1650 N.am  1 <1>  -0.7570 
  5 C       -0.2650     1.0260     1.3420 C.3   1 <1>  -0.1350 
  6 C       -2.4880    -1.1470    -0.2820 C.ar  1 <1>   0.1990 
  7 C       -3.1030    -2.3900    -0.1840 C.ar  1 <1>  -0.1500 
  8 C       -3.3040    -0.0380    -0.4920 C.ar  1 <1>  -0.1500 
  9 C       -4.4740    -2.5190    -0.2820 C.ar  1 <1>  -0.1500 
 10 C       -4.6760    -0.1700    -0.5930 C.ar  1 <1>  -0.1500 
 11 C       -5.3050    -1.4140    -0.4820 C.ar  1 <1>   0.0860 
 12 C       -6.7450    -1.5700    -0.5710 C.2   1 <1>   0.5440 
 13 O       -7.2310    -2.6360    -0.9000 O.2   1 <1>  -0.5700 
 14 N       -7.5790    -0.5260    -0.2700 N.am  1 <1>  -0.5790 
 15 C       -9.0480    -0.5490    -0.3350 C.3   1 <1>   0.0490 
 16 C       -9.7510     0.7140    -0.7090 C.3   1 <1>  -0.2000 
 17 C       -9.8070     0.2100     0.7020 C.3   1 <1>  -0.2000 
 18 H       -0.5680    -1.9320    -0.2010 H     1 <1>   0.4200 
 19 H        0.3800     1.8770     1.4350 H     1 <1>   0.0800 
 20 H       -0.0250     0.3250     2.1170 H     1 <1>   0.0800 
 21 H       -1.2800     1.3480     1.4670 H     1 <1>   0.0800 
 22 H       -2.5000    -3.2660    -0.0290 H     1 <1>   0.1500 
 23 H       -2.8710     0.9390    -0.5920 H     1 <1>   0.1500 
 24 H       -4.9240    -3.4950    -0.2050 H     1 <1>   0.1500 
 25 H       -5.2650     0.7110    -0.7750 H     1 <1>   0.1500 
 26 H       -7.1840     0.3370     0.0970 H     1 <1>   0.3700 
 27 H       -9.4480    -1.4880    -0.6870 H     1 <1>   0.1000 
 28 H      -10.6420     0.6470    -1.3090 H     1 <1>   0.1000 
 29 H       -9.1650     1.5870    -0.9340 H     1 <1>   0.1000 
 30 H       -9.2610     0.7300     1.4690 H     1 <1>   0.1000 
 31 H      -10.7360    -0.1990     1.0600 H     1 <1>   0.1000 
@<TRIPOS>BOND
  1   1   2  2   
  2   1   3  2   
  3   1   4  am  
  4   1   5  1   
  5   4   6  1   
  6   4  18  1   
  7   5  19  1   
  8   5  20  1   
  9   5  21  1   
 10   6   7  ar  
 11   6   8  ar  
 12   7   9  ar  
 13   7  22  1   
 14   8  10  ar  
 15   8  23  1   
 16   9  11  ar  
 17   9  24  1   
 18  10  11  ar  
 19  10  25  1   
 20  11  12  1   
 21  12  13  2   
 22  12  14  am  
 23  14  15  1   
 24  14  26  1   
 25  15  16  1   
 26  15  17  1   
 27  15  27  1   
 28  16  17  1   
 29  16  28  1   
 30  16  29  1   
 31  17  30  1   
 32  17  31  1   
@<TRIPOS>SUBSTRUCTURE
  1 ****  10 GROUP 4 **** **** 0

# MOE 2024.06 (io_trps.svl 2023.06)
