@<TRIPOS>MOLECULE
NONAME
47 47 1 0 0 
SMALL
USER_CHARGES


@<TRIPOS>ATOM
  1 O       -0.4660    -4.5830     0.1650 O.3   1 <1>  -0.3630 
  2 C       -1.6630    -5.2200     0.2200 C.ar  1 <1>   0.0830 
  3 C        0.7470    -5.3000     0.2220 C.3   1 <1>   0.1200 
  4 C       -2.7960    -4.4280     0.1560 C.ar  1 <1>  -0.1500 
  5 C       -1.8030    -6.5990     0.3340 C.ar  1 <1>  -0.1500 
  6 C        1.8920    -4.2950     0.1370 C.3   1 <1>   0.1200 
  7 C       -4.0650    -4.9850     0.2050 C.ar  1 <1>  -0.1440 
  8 C       -3.0660    -7.1600     0.3830 C.ar  1 <1>  -0.1500 
  9 O        3.1070    -4.9840     0.1920 O.3   1 <1>  -0.5600 
 10 C       -4.2010    -6.3650     0.3190 C.ar  1 <1>  -0.1430 
 11 C       -5.2770    -4.0680     0.1310 C.3   1 <1>  -0.0970 
 12 C        4.2280    -4.1700     0.1230 C.3   1 <1>   0.1200 
 13 C       -5.5710    -7.0250     0.3760 C.3   1 <1>  -0.0970 
 14 C        5.4570    -5.0810     0.1950 C.3   1 <1>   0.3430 
 15 N        6.7340    -4.3000     0.1290 N.4   1 <1>  -0.9060 
 16 C        7.9730    -5.0780     0.1900 C.3   1 <1>   0.5030 
 17 C        9.1140    -4.0700     0.1050 C.3   1 <1>  -0.2400 
 18 C        8.0420    -6.0400    -0.9950 C.3   1 <1>  -0.2400 
 19 C        8.0470    -5.8330     1.5170 C.3   1 <1>  -0.2400 
 20 H        0.7780    -5.9790    -0.6110 H     1 <1>   0.0800 
 21 H        0.7810    -5.8330     1.1560 H     1 <1>   0.0800 
 22 H       -2.6700    -3.3640     0.0680 H     1 <1>   0.1500 
 23 H       -0.9510    -7.2480     0.3870 H     1 <1>   0.1500 
 24 H        1.8400    -3.6120     0.9680 H     1 <1>   0.0800 
 25 H        1.8370    -3.7580    -0.7950 H     1 <1>   0.0800 
 26 H       -3.1600    -8.2270     0.4720 H     1 <1>   0.1500 
 27 H       -4.9770    -3.0390     0.0440 H     1 <1>   0.0800 
 28 H       -5.8720    -4.1720     1.0190 H     1 <1>   0.0800 
 29 H       -5.8760    -4.3180    -0.7260 H     1 <1>   0.0800 
 30 H        4.2030    -3.4880     0.9560 H     1 <1>   0.0800 
 31 H        4.2000    -3.6340    -0.8110 H     1 <1>   0.0800 
 32 H       -6.1230    -6.8070    -0.5200 H     1 <1>   0.0800 
 33 H       -6.1200    -6.6610     1.2260 H     1 <1>   0.0800 
 34 H       -5.4820    -8.0930     0.4650 H     1 <1>   0.0800 
 35 H        5.4120    -5.7790    -0.6240 H     1 <1>   0.0800 
 36 H        5.4150    -5.6350     1.1190 H     1 <1>   0.0800 
 37 H        6.7650    -3.6260     0.9000 H     1 <1>   0.4500 
 38 H        6.7610    -3.7620    -0.7430 H     1 <1>   0.4500 
 39 H        9.0830    -3.5220    -0.8210 H     1 <1>   0.0800 
 40 H       10.0590    -4.5830     0.1450 H     1 <1>   0.0800 
 41 H        9.0870    -3.3780     0.9280 H     1 <1>   0.0800 
 42 H        8.9970    -6.5370    -1.0030 H     1 <1>   0.0800 
 43 H        7.2890    -6.8050    -0.9310 H     1 <1>   0.0800 
 44 H        7.9390    -5.5160    -1.9290 H     1 <1>   0.0800 
 45 H        7.9470    -5.1630     2.3520 H     1 <1>   0.0800 
 46 H        9.0020    -6.3220     1.6020 H     1 <1>   0.0800 
 47 H        7.2940    -6.5980     1.5820 H     1 <1>   0.0800 
@<TRIPOS>BOND
  1   1   2  1   
  2   1   3  1   
  3   2   4  ar  
  4   2   5  ar  
  5   3   6  1   
  6   3  20  1   
  7   3  21  1   
  8   4   7  ar  
  9   4  22  1   
 10   5   8  ar  
 11   5  23  1   
 12   6   9  1   
 13   6  24  1   
 14   6  25  1   
 15   7  10  ar  
 16   7  11  1   
 17   8  10  ar  
 18   8  26  1   
 19   9  12  1   
 20  10  13  1   
 21  11  27  1   
 22  11  28  1   
 23  11  29  1   
 24  12  14  1   
 25  12  30  1   
 26  12  31  1   
 27  13  32  1   
 28  13  33  1   
 29  13  34  1   
 30  14  15  1   
 31  14  35  1   
 32  14  36  1   
 33  15  16  1   
 34  15  37  1   
 35  15  38  1   
 36  16  17  1   
 37  16  18  1   
 38  16  19  1   
 39  17  39  1   
 40  17  40  1   
 41  17  41  1   
 42  18  42  1   
 43  18  43  1   
 44  18  44  1   
 45  19  45  1   
 46  19  46  1   
 47  19  47  1   
@<TRIPOS>SUBSTRUCTURE
  1 ****   3 GROUP 4 **** **** 0

# MOE 2024.06 (io_trps.svl 2023.06)
