@<TRIPOS>MOLECULE
NONAME
49 51 1 0 0 
SMALL
USER_CHARGES


@<TRIPOS>ATOM
  1 O       -0.8880    -0.5310    -1.8650 O.2   1 <1>  -0.5700 
  2 C       -1.8470    -1.0280    -1.3100 C.2   1 <1>   0.6900 
  3 N       -1.7160    -2.2500    -0.6580 N.am  1 <1>  -0.4200 
  4 N       -3.0720    -0.3790    -1.3340 N.am  1 <1>  -0.4360 
  5 C       -2.8100    -2.8750    -0.0730 C.2   1 <1>   0.7030 
  6 C       -0.3740    -2.9130    -0.6300 C.3   1 <1>   0.0600 
  7 C       -4.1530    -1.0090    -0.7480 C.2   1 <1>   0.4260 
  8 C       -3.2320     0.9440    -2.0070 C.3   1 <1>   0.0600 
  9 O       -2.6850    -3.9600     0.4700 O.2   1 <1>  -0.5700 
 10 C       -4.0820    -2.2110    -0.1270 C.2   1 <1>   0.2770 
 11 N       -5.4340    -0.5770    -0.6830 N.pl3 1 <1>  -0.7000 
 12 N       -5.3760    -2.5030     0.3290 N.pl3 1 <1>  -0.7640 
 13 C       -6.1500    -1.4840    -0.0330 C.cat 1 <1>   0.6560 
 14 C       -5.7370    -3.7420     1.0620 C.3   1 <1>   0.3540 
 15 C       -7.6560    -1.2920     0.2070 C.3   1 <1>   0.2540 
 16 C       -6.0100    -4.8510     0.0530 C.3   1 <1>  -0.2400 
 17 N       -8.0790     0.1060    -0.1090 N.3   1 <1>  -0.8100 
 18 C       -8.2130     0.9710     1.0900 C.3   1 <1>   0.1900 
 19 C       -9.3310     0.0890    -0.8930 C.3   1 <1>   0.1100 
 20 C       -8.5560     2.4060     0.6570 C.3   1 <1>  -0.1600 
 21 C       -6.9190     1.0090     1.9120 C.3   1 <1>  -0.2400 
 22 C       -9.6790     1.4950    -1.3830 C.3   1 <1>  -0.1600 
 23 C       -9.8190     2.4620    -0.2070 C.3   1 <1>  -0.1600 
 24 H        0.4030    -2.1760    -0.5180 H     1 <1>   0.0800 
 25 H       -0.2170    -3.4450    -1.5520 H     1 <1>   0.0800 
 26 H       -0.3010    -3.6040     0.1910 H     1 <1>   0.0800 
 27 H       -2.2800     1.4400    -2.1030 H     1 <1>   0.0800 
 28 H       -3.8820     1.5800    -1.4320 H     1 <1>   0.0800 
 29 H       -3.6460     0.8030    -2.9900 H     1 <1>   0.0800 
 30 H       -5.8720     0.2870    -1.0200 H     1 <1>   0.4500 
 31 H       -6.6120    -3.5740     1.6660 H     1 <1>   0.0800 
 32 H       -4.9310    -4.0310     1.7190 H     1 <1>   0.0800 
 33 H       -7.9080    -1.5420     1.2220 H     1 <1>   0.0800 
 34 H       -8.1670    -1.9880    -0.4350 H     1 <1>   0.0800 
 35 H       -6.8160    -4.5800    -0.6060 H     1 <1>   0.0800 
 36 H       -6.2860    -5.7500     0.5740 H     1 <1>   0.0800 
 37 H       -5.1270    -5.0600    -0.5250 H     1 <1>   0.0800 
 38 H       -9.0130     0.5990     1.7100 H     1 <1>   0.0800 
 39 H      -10.1390    -0.2930    -0.2890 H     1 <1>   0.0800 
 40 H       -9.2170    -0.5500    -1.7530 H     1 <1>   0.0800 
 41 H       -7.7300     2.8190     0.1050 H     1 <1>   0.0800 
 42 H       -8.7050     3.0200     1.5280 H     1 <1>   0.0800 
 43 H       -6.0940     1.3410     1.3090 H     1 <1>   0.0800 
 44 H       -6.6950     0.0560     2.3500 H     1 <1>   0.0800 
 45 H       -7.0340     1.7060     2.7230 H     1 <1>   0.0800 
 46 H      -10.6020     1.4640    -1.9340 H     1 <1>   0.0800 
 47 H       -8.9080     1.8370    -2.0510 H     1 <1>   0.0800 
 48 H       -9.9740     3.4640    -0.5700 H     1 <1>   0.0800 
 49 H      -10.6730     2.1860     0.3870 H     1 <1>   0.0800 
@<TRIPOS>BOND
  1   1   2  2   
  2   2   3  am  
  3   2   4  am  
  4   3   5  am  
  5   3   6  1   
  6   4   7  1   
  7   4   8  1   
  8   5   9  2   
  9   5  10  1   
 10   6  24  1   
 11   6  25  1   
 12   6  26  1   
 13   7  10  2   
 14   7  11  1   
 15   8  27  1   
 16   8  28  1   
 17   8  29  1   
 18  10  12  1   
 19  11  13  ar  
 20  11  30  1   
 21  12  13  ar  
 22  12  14  1   
 23  13  15  1   
 24  14  16  1   
 25  14  31  1   
 26  14  32  1   
 27  15  17  1   
 28  15  33  1   
 29  15  34  1   
 30  16  35  1   
 31  16  36  1   
 32  16  37  1   
 33  17  18  1   
 34  17  19  1   
 35  18  20  1   
 36  18  21  1   
 37  18  38  1   
 38  19  22  1   
 39  19  39  1   
 40  19  40  1   
 41  20  23  1   
 42  20  41  1   
 43  20  42  1   
 44  21  43  1   
 45  21  44  1   
 46  21  45  1   
 47  22  23  1   
 48  22  46  1   
 49  22  47  1   
 50  23  48  1   
 51  23  49  1   
@<TRIPOS>SUBSTRUCTURE
  1 ****  11 GROUP 4 **** **** 0

# MOE 2024.06 (io_trps.svl 2023.06)
