@<TRIPOS>MOLECULE
NONAME
46 48 1 0 0 
SMALL
USER_CHARGES


@<TRIPOS>ATOM
  1 BR      -0.0460     0.3030     0.6660 Br    1 <1>  -0.1110 
  2 C        1.8740     0.3560     0.5130 C.ar  1 <1>   0.1110 
  3 C        2.5330    -0.7400    -0.0090 C.ar  1 <1>  -0.1500 
  4 C        2.5460     1.4880     0.9300 C.ar  1 <1>  -0.1500 
  5 C        3.9120    -0.6920    -0.1160 C.ar  1 <1>  -0.1500 
  6 C        3.9250     1.5190     0.8170 C.ar  1 <1>  -0.1500 
  7 C        4.6280     0.4340     0.2900 C.ar  1 <1>   0.1170 
  8 N        6.0310     0.4820     0.1640 N.am  1 <1>  -0.4770 
  9 C        6.9330    -0.5330     0.3100 C.2   1 <1>   0.5690 
 10 C        6.7250     1.7370    -0.1940 C.3   1 <1>   0.1400 
 11 O        6.7000    -1.6810     0.5960 O.2   1 <1>  -0.5700 
 12 C        8.3370    -0.0610     0.0540 C.3   1 <1>  -0.0990 
 13 C        8.1250     1.2910    -0.6440 C.3   1 <1>  -0.0190 
 14 C        9.2170     2.3160    -0.3670 C.2   1 <1>   0.5690 
 15 O        8.8970     3.4170     0.0040 O.2   1 <1>  -0.5700 
 16 N       10.5140     1.9330    -0.5800 N.am  1 <1>  -0.5470 
 17 C       11.7230     2.6240    -0.3990 C.ar  1 <1>   0.1170 
 18 C       12.8550     2.1690    -1.0640 C.ar  1 <1>  -0.1500 
 19 C       11.8530     3.7340     0.4280 C.ar  1 <1>  -0.1500 
 20 C       14.0760     2.8020    -0.9120 C.ar  1 <1>  -0.1500 
 21 C       13.0720     4.3690     0.5800 C.ar  1 <1>  -0.1500 
 22 C       14.1980     3.9110    -0.0890 C.ar  1 <1>  -0.1430 
 23 C       15.5520     4.6010     0.0680 C.3   1 <1>   0.0630 
 24 C       16.0300     4.5430     1.5220 C.3   1 <1>  -0.2400 
 25 C       15.4870     6.0500    -0.4260 C.3   1 <1>  -0.2400 
 26 H        1.9810    -1.6080    -0.3210 H     1 <1>   0.1500 
 27 H        2.0010     2.3220     1.3360 H     1 <1>   0.1500 
 28 H        4.4370    -1.5390    -0.5200 H     1 <1>   0.1500 
 29 H        4.4550     2.3920     1.1490 H     1 <1>   0.1500 
 30 H        6.7790     2.3620     0.6810 H     1 <1>   0.0800 
 31 H        6.2060     2.2560    -0.9810 H     1 <1>   0.0800 
 32 H        8.8690    -0.7610    -0.5630 H     1 <1>   0.0800 
 33 H        8.8340     0.0560     1.0010 H     1 <1>   0.0800 
 34 H        8.0830     1.1310    -1.7070 H     1 <1>   0.0800 
 35 H       10.6330     1.0000    -0.9680 H     1 <1>   0.3700 
 36 H       12.7880     1.3140    -1.7100 H     1 <1>   0.1500 
 37 H       11.0030     4.1120     0.9650 H     1 <1>   0.1500 
 38 H       14.9340     2.4270    -1.4420 H     1 <1>   0.1500 
 39 H       13.1380     5.2270     1.2250 H     1 <1>   0.1500 
 40 H       16.2770     4.0820    -0.5360 H     1 <1>   0.0800 
 41 H       15.3660     5.0900     2.1660 H     1 <1>   0.0800 
 42 H       17.0160     4.9630     1.6070 H     1 <1>   0.0800 
 43 H       16.0630     3.5210     1.8550 H     1 <1>   0.0800 
 44 H       14.8110     6.6300     0.1760 H     1 <1>   0.0800 
 45 H       15.1420     6.0730    -1.4440 H     1 <1>   0.0800 
 46 H       16.4610     6.5030    -0.3830 H     1 <1>   0.0800 
@<TRIPOS>BOND
  1   1   2  1   
  2   2   3  ar  
  3   2   4  ar  
  4   3   5  ar  
  5   3  26  1   
  6   4   6  ar  
  7   4  27  1   
  8   5   7  ar  
  9   5  28  1   
 10   6   7  ar  
 11   6  29  1   
 12   7   8  1   
 13   8   9  am  
 14   8  10  1   
 15   9  11  2   
 16   9  12  1   
 17  10  13  1   
 18  10  30  1   
 19  10  31  1   
 20  12  13  1   
 21  12  32  1   
 22  12  33  1   
 23  13  14  1   
 24  13  34  1   
 25  14  15  2   
 26  14  16  am  
 27  16  17  1   
 28  16  35  1   
 29  17  18  ar  
 30  17  19  ar  
 31  18  20  ar  
 32  18  36  1   
 33  19  21  ar  
 34  19  37  1   
 35  20  22  ar  
 36  20  38  1   
 37  21  22  ar  
 38  21  39  1   
 39  22  23  1   
 40  23  24  1   
 41  23  25  1   
 42  23  40  1   
 43  24  41  1   
 44  24  42  1   
 45  24  43  1   
 46  25  44  1   
 47  25  45  1   
 48  25  46  1   
@<TRIPOS>SUBSTRUCTURE
  1 ****  14 GROUP 4 **** **** 0

# MOE 2024.06 (io_trps.svl 2023.06)
