@<TRIPOS>MOLECULE
NONAME
48 50 1 0 0 
SMALL
USER_CHARGES


@<TRIPOS>ATOM
  1 O       -0.3160    -0.4370     0.7020 O.2   1 <1>  -0.5700 
  2 C       -0.4650    -1.5990     0.3710 C.2   1 <1>   0.5440 
  3 N        0.6530    -2.3890     0.1660 N.am  1 <1>  -0.6600 
  4 C       -1.8120    -2.1120     0.2200 C.ar  1 <1>   0.0860 
  5 C        0.5990    -3.8700     0.0230 C.3   1 <1>   0.1400 
  6 C        2.0070    -1.7760     0.0650 C.3   1 <1>   0.1400 
  7 C       -2.7070    -2.0940     1.2890 C.ar  1 <1>  -0.1500 
  8 C       -2.2750    -2.6290    -0.9890 C.ar  1 <1>  -0.1500 
  9 C        0.2720    -4.5230     1.3650 C.3   1 <1>  -0.2400 
 10 C        2.7630    -1.9440     1.3800 C.3   1 <1>  -0.2400 
 11 C       -3.9900    -2.5910     1.1630 C.ar  1 <1>  -0.1500 
 12 C       -3.5570    -3.1280    -1.1180 C.ar  1 <1>  -0.1500 
 13 C       -4.4370    -3.1250    -0.0400 C.ar  1 <1>   0.1170 
 14 N       -5.7460    -3.6140    -0.1150 N.am  1 <1>  -0.5470 
 15 C       -6.3620    -4.4610    -1.0010 C.2   1 <1>   0.5690 
 16 O       -5.7910    -4.9790    -1.9310 O.2   1 <1>  -0.5700 
 17 C       -7.8420    -4.7760    -0.7920 C.3   1 <1>   0.2610 
 18 O       -8.3360    -4.1120     0.3730 O.3   1 <1>  -0.3630 
 19 C       -8.0650    -6.2910    -0.6680 C.3   1 <1>   0.1200 
 20 C       -9.5190    -4.5460     0.8760 C.ar  1 <1>   0.0820 
 21 O       -9.4260    -6.5760    -0.4010 O.3   1 <1>  -0.3630 
 22 C      -10.0670    -5.7680     0.4810 C.ar  1 <1>   0.0820 
 23 C      -10.1870    -3.7530     1.7930 C.ar  1 <1>  -0.1500 
 24 C      -11.2860    -6.1760     0.9950 C.ar  1 <1>  -0.1500 
 25 C      -11.4040    -4.1690     2.3090 C.ar  1 <1>  -0.1500 
 26 C      -11.9530    -5.3770     1.9090 C.ar  1 <1>  -0.1500 
 27 H        1.5510    -4.2350    -0.3260 H     1 <1>   0.0800 
 28 H       -0.1400    -4.1450    -0.7080 H     1 <1>   0.0800 
 29 H        1.9170    -0.7270    -0.1620 H     1 <1>   0.0800 
 30 H        2.5540    -2.2360    -0.7410 H     1 <1>   0.0800 
 31 H       -2.3770    -1.6780     2.2260 H     1 <1>   0.1500 
 32 H       -1.6140    -2.6320    -1.8390 H     1 <1>   0.1500 
 33 H        0.9940    -4.2410     2.1090 H     1 <1>   0.0800 
 34 H        0.2930    -5.5930     1.2590 H     1 <1>   0.0800 
 35 H       -0.7090    -4.2390     1.6980 H     1 <1>   0.0800 
 36 H        2.1910    -1.5180     2.1860 H     1 <1>   0.0800 
 37 H        3.7040    -1.4290     1.3220 H     1 <1>   0.0800 
 38 H        2.9550    -2.9810     1.5800 H     1 <1>   0.0800 
 39 H       -4.6500    -2.5640     2.0110 H     1 <1>   0.1500 
 40 H       -3.8730    -3.5150    -2.0690 H     1 <1>   0.1500 
 41 H       -6.3680    -3.3100     0.6380 H     1 <1>   0.3700 
 42 H       -8.3930    -4.4050    -1.6370 H     1 <1>   0.0800 
 43 H       -7.4740    -6.6930     0.1360 H     1 <1>   0.0800 
 44 H       -7.7960    -6.7900    -1.5820 H     1 <1>   0.0800 
 45 H       -9.7590    -2.8150     2.0970 H     1 <1>   0.1500 
 46 H      -11.7040    -7.1160     0.6810 H     1 <1>   0.1500 
 47 H      -11.9250    -3.5520     3.0200 H     1 <1>   0.1500 
 48 H      -12.9000    -5.6960     2.3090 H     1 <1>   0.1500 
@<TRIPOS>BOND
  1   1   2  2   
  2   2   3  am  
  3   2   4  1   
  4   3   5  1   
  5   3   6  1   
  6   4   7  ar  
  7   4   8  ar  
  8   5   9  1   
  9   5  27  1   
 10   5  28  1   
 11   6  10  1   
 12   6  29  1   
 13   6  30  1   
 14   7  11  ar  
 15   7  31  1   
 16   8  12  ar  
 17   8  32  1   
 18   9  33  1   
 19   9  34  1   
 20   9  35  1   
 21  10  36  1   
 22  10  37  1   
 23  10  38  1   
 24  11  13  ar  
 25  11  39  1   
 26  12  13  ar  
 27  12  40  1   
 28  13  14  1   
 29  14  15  am  
 30  14  41  1   
 31  15  16  2   
 32  15  17  1   
 33  17  18  1   
 34  17  19  1   
 35  17  42  1   
 36  18  20  1   
 37  19  21  1   
 38  19  43  1   
 39  19  44  1   
 40  20  22  ar  
 41  20  23  ar  
 42  21  22  1   
 43  22  24  ar  
 44  23  25  ar  
 45  23  45  1   
 46  24  26  ar  
 47  24  46  1   
 48  25  26  ar  
 49  25  47  1   
 50  26  48  1   
@<TRIPOS>SUBSTRUCTURE
  1 ****  13 GROUP 4 **** **** 0

# MOE 2024.06 (io_trps.svl 2023.06)
