@<TRIPOS>MOLECULE
NONAME
51 54 1 0 0 
SMALL
USER_CHARGES


@<TRIPOS>ATOM
  1 S       -0.0650    -0.1810    -1.8780 S.3   1 <1>  -0.3710 
  2 C       -1.4520    -1.0370    -1.1470 C.2   1 <1>   0.6510 
  3 C        1.1710    -0.1180    -0.4900 C.3   1 <1>   0.1310 
  4 N       -1.6170    -2.2450    -1.5310 N.2   1 <1>  -0.6290 
  5 N       -2.2220    -0.3460    -0.2270 N.am  1 <1>  -0.2370 
  6 C        1.0320    -1.3320     0.4250 C.2   1 <1>   0.5690 
  7 C       -2.6220    -2.9780    -0.9460 C.ar  1 <1>   0.1790 
  8 C       -3.2450    -1.0460     0.3860 C.2   1 <1>   0.5440 
  9 C       -2.0180     1.0250     0.0510 C.ar  1 <1>   0.1170 
 10 O        0.4580    -1.1510     1.4740 O.2   1 <1>  -0.5700 
 11 N        1.5190    -2.5690     0.0740 N.am  1 <1>  -0.6600 
 12 C       -3.4560    -2.4220     0.0300 C.ar  1 <1>   0.0860 
 13 C       -2.8000    -4.3030    -1.3290 C.ar  1 <1>  -0.1500 
 14 O       -3.9690    -0.4950     1.2020 O.2   1 <1>  -0.5700 
 15 C       -2.3280     1.9960    -0.8950 C.ar  1 <1>  -0.1500 
 16 C       -1.5010     1.4290     1.2760 C.ar  1 <1>  -0.1500 
 17 C        2.1260    -2.8720    -1.2520 C.3   1 <1>   0.1400 
 18 C        1.3090    -3.7290     0.9900 C.3   1 <1>   0.1400 
 19 C       -4.4500    -3.2240     0.5990 C.ar  1 <1>  -0.1500 
 20 C       -3.7860    -5.0810    -0.7590 C.ar  1 <1>  -0.1500 
 21 C       -2.1110     3.3370    -0.6300 C.ar  1 <1>  -0.1500 
 22 C       -1.2810     2.7680     1.5450 C.ar  1 <1>  -0.1500 
 23 C        3.6480    -2.7180    -1.1760 C.3   1 <1>  -0.1600 
 24 C        2.4450    -4.7640     0.9710 C.3   1 <1>  -0.1600 
 25 C       -4.6150    -4.5380     0.2120 C.ar  1 <1>  -0.1500 
 26 C       -1.5840     3.7240     0.5910 C.ar  1 <1>  -0.1500 
 27 C        4.3690    -3.8720    -0.4620 C.3   1 <1>  -0.1600 
 28 C        3.8610    -4.1630     0.9590 C.3   1 <1>  -0.1600 
 29 H        0.9790     0.7850     0.0590 H     1 <1>   0.0800 
 30 H        2.1490    -0.0710    -0.9290 H     1 <1>   0.0800 
 31 H       -2.1500    -4.7120    -2.0820 H     1 <1>   0.1500 
 32 H       -2.7390     1.7010    -1.8440 H     1 <1>   0.1500 
 33 H       -1.2740     0.6890     2.0240 H     1 <1>   0.1500 
 34 H        1.7380    -2.2040    -1.9980 H     1 <1>   0.0800 
 35 H        1.8610    -3.8690    -1.5610 H     1 <1>   0.0800 
 36 H        0.3800    -4.2090     0.7330 H     1 <1>   0.0800 
 37 H        1.2140    -3.3650     1.9990 H     1 <1>   0.0800 
 38 H       -5.0940    -2.8010     1.3520 H     1 <1>   0.1500 
 39 H       -3.9150    -6.1060    -1.0640 H     1 <1>   0.1500 
 40 H       -2.3520     4.0790    -1.3710 H     1 <1>   0.1500 
 41 H       -0.8790     3.0640     2.4990 H     1 <1>   0.1500 
 42 H        3.8890    -1.7870    -0.6930 H     1 <1>   0.0800 
 43 H        4.0290    -2.6630    -2.1810 H     1 <1>   0.0800 
 44 H        2.3150    -5.4300     0.1370 H     1 <1>   0.0800 
 45 H        2.3380    -5.3640     1.8570 H     1 <1>   0.0800 
 46 H       -5.3850    -5.1440     0.6590 H     1 <1>   0.1500 
 47 H       -1.4150     4.7660     0.7990 H     1 <1>   0.1500 
 48 H        5.4160    -3.6300    -0.4050 H     1 <1>   0.0800 
 49 H        4.2840    -4.7660    -1.0560 H     1 <1>   0.0800 
 50 H        4.5310    -4.8760     1.4070 H     1 <1>   0.0800 
 51 H        3.8940    -3.2700     1.5610 H     1 <1>   0.0800 
@<TRIPOS>BOND
  1   1   2  1   
  2   1   3  1   
  3   2   4  2   
  4   2   5  1   
  5   3   6  1   
  6   3  29  1   
  7   3  30  1   
  8   4   7  1   
  9   5   8  am  
 10   5   9  1   
 11   6  10  2   
 12   6  11  am  
 13   7  12  ar  
 14   7  13  ar  
 15   8  12  1   
 16   8  14  2   
 17   9  15  ar  
 18   9  16  ar  
 19  11  17  1   
 20  11  18  1   
 21  12  19  ar  
 22  13  20  ar  
 23  13  31  1   
 24  15  21  ar  
 25  15  32  1   
 26  16  22  ar  
 27  16  33  1   
 28  17  23  1   
 29  17  34  1   
 30  17  35  1   
 31  18  24  1   
 32  18  36  1   
 33  18  37  1   
 34  19  25  ar  
 35  19  38  1   
 36  20  25  ar  
 37  20  39  1   
 38  21  26  ar  
 39  21  40  1   
 40  22  26  ar  
 41  22  41  1   
 42  23  27  1   
 43  23  42  1   
 44  23  43  1   
 45  24  28  1   
 46  24  44  1   
 47  24  45  1   
 48  25  46  1   
 49  26  47  1   
 50  27  28  1   
 51  27  48  1   
 52  27  49  1   
 53  28  50  1   
 54  28  51  1   
@<TRIPOS>SUBSTRUCTURE
  1 ****   2 GROUP 4 **** **** 0

# MOE 2024.06 (io_trps.svl 2023.06)
