@<TRIPOS>MOLECULE
NONAME
40 41 1 0 0 
SMALL
USER_CHARGES


@<TRIPOS>ATOM
  1 BR       0.3920    -0.2370    -1.6560 Br    1 <1>  -0.1110 
  2 C        1.8280     0.8220    -0.9380 C.ar  1 <1>   0.1110 
  3 C        2.1920     1.9820    -1.5930 C.ar  1 <1>  -0.1500 
  4 C        2.4570     0.3980     0.2150 C.ar  1 <1>  -0.1500 
  5 C        3.2270     2.7410    -1.0740 C.ar  1 <1>  -0.1500 
  6 C        3.4920     1.1630     0.7280 C.ar  1 <1>  -0.1500 
  7 C        3.8830     2.3320     0.0830 C.ar  1 <1>  -0.1430 
  8 C        5.0250     3.1530     0.6360 C.3   1 <1>   0.4870 
  9 N        6.2560     2.6310    -0.0070 N.4   1 <1>  -0.9060 
 10 C        7.5300     3.2510     0.4300 C.3   1 <1>   0.4230 
 11 C        7.6380     4.6900    -0.0850 C.3   1 <1>  -0.1600 
 12 C        8.6910     2.4110    -0.1040 C.3   1 <1>  -0.1600 
 13 C        8.9990     5.3020     0.2620 C.3   1 <1>   0.3430 
 14 C       10.0410     3.0420     0.2460 C.3   1 <1>   0.3430 
 15 N       10.0990     4.4440    -0.2660 N.4   1 <1>  -0.9590 
 16 C       11.4180     5.0780     0.0370 C.3   1 <1>   0.3430 
 17 C       12.4970     4.4740    -0.8540 C.3   1 <1>  -0.2400 
 18 H        1.6690     2.2800    -2.4860 H     1 <1>   0.1500 
 19 H        2.1370    -0.5100     0.6980 H     1 <1>   0.1500 
 20 H        3.5000     3.6500    -1.5850 H     1 <1>   0.1500 
 21 H        3.9730     0.8310     1.6330 H     1 <1>   0.1500 
 22 H        5.0730     3.0390     1.7080 H     1 <1>   0.0800 
 23 H        4.8760     4.1940     0.3990 H     1 <1>   0.0800 
 24 H        6.1230     2.7060    -1.0230 H     1 <1>   0.4500 
 25 H        6.2610     1.6200     0.1810 H     1 <1>   0.4500 
 26 H        7.5740     3.2550     1.5090 H     1 <1>   0.0800 
 27 H        6.8780     5.3030     0.3680 H     1 <1>   0.0800 
 28 H        7.5050     4.7250    -1.1520 H     1 <1>   0.0800 
 29 H        8.6280     2.3050    -1.1730 H     1 <1>   0.0800 
 30 H        8.6600     1.4280     0.3330 H     1 <1>   0.0800 
 31 H        9.0950     5.3970     1.3320 H     1 <1>   0.0800 
 32 H        9.0680     6.2910    -0.1660 H     1 <1>   0.0800 
 33 H       10.8330     2.4550    -0.1930 H     1 <1>   0.0800 
 34 H       10.1810     3.0390     1.3160 H     1 <1>   0.0800 
 35 H       10.0370     4.4230    -1.2960 H     1 <1>   0.4500 
 36 H       11.6750     4.9420     1.0760 H     1 <1>   0.0800 
 37 H       11.3670     6.1390    -0.1590 H     1 <1>   0.0800 
 38 H       12.6660     3.4370    -0.6300 H     1 <1>   0.0800 
 39 H       13.4230     4.9940    -0.6790 H     1 <1>   0.0800 
 40 H       12.2500     4.5890    -1.8940 H     1 <1>   0.0800 
@<TRIPOS>BOND
  1   1   2  1   
  2   2   3  ar  
  3   2   4  ar  
  4   3   5  ar  
  5   3  18  1   
  6   4   6  ar  
  7   4  19  1   
  8   5   7  ar  
  9   5  20  1   
 10   6   7  ar  
 11   6  21  1   
 12   7   8  1   
 13   8   9  1   
 14   8  22  1   
 15   8  23  1   
 16   9  10  1   
 17   9  24  1   
 18   9  25  1   
 19  10  11  1   
 20  10  12  1   
 21  10  26  1   
 22  11  13  1   
 23  11  27  1   
 24  11  28  1   
 25  12  14  1   
 26  12  29  1   
 27  12  30  1   
 28  13  15  1   
 29  13  31  1   
 30  13  32  1   
 31  14  15  1   
 32  14  33  1   
 33  14  34  1   
 34  15  16  1   
 35  15  35  1   
 36  16  17  1   
 37  16  36  1   
 38  16  37  1   
 39  17  38  1   
 40  17  39  1   
 41  17  40  1   
@<TRIPOS>SUBSTRUCTURE
  1 ****   9 GROUP 4 **** **** 0

# MOE 2024.06 (io_trps.svl 2023.06)
