@<TRIPOS>MOLECULE
NONAME
34 35 1 0 0 
SMALL
USER_CHARGES


@<TRIPOS>ATOM
  1 CL      -0.5830    -1.0660    -1.2310 Cl    1 <1>  -0.1770 
  2 C       -2.1150    -0.3680    -0.7620 C.ar  1 <1>   0.1770 
  3 C       -3.2750    -0.7180    -1.4310 C.ar  1 <1>   0.1600 
  4 C       -2.1650     0.5340     0.2770 C.ar  1 <1>  -0.1500 
  5 N       -4.4780    -0.2380    -1.1430 N.ar  1 <1>  -0.6200 
  6 C       -3.4100     1.0380     0.5840 C.ar  1 <1>  -0.1500 
  7 C       -4.5340     0.6310    -0.1410 C.ar  1 <1>   0.4270 
  8 N       -5.8150     1.0810     0.0950 N.am  1 <1>  -0.5470 
  9 C       -6.3620     1.9140     1.0280 C.2   1 <1>   0.5690 
 10 O       -5.7170     2.4430     1.8990 O.2   1 <1>  -0.5700 
 11 C       -7.8530     2.2050     0.9670 C.3   1 <1>   0.1310 
 12 S       -8.7770     0.8760     0.0490 S.3   1 <1>  -0.2860 
 13 C      -10.4630     1.4940     0.0640 C.2   1 <1>   0.2430 
 14 N      -10.8040     2.6150     0.5900 N.2   1 <1>  -0.3380 
 15 N      -11.4800     0.8220    -0.4720 N.pl3 1 <1>   0.0480 
 16 N      -12.1230     2.7120     0.4030 N.2   1 <1>  -0.3380 
 17 C      -12.5100     1.6470    -0.2230 C.2   1 <1>   0.0060 
 18 C      -11.4470    -0.4920    -1.1470 C.3   1 <1>   0.0160 
 19 C      -13.9470     1.3420    -0.6360 C.3   1 <1>   0.0200 
 20 C      -14.9540     2.3940    -0.1550 C.3   1 <1>  -0.2400 
 21 H       -3.2030    -1.4250    -2.2380 H     1 <1>   0.1500 
 22 H       -1.2770     0.8220     0.8110 H     1 <1>   0.1500 
 23 H       -3.5060     1.7460     1.3840 H     1 <1>   0.1500 
 24 H       -6.4760     0.6560    -0.5540 H     1 <1>   0.3700 
 25 H       -8.0340     3.1320     0.4560 H     1 <1>   0.0800 
 26 H       -8.2680     2.2520     1.9580 H     1 <1>   0.0800 
 27 H      -10.6030    -0.5300    -1.8120 H     1 <1>   0.0800 
 28 H      -12.3480    -0.6400    -1.7120 H     1 <1>   0.0800 
 29 H      -11.3530    -1.2660    -0.4070 H     1 <1>   0.0800 
 30 H      -14.2300     0.3850    -0.2330 H     1 <1>   0.0800 
 31 H      -13.9940     1.2820    -1.7090 H     1 <1>   0.0800 
 32 H      -14.9330     2.4630     0.9190 H     1 <1>   0.0800 
 33 H      -15.9480     2.1290    -0.4660 H     1 <1>   0.0800 
 34 H      -14.7080     3.3580    -0.5650 H     1 <1>   0.0800 
@<TRIPOS>BOND
  1   1   2  1   
  2   2   3  ar  
  3   2   4  ar  
  4   3   5  ar  
  5   3  21  1   
  6   4   6  ar  
  7   4  22  1   
  8   5   7  ar  
  9   6   7  ar  
 10   6  23  1   
 11   7   8  1   
 12   8   9  am  
 13   8  24  1   
 14   9  10  2   
 15   9  11  1   
 16  11  12  1   
 17  11  25  1   
 18  11  26  1   
 19  12  13  1   
 20  13  14  2   
 21  13  15  1   
 22  14  16  1   
 23  15  17  1   
 24  15  18  1   
 25  16  17  2   
 26  17  19  1   
 27  18  27  1   
 28  18  28  1   
 29  18  29  1   
 30  19  20  1   
 31  19  30  1   
 32  19  31  1   
 33  20  32  1   
 34  20  33  1   
 35  20  34  1   
@<TRIPOS>SUBSTRUCTURE
  1 ****  12 GROUP 4 **** **** 0

# MOE 2024.06 (io_trps.svl 2023.06)
