@<TRIPOS>MOLECULE
NONAME
37 39 1 0 0 
SMALL
USER_CHARGES


@<TRIPOS>ATOM
  1 N        0.5970     0.1970     0.0950 N.ar  1 <1>  -0.6200 
  2 C        1.4450     1.1160    -0.2790 C.ar  1 <1>   0.4100 
  3 C       -0.6050     0.6710     0.4970 C.ar  1 <1>   0.3100 
  4 N        2.7060     0.6760    -0.6510 N.pl3 1 <1>  -0.8380 
  5 C        1.1070     2.5120    -0.2970 C.ar  1 <1>   0.1670 
  6 C       -0.9210     2.0510     0.5020 C.ar  1 <1>   0.3100 
  7 C       -1.5790    -0.2400     0.9340 C.ar  1 <1>  -0.1500 
  8 C        3.8370     0.8790     0.2900 C.3   1 <1>   0.2090 
  9 C        2.8380    -0.4850    -1.5740 C.3   1 <1>   0.2090 
 10 N       -0.0330     2.9910     0.0860 N.ar  1 <1>  -0.6200 
 11 C        2.1190     3.5250    -0.8080 C.3   1 <1>  -0.0960 
 12 C       -2.1890     2.4550     0.9430 C.ar  1 <1>  -0.1500 
 13 C       -2.8140     0.1800     1.3600 C.ar  1 <1>  -0.1500 
 14 C        4.1260    -0.4090     1.0670 C.3   1 <1>  -0.1600 
 15 C        3.1560    -1.7690    -0.7990 C.3   1 <1>  -0.1600 
 16 C       -3.1220     1.5420     1.3660 C.ar  1 <1>  -0.1500 
 17 C        4.3690    -1.5970     0.1250 C.3   1 <1>  -0.0800 
 18 C        4.6250    -2.8780     0.9260 C.3   1 <1>  -0.2400 
 19 H       -1.3220    -1.2830     0.9230 H     1 <1>   0.1500 
 20 H        3.5980     1.6650     0.9860 H     1 <1>   0.0800 
 21 H        4.7080     1.1740    -0.2680 H     1 <1>   0.0800 
 22 H        3.6270    -0.2800    -2.2770 H     1 <1>   0.0800 
 23 H        1.9230    -0.6130    -2.1260 H     1 <1>   0.0800 
 24 H        2.6000     3.1530    -1.6940 H     1 <1>   0.0800 
 25 H        2.8580     3.7120    -0.0540 H     1 <1>   0.0800 
 26 H        1.6310     4.4510    -1.0510 H     1 <1>   0.0800 
 27 H       -2.4050     3.5080     0.9390 H     1 <1>   0.1500 
 28 H       -3.5520    -0.5300     1.6930 H     1 <1>   0.1500 
 29 H        3.2840    -0.6150     1.7060 H     1 <1>   0.0800 
 30 H        4.9860    -0.2550     1.6920 H     1 <1>   0.0800 
 31 H        3.3380    -2.5630    -1.5000 H     1 <1>   0.0800 
 32 H        2.2890    -2.0360    -0.2190 H     1 <1>   0.0800 
 33 H       -4.0930     1.8630     1.7030 H     1 <1>   0.1500 
 34 H        5.2370    -1.3890    -0.4780 H     1 <1>   0.0800 
 35 H        3.7740    -3.1150     1.5410 H     1 <1>   0.0800 
 36 H        5.4850    -2.7570     1.5600 H     1 <1>   0.0800 
 37 H        4.8070    -3.7040     0.2610 H     1 <1>   0.0800 
@<TRIPOS>BOND
  1   1   2  ar  
  2   1   3  ar  
  3   2   4  1   
  4   2   5  ar  
  5   3   6  ar  
  6   3   7  ar  
  7   4   8  1   
  8   4   9  1   
  9   5  10  ar  
 10   5  11  1   
 11   6  10  ar  
 12   6  12  ar  
 13   7  13  ar  
 14   7  19  1   
 15   8  14  1   
 16   8  20  1   
 17   8  21  1   
 18   9  15  1   
 19   9  22  1   
 20   9  23  1   
 21  11  24  1   
 22  11  25  1   
 23  11  26  1   
 24  12  16  ar  
 25  12  27  1   
 26  13  16  ar  
 27  13  28  1   
 28  14  17  1   
 29  14  29  1   
 30  14  30  1   
 31  15  17  1   
 32  15  31  1   
 33  15  32  1   
 34  16  33  1   
 35  17  18  1   
 36  17  34  1   
 37  18  35  1   
 38  18  36  1   
 39  18  37  1   
@<TRIPOS>SUBSTRUCTURE
  1 ****   1 GROUP 4 **** **** 0

# MOE 2024.06 (io_trps.svl 2023.06)
