@<TRIPOS>MOLECULE
NONAME
63 66 1 0 0 
SMALL
USER_CHARGES


@<TRIPOS>ATOM
  1 O       -0.6270     0.5180     1.4420 O.3   1 <1>  -0.3630 
  2 C       -1.7190     1.1700     0.9590 C.ar  1 <1>   0.0830 
  3 C        0.0040     0.9120     2.6390 C.3   1 <1>   0.0400 
  4 C       -2.2440     0.7370    -0.2530 C.ar  1 <1>  -0.1440 
  5 C       -2.3180     2.2370     1.6220 C.ar  1 <1>  -0.1500 
  6 C       -3.3560     1.3710    -0.7780 C.ar  1 <1>  -0.1500 
  7 C       -1.6020    -0.4200    -1.0050 C.3   1 <1>  -0.0960 
  8 C       -3.4330     2.8690     1.0940 C.ar  1 <1>  -0.1430 
  9 C       -3.9630     2.4290    -0.1150 C.ar  1 <1>  -0.1430 
 10 C       -4.0460     4.0370     1.8560 C.3   1 <1>  -0.0970 
 11 C       -5.1990     3.0700    -0.7450 C.3   1 <1>   0.2530 
 12 N       -6.4550     2.7130    -0.0340 N.3   1 <1>  -0.8100 
 13 C       -7.7200     3.1760    -0.6950 C.3   1 <1>   0.1900 
 14 C       -6.4880     1.2440     0.2270 C.3   1 <1>   0.1100 
 15 C       -7.8090     4.6950    -1.0300 C.3   1 <1>  -0.0800 
 16 C       -8.9510     2.8290     0.2080 C.3   1 <1>   0.4230 
 17 C       -7.8450     0.7000     0.7160 C.3   1 <1>   0.3430 
 18 C       -7.1540     5.0960    -2.3710 C.3   1 <1>  -0.1600 
 19 C       -7.3670     5.6240     0.1220 C.3   1 <1>  -0.1600 
 20 N       -8.7070     1.7950     1.2530 N.4   1 <1>  -0.9590 
 21 C      -10.1750     2.3050    -0.5370 C.3   1 <1>  -0.1600 
 22 C       -7.4170     6.5730    -2.6920 C.3   1 <1>  -0.1600 
 23 C       -7.6130     7.0980    -0.2230 C.3   1 <1>  -0.1600 
 24 C      -10.0350     1.3200     1.7070 C.3   1 <1>   0.3430 
 25 C      -10.9690     1.5210     0.5130 C.3   1 <1>  -0.1600 
 26 C       -6.9450     7.4800    -1.5490 C.3   1 <1>  -0.1600 
 27 H        0.8440     0.2610     2.8030 H     1 <1>   0.0800 
 28 H       -0.6960     0.8160     3.4500 H     1 <1>   0.0800 
 29 H        0.3430     1.9270     2.5370 H     1 <1>   0.0800 
 30 H       -1.9210     2.5870     2.5540 H     1 <1>   0.1500 
 31 H       -3.7530     1.0350    -1.7190 H     1 <1>   0.1500 
 32 H       -1.6090    -1.3020    -0.3890 H     1 <1>   0.0800 
 33 H       -0.5820    -0.1760    -1.2420 H     1 <1>   0.0800 
 34 H       -2.1250    -0.6330    -1.9180 H     1 <1>   0.0800 
 35 H       -3.5440     4.1950     2.7930 H     1 <1>   0.0800 
 36 H       -5.0830     3.8440     2.0600 H     1 <1>   0.0800 
 37 H       -3.9640     4.9370     1.2740 H     1 <1>   0.0800 
 38 H       -5.2720     2.7690    -1.7760 H     1 <1>   0.0800 
 39 H       -5.0520     4.1320    -0.7230 H     1 <1>   0.0800 
 40 H       -7.8250     2.6360    -1.6210 H     1 <1>   0.0800 
 41 H       -5.7540     1.0100     0.9800 H     1 <1>   0.0800 
 42 H       -6.2090     0.7050    -0.6630 H     1 <1>   0.0800 
 43 H       -8.8550     4.9010    -1.1860 H     1 <1>   0.0800 
 44 H       -9.2490     3.7320     0.7140 H     1 <1>   0.0800 
 45 H       -7.6740    -0.0490     1.4710 H     1 <1>   0.0800 
 46 H       -8.3440     0.2240    -0.1110 H     1 <1>   0.0800 
 47 H       -7.5520     4.4910    -3.1680 H     1 <1>   0.0800 
 48 H       -6.0930     4.9520    -2.3540 H     1 <1>   0.0800 
 49 H       -6.3200     5.4950     0.3260 H     1 <1>   0.0800 
 50 H       -7.8990     5.3850     1.0250 H     1 <1>   0.0800 
 51 H       -8.1630     2.2530     1.9970 H     1 <1>   0.4500 
 52 H       -9.8730     1.6480    -1.3340 H     1 <1>   0.0800 
 53 H      -10.7490     3.1130    -0.9570 H     1 <1>   0.0800 
 54 H       -8.4700     6.7270    -2.8580 H     1 <1>   0.0800 
 55 H       -6.9010     6.8420    -3.5980 H     1 <1>   0.0800 
 56 H       -7.2270     7.7220     0.5650 H     1 <1>   0.0800 
 57 H       -8.6720     7.2810    -0.2950 H     1 <1>   0.0800 
 58 H      -10.3760     1.9250     2.5330 H     1 <1>   0.0800 
 59 H      -10.0020     0.2880     2.0170 H     1 <1>   0.0800 
 60 H      -11.2950     0.5730     0.1220 H     1 <1>   0.0800 
 61 H      -11.8390     2.0720     0.8300 H     1 <1>   0.0800 
 62 H       -7.1750     8.5050    -1.7860 H     1 <1>   0.0800 
 63 H       -5.8760     7.4000    -1.4470 H     1 <1>   0.0800 
@<TRIPOS>BOND
  1   1   2  1   
  2   1   3  1   
  3   2   4  ar  
  4   2   5  ar  
  5   3  27  1   
  6   3  28  1   
  7   3  29  1   
  8   4   6  ar  
  9   4   7  1   
 10   5   8  ar  
 11   5  30  1   
 12   6   9  ar  
 13   6  31  1   
 14   7  32  1   
 15   7  33  1   
 16   7  34  1   
 17   8   9  ar  
 18   8  10  1   
 19   9  11  1   
 20  10  35  1   
 21  10  36  1   
 22  10  37  1   
 23  11  12  1   
 24  11  38  1   
 25  11  39  1   
 26  12  13  1   
 27  12  14  1   
 28  13  15  1   
 29  13  16  1   
 30  13  40  1   
 31  14  17  1   
 32  14  41  1   
 33  14  42  1   
 34  15  18  1   
 35  15  19  1   
 36  15  43  1   
 37  16  20  1   
 38  16  21  1   
 39  16  44  1   
 40  17  20  1   
 41  17  45  1   
 42  17  46  1   
 43  18  22  1   
 44  18  47  1   
 45  18  48  1   
 46  19  23  1   
 47  19  49  1   
 48  19  50  1   
 49  20  24  1   
 50  20  51  1   
 51  21  25  1   
 52  21  52  1   
 53  21  53  1   
 54  22  26  1   
 55  22  54  1   
 56  22  55  1   
 57  23  26  1   
 58  23  56  1   
 59  23  57  1   
 60  24  25  1   
 61  24  58  1   
 62  24  59  1   
 63  25  60  1   
 64  25  61  1   
 65  26  62  1   
 66  26  63  1   
@<TRIPOS>SUBSTRUCTURE
  1 ****  12 GROUP 4 **** **** 0

# MOE 2024.06 (io_trps.svl 2023.06)
