@<TRIPOS>MOLECULE
22868
33 33 1 0 0 
SMALL
USER_CHARGES


@<TRIPOS>ATOM
  1 S       -0.5980    -1.1450    -0.3480 S.3   1 <1>  -0.0800 
  2 C       -0.4600     0.5530    -0.0060 C.2   1 <1>   0.4420 
  3 C        1.1080    -1.2630    -0.0920 C.2   1 <1>   0.1980 
  4 N        0.7490     0.8950     0.2530 N.2   1 <1>  -0.3380 
  5 N       -1.5380     1.4110    -0.0240 N.am  1 <1>  -0.4940 
  6 N        1.6370    -0.1440     0.2030 N.2   1 <1>  -0.3380 
  7 C        1.7360    -2.6390    -0.2470 C.3   1 <1>   0.0200 
  8 C       -2.8760     1.2150    -0.2390 C.2   1 <1>   0.6160 
  9 C        3.2520    -2.6340     0.0010 C.3   1 <1>  -0.1600 
 10 O       -3.3040     0.0990    -0.4260 O.2   1 <1>  -0.5700 
 11 C       -3.7370     2.3800    -0.2450 C.2   1 <1>  -0.1360 
 12 C        3.8560    -4.0350    -0.1610 C.3   1 <1>  -0.1600 
 13 C       -5.0770     2.5240    -0.1580 C.2   1 <1>  -0.2760 
 14 C        5.3670    -4.0130     0.0890 C.3   1 <1>  -0.2400 
 15 C       -5.7440     3.8910    -0.2110 C.3   1 <1>  -0.1020 
 16 C       -6.0970     1.4020     0.0020 C.3   1 <1>  -0.1020 
 17 H       -1.2700     2.3660     0.1890 H     1 <1>   0.3700 
 18 H        1.2620    -3.3080     0.4480 H     1 <1>   0.0800 
 19 H        1.5370    -2.9930    -1.2420 H     1 <1>   0.0800 
 20 H        3.7210    -1.9560    -0.6930 H     1 <1>   0.0800 
 21 H        3.4450    -2.2710     0.9970 H     1 <1>   0.0800 
 22 H       -3.1610     3.2800    -0.3420 H     1 <1>   0.1500 
 23 H        3.3940    -4.7140     0.5350 H     1 <1>   0.0800 
 24 H        3.6700    -4.3980    -1.1580 H     1 <1>   0.0800 
 25 H        5.5780    -3.6730     1.0870 H     1 <1>   0.0800 
 26 H        5.8540    -3.3560    -0.6110 H     1 <1>   0.0800 
 27 H        5.7750    -5.0010    -0.0290 H     1 <1>   0.0800 
 28 H       -6.4290     3.9360    -1.0390 H     1 <1>   0.0800 
 29 H       -5.0190     4.6760    -0.3310 H     1 <1>   0.0800 
 30 H       -6.2910     4.0730     0.6980 H     1 <1>   0.0800 
 31 H       -6.7070     1.5770     0.8700 H     1 <1>   0.0800 
 32 H       -5.6340     0.4410     0.1200 H     1 <1>   0.0800 
 33 H       -6.7350     1.3590    -0.8630 H     1 <1>   0.0800 
@<TRIPOS>BOND
  1   1   2  1   
  2   1   3  1   
  3   2   4  2   
  4   2   5  1   
  5   3   6  2   
  6   3   7  1   
  7   4   6  1   
  8   5   8  am  
  9   5  17  1   
 10   7   9  1   
 11   7  18  1   
 12   7  19  1   
 13   8  10  2   
 14   8  11  1   
 15   9  12  1   
 16   9  20  1   
 17   9  21  1   
 18  11  13  2   
 19  11  22  1   
 20  12  14  1   
 21  12  23  1   
 22  12  24  1   
 23  13  15  1   
 24  13  16  1   
 25  14  25  1   
 26  14  26  1   
 27  14  27  1   
 28  15  28  1   
 29  15  29  1   
 30  15  30  1   
 31  16  31  1   
 32  16  32  1   
 33  16  33  1   
@<TRIPOS>SUBSTRUCTURE
  1 ****   2 GROUP 4 **** **** 0

# MOE 2024.06 (io_trps.svl 2023.06)
