@<TRIPOS>MOLECULE
NONAME
34 35 1 0 0 
SMALL
USER_CHARGES


@<TRIPOS>ATOM
  1 O       -0.4590    -0.4280     1.0770 O.2   1 <1>  -0.5700 
  2 C       -0.8880    -1.3060     0.3620 C.2   1 <1>   0.5690 
  3 N       -2.1240    -1.2110    -0.2360 N.am  1 <1>  -0.6600 
  4 C        0.0250    -2.5070     0.1320 C.3   1 <1>   0.1810 
  5 C       -2.7130    -2.2310    -1.1480 C.3   1 <1>   0.1400 
  6 C       -3.0590    -0.1000     0.0940 C.3   1 <1>   0.1400 
  7 O       -0.5830    -3.7140     0.5720 O.3   1 <1>  -0.3620 
  8 C       -3.9550    -2.8410    -0.4900 C.3   1 <1>  -0.1600 
  9 C       -4.3150    -0.6740     0.7590 C.3   1 <1>  -0.1600 
 10 C        0.0190    -4.9130     0.4070 C.ar  1 <1>   0.0820 
 11 C       -4.9750    -1.7580    -0.1070 C.3   1 <1>  -0.1600 
 12 C       -0.7010    -6.0290     0.7980 C.ar  1 <1>  -0.1500 
 13 C        1.2940    -5.0750    -0.1250 C.ar  1 <1>  -0.1500 
 14 C       -0.1620    -7.2950     0.6580 C.ar  1 <1>  -0.1500 
 15 C        1.8280    -6.3450    -0.2630 C.ar  1 <1>  -0.1500 
 16 C        1.1100    -7.4720     0.1250 C.ar  1 <1>   0.0730 
 17 C        1.6690    -8.7850    -0.0210 C.1   1 <1>   0.4840 
 18 N        2.1150    -9.8270    -0.1400 N.1   1 <1>  -0.5570 
 19 H        0.9360    -2.3710     0.6870 H     1 <1>   0.0800 
 20 H        0.2450    -2.5940    -0.9150 H     1 <1>   0.0800 
 21 H       -2.0090    -3.0090    -1.3810 H     1 <1>   0.0800 
 22 H       -2.9920    -1.7520    -2.0720 H     1 <1>   0.0800 
 23 H       -3.3240     0.4170    -0.8110 H     1 <1>   0.0800 
 24 H       -2.5920     0.6080     0.7580 H     1 <1>   0.0800 
 25 H       -3.6490    -3.3820     0.3890 H     1 <1>   0.0800 
 26 H       -4.4090    -3.5420    -1.1670 H     1 <1>   0.0800 
 27 H       -5.0160     0.1210     0.9410 H     1 <1>   0.0800 
 28 H       -4.0380    -1.0910     1.7120 H     1 <1>   0.0800 
 29 H       -5.7950    -2.2040     0.4300 H     1 <1>   0.0800 
 30 H       -5.3690    -1.3070    -1.0020 H     1 <1>   0.0800 
 31 H       -1.6850    -5.8970     1.2130 H     1 <1>   0.1500 
 32 H        1.8840    -4.2320    -0.4330 H     1 <1>   0.1500 
 33 H       -0.7360    -8.1520     0.9680 H     1 <1>   0.1500 
 34 H        2.8160    -6.4630    -0.6750 H     1 <1>   0.1500 
@<TRIPOS>BOND
  1   1   2  2   
  2   2   3  am  
  3   2   4  1   
  4   3   5  1   
  5   3   6  1   
  6   4   7  1   
  7   4  19  1   
  8   4  20  1   
  9   5   8  1   
 10   5  21  1   
 11   5  22  1   
 12   6   9  1   
 13   6  23  1   
 14   6  24  1   
 15   7  10  1   
 16   8  11  1   
 17   8  25  1   
 18   8  26  1   
 19   9  11  1   
 20   9  27  1   
 21   9  28  1   
 22  10  12  ar  
 23  10  13  ar  
 24  11  29  1   
 25  11  30  1   
 26  12  14  ar  
 27  12  31  1   
 28  13  15  ar  
 29  13  32  1   
 30  14  16  ar  
 31  14  33  1   
 32  15  16  ar  
 33  15  34  1   
 34  16  17  1   
 35  17  18  3   
@<TRIPOS>SUBSTRUCTURE
  1 ****   7 GROUP 4 **** **** 0

# MOE 2024.06 (io_trps.svl 2023.06)
