@<TRIPOS>MOLECULE
NONAME
40 41 1 0 0 
SMALL
USER_CHARGES


@<TRIPOS>ATOM
  1 O        0.2200     0.2580    -0.7710 O.2   1 <1>  -0.5700 
  2 C        0.6830     1.2560    -0.2530 C.2   1 <1>   0.6900 
  3 N        2.0430     1.3820    -0.0980 N.am  1 <1>  -0.6600 
  4 N       -0.1240     2.2690     0.1850 N.am  1 <1>  -0.5470 
  5 C        2.9230     0.2000    -0.3540 C.3   1 <1>   0.1400 
  6 C        2.7230     2.6730     0.2320 C.3   1 <1>   0.1400 
  7 C       -1.5140     2.4660     0.1580 C.ar  1 <1>   0.1170 
  8 C        4.2180     0.2970     0.4660 C.3   1 <1>  -0.0800 
  9 C        4.1310     2.7260    -0.3800 C.3   1 <1>  -0.0800 
 10 C       -2.0250     3.7660     0.2280 C.ar  1 <1>  -0.1440 
 11 C       -2.4090     1.4020     0.0860 C.ar  1 <1>  -0.1500 
 12 C        5.0190     1.5710     0.1250 C.3   1 <1>  -0.1600 
 13 C        5.0860    -0.9550     0.2830 C.3   1 <1>  -0.2400 
 14 C        4.8010     4.0800    -0.1150 C.3   1 <1>  -0.2400 
 15 C       -3.3950     3.9730     0.2210 C.ar  1 <1>  -0.1500 
 16 C       -1.1010     4.9760     0.3060 C.3   1 <1>  -0.0970 
 17 C       -3.7740     1.6160     0.0770 C.ar  1 <1>  -0.1500 
 18 C       -4.2700     2.9040     0.1440 C.ar  1 <1>  -0.1500 
 19 H        0.3990     3.0390     0.5790 H     1 <1>   0.3700 
 20 H        3.1520     0.1560    -1.4050 H     1 <1>   0.0800 
 21 H        2.3980    -0.7020    -0.0890 H     1 <1>   0.0800 
 22 H        2.7900     2.7680     1.3020 H     1 <1>   0.0800 
 23 H        2.1480     3.4960    -0.1550 H     1 <1>   0.0800 
 24 H        3.9290     0.3440     1.5030 H     1 <1>   0.0800 
 25 H        4.0150     2.6230    -1.4470 H     1 <1>   0.0800 
 26 H       -2.0420     0.3940     0.0400 H     1 <1>   0.1500 
 27 H        5.7500     1.3580    -0.6370 H     1 <1>   0.0800 
 28 H        5.5560     1.8720     1.0080 H     1 <1>   0.0800 
 29 H        5.3770    -1.0680    -0.7470 H     1 <1>   0.0800 
 30 H        4.5400    -1.8320     0.5830 H     1 <1>   0.0800 
 31 H        5.9730    -0.8850     0.8870 H     1 <1>   0.0800 
 32 H        4.9160     4.2480     0.9420 H     1 <1>   0.0800 
 33 H        4.2100     4.8780    -0.5280 H     1 <1>   0.0800 
 34 H        5.7730     4.1090    -0.5750 H     1 <1>   0.0800 
 35 H       -3.7960     4.9690     0.2730 H     1 <1>   0.1500 
 36 H       -0.4190     4.9720    -0.5250 H     1 <1>   0.0800 
 37 H       -0.5440     4.9560     1.2250 H     1 <1>   0.0800 
 38 H       -1.6630     5.8910     0.2720 H     1 <1>   0.0800 
 39 H       -4.4480     0.7790     0.0170 H     1 <1>   0.1500 
 40 H       -5.3330     3.0740     0.1380 H     1 <1>   0.1500 
@<TRIPOS>BOND
  1   1   2  2   
  2   2   3  am  
  3   2   4  am  
  4   3   5  1   
  5   3   6  1   
  6   4   7  1   
  7   4  19  1   
  8   5   8  1   
  9   5  20  1   
 10   5  21  1   
 11   6   9  1   
 12   6  22  1   
 13   6  23  1   
 14   7  10  ar  
 15   7  11  ar  
 16   8  12  1   
 17   8  13  1   
 18   8  24  1   
 19   9  12  1   
 20   9  14  1   
 21   9  25  1   
 22  10  15  ar  
 23  10  16  1   
 24  11  17  ar  
 25  11  26  1   
 26  12  27  1   
 27  12  28  1   
 28  13  29  1   
 29  13  30  1   
 30  13  31  1   
 31  14  32  1   
 32  14  33  1   
 33  14  34  1   
 34  15  18  ar  
 35  15  35  1   
 36  16  36  1   
 37  16  37  1   
 38  16  38  1   
 39  17  18  ar  
 40  17  39  1   
 41  18  40  1   
@<TRIPOS>SUBSTRUCTURE
  1 ****   2 GROUP 4 **** **** 0

# MOE 2024.06 (io_trps.svl 2023.06)
