@<TRIPOS>MOLECULE
NONAME
41 43 1 0 0 
SMALL
USER_CHARGES


@<TRIPOS>ATOM
  1 O        0.5420     0.2480     0.5290 O.3   1 <1>  -0.3630 
  2 C        1.8970     0.2040     0.4250 C.ar  1 <1>   0.0830 
  3 C       -0.1480     0.3960    -0.6870 C.3   1 <1>   0.0400 
  4 C        2.6390     1.3820     0.4970 C.ar  1 <1>   0.0830 
  5 C        2.5430    -1.0210     0.2660 C.ar  1 <1>   0.0830 
  6 O        1.9640     2.5600     0.6440 O.3   1 <1>  -0.3630 
  7 C        4.0250     1.3190     0.4130 C.ar  1 <1>  -0.1500 
  8 O        1.7760    -2.1480     0.1910 O.3   1 <1>  -0.3630 
  9 C        3.9300    -1.0530     0.1850 C.ar  1 <1>  -0.1500 
 10 C        2.6440     3.7680     0.9060 C.3   1 <1>   0.0400 
 11 C        4.7020     0.1080     0.2580 C.ar  1 <1>   0.0540 
 12 C        2.3520    -3.4350     0.2340 C.3   1 <1>   0.0400 
 13 C        6.1550     0.0560     0.1740 C.2   1 <1>   0.4620 
 14 N        6.8260    -1.0590     0.0160 N.2   1 <1>  -0.7070 
 15 N        6.9040     1.1700     0.2550 N.2   1 <1>  -0.5650 
 16 N        8.0830    -0.6410    -0.0060 N.pl3 1 <1>   0.6010 
 17 C        8.1040     0.7110     0.1410 C.2   1 <1>   0.3120 
 18 C        9.2690    -1.3480    -0.1470 C.2   1 <1>  -0.1690 
 19 N        9.2610     1.4520     0.1600 N.2   1 <1>  -0.5760 
 20 C       10.4170    -0.6190    -0.1290 C.2   1 <1>  -0.1360 
 21 C        9.2090    -2.8610    -0.3090 C.3   1 <1>  -0.1020 
 22 C       10.3650     0.7960     0.0290 C.2   1 <1>   0.3750 
 23 C       11.6700     1.5620     0.0420 C.3   1 <1>  -0.1790 
 24 H       -1.2010     0.4180    -0.4740 H     1 <1>   0.0800 
 25 H        0.0850    -0.4410    -1.3210 H     1 <1>   0.0800 
 26 H        0.1570     1.3180    -1.1480 H     1 <1>   0.0800 
 27 H        4.6100     2.2170     0.4630 H     1 <1>   0.1500 
 28 H        4.4450    -1.9850     0.0590 H     1 <1>   0.1500 
 29 H        1.9080     4.5370     1.0610 H     1 <1>   0.0800 
 30 H        3.2580     4.0160     0.0590 H     1 <1>   0.0800 
 31 H        3.2400     3.6480     1.7940 H     1 <1>   0.0800 
 32 H        1.5550    -4.1550     0.2490 H     1 <1>   0.0800 
 33 H        2.9420    -3.5230     1.1290 H     1 <1>   0.0800 
 34 H        2.9560    -3.5770    -0.6440 H     1 <1>   0.0800 
 35 H       11.3840    -1.0780    -0.2310 H     1 <1>   0.1500 
 36 H        8.6390    -3.1140    -1.1860 H     1 <1>   0.0800 
 37 H        8.7320    -3.3040     0.5480 H     1 <1>   0.0800 
 38 H       10.1960    -3.2760    -0.4070 H     1 <1>   0.0800 
 39 H       12.2840     1.2240     0.8560 H     1 <1>   0.0800 
 40 H       11.4820     2.6140     0.1670 H     1 <1>   0.0800 
 41 H       12.1910     1.4130    -0.8850 H     1 <1>   0.0800 
@<TRIPOS>BOND
  1   1   2  1   
  2   1   3  1   
  3   2   4  ar  
  4   2   5  ar  
  5   3  24  1   
  6   3  25  1   
  7   3  26  1   
  8   4   6  1   
  9   4   7  ar  
 10   5   8  1   
 11   5   9  ar  
 12   6  10  1   
 13   7  11  ar  
 14   7  27  1   
 15   8  12  1   
 16   9  11  ar  
 17   9  28  1   
 18  10  29  1   
 19  10  30  1   
 20  10  31  1   
 21  11  13  1   
 22  12  32  1   
 23  12  33  1   
 24  12  34  1   
 25  13  14  2   
 26  13  15  1   
 27  14  16  1   
 28  15  17  2   
 29  16  17  1   
 30  16  18  1   
 31  17  19  1   
 32  18  20  2   
 33  18  21  1   
 34  19  22  2   
 35  20  22  1   
 36  20  35  1   
 37  21  36  1   
 38  21  37  1   
 39  21  38  1   
 40  22  23  1   
 41  23  39  1   
 42  23  40  1   
 43  23  41  1   
@<TRIPOS>SUBSTRUCTURE
  1 ****  13 GROUP 4 **** **** 0

# MOE 2024.06 (io_trps.svl 2023.06)
