@<TRIPOS>MOLECULE
NONAME
58 60 1 0 0 
SMALL
USER_CHARGES


@<TRIPOS>ATOM
  1 O        0.8460    -2.6730    -2.6370 O.2   1 <1>  -0.5700 
  2 C        0.1330    -2.2990    -1.7360 C.2   1 <1>   0.5690 
  3 N        0.5320    -1.4720    -0.7270 N.am  1 <1>  -0.5470 
  4 C       -1.3230    -2.7700    -1.6960 C.3   1 <1>   0.1710 
  5 C        1.7380    -0.8280    -0.3940 C.ar  1 <1>   0.1170 
  6 N       -2.2350    -1.8350    -0.9770 N.3   1 <1>  -0.8100 
  7 C        1.7960    -0.0960     0.7980 C.ar  1 <1>   0.0830 
  8 C        2.8700    -0.8870    -1.1980 C.ar  1 <1>  -0.1500 
  9 C       -2.4790    -0.6080    -1.7800 C.3   1 <1>   0.1100 
 10 C       -3.5290    -2.4800    -0.6600 C.3   1 <1>   0.1100 
 11 O        0.6710    -0.0650     1.5740 O.3   1 <1>  -0.3630 
 12 C        2.9670     0.5620     1.1550 C.ar  1 <1>  -0.1500 
 13 C        4.0370    -0.2350    -0.8380 C.ar  1 <1>  -0.1500 
 14 C       -3.4290     0.3740    -1.0700 C.3   1 <1>   0.2090 
 15 C       -4.4900    -1.5220     0.0710 C.3   1 <1>   0.2090 
 16 C        0.7410     0.3390     2.9240 C.3   1 <1>   0.0400 
 17 C        4.0880     0.4960     0.3450 C.ar  1 <1>   0.0830 
 18 N       -4.7220    -0.2870    -0.7340 N.pl3 1 <1>  -0.8380 
 19 O        5.1890     1.1680     0.7730 O.3   1 <1>  -0.3630 
 20 C       -5.7270     0.5610    -0.2480 C.ar  1 <1>   0.1000 
 21 C        6.3800     1.1630     0.0170 C.3   1 <1>   0.0400 
 22 C       -5.6620     1.2520     0.9750 C.ar  1 <1>   0.0830 
 23 C       -6.8570     0.7260    -1.0360 C.ar  1 <1>  -0.1500 
 24 O       -4.5670     1.1220     1.7740 O.3   1 <1>  -0.3630 
 25 C       -6.7160     2.0600     1.3780 C.ar  1 <1>  -0.1500 
 26 C       -7.9010     1.5410    -0.6360 C.ar  1 <1>  -0.1500 
 27 C       -3.9190     2.3040     2.1790 C.3   1 <1>   0.1200 
 28 C       -7.8330     2.2080     0.5730 C.ar  1 <1>  -0.1500 
 29 C       -2.5400     1.9270     2.7090 C.3   1 <1>  -0.2400 
 30 H       -0.2380    -1.2520    -0.0820 H     1 <1>   0.3700 
 31 H       -1.3300    -3.7230    -1.1990 H     1 <1>   0.0800 
 32 H       -1.6690    -2.9200    -2.7040 H     1 <1>   0.0800 
 33 H        2.8490    -1.4440    -2.1160 H     1 <1>   0.1500 
 34 H       -2.9120    -0.8720    -2.7300 H     1 <1>   0.0800 
 35 H       -1.5470    -0.1040    -1.9680 H     1 <1>   0.0800 
 36 H       -3.3570    -3.3370    -0.0320 H     1 <1>   0.0800 
 37 H       -4.0040    -2.8160    -1.5660 H     1 <1>   0.0800 
 38 H        3.0400     1.1380     2.0560 H     1 <1>   0.1500 
 39 H        4.8860    -0.3090    -1.4890 H     1 <1>   0.1500 
 40 H       -3.6180     1.2180    -1.7080 H     1 <1>   0.0800 
 41 H       -2.9560     0.7280    -0.1720 H     1 <1>   0.0800 
 42 H       -4.0700    -1.2610     1.0260 H     1 <1>   0.0800 
 43 H       -5.4320    -2.0140     0.2410 H     1 <1>   0.0800 
 44 H       -0.2090     0.1350     3.3830 H     1 <1>   0.0800 
 45 H        0.9470     1.3940     2.9630 H     1 <1>   0.0800 
 46 H        1.5140    -0.2230     3.4180 H     1 <1>   0.0800 
 47 H        7.1100     1.7540     0.5400 H     1 <1>   0.0800 
 48 H        6.1840     1.5960    -0.9480 H     1 <1>   0.0800 
 49 H        6.7300     0.1500    -0.0770 H     1 <1>   0.0800 
 50 H       -6.9060     0.2030    -1.9730 H     1 <1>   0.1500 
 51 H       -6.6760     2.5680     2.3220 H     1 <1>   0.1500 
 52 H       -8.7660     1.6520    -1.2670 H     1 <1>   0.1500 
 53 H       -4.5080     2.7750     2.9460 H     1 <1>   0.0800 
 54 H       -3.8350     2.9560     1.3250 H     1 <1>   0.0800 
 55 H       -8.6470     2.8370     0.8890 H     1 <1>   0.1500 
 56 H       -2.6390     1.2640     3.5500 H     1 <1>   0.0800 
 57 H       -2.0160     2.8100     3.0250 H     1 <1>   0.0800 
 58 H       -1.9680     1.4450     1.9370 H     1 <1>   0.0800 
@<TRIPOS>BOND
  1   1   2  2   
  2   2   3  am  
  3   2   4  1   
  4   3   5  1   
  5   3  30  1   
  6   4   6  1   
  7   4  31  1   
  8   4  32  1   
  9   5   7  ar  
 10   5   8  ar  
 11   6   9  1   
 12   6  10  1   
 13   7  11  1   
 14   7  12  ar  
 15   8  13  ar  
 16   8  33  1   
 17   9  14  1   
 18   9  34  1   
 19   9  35  1   
 20  10  15  1   
 21  10  36  1   
 22  10  37  1   
 23  11  16  1   
 24  12  17  ar  
 25  12  38  1   
 26  13  17  ar  
 27  13  39  1   
 28  14  18  1   
 29  14  40  1   
 30  14  41  1   
 31  15  18  1   
 32  15  42  1   
 33  15  43  1   
 34  16  44  1   
 35  16  45  1   
 36  16  46  1   
 37  17  19  1   
 38  18  20  1   
 39  19  21  1   
 40  20  22  ar  
 41  20  23  ar  
 42  21  47  1   
 43  21  48  1   
 44  21  49  1   
 45  22  24  1   
 46  22  25  ar  
 47  23  26  ar  
 48  23  50  1   
 49  24  27  1   
 50  25  28  ar  
 51  25  51  1   
 52  26  28  ar  
 53  26  52  1   
 54  27  29  1   
 55  27  53  1   
 56  27  54  1   
 57  28  55  1   
 58  29  56  1   
 59  29  57  1   
 60  29  58  1   
@<TRIPOS>SUBSTRUCTURE
  1 ****   9 GROUP 4 **** **** 0

# MOE 2024.06 (io_trps.svl 2023.06)
