@<TRIPOS>MOLECULE
NONAME
38 39 1 0 0 
SMALL
USER_CHARGES


@<TRIPOS>ATOM
  1 O       -0.8490     0.5990     2.9790 O.2   1 <1>  -0.5700 
  2 C       -0.7350     1.3510     2.0410 C.2   1 <1>   0.5690 
  3 N       -1.5430     1.2080     0.9320 N.am  1 <1>  -0.6600 
  4 C        0.3280     2.4420     2.1530 C.3   1 <1>   0.0440 
  5 C       -2.3770    -0.0270     0.7710 C.3   1 <1>   0.1400 
  6 C       -1.5300     2.1300    -0.2500 C.3   1 <1>   0.1400 
  7 C        1.2630     2.5210     0.9490 C.ar  1 <1>  -0.1440 
  8 C       -3.7770     0.2940     0.2220 C.3   1 <1>   0.3430 
  9 C       -2.9460     2.3820    -0.8070 C.3   1 <1>   0.3430 
 10 C        1.8320     1.3680     0.4270 C.ar  1 <1>  -0.1500 
 11 C        1.5470     3.7440     0.3590 C.ar  1 <1>  -0.1500 
 12 N       -3.7090     1.1070    -1.0420 N.4   1 <1>  -0.9590 
 13 C        2.6590     1.4260    -0.6830 C.ar  1 <1>  -0.1430 
 14 C        2.3710     3.8080    -0.7500 C.ar  1 <1>  -0.1500 
 15 C       -5.0760     1.3850    -1.5790 C.3   1 <1>   0.2630 
 16 C        2.9220     2.6510    -1.2710 C.ar  1 <1>  -0.1500 
 17 C        3.2780     0.1610    -1.2490 C.3   1 <1>  -0.0970 
 18 H        0.9230     2.2500     3.0280 H     1 <1>   0.0800 
 19 H       -0.1690     3.3810     2.3060 H     1 <1>   0.0800 
 20 H       -2.4910    -0.5320     1.7150 H     1 <1>   0.0800 
 21 H       -1.8730    -0.7050     0.1050 H     1 <1>   0.0800 
 22 H       -0.9040     1.7090    -1.0180 H     1 <1>   0.0800 
 23 H       -1.1130     3.0820     0.0230 H     1 <1>   0.0800 
 24 H       -4.3220     0.8370     0.9770 H     1 <1>   0.0800 
 25 H       -4.3000    -0.6300     0.0380 H     1 <1>   0.0800 
 26 H       -2.8640     2.9360    -1.7280 H     1 <1>   0.0800 
 27 H       -3.4810     2.9950    -0.1010 H     1 <1>   0.0800 
 28 H        1.6320     0.4160     0.8890 H     1 <1>   0.1500 
 29 H        1.1340     4.6540     0.7580 H     1 <1>   0.1500 
 30 H       -3.1830     0.5550    -1.7360 H     1 <1>   0.4500 
 31 H        2.5910     4.7580    -1.2050 H     1 <1>   0.1500 
 32 H       -5.6470     1.9610    -0.8690 H     1 <1>   0.0800 
 33 H       -5.5970     0.4620    -1.7730 H     1 <1>   0.0800 
 34 H       -5.0110     1.9400    -2.5010 H     1 <1>   0.0800 
 35 H        3.5640     2.7100    -2.1330 H     1 <1>   0.1500 
 36 H        2.6900    -0.1970    -2.0740 H     1 <1>   0.0800 
 37 H        3.3280    -0.6060    -0.4970 H     1 <1>   0.0800 
 38 H        4.2770     0.3590    -1.5940 H     1 <1>   0.0800 
@<TRIPOS>BOND
  1   1   2  2   
  2   2   3  am  
  3   2   4  1   
  4   3   5  1   
  5   3   6  1   
  6   4   7  1   
  7   4  18  1   
  8   4  19  1   
  9   5   8  1   
 10   5  20  1   
 11   5  21  1   
 12   6   9  1   
 13   6  22  1   
 14   6  23  1   
 15   7  10  ar  
 16   7  11  ar  
 17   8  12  1   
 18   8  24  1   
 19   8  25  1   
 20   9  12  1   
 21   9  26  1   
 22   9  27  1   
 23  10  13  ar  
 24  10  28  1   
 25  11  14  ar  
 26  11  29  1   
 27  12  15  1   
 28  12  30  1   
 29  13  16  ar  
 30  13  17  1   
 31  14  16  ar  
 32  14  31  1   
 33  15  32  1   
 34  15  33  1   
 35  15  34  1   
 36  16  35  1   
 37  17  36  1   
 38  17  37  1   
 39  17  38  1   
@<TRIPOS>SUBSTRUCTURE
  1 ****   6 GROUP 4 **** **** 0

# MOE 2024.06 (io_trps.svl 2023.06)
