@<TRIPOS>MOLECULE
NONAME
29 29 1 0 0 
SMALL
USER_CHARGES


@<TRIPOS>ATOM
  1 BR      -0.2800     0.2290     0.0780 Br    1 <1>  -0.1110 
  2 C        1.4890     0.9870     0.0590 C.ar  1 <1>   0.1110 
  3 C        1.6250     2.3620     0.0880 C.ar  1 <1>  -0.1500 
  4 C        2.5780     0.1360     0.0150 C.ar  1 <1>  -0.1500 
  5 C        2.9010     2.8980     0.0740 C.ar  1 <1>  -0.1500 
  6 C        3.8510     0.6820     0.0010 C.ar  1 <1>  -0.1500 
  7 C        4.0150     2.0690     0.0310 C.ar  1 <1>   0.0830 
  8 O        5.2240     2.6840     0.0200 O.3   1 <1>  -0.3630 
  9 C        6.4220     1.9500    -0.0230 C.3   1 <1>   0.1200 
 10 C        7.5680     2.9650    -0.0230 C.3   1 <1>   0.3430 
 11 N        8.9070     2.3000    -0.0680 N.4   1 <1>  -0.9060 
 12 C       10.0090     3.3100    -0.0670 C.3   1 <1>   0.3430 
 13 C       11.3930     2.6500    -0.1130 C.3   1 <1>   0.1200 
 14 O       12.3310     3.6640    -0.1080 O.3   1 <1>  -0.6800 
 15 H        0.7550     2.9920     0.1220 H     1 <1>   0.1500 
 16 H        2.4260    -0.9280    -0.0070 H     1 <1>   0.1500 
 17 H        3.0350     3.9650     0.0970 H     1 <1>   0.1500 
 18 H        4.6880     0.0120    -0.0320 H     1 <1>   0.1500 
 19 H        6.4200     1.3640    -0.9250 H     1 <1>   0.0800 
 20 H        6.4580     1.3220     0.8500 H     1 <1>   0.0800 
 21 H        7.4930     3.5680     0.8680 H     1 <1>   0.0800 
 22 H        7.4560     3.6100    -0.8800 H     1 <1>   0.0800 
 23 H        8.9790     1.7200    -0.9150 H     1 <1>   0.4500 
 24 H        9.0150     1.6800     0.7470 H     1 <1>   0.4500 
 25 H        9.9470     3.9150     0.8240 H     1 <1>   0.0800 
 26 H        9.9100     3.9570    -0.9240 H     1 <1>   0.0800 
 27 H       11.5260     2.0790    -1.0150 H     1 <1>   0.0800 
 28 H       11.5640     2.0360     0.7550 H     1 <1>   0.0800 
 29 H       13.2500     3.3170    -0.1360 H     1 <1>   0.4000 
@<TRIPOS>BOND
  1   1   2  1   
  2   2   3  ar  
  3   2   4  ar  
  4   3   5  ar  
  5   3  15  1   
  6   4   6  ar  
  7   4  16  1   
  8   5   7  ar  
  9   5  17  1   
 10   6   7  ar  
 11   6  18  1   
 12   7   8  1   
 13   8   9  1   
 14   9  10  1   
 15   9  19  1   
 16   9  20  1   
 17  10  11  1   
 18  10  21  1   
 19  10  22  1   
 20  11  12  1   
 21  11  23  1   
 22  11  24  1   
 23  12  13  1   
 24  12  25  1   
 25  12  26  1   
 26  13  14  1   
 27  13  27  1   
 28  13  28  1   
 29  14  29  1   
@<TRIPOS>SUBSTRUCTURE
  1 ****   8 GROUP 4 **** **** 0

# MOE 2024.06 (io_trps.svl 2023.06)
