@<TRIPOS>MOLECULE
NONAME
36 36 1 0 0 
SMALL
USER_CHARGES


@<TRIPOS>ATOM
  1 O       -0.7570    -1.4920    -1.0270 O.co2 1 <1>  -0.9000 
  2 C       -1.3480    -1.6300     0.0450 C.2   1 <1>   0.9060 
  3 O       -0.7790    -1.8440     1.1170 O.co2 1 <1>  -0.9000 
  4 C       -2.8500    -1.5290     0.0430 C.3   1 <1>  -0.2660 
  5 C       -3.3060    -0.0620     0.2040 C.3   1 <1>  -0.0990 
  6 C       -4.8110     0.1520     0.2170 C.2   1 <1>   0.5690 
  7 O       -5.2300     1.2600     0.4500 O.2   1 <1>  -0.5700 
  8 N       -5.6170    -0.9230    -0.0330 N.am  1 <1>  -0.5470 
  9 C       -7.0130    -1.0710    -0.0970 C.ar  1 <1>   0.1170 
 10 C       -7.5420    -2.3520    -0.0280 C.ar  1 <1>  -0.1500 
 11 C       -7.8860     0.0010    -0.2400 C.ar  1 <1>  -0.1500 
 12 C       -8.9050    -2.5750    -0.0940 C.ar  1 <1>   0.0820 
 13 C       -9.2630    -0.1920    -0.2920 C.ar  1 <1>   0.0820 
 14 O       -9.2960    -3.8780    -0.0330 O.3   1 <1>  -0.3630 
 15 C       -9.7790    -1.4880    -0.2060 C.ar  1 <1>   0.0820 
 16 O      -10.1420     0.8460    -0.4220 O.3   1 <1>  -0.3630 
 17 C      -10.3100    -4.3370    -0.9010 C.3   1 <1>   0.0400 
 18 O      -11.1290    -1.6760    -0.2240 O.3   1 <1>  -0.3630 
 19 C       -9.6980     2.1830    -0.5030 C.3   1 <1>   0.0400 
 20 C      -11.7720    -1.4560     1.0100 C.3   1 <1>   0.0400 
 21 H       -3.2160    -2.1310     0.8530 H     1 <1>   0.0800 
 22 H       -3.1930    -1.9350    -0.8890 H     1 <1>   0.0800 
 23 H       -2.8910     0.5210    -0.5990 H     1 <1>   0.0800 
 24 H       -2.9040     0.3260     1.1230 H     1 <1>   0.0800 
 25 H       -5.0880    -1.7860    -0.1580 H     1 <1>   0.3700 
 26 H       -6.8880    -3.1970     0.0770 H     1 <1>   0.1500 
 27 H       -7.4720     0.9850    -0.3130 H     1 <1>   0.1500 
 28 H      -10.1910    -5.3970    -1.0270 H     1 <1>   0.0800 
 29 H      -10.2160    -3.8390    -1.8510 H     1 <1>   0.0800 
 30 H      -11.2680    -4.1300    -0.4590 H     1 <1>   0.0800 
 31 H      -10.5610     2.8160    -0.5910 H     1 <1>   0.0800 
 32 H       -9.0750     2.2920    -1.3730 H     1 <1>   0.0800 
 33 H       -9.1550     2.4270     0.3930 H     1 <1>   0.0800 
 34 H      -11.6290    -0.4310     1.3030 H     1 <1>   0.0800 
 35 H      -11.3490    -2.1200     1.7440 H     1 <1>   0.0800 
 36 H      -12.8200    -1.6600     0.8850 H     1 <1>   0.0800 
@<TRIPOS>BOND
  1   1   2  ar  
  2   2   3  ar  
  3   2   4  1   
  4   4   5  1   
  5   4  21  1   
  6   4  22  1   
  7   5   6  1   
  8   5  23  1   
  9   5  24  1   
 10   6   7  2   
 11   6   8  am  
 12   8   9  1   
 13   8  25  1   
 14   9  10  ar  
 15   9  11  ar  
 16  10  12  ar  
 17  10  26  1   
 18  11  13  ar  
 19  11  27  1   
 20  12  14  1   
 21  12  15  ar  
 22  13  15  ar  
 23  13  16  1   
 24  14  17  1   
 25  15  18  1   
 26  16  19  1   
 27  17  28  1   
 28  17  29  1   
 29  17  30  1   
 30  18  20  1   
 31  19  31  1   
 32  19  32  1   
 33  19  33  1   
 34  20  34  1   
 35  20  35  1   
 36  20  36  1   
@<TRIPOS>SUBSTRUCTURE
  1 ****   9 GROUP 4 **** **** 0

# MOE 2024.06 (io_trps.svl 2023.06)
