@<TRIPOS>MOLECULE
NONAME
54 56 1 0 0 
SMALL
USER_CHARGES


@<TRIPOS>ATOM
  1 O        0.1250     3.8460     2.3380 O.2   1 <1>  -0.5700 
  2 C       -0.3740     2.7780     2.0710 C.2   1 <1>   0.5690 
  3 N        0.2840     1.7720     1.4250 N.am  1 <1>  -0.5470 
  4 C       -1.8270     2.5330     2.4540 C.3   1 <1>   0.1810 
  5 C        1.6690     1.5690     1.2590 C.ar  1 <1>   0.1170 
  6 O       -2.5610     2.0480     1.3380 O.3   1 <1>  -0.3630 
  7 C        2.5080     2.3610     0.4450 C.ar  1 <1>   0.1000 
  8 C        2.2160     0.4910     1.9420 C.ar  1 <1>  -0.1500 
  9 C       -2.8630     2.8770     0.3110 C.ar  1 <1>   0.0830 
 10 N        2.0950     3.4770    -0.3020 N.pl3 1 <1>  -0.8380 
 11 C        3.8550     2.0280     0.3620 C.ar  1 <1>  -0.1500 
 12 C        3.5600     0.1810     1.8460 C.ar  1 <1>  -0.1500 
 13 C       -3.3280     4.1730     0.5040 C.ar  1 <1>  -0.1500 
 14 C       -2.7100     2.3860    -0.9750 C.ar  1 <1>  -0.1500 
 15 C        0.9200     3.4150    -1.2220 C.3   1 <1>   0.2090 
 16 C        2.5950     4.8220     0.1190 C.3   1 <1>   0.2090 
 17 C        4.3830     0.9530     1.0520 C.ar  1 <1>  -0.1500 
 18 C       -3.6280     4.9740    -0.5850 C.ar  1 <1>  -0.1430 
 19 C       -2.9990     3.1840    -2.0690 C.ar  1 <1>  -0.1430 
 20 C       -0.1490     4.4720    -0.8790 C.3   1 <1>   0.3430 
 21 C        1.4580     5.8260     0.3990 C.3   1 <1>   0.3430 
 22 C       -3.4590     4.4760    -1.8670 C.ar  1 <1>  -0.1500 
 23 C       -4.1870     6.3720    -0.3780 C.3   1 <1>  -0.0970 
 24 C       -2.8450     2.6400    -3.4790 C.3   1 <1>  -0.0970 
 25 N        0.4170     5.8540    -0.6910 N.4   1 <1>  -0.9590 
 26 C       -0.6760     6.8070    -0.3550 C.3   1 <1>   0.2630 
 27 H       -0.2870     0.9480     1.2290 H     1 <1>   0.3700 
 28 H       -2.2810     3.4290     2.8320 H     1 <1>   0.0800 
 29 H       -1.8690     1.7820     3.2190 H     1 <1>   0.0800 
 30 H        1.5870    -0.1180     2.5660 H     1 <1>   0.1500 
 31 H        4.5000     2.6190    -0.2620 H     1 <1>   0.1500 
 32 H        3.9640    -0.6580     2.3880 H     1 <1>   0.1500 
 33 H       -3.4890     4.5510     1.4960 H     1 <1>   0.1500 
 34 H       -2.3760     1.3720    -1.1100 H     1 <1>   0.1500 
 35 H        0.4780     2.4350    -1.1820 H     1 <1>   0.0800 
 36 H        1.2630     3.5700    -2.2290 H     1 <1>   0.0800 
 37 H        3.2340     5.2120    -0.6540 H     1 <1>   0.0800 
 38 H        3.1890     4.7200     1.0120 H     1 <1>   0.0800 
 39 H        5.4300     0.7190     0.9690 H     1 <1>   0.1500 
 40 H       -0.6430     4.1670     0.0250 H     1 <1>   0.0800 
 41 H       -0.8870     4.4840    -1.6620 H     1 <1>   0.0800 
 42 H        1.8860     6.8070     0.5210 H     1 <1>   0.0800 
 43 H        0.9960     5.5620     1.3330 H     1 <1>   0.0800 
 44 H       -3.7090     5.0890    -2.7170 H     1 <1>   0.1500 
 45 H       -3.8360     6.7930     0.5470 H     1 <1>   0.0800 
 46 H       -5.2610     6.3250    -0.3430 H     1 <1>   0.0800 
 47 H       -3.9020     7.0220    -1.1850 H     1 <1>   0.0800 
 48 H       -2.1450     1.8240    -3.5020 H     1 <1>   0.0800 
 49 H       -2.4960     3.4080    -4.1460 H     1 <1>   0.0800 
 50 H       -3.7960     2.2840    -3.8340 H     1 <1>   0.0800 
 51 H        0.8780     6.1270    -1.5670 H     1 <1>   0.4500 
 52 H       -1.1560     6.5080     0.5640 H     1 <1>   0.0800 
 53 H       -1.4150     6.8170    -1.1390 H     1 <1>   0.0800 
 54 H       -0.2830     7.8030    -0.2340 H     1 <1>   0.0800 
@<TRIPOS>BOND
  1   1   2  2   
  2   2   3  am  
  3   2   4  1   
  4   3   5  1   
  5   3  27  1   
  6   4   6  1   
  7   4  28  1   
  8   4  29  1   
  9   5   7  ar  
 10   5   8  ar  
 11   6   9  1   
 12   7  10  1   
 13   7  11  ar  
 14   8  12  ar  
 15   8  30  1   
 16   9  13  ar  
 17   9  14  ar  
 18  10  15  1   
 19  10  16  1   
 20  11  17  ar  
 21  11  31  1   
 22  12  17  ar  
 23  12  32  1   
 24  13  18  ar  
 25  13  33  1   
 26  14  19  ar  
 27  14  34  1   
 28  15  20  1   
 29  15  35  1   
 30  15  36  1   
 31  16  21  1   
 32  16  37  1   
 33  16  38  1   
 34  17  39  1   
 35  18  22  ar  
 36  18  23  1   
 37  19  22  ar  
 38  19  24  1   
 39  20  25  1   
 40  20  40  1   
 41  20  41  1   
 42  21  25  1   
 43  21  42  1   
 44  21  43  1   
 45  22  44  1   
 46  23  45  1   
 47  23  46  1   
 48  23  47  1   
 49  24  48  1   
 50  24  49  1   
 51  24  50  1   
 52  25  26  1   
 53  25  51  1   
 54  26  52  1   
 55  26  53  1   
 56  26  54  1   
@<TRIPOS>SUBSTRUCTURE
  1 ****  20 GROUP 4 **** **** 0

# MOE 2024.06 (io_trps.svl 2023.06)
