@<TRIPOS>MOLECULE
NONAME
31 31 1 0 0 
SMALL
USER_CHARGES


@<TRIPOS>ATOM
  1 S       -2.1820    -2.5490     0.2490 S.3   1 <1>  -0.4100 
  2 C       -1.9540    -0.8480    -0.3390 C.3   1 <1>   0.0700 
  3 C       -3.1930    -0.0150    -0.0040 C.3   1 <1>  -0.0990 
  4 C       -2.9870     1.4350    -0.4140 C.2   1 <1>   0.5690 
  5 O       -2.3950     1.6360    -1.4530 O.2   1 <1>  -0.5700 
  6 N       -3.3960     2.4620     0.4020 N.am  1 <1>  -0.6600 
  7 C       -4.8450     2.5910     0.8580 C.3   1 <1>   0.1140 
  8 C       -2.6980     3.7730     0.4910 C.3   1 <1>   0.2200 
  9 C       -5.6840     1.3090     1.0810 C.2   1 <1>   0.9060 
 10 C       -5.5490     3.5640    -0.1140 C.3   1 <1>  -0.1600 
 11 C       -3.3360     4.7410    -0.5120 C.3   1 <1>  -0.1600 
 12 C       -1.1780     3.6720     0.3310 C.3   1 <1>  -0.2400 
 13 O       -5.7480     0.8420     2.2260 O.co2 1 <1>  -0.9000 
 14 O       -6.2880     0.7840     0.1350 O.co2 1 <1>  -0.9000 
 15 C       -4.8340     4.9220    -0.2170 C.3   1 <1>  -0.1600 
 16 H       -1.0330    -3.1560    -0.1670 H     1 <1>   0.1800 
 17 H       -1.7940    -0.8940    -1.4020 H     1 <1>   0.0800 
 18 H       -1.0800    -0.4540     0.1480 H     1 <1>   0.0800 
 19 H       -3.3770    -0.0670     1.0530 H     1 <1>   0.0800 
 20 H       -4.0470    -0.4060    -0.5250 H     1 <1>   0.0800 
 21 H       -4.8290     3.0590     1.8250 H     1 <1>   0.0800 
 22 H       -2.8730     4.1580     1.4820 H     1 <1>   0.0800 
 23 H       -6.5630     3.7120     0.2130 H     1 <1>   0.0800 
 24 H       -5.5910     3.0980    -1.0840 H     1 <1>   0.0800 
 25 H       -3.2030     4.3500    -1.5060 H     1 <1>   0.0800 
 26 H       -2.8430     5.6950    -0.4600 H     1 <1>   0.0800 
 27 H       -0.7920     2.9040     0.9760 H     1 <1>   0.0800 
 28 H       -0.9080     3.4580    -0.6860 H     1 <1>   0.0800 
 29 H       -0.7250     4.6060     0.6030 H     1 <1>   0.0800 
 30 H       -4.9500     5.4480     0.7140 H     1 <1>   0.0800 
 31 H       -5.2900     5.5120    -0.9930 H     1 <1>   0.0800 
@<TRIPOS>BOND
  1   1   2  1   
  2   1  16  1   
  3   2   3  1   
  4   2  17  1   
  5   2  18  1   
  6   3   4  1   
  7   3  19  1   
  8   3  20  1   
  9   4   5  2   
 10   4   6  am  
 11   6   7  1   
 12   6   8  1   
 13   7   9  1   
 14   7  10  1   
 15   7  21  1   
 16   8  11  1   
 17   8  12  1   
 18   8  22  1   
 19   9  13  ar  
 20   9  14  ar  
 21  10  15  1   
 22  10  23  1   
 23  10  24  1   
 24  11  15  1   
 25  11  25  1   
 26  11  26  1   
 27  12  27  1   
 28  12  28  1   
 29  12  29  1   
 30  15  30  1   
 31  15  31  1   
@<TRIPOS>SUBSTRUCTURE
  1 ****   6 GROUP 4 **** **** 0

# MOE 2024.06 (io_trps.svl 2023.06)
