@<TRIPOS>MOLECULE
NONAME
47 48 1 0 0 
SMALL
USER_CHARGES


@<TRIPOS>ATOM
  1 S        0.8670    -0.8530    -1.3610 S.o2  1 <1>   1.4470 
  2 O        2.2890    -1.0780    -1.5050 O.2   1 <1>  -0.6500 
  3 O        0.1890     0.0340    -2.2800 O.2   1 <1>  -0.6500 
  4 N        0.6340    -0.2180     0.1910 N.am  1 <1>  -0.8490 
  5 C       -0.0190    -2.4350    -1.2970 C.ar  1 <1>  -0.0090 
  6 C        0.8360     1.2420     0.2300 C.3   1 <1>   0.1960 
  7 C        1.4300    -0.8820     1.2290 C.3   1 <1>   0.1960 
  8 C       -1.2230    -2.5510    -0.6170 C.ar  1 <1>  -0.1500 
  9 C        0.4720    -3.5650    -1.9350 C.ar  1 <1>  -0.1500 
 10 C        1.1550     1.7900     1.6410 C.3   1 <1>   0.1200 
 11 C        1.0660    -0.3540     2.6370 C.3   1 <1>   0.1200 
 12 C       -1.9420    -3.7430    -0.5450 C.ar  1 <1>   0.0860 
 13 C       -0.2140    -4.7640    -1.8850 C.ar  1 <1>  -0.1500 
 14 O        0.6110     0.9760     2.6390 O.3   1 <1>  -0.5600 
 15 C       -1.4130    -4.8620    -1.1990 C.ar  1 <1>  -0.1430 
 16 C       -3.1920    -3.7610     0.1960 C.2   1 <1>   0.5440 
 17 C       -2.1370    -6.2030    -1.1740 C.3   1 <1>  -0.0960 
 18 O       -3.4090    -4.5950     1.0520 O.2   1 <1>  -0.5700 
 19 N       -4.1340    -2.8050    -0.0560 N.am  1 <1>  -0.7300 
 20 C       -5.3810    -2.5890     0.7120 C.3   1 <1>   0.1400 
 21 C       -5.3500    -1.2160     1.4050 C.3   1 <1>  -0.0800 
 22 C       -6.6230    -1.0230     2.2390 C.3   1 <1>  -0.2400 
 23 C       -5.2090    -0.0560     0.4060 C.3   1 <1>  -0.2400 
 24 H       -0.0570     1.7200    -0.1370 H     1 <1>   0.0800 
 25 H        1.6410     1.5240    -0.4290 H     1 <1>   0.0800 
 26 H        2.4790    -0.7090     1.0480 H     1 <1>   0.0800 
 27 H        1.2680    -1.9460     1.2020 H     1 <1>   0.0800 
 28 H       -1.6150    -1.6830    -0.1150 H     1 <1>   0.1500 
 29 H        1.4040    -3.5060    -2.4750 H     1 <1>   0.1500 
 30 H        0.7500     2.7790     1.7570 H     1 <1>   0.0800 
 31 H        2.2200     1.8380     1.7920 H     1 <1>   0.0800 
 32 H        1.9190    -0.4190     3.2880 H     1 <1>   0.0800 
 33 H        0.2780    -0.9550     3.0540 H     1 <1>   0.0800 
 34 H        0.1950    -5.6230    -2.3880 H     1 <1>   0.1500 
 35 H       -3.1690    -6.0740    -1.4490 H     1 <1>   0.0800 
 36 H       -2.0970    -6.6210    -0.1840 H     1 <1>   0.0800 
 37 H       -1.6910    -6.9020    -1.8580 H     1 <1>   0.0800 
 38 H       -3.9600    -2.1220    -0.7940 H     1 <1>   0.3700 
 39 H       -5.4900    -3.3640     1.4530 H     1 <1>   0.0800 
 40 H       -6.2210    -2.6470     0.0420 H     1 <1>   0.0800 
 41 H       -4.5080    -1.2010     2.0770 H     1 <1>   0.0800 
 42 H       -7.4950    -1.0280     1.6090 H     1 <1>   0.0800 
 43 H       -6.5850    -0.0860     2.7660 H     1 <1>   0.0800 
 44 H       -6.7170    -1.8120     2.9640 H     1 <1>   0.0800 
 45 H       -6.0090    -0.0750    -0.3140 H     1 <1>   0.0800 
 46 H       -4.2710    -0.1110    -0.1160 H     1 <1>   0.0800 
 47 H       -5.2390     0.8860     0.9260 H     1 <1>   0.0800 
@<TRIPOS>BOND
  1   1   2  2   
  2   1   3  2   
  3   1   4  am  
  4   1   5  1   
  5   4   6  1   
  6   4   7  1   
  7   5   8  ar  
  8   5   9  ar  
  9   6  10  1   
 10   6  24  1   
 11   6  25  1   
 12   7  11  1   
 13   7  26  1   
 14   7  27  1   
 15   8  12  ar  
 16   8  28  1   
 17   9  13  ar  
 18   9  29  1   
 19  10  14  1   
 20  10  30  1   
 21  10  31  1   
 22  11  14  1   
 23  11  32  1   
 24  11  33  1   
 25  12  15  ar  
 26  12  16  1   
 27  13  15  ar  
 28  13  34  1   
 29  15  17  1   
 30  16  18  2   
 31  16  19  am  
 32  17  35  1   
 33  17  36  1   
 34  17  37  1   
 35  19  20  1   
 36  19  38  1   
 37  20  21  1   
 38  20  39  1   
 39  20  40  1   
 40  21  22  1   
 41  21  23  1   
 42  21  41  1   
 43  22  42  1   
 44  22  43  1   
 45  22  44  1   
 46  23  45  1   
 47  23  46  1   
 48  23  47  1   
@<TRIPOS>SUBSTRUCTURE
  1 ****   8 GROUP 4 **** **** 0

# MOE 2024.06 (io_trps.svl 2023.06)
