@<TRIPOS>MOLECULE
NONAME
47 48 1 0 0 
SMALL
USER_CHARGES


@<TRIPOS>ATOM
  1 CL       0.0900    -0.4670    -0.1100 Cl    1 <1>  -0.1770 
  2 C       -1.5630    -1.0280    -0.0690 C.ar  1 <1>   0.1770 
  3 C       -1.8230    -2.3500     0.2340 C.ar  1 <1>  -0.1500 
  4 C       -2.5850    -0.1400    -0.3400 C.ar  1 <1>  -0.1500 
  5 C       -3.1330    -2.8030     0.2690 C.ar  1 <1>  -0.1440 
  6 C       -3.8950    -0.5840    -0.3080 C.ar  1 <1>  -0.1500 
  7 C       -4.1750    -1.9180    -0.0020 C.ar  1 <1>   0.0830 
  8 C       -3.4100    -4.2630     0.6030 C.3   1 <1>  -0.0960 
  9 O       -5.4420    -2.4110     0.0460 O.3   1 <1>  -0.3630 
 10 C       -6.5660    -1.5960    -0.1760 C.3   1 <1>   0.1200 
 11 C       -7.8030    -2.4900    -0.0380 C.3   1 <1>   0.3430 
 12 N       -9.0900    -1.7520    -0.2720 N.4   1 <1>  -0.9590 
 13 C       -9.3780    -0.7570     0.8050 C.3   1 <1>   0.3430 
 14 C      -10.2130    -2.7220    -0.4230 C.3   1 <1>   0.3430 
 15 C      -10.6270     0.0420     0.4400 C.3   1 <1>  -0.1600 
 16 C      -11.4850    -1.9750    -0.8210 C.3   1 <1>  -0.1600 
 17 C      -11.8450    -0.8680     0.1880 C.3   1 <1>  -0.0190 
 18 C      -13.0430    -0.0580    -0.3010 C.2   1 <1>   0.6590 
 19 O      -12.9710     0.6210    -1.2910 O.2   1 <1>  -0.5700 
 20 O      -14.1460    -0.1580     0.4240 O.3   1 <1>  -0.4300 
 21 C      -15.3200     0.5390     0.0730 C.3   1 <1>   0.1200 
 22 C      -16.3930     0.2070     1.1050 C.3   1 <1>  -0.2400 
 23 H       -0.9990    -3.0100     0.4390 H     1 <1>   0.1500 
 24 H       -2.3490     0.8830    -0.5740 H     1 <1>   0.1500 
 25 H       -4.6700     0.1240    -0.5240 H     1 <1>   0.1500 
 26 H       -2.4950    -4.8010     0.7790 H     1 <1>   0.0800 
 27 H       -3.9300    -4.7330    -0.2120 H     1 <1>   0.0800 
 28 H       -4.0170    -4.3270     1.4880 H     1 <1>   0.0800 
 29 H       -6.4930    -1.1910    -1.1700 H     1 <1>   0.0800 
 30 H       -6.5580    -0.8160     0.5640 H     1 <1>   0.0800 
 31 H       -7.8100    -2.9250     0.9480 H     1 <1>   0.0800 
 32 H       -7.7150    -3.2870    -0.7580 H     1 <1>   0.0800 
 33 H       -9.0200    -1.2390    -1.1630 H     1 <1>   0.4500 
 34 H       -8.5470    -0.0800     0.9220 H     1 <1>   0.0800 
 35 H       -9.5350    -1.2670     1.7430 H     1 <1>   0.0800 
 36 H      -10.3750    -3.2450     0.5060 H     1 <1>   0.0800 
 37 H       -9.9750    -3.4500    -1.1840 H     1 <1>   0.0800 
 38 H      -10.4220     0.6370    -0.4340 H     1 <1>   0.0800 
 39 H      -10.8540     0.7240     1.2420 H     1 <1>   0.0800 
 40 H      -12.2990    -2.6760    -0.8830 H     1 <1>   0.0800 
 41 H      -11.3540    -1.5510    -1.8020 H     1 <1>   0.0800 
 42 H      -12.1220    -1.3310     1.1190 H     1 <1>   0.0800 
 43 H      -15.6220     0.2280    -0.9130 H     1 <1>   0.0800 
 44 H      -15.1030     1.5940     0.0670 H     1 <1>   0.0800 
 45 H      -16.5950    -0.8490     1.1060 H     1 <1>   0.0800 
 46 H      -17.3020     0.7270     0.8610 H     1 <1>   0.0800 
 47 H      -16.0760     0.5150     2.0850 H     1 <1>   0.0800 
@<TRIPOS>BOND
  1   1   2  1   
  2   2   3  ar  
  3   2   4  ar  
  4   3   5  ar  
  5   3  23  1   
  6   4   6  ar  
  7   4  24  1   
  8   5   7  ar  
  9   5   8  1   
 10   6   7  ar  
 11   6  25  1   
 12   7   9  1   
 13   8  26  1   
 14   8  27  1   
 15   8  28  1   
 16   9  10  1   
 17  10  11  1   
 18  10  29  1   
 19  10  30  1   
 20  11  12  1   
 21  11  31  1   
 22  11  32  1   
 23  12  13  1   
 24  12  14  1   
 25  12  33  1   
 26  13  15  1   
 27  13  34  1   
 28  13  35  1   
 29  14  16  1   
 30  14  36  1   
 31  14  37  1   
 32  15  17  1   
 33  15  38  1   
 34  15  39  1   
 35  16  17  1   
 36  16  40  1   
 37  16  41  1   
 38  17  18  1   
 39  17  42  1   
 40  18  19  2   
 41  18  20  1   
 42  20  21  1   
 43  21  22  1   
 44  21  43  1   
 45  21  44  1   
 46  22  45  1   
 47  22  46  1   
 48  22  47  1   
@<TRIPOS>SUBSTRUCTURE
  1 ****  11 GROUP 4 **** **** 0

# MOE 2024.06 (io_trps.svl 2023.06)
