@<TRIPOS>MOLECULE
NONAME
38 39 1 0 0 
SMALL
USER_CHARGES


@<TRIPOS>ATOM
  1 O        0.6610     1.5200     2.6280 O.2   1 <1>  -0.5700 
  2 C        0.3150     2.2930     1.7710 C.2   1 <1>   0.5690 
  3 N        1.1200     2.7280     0.7550 N.am  1 <1>  -0.5470 
  4 C       -1.1010     2.8390     1.8220 C.3   1 <1>  -0.0990 
  5 C        2.4450     2.4150     0.4110 C.ar  1 <1>   0.1170 
  6 C       -1.9690     2.4160     0.6200 C.3   1 <1>  -0.0800 
  7 C        3.1270     1.3090     0.9090 C.ar  1 <1>  -0.1500 
  8 C        3.1100     3.2450    -0.4850 C.ar  1 <1>  -0.1500 
  9 C       -3.3580     3.0730     0.7140 C.3   1 <1>  -0.1600 
 10 C       -2.1040     0.8840     0.5340 C.3   1 <1>  -0.1600 
 11 C        4.4300     1.0450     0.5260 C.ar  1 <1>  -0.1500 
 12 C        4.4120     2.9830    -0.8710 C.ar  1 <1>  -0.1500 
 13 C       -4.2590     2.6540    -0.4560 C.3   1 <1>  -0.1600 
 14 C       -3.0080     0.4630    -0.6330 C.3   1 <1>  -0.1600 
 15 C        5.0810     1.8790    -0.3680 C.ar  1 <1>  -0.1430 
 16 C       -4.3860     1.1280    -0.5380 C.3   1 <1>  -0.1600 
 17 C        6.5110     1.5890    -0.7840 C.3   1 <1>  -0.0970 
 18 H        0.6840     3.4090     0.1400 H     1 <1>   0.3700 
 19 H       -1.0440     3.9110     1.8720 H     1 <1>   0.0800 
 20 H       -1.5620     2.4990     2.7320 H     1 <1>   0.0800 
 21 H       -1.5000     2.7620    -0.2860 H     1 <1>   0.0800 
 22 H        2.6450     0.6430     1.5990 H     1 <1>   0.1500 
 23 H        2.6100     4.1060    -0.8860 H     1 <1>   0.1500 
 24 H       -3.2580     4.1440     0.7140 H     1 <1>   0.0800 
 25 H       -3.8300     2.7850     1.6380 H     1 <1>   0.0800 
 26 H       -2.5180     0.5070     1.4540 H     1 <1>   0.0800 
 27 H       -1.1360     0.4320     0.4030 H     1 <1>   0.0800 
 28 H        4.9340     0.1850     0.9300 H     1 <1>   0.1500 
 29 H        4.9060     3.6410    -1.5630 H     1 <1>   0.1500 
 30 H       -3.8460     3.0270    -1.3780 H     1 <1>   0.0800 
 31 H       -5.2360     3.0900    -0.3330 H     1 <1>   0.0800 
 32 H       -3.1240    -0.6070    -0.6290 H     1 <1>   0.0800 
 33 H       -2.5420     0.7400    -1.5630 H     1 <1>   0.0800 
 34 H       -4.9770     0.8600    -1.3970 H     1 <1>   0.0800 
 35 H       -4.8960     0.7660     0.3390 H     1 <1>   0.0800 
 36 H        6.6940     0.5290    -0.7840 H     1 <1>   0.0800 
 37 H        7.1920     2.0590    -0.0980 H     1 <1>   0.0800 
 38 H        6.7000     1.9650    -1.7740 H     1 <1>   0.0800 
@<TRIPOS>BOND
  1   1   2  2   
  2   2   3  am  
  3   2   4  1   
  4   3   5  1   
  5   3  18  1   
  6   4   6  1   
  7   4  19  1   
  8   4  20  1   
  9   5   7  ar  
 10   5   8  ar  
 11   6   9  1   
 12   6  10  1   
 13   6  21  1   
 14   7  11  ar  
 15   7  22  1   
 16   8  12  ar  
 17   8  23  1   
 18   9  13  1   
 19   9  24  1   
 20   9  25  1   
 21  10  14  1   
 22  10  26  1   
 23  10  27  1   
 24  11  15  ar  
 25  11  28  1   
 26  12  15  ar  
 27  12  29  1   
 28  13  16  1   
 29  13  30  1   
 30  13  31  1   
 31  14  16  1   
 32  14  32  1   
 33  14  33  1   
 34  15  17  1   
 35  16  34  1   
 36  16  35  1   
 37  17  36  1   
 38  17  37  1   
 39  17  38  1   
@<TRIPOS>SUBSTRUCTURE
  1 ****   3 GROUP 4 **** **** 0

# MOE 2024.06 (io_trps.svl 2023.06)
