@<TRIPOS>MOLECULE
NONAME
42 45 1 0 0 
SMALL
USER_CHARGES


@<TRIPOS>ATOM
  1 O        1.3300    -0.4330     2.1200 O.2   1 <1>  -0.5760 
  2 C        2.1940    -0.9880     1.4730 C.2   1 <1>   0.6850 
  3 N        1.8910    -2.1360     0.7460 N.am  1 <1>  -0.4270 
  4 N        3.4830    -0.4670     1.4550 N.am  1 <1>  -0.4430 
  5 C        2.8440    -2.7540    -0.0550 C.2   1 <1>   0.6990 
  6 C        0.5000    -2.6840     0.8050 C.3   1 <1>   0.0500 
  7 C        4.4230    -1.0870     0.6550 C.2   1 <1>   0.4190 
  8 C        3.8300     0.7540     2.2390 C.3   1 <1>   0.0500 
  9 O        2.5710    -3.7430    -0.7150 O.2   1 <1>  -0.5760 
 10 C        4.1560    -2.1900    -0.0840 C.2   1 <1>   0.2690 
 11 N        5.7310    -0.7380     0.4680 N.pl3 1 <1>  -0.7050 
 12 N        5.3570    -2.5080    -0.7270 N.pl3 1 <1>  -0.7680 
 13 C        6.2570    -1.6270    -0.3630 C.cat 1 <1>   1.0680 
 14 C        5.9130    -3.5340    -1.6210 C.3   1 <1>   0.3470 
 15 N        7.4620    -1.8320    -0.9030 N.pl3 1 <1>  -0.5810 
 16 C        7.3830    -3.0630    -1.7530 C.3   1 <1>   0.1590 
 17 C        8.6500    -1.0940    -0.7060 C.ar  1 <1>   0.3030 
 18 C        9.0580    -0.6440     0.5610 C.ar  1 <1>   0.0730 
 19 C        9.4470    -0.7990    -1.8060 C.ar  1 <1>  -0.1590 
 20 O        8.2800    -0.9400     1.6450 O.3   1 <1>  -0.3700 
 21 C       10.2360     0.0850     0.6910 C.ar  1 <1>  -0.1590 
 22 C       10.6180    -0.0770    -1.6680 C.ar  1 <1>  -0.1590 
 23 C        8.8140    -0.8960     2.9540 C.3   1 <1>   0.0300 
 24 C       11.0110     0.3650    -0.4200 C.ar  1 <1>  -0.1590 
 25 H        0.1070    -2.5890     1.8030 H     1 <1>   0.0710 
 26 H        0.4820    -3.7250     0.5350 H     1 <1>   0.0710 
 27 H       -0.1320    -2.1350     0.1290 H     1 <1>   0.0710 
 28 H        3.1470     0.8820     3.0620 H     1 <1>   0.0710 
 29 H        3.7720     1.6210     1.6050 H     1 <1>   0.0710 
 30 H        4.8240     0.6700     2.6420 H     1 <1>   0.0710 
 31 H        6.3000    -0.0420     0.9490 H     1 <1>   0.4430 
 32 H        5.4080    -3.5310    -2.5720 H     1 <1>   0.0710 
 33 H        5.8490    -4.5110    -1.1720 H     1 <1>   0.0710 
 34 H        7.6140    -2.8370    -2.7790 H     1 <1>   0.0710 
 35 H        8.0610    -3.8160    -1.3880 H     1 <1>   0.0710 
 36 H        9.1590    -1.1250    -2.7890 H     1 <1>   0.1410 
 37 H       10.5750     0.4500     1.6440 H     1 <1>   0.1410 
 38 H       11.2260     0.1440    -2.5300 H     1 <1>   0.1410 
 39 H        8.0950    -1.3250     3.6280 H     1 <1>   0.0710 
 40 H        9.0010     0.1280     3.2270 H     1 <1>   0.0710 
 41 H        9.7250    -1.4700     2.9820 H     1 <1>   0.0710 
 42 H       11.9230     0.9290    -0.3130 H     1 <1>   0.1410 
@<TRIPOS>BOND
  1   1   2  2   
  2   2   3  am  
  3   2   4  am  
  4   3   5  am  
  5   3   6  1   
  6   4   7  1   
  7   4   8  1   
  8   5   9  2   
  9   5  10  1   
 10   6  25  1   
 11   6  26  1   
 12   6  27  1   
 13   7  10  2   
 14   7  11  1   
 15   8  28  1   
 16   8  29  1   
 17   8  30  1   
 18  10  12  1   
 19  11  13  ar  
 20  11  31  1   
 21  12  13  ar  
 22  12  14  1   
 23  13  15  ar  
 24  14  16  1   
 25  14  32  1   
 26  14  33  1   
 27  15  16  1   
 28  15  17  1   
 29  16  34  1   
 30  16  35  1   
 31  17  18  ar  
 32  17  19  ar  
 33  18  20  1   
 34  18  21  ar  
 35  19  22  ar  
 36  19  36  1   
 37  20  23  1   
 38  21  24  ar  
 39  21  37  1   
 40  22  24  ar  
 41  22  38  1   
 42  23  39  1   
 43  23  40  1   
 44  23  41  1   
 45  24  42  1   
@<TRIPOS>SUBSTRUCTURE
  1 ****  11 GROUP 4 **** **** 0

# MOE 2024.06 (io_trps.svl 2023.06)
