@<TRIPOS>MOLECULE
NONAME
47 47 1 0 0 
SMALL
USER_CHARGES


@<TRIPOS>ATOM
  1 O       -0.1660    -0.9540    -0.7720 O.3   1 <1>  -0.3630 
  2 C       -1.3310    -1.2000    -0.1310 C.ar  1 <1>   0.0820 
  3 C        0.8450    -0.3580     0.0030 C.3   1 <1>   0.1200 
  4 C       -2.2330    -0.1520     0.0900 C.ar  1 <1>  -0.1440 
  5 C       -1.6130    -2.5000     0.3060 C.ar  1 <1>  -0.1440 
  6 C        2.1430    -0.4490    -0.7980 C.3   1 <1>   0.3430 
  7 C       -3.3710    -0.4050     0.8420 C.ar  1 <1>  -0.1500 
  8 C       -2.0360     1.2550    -0.4910 C.3   1 <1>   0.0630 
  9 C       -2.7640    -2.7080     1.0520 C.ar  1 <1>  -0.1500 
 10 C       -0.7580    -3.7400    -0.0020 C.3   1 <1>   0.0630 
 11 N        3.3010     0.1140    -0.0390 N.4   1 <1>  -0.9060 
 12 C       -3.6300    -1.6700     1.3290 C.ar  1 <1>  -0.1500 
 13 C       -1.8580     2.2930     0.6240 C.3   1 <1>  -0.2400 
 14 C       -3.2070     1.6440    -1.4010 C.3   1 <1>  -0.2400 
 15 C        0.5790    -3.7520     0.7450 C.3   1 <1>  -0.2400 
 16 C       -0.5610    -3.9540    -1.5070 C.3   1 <1>  -0.2400 
 17 C        4.5660     0.0140    -0.8300 C.3   1 <1>   0.3430 
 18 C        5.7660     0.5890    -0.0670 C.3   1 <1>   0.1200 
 19 O        6.8730     0.4560    -0.8820 O.3   1 <1>  -0.6800 
 20 H        0.9150    -0.8950     0.9330 H     1 <1>   0.0800 
 21 H        0.5750     0.6640     0.1890 H     1 <1>   0.0800 
 22 H        2.0160     0.0900    -1.7230 H     1 <1>   0.0800 
 23 H        2.3310    -1.4850    -1.0310 H     1 <1>   0.0800 
 24 H       -4.0750     0.3810     1.0500 H     1 <1>   0.1500 
 25 H       -1.1590     1.2750    -1.1100 H     1 <1>   0.0800 
 26 H       -3.0080    -3.6880     1.4230 H     1 <1>   0.1500 
 27 H       -1.3010    -4.6020     0.3470 H     1 <1>   0.0800 
 28 H        3.4110    -0.3950     0.8480 H     1 <1>   0.4500 
 29 H        3.1180     1.1000     0.1880 H     1 <1>   0.4500 
 30 H       -4.5160    -1.8490     1.9140 H     1 <1>   0.1500 
 31 H       -2.7560     2.3800     1.2090 H     1 <1>   0.0800 
 32 H       -1.6340     3.2570     0.2030 H     1 <1>   0.0800 
 33 H       -1.0560     2.0060     1.2790 H     1 <1>   0.0800 
 34 H       -4.1230     1.7280    -0.8450 H     1 <1>   0.0800 
 35 H       -3.3390     0.8960    -2.1630 H     1 <1>   0.0800 
 36 H       -3.0110     2.5870    -1.8790 H     1 <1>   0.0800 
 37 H        1.2720    -3.0640     0.3060 H     1 <1>   0.0800 
 38 H        1.0110    -4.7370     0.6980 H     1 <1>   0.0800 
 39 H        0.4240    -3.4980     1.7780 H     1 <1>   0.0800 
 40 H        0.0470    -3.1830    -1.9390 H     1 <1>   0.0800 
 41 H       -1.5170    -3.9490    -2.0010 H     1 <1>   0.0800 
 42 H       -0.0900    -4.9040    -1.6890 H     1 <1>   0.0800 
 43 H        4.4580     0.5540    -1.7570 H     1 <1>   0.0800 
 44 H        4.7690    -1.0190    -1.0610 H     1 <1>   0.0800 
 45 H        5.9540     0.0410     0.8400 H     1 <1>   0.0800 
 46 H        5.6330     1.6370     0.1420 H     1 <1>   0.0800 
 47 H        7.6880     0.8040    -0.4590 H     1 <1>   0.4000 
@<TRIPOS>BOND
  1   1   2  1   
  2   1   3  1   
  3   2   4  ar  
  4   2   5  ar  
  5   3   6  1   
  6   3  20  1   
  7   3  21  1   
  8   4   7  ar  
  9   4   8  1   
 10   5   9  ar  
 11   5  10  1   
 12   6  11  1   
 13   6  22  1   
 14   6  23  1   
 15   7  12  ar  
 16   7  24  1   
 17   8  13  1   
 18   8  14  1   
 19   8  25  1   
 20   9  12  ar  
 21   9  26  1   
 22  10  15  1   
 23  10  16  1   
 24  10  27  1   
 25  11  17  1   
 26  11  28  1   
 27  11  29  1   
 28  12  30  1   
 29  13  31  1   
 30  13  32  1   
 31  13  33  1   
 32  14  34  1   
 33  14  35  1   
 34  14  36  1   
 35  15  37  1   
 36  15  38  1   
 37  15  39  1   
 38  16  40  1   
 39  16  41  1   
 40  16  42  1   
 41  17  18  1   
 42  17  43  1   
 43  17  44  1   
 44  18  19  1   
 45  18  45  1   
 46  18  46  1   
 47  19  47  1   
@<TRIPOS>SUBSTRUCTURE
  1 ****   1 GROUP 4 **** **** 0

# MOE 2024.06 (io_trps.svl 2023.06)
