@<TRIPOS>MOLECULE
NONAME
52 53 1 0 0 
SMALL
USER_CHARGES


@<TRIPOS>ATOM
  1 S        0.8390     0.1370    -1.4770 S.o2  1 <1>   1.3330 
  2 O        0.2590     1.1980    -2.2630 O.2   1 <1>  -0.6500 
  3 O        0.0230    -0.9810    -1.0740 O.2   1 <1>  -0.6500 
  4 N        1.5360     0.8580    -0.0520 N.am  1 <1>  -0.6930 
  5 C        2.2360    -0.4670    -2.4010 C.3   1 <1>  -0.1350 
  6 C        1.4310     2.2250     0.2030 C.ar  1 <1>   0.1990 
  7 C        2.4140     0.0620     0.8670 C.3   1 <1>   0.3370 
  8 C        0.9190     2.6750     1.4150 C.ar  1 <1>  -0.1500 
  9 C        1.8690     3.1710    -0.7160 C.ar  1 <1>  -0.1500 
 10 C        3.8660    -0.0250     0.3520 C.2   1 <1>   0.5690 
 11 C        1.7950    -1.2870     1.2590 C.3   1 <1>  -0.2400 
 12 C        0.8770     4.0250     1.7130 C.ar  1 <1>  -0.1500 
 13 C        1.8280     4.5220    -0.4230 C.ar  1 <1>  -0.1500 
 14 O        4.3070    -1.0830    -0.0320 O.2   1 <1>  -0.5700 
 15 N        4.6040     1.1290     0.3370 N.am  1 <1>  -0.5470 
 16 C        1.3390     4.9570     0.7970 C.ar  1 <1>  -0.1430 
 17 C        5.9600     1.3050     0.0080 C.ar  1 <1>   0.1170 
 18 C        1.2920     6.4390     1.1200 C.3   1 <1>  -0.0970 
 19 C        6.9780     0.6600     0.7180 C.ar  1 <1>  -0.1430 
 20 C        6.3020     2.1710    -1.0340 C.ar  1 <1>  -0.1430 
 21 C        8.3020     0.8690     0.3670 C.ar  1 <1>  -0.1500 
 22 C        6.6930    -0.2720     1.8900 C.3   1 <1>  -0.0970 
 23 C        7.6320     2.3680    -1.3640 C.ar  1 <1>  -0.1500 
 24 C        5.2390     2.9110    -1.8340 C.3   1 <1>  -0.0970 
 25 C        8.6370     1.7200    -0.6700 C.ar  1 <1>  -0.1430 
 26 C       10.0930     1.9360    -1.0440 C.3   1 <1>  -0.0970 
 27 H        1.9160    -0.7860    -3.3730 H     1 <1>   0.0800 
 28 H        2.6800    -1.3080    -1.9070 H     1 <1>   0.0800 
 29 H        2.9740     0.3010    -2.5180 H     1 <1>   0.0800 
 30 H        2.4860     0.6110     1.7880 H     1 <1>   0.0800 
 31 H        0.5440     1.9620     2.1260 H     1 <1>   0.1500 
 32 H        2.2360     2.8510    -1.6730 H     1 <1>   0.1500 
 33 H        1.8230    -1.9820     0.4400 H     1 <1>   0.0800 
 34 H        0.7780    -1.1530     1.5840 H     1 <1>   0.0800 
 35 H        2.3580    -1.7180     2.0670 H     1 <1>   0.0800 
 36 H        0.4770     4.3500     2.6580 H     1 <1>   0.1500 
 37 H        2.1700     5.2360    -1.1520 H     1 <1>   0.1500 
 38 H        4.0830     1.9960     0.4730 H     1 <1>   0.3700 
 39 H        0.3690     6.8590     0.7640 H     1 <1>   0.0800 
 40 H        2.1110     6.9520     0.6480 H     1 <1>   0.0800 
 41 H        1.3590     6.5980     2.1810 H     1 <1>   0.0800 
 42 H        9.0850     0.3650     0.9060 H     1 <1>   0.1500 
 43 H        6.4140    -1.2430     1.5220 H     1 <1>   0.0800 
 44 H        5.8990     0.1160     2.5000 H     1 <1>   0.0800 
 45 H        7.5640    -0.3830     2.5110 H     1 <1>   0.0800 
 46 H        7.8950     3.0300    -2.1690 H     1 <1>   0.1500 
 47 H        5.6780     3.4590    -2.6470 H     1 <1>   0.0800 
 48 H        4.5360     2.2100    -2.2450 H     1 <1>   0.0800 
 49 H        4.7220     3.6070    -1.1990 H     1 <1>   0.0800 
 50 H       10.3960     1.1960    -1.7620 H     1 <1>   0.0800 
 51 H       10.7200     1.8540    -0.1740 H     1 <1>   0.0800 
 52 H       10.2320     2.9130    -1.4710 H     1 <1>   0.0800 
@<TRIPOS>BOND
  1   1   2  2   
  2   1   3  2   
  3   1   4  am  
  4   1   5  1   
  5   4   6  1   
  6   4   7  1   
  7   5  27  1   
  8   5  28  1   
  9   5  29  1   
 10   6   8  ar  
 11   6   9  ar  
 12   7  10  1   
 13   7  11  1   
 14   7  30  1   
 15   8  12  ar  
 16   8  31  1   
 17   9  13  ar  
 18   9  32  1   
 19  10  14  2   
 20  10  15  am  
 21  11  33  1   
 22  11  34  1   
 23  11  35  1   
 24  12  16  ar  
 25  12  36  1   
 26  13  16  ar  
 27  13  37  1   
 28  15  17  1   
 29  15  38  1   
 30  16  18  1   
 31  17  19  ar  
 32  17  20  ar  
 33  18  39  1   
 34  18  40  1   
 35  18  41  1   
 36  19  21  ar  
 37  19  22  1   
 38  20  23  ar  
 39  20  24  1   
 40  21  25  ar  
 41  21  42  1   
 42  22  43  1   
 43  22  44  1   
 44  22  45  1   
 45  23  25  ar  
 46  23  46  1   
 47  24  47  1   
 48  24  48  1   
 49  24  49  1   
 50  25  26  1   
 51  26  50  1   
 52  26  51  1   
 53  26  52  1   
@<TRIPOS>SUBSTRUCTURE
  1 ****  15 GROUP 4 **** **** 0

# MOE 2024.06 (io_trps.svl 2023.06)
