@<TRIPOS>MOLECULE
NONAME
51 52 1 0 0 
SMALL
USER_CHARGES


@<TRIPOS>ATOM
  1 S        0.2750    -0.0110     0.9950 S.o2  1 <1>   1.4470 
  2 O        0.4500     0.2980     2.3980 O.2   1 <1>  -0.6500 
  3 O       -0.9870     0.2920     0.3550 O.2   1 <1>  -0.6500 
  4 N        1.4710     0.8500     0.1560 N.am  1 <1>  -0.8490 
  5 C        0.7120    -1.7420     0.6710 C.ar  1 <1>  -0.0090 
  6 C        2.8040     0.6600     0.7490 C.3   1 <1>   0.1960 
  7 C        1.1390     2.2760     0.0840 C.3   1 <1>   0.1960 
  8 C        0.8170    -2.2160    -0.6310 C.ar  1 <1>  -0.1500 
  9 C        0.9670    -2.6310     1.7080 C.ar  1 <1>  -0.1500 
 10 C        3.8740     1.3020    -0.1410 C.3   1 <1>  -0.0190 
 11 C        2.1500     3.0130    -0.8040 C.3   1 <1>  -0.1600 
 12 C        1.1710    -3.5280    -0.9030 C.ar  1 <1>  -0.1430 
 13 C        1.3210    -3.9450     1.4570 C.ar  1 <1>  -0.1500 
 14 C        5.2560     1.0560     0.4420 C.2   1 <1>   0.5690 
 15 C        3.5910     2.8040    -0.3190 C.3   1 <1>  -0.1600 
 16 C        1.4280    -4.4030     0.1470 C.ar  1 <1>   0.0820 
 17 C        1.2740    -4.0000    -2.3460 C.3   1 <1>  -0.0960 
 18 O        5.4360     1.1910     1.6280 O.2   1 <1>  -0.5700 
 19 N        6.2570     0.6850    -0.3920 N.am  1 <1>  -0.7300 
 20 O        1.7750    -5.6790    -0.1640 O.3   1 <1>  -0.3630 
 21 C        7.6380     0.4240     0.0260 C.3   1 <1>   0.2780 
 22 C        2.0030    -6.6520     0.8280 C.3   1 <1>   0.1200 
 23 C        8.5330     0.8400    -1.1200 C.2   1 <1>  -0.2880 
 24 C        2.3400    -7.9670     0.1300 C.3   1 <1>  -0.2400 
 25 C        9.2750     0.0130    -1.8630 C.2   1 <1>  -0.3000 
 26 H        3.0190    -0.3910     0.8420 H     1 <1>   0.0800 
 27 H        2.8360     1.0960     1.7360 H     1 <1>   0.0800 
 28 H        1.1360     2.7010     1.0760 H     1 <1>   0.0800 
 29 H        0.1540     2.4010    -0.3360 H     1 <1>   0.0800 
 30 H        0.6160    -1.5350    -1.4410 H     1 <1>   0.1500 
 31 H        0.8900    -2.2890     2.7270 H     1 <1>   0.1500 
 32 H        3.8260     0.8220    -1.1020 H     1 <1>   0.0800 
 33 H        1.9180     4.0630    -0.8080 H     1 <1>   0.0800 
 34 H        2.0470     2.6510    -1.8120 H     1 <1>   0.0800 
 35 H        1.5090    -4.5920     2.2920 H     1 <1>   0.1500 
 36 H        4.2840     3.2310    -1.0250 H     1 <1>   0.0800 
 37 H        3.7270     3.3050     0.6250 H     1 <1>   0.0800 
 38 H        1.0480    -3.2060    -3.0350 H     1 <1>   0.0800 
 39 H        0.5820    -4.8060    -2.5140 H     1 <1>   0.0800 
 40 H        2.2690    -4.3550    -2.5430 H     1 <1>   0.0800 
 41 H        6.0970     0.5750    -1.3930 H     1 <1>   0.3700 
 42 H        7.7550    -0.6260     0.2350 H     1 <1>   0.0800 
 43 H        7.8770     0.9840     0.9150 H     1 <1>   0.0800 
 44 H        1.1080    -6.7530     1.4180 H     1 <1>   0.0800 
 45 H        2.8240    -6.3270     1.4430 H     1 <1>   0.0800 
 46 H        8.5130     1.9050    -1.2830 H     1 <1>   0.1500 
 47 H        1.5200    -8.2740    -0.4950 H     1 <1>   0.0800 
 48 H        2.5190    -8.7330     0.8620 H     1 <1>   0.0800 
 49 H        3.2240    -7.8510    -0.4700 H     1 <1>   0.0800 
 50 H        9.9050     0.3370    -2.6740 H     1 <1>   0.1500 
 51 H        9.3170    -1.0540    -1.7270 H     1 <1>   0.1500 
@<TRIPOS>BOND
  1   1   2  2   
  2   1   3  2   
  3   1   4  am  
  4   1   5  1   
  5   4   6  1   
  6   4   7  1   
  7   5   8  ar  
  8   5   9  ar  
  9   6  10  1   
 10   6  26  1   
 11   6  27  1   
 12   7  11  1   
 13   7  28  1   
 14   7  29  1   
 15   8  12  ar  
 16   8  30  1   
 17   9  13  ar  
 18   9  31  1   
 19  10  14  1   
 20  10  15  1   
 21  10  32  1   
 22  11  15  1   
 23  11  33  1   
 24  11  34  1   
 25  12  16  ar  
 26  12  17  1   
 27  13  16  ar  
 28  13  35  1   
 29  14  18  2   
 30  14  19  am  
 31  15  36  1   
 32  15  37  1   
 33  16  20  1   
 34  17  38  1   
 35  17  39  1   
 36  17  40  1   
 37  19  21  1   
 38  19  41  1   
 39  20  22  1   
 40  21  23  1   
 41  21  42  1   
 42  21  43  1   
 43  22  24  1   
 44  22  44  1   
 45  22  45  1   
 46  23  25  2   
 47  23  46  1   
 48  24  47  1   
 49  24  48  1   
 50  24  49  1   
 51  25  50  1   
 52  25  51  1   
@<TRIPOS>SUBSTRUCTURE
  1 ****   6 GROUP 4 **** **** 0

# MOE 2024.06 (io_trps.svl 2023.06)
