@<TRIPOS>MOLECULE
NONAME
46 48 1 0 0 
SMALL
USER_CHARGES


@<TRIPOS>ATOM
  1 N        0.1560     0.7370     0.6400 N.pl3 1 <1>  -0.8380 
  2 C       -0.9730     1.0090    -0.1310 C.ar  1 <1>   0.1000 
  3 C        0.1810    -0.5450     1.4000 C.3   1 <1>   0.2090 
  4 C        1.4670     1.2820     0.1780 C.3   1 <1>   0.2090 
  5 C       -1.9510     1.8950     0.3220 C.ar  1 <1>  -0.1440 
  6 C       -1.1420     0.3940    -1.3680 C.ar  1 <1>  -0.1500 
  7 C        1.0830    -1.5950     0.7180 C.3   1 <1>   0.3430 
  8 C        2.3470     0.1910    -0.4670 C.3   1 <1>   0.3430 
  9 C       -3.0680     2.1460    -0.4580 C.ar  1 <1>  -0.1500 
 10 C       -1.8060     2.5930     1.6670 C.3   1 <1>  -0.0970 
 11 C       -2.2580     0.6490    -2.1420 C.ar  1 <1>  -0.1500 
 12 N        2.4490    -1.0560     0.3810 N.4   1 <1>  -0.9590 
 13 C       -3.2240     1.5280    -1.6860 C.ar  1 <1>  -0.1500 
 14 C        3.3180    -2.0840    -0.2510 C.3   1 <1>   0.4860 
 15 C        4.7130    -1.5100    -0.3900 C.ar  1 <1>  -0.1430 
 16 C        5.1830    -1.1080    -1.6320 C.ar  1 <1>  -0.1500 
 17 C        5.5300    -1.3720     0.7240 C.ar  1 <1>  -0.1500 
 18 C        6.4470    -0.5620    -1.7550 C.ar  1 <1>  -0.1500 
 19 C        6.7940    -0.8250     0.5960 C.ar  1 <1>  -0.1500 
 20 C        7.2570    -0.4130    -0.6420 C.ar  1 <1>  -0.1430 
 21 C        8.6470     0.1840    -0.7800 C.3   1 <1>  -0.0970 
 22 H       -0.8220    -0.9320     1.4780 H     1 <1>   0.0800 
 23 H        0.5330    -0.3540     2.3980 H     1 <1>   0.0800 
 24 H        1.9820     1.7140     1.0180 H     1 <1>   0.0800 
 25 H        1.2950     2.0700    -0.5360 H     1 <1>   0.0800 
 26 H       -0.4010    -0.2880    -1.7310 H     1 <1>   0.1500 
 27 H        0.5910    -1.9180    -0.1850 H     1 <1>   0.0800 
 28 H        1.1730    -2.4500     1.3680 H     1 <1>   0.0800 
 29 H        3.3290     0.6000    -0.6420 H     1 <1>   0.0800 
 30 H        1.9210    -0.0580    -1.4240 H     1 <1>   0.0800 
 31 H       -3.8270     2.8280    -0.1160 H     1 <1>   0.1500 
 32 H       -1.7770     1.8630     2.4550 H     1 <1>   0.0800 
 33 H       -2.6270     3.2620     1.8490 H     1 <1>   0.0800 
 34 H       -0.8930     3.1590     1.6860 H     1 <1>   0.0800 
 35 H       -2.3810     0.1700    -3.0970 H     1 <1>   0.1500 
 36 H        2.9110    -0.7710     1.2540 H     1 <1>   0.4500 
 37 H       -4.0960     1.7310    -2.2840 H     1 <1>   0.1500 
 38 H        2.9340    -2.3560    -1.2200 H     1 <1>   0.0800 
 39 H        3.3580    -2.9690     0.3630 H     1 <1>   0.0800 
 40 H        4.5790    -1.2160    -2.5170 H     1 <1>   0.1500 
 41 H        5.2030    -1.6900     1.6990 H     1 <1>   0.1500 
 42 H        6.8060    -0.2540    -2.7230 H     1 <1>   0.1500 
 43 H        7.4240    -0.7230     1.4640 H     1 <1>   0.1500 
 44 H        8.9240     0.7060     0.1190 H     1 <1>   0.0800 
 45 H        8.6800     0.8800    -1.5980 H     1 <1>   0.0800 
 46 H        9.3630    -0.5980    -0.9610 H     1 <1>   0.0800 
@<TRIPOS>BOND
  1   1   2  1   
  2   1   3  1   
  3   1   4  1   
  4   2   5  ar  
  5   2   6  ar  
  6   3   7  1   
  7   3  22  1   
  8   3  23  1   
  9   4   8  1   
 10   4  24  1   
 11   4  25  1   
 12   5   9  ar  
 13   5  10  1   
 14   6  11  ar  
 15   6  26  1   
 16   7  12  1   
 17   7  27  1   
 18   7  28  1   
 19   8  12  1   
 20   8  29  1   
 21   8  30  1   
 22   9  13  ar  
 23   9  31  1   
 24  10  32  1   
 25  10  33  1   
 26  10  34  1   
 27  11  13  ar  
 28  11  35  1   
 29  12  14  1   
 30  12  36  1   
 31  13  37  1   
 32  14  15  1   
 33  14  38  1   
 34  14  39  1   
 35  15  16  ar  
 36  15  17  ar  
 37  16  18  ar  
 38  16  40  1   
 39  17  19  ar  
 40  17  41  1   
 41  18  20  ar  
 42  18  42  1   
 43  19  20  ar  
 44  19  43  1   
 45  20  21  1   
 46  21  44  1   
 47  21  45  1   
 48  21  46  1   
@<TRIPOS>SUBSTRUCTURE
  1 ****   8 GROUP 4 **** **** 0

# MOE 2024.06 (io_trps.svl 2023.06)
