@<TRIPOS>MOLECULE
NONAME
39 40 1 0 0 
SMALL
USER_CHARGES


@<TRIPOS>ATOM
  1 F        0.7880    -0.1730     0.8410 F     1 <1>  -0.1900 
  2 C        0.5000    -1.4300     0.5940 C.ar  1 <1>   0.1900 
  3 C        1.3240    -2.1890    -0.2510 C.ar  1 <1>   0.1000 
  4 C       -0.6320    -1.9420     1.1970 C.ar  1 <1>  -0.1500 
  5 N        2.4850    -1.7280    -0.8910 N.pl3 1 <1>  -0.8690 
  6 C        0.9360    -3.5050    -0.4760 C.ar  1 <1>  -0.1500 
  7 C       -0.9820    -3.2600     0.9580 C.ar  1 <1>  -0.1500 
  8 C        3.4650    -0.9170    -0.1590 C.3   1 <1>   0.2890 
  9 C       -0.1970    -4.0360     0.1210 C.ar  1 <1>  -0.1500 
 10 C        3.5410     0.4540    -0.8220 C.3   1 <1>  -0.1600 
 11 C        4.8220    -1.6100    -0.1980 C.3   1 <1>  -0.1600 
 12 C        4.6100     1.3070    -0.1530 C.3   1 <1>   0.3430 
 13 C        5.8810    -0.7300     0.4590 C.3   1 <1>   0.3430 
 14 N        5.9280     0.6060    -0.2140 N.4   1 <1>  -0.9590 
 15 C        6.9970     1.4800     0.3450 C.3   1 <1>   0.3430 
 16 C        8.3790     0.9720    -0.0730 C.3   1 <1>  -0.1600 
 17 C        9.4780     1.9310     0.3980 C.3   1 <1>  -0.2400 
 18 H       -1.2300    -1.3210     1.8390 H     1 <1>   0.1500 
 19 H        2.9120    -2.4120    -1.5230 H     1 <1>   0.4000 
 20 H        1.5240    -4.1270    -1.1260 H     1 <1>   0.1500 
 21 H       -1.8610    -3.6790     1.4180 H     1 <1>   0.1500 
 22 H        3.1570    -0.8090     0.8690 H     1 <1>   0.0800 
 23 H       -0.4720    -5.0600    -0.0690 H     1 <1>   0.1500 
 24 H        2.5900     0.9460    -0.7270 H     1 <1>   0.0800 
 25 H        3.7570     0.3520    -1.8710 H     1 <1>   0.0800 
 26 H        5.1100    -1.8210    -1.2130 H     1 <1>   0.0800 
 27 H        4.7590    -2.5410     0.3380 H     1 <1>   0.0800 
 28 H        4.3350     1.4840     0.8750 H     1 <1>   0.0800 
 29 H        4.6720     2.2590    -0.6560 H     1 <1>   0.0800 
 30 H        6.8400    -1.2170     0.3880 H     1 <1>   0.0800 
 31 H        5.6450    -0.6030     1.5040 H     1 <1>   0.0800 
 32 H        6.1440     0.4500    -1.2080 H     1 <1>   0.4500 
 33 H        6.9270     1.5150     1.4200 H     1 <1>   0.0800 
 34 H        6.8750     2.4830    -0.0310 H     1 <1>   0.0800 
 35 H        8.4320     0.8930    -1.1450 H     1 <1>   0.0800 
 36 H        8.5720     0.0040     0.3560 H     1 <1>   0.0800 
 37 H        9.3450     2.9090    -0.0330 H     1 <1>   0.0800 
 38 H       10.4430     1.5610     0.0950 H     1 <1>   0.0800 
 39 H        9.4760     2.0210     1.4710 H     1 <1>   0.0800 
@<TRIPOS>BOND
  1   1   2  1   
  2   2   3  ar  
  3   2   4  ar  
  4   3   5  1   
  5   3   6  ar  
  6   4   7  ar  
  7   4  18  1   
  8   5   8  1   
  9   5  19  1   
 10   6   9  ar  
 11   6  20  1   
 12   7   9  ar  
 13   7  21  1   
 14   8  10  1   
 15   8  11  1   
 16   8  22  1   
 17   9  23  1   
 18  10  12  1   
 19  10  24  1   
 20  10  25  1   
 21  11  13  1   
 22  11  26  1   
 23  11  27  1   
 24  12  14  1   
 25  12  28  1   
 26  12  29  1   
 27  13  14  1   
 28  13  30  1   
 29  13  31  1   
 30  14  15  1   
 31  14  32  1   
 32  15  16  1   
 33  15  33  1   
 34  15  34  1   
 35  16  17  1   
 36  16  35  1   
 37  16  36  1   
 38  17  37  1   
 39  17  38  1   
 40  17  39  1   
@<TRIPOS>SUBSTRUCTURE
  1 ****   8 GROUP 4 **** **** 0

# MOE 2024.06 (io_trps.svl 2023.06)
