@<TRIPOS>MOLECULE
NONAME
38 40 1 0 0 
SMALL
USER_CHARGES


@<TRIPOS>ATOM
  1 S        0.7620    -0.7600     1.7480 S.3   1 <1>  -0.2420 
  2 C       -0.0320    -1.9060     0.6630 C.2   1 <1>   0.6510 
  3 C        1.9800    -0.3560     0.5240 C.2   1 <1>  -0.0490 
  4 N       -1.0790    -2.5850     0.9960 N.2   1 <1>  -0.6210 
  5 N        0.6340    -1.9260    -0.5340 N.am  1 <1>  -0.2290 
  6 C        1.7480    -1.0600    -0.5920 C.2   1 <1>  -0.0410 
  7 C       -1.5730    -3.4250     0.0340 C.2   1 <1>   0.0330 
  8 C        0.1510    -2.7580    -1.5140 C.2   1 <1>   0.6160 
  9 C       -0.9940    -3.5260    -1.1920 C.2   1 <1>  -0.1360 
 10 C       -2.8010    -4.2500     0.4110 C.3   1 <1>   0.2480 
 11 O        0.6940    -2.8170    -2.6070 O.2   1 <1>  -0.5700 
 12 N       -4.0690    -3.5460     0.1020 N.3   1 <1>  -0.8100 
 13 C       -5.2350    -4.4200     0.3640 C.3   1 <1>   0.1100 
 14 C       -4.1900    -2.2770     0.8710 C.3   1 <1>   0.1100 
 15 C       -6.5760    -3.7380    -0.0080 C.3   1 <1>   0.3430 
 16 C       -5.5850    -1.6190     0.7490 C.3   1 <1>   0.3430 
 17 N       -6.3940    -2.2830    -0.3270 N.4   1 <1>  -0.9590 
 18 C       -7.6690    -1.6030    -0.6600 C.3   1 <1>   0.3430 
 19 C       -7.3800    -0.2740    -1.3490 C.3   1 <1>  -0.2400 
 20 H        2.7290     0.3690     0.7940 H     1 <1>   0.1500 
 21 H        2.3200    -1.0290    -1.5060 H     1 <1>   0.1500 
 22 H       -1.3670    -4.1770    -1.9590 H     1 <1>   0.1500 
 23 H       -2.7550    -4.4940     1.4600 H     1 <1>   0.0800 
 24 H       -2.7720    -5.1730    -0.1420 H     1 <1>   0.0800 
 25 H       -5.2570    -4.6910     1.4070 H     1 <1>   0.0800 
 26 H       -5.1420    -5.3300    -0.2040 H     1 <1>   0.0800 
 27 H       -3.4600    -1.5750     0.5070 H     1 <1>   0.0800 
 28 H       -3.9720    -2.4490     1.9120 H     1 <1>   0.0800 
 29 H       -7.2680    -3.8560     0.8090 H     1 <1>   0.0800 
 30 H       -6.9940    -4.2430    -0.8640 H     1 <1>   0.0800 
 31 H       -5.4550    -0.5720     0.5320 H     1 <1>   0.0800 
 32 H       -6.0970    -1.6980     1.6930 H     1 <1>   0.0800 
 33 H       -5.7670    -2.2810    -1.1460 H     1 <1>   0.4500 
 34 H       -8.2500    -1.4400     0.2340 H     1 <1>   0.0800 
 35 H       -8.2440    -2.2230    -1.3290 H     1 <1>   0.0800 
 36 H       -6.8930     0.4160    -0.6850 H     1 <1>   0.0800 
 37 H       -8.3090     0.1700    -1.6580 H     1 <1>   0.0800 
 38 H       -6.7760    -0.4220    -2.2270 H     1 <1>   0.0800 
@<TRIPOS>BOND
  1   1   2  1   
  2   1   3  1   
  3   2   4  2   
  4   2   5  1   
  5   3   6  2   
  6   3  20  1   
  7   4   7  1   
  8   5   6  1   
  9   5   8  am  
 10   6  21  1   
 11   7   9  2   
 12   7  10  1   
 13   8   9  1   
 14   8  11  2   
 15   9  22  1   
 16  10  12  1   
 17  10  23  1   
 18  10  24  1   
 19  12  13  1   
 20  12  14  1   
 21  13  15  1   
 22  13  25  1   
 23  13  26  1   
 24  14  16  1   
 25  14  27  1   
 26  14  28  1   
 27  15  17  1   
 28  15  29  1   
 29  15  30  1   
 30  16  17  1   
 31  16  31  1   
 32  16  32  1   
 33  17  18  1   
 34  17  33  1   
 35  18  19  1   
 36  18  34  1   
 37  18  35  1   
 38  19  36  1   
 39  19  37  1   
 40  19  38  1   
@<TRIPOS>SUBSTRUCTURE
  1 ****   7 GROUP 4 **** **** 0

# MOE 2024.06 (io_trps.svl 2023.06)
