@<TRIPOS>MOLECULE
NONAME
31 30 1 0 0 
SMALL
USER_CHARGES


@<TRIPOS>ATOM
  1 O       -0.5340    -0.9160    -0.6380 O.2   1 <1>  -0.5700 
  2 C       -0.0430    -1.7160     0.1320 C.2   1 <1>   0.6160 
  3 N       -0.8230    -2.0690     1.1840 N.am  1 <1>  -0.8000 
  4 C        1.2780    -2.2350    -0.0410 C.2   1 <1>   0.0790 
  5 C        2.2380    -1.1870    -0.1580 C.1   1 <1>   0.4920 
  6 C        1.6080    -3.5690    -0.0750 C.2   1 <1>  -0.0380 
  7 N        3.0340    -0.3700    -0.2190 N.1   1 <1>  -0.5570 
  8 N        2.8640    -4.1300    -0.1380 N.pl3 1 <1>  -0.8690 
  9 C        0.5450    -4.6600    -0.0610 C.3   1 <1>  -0.1020 
 10 C        4.2070    -3.4850    -0.1790 C.3   1 <1>   0.2090 
 11 C        5.3470    -4.5320    -0.1810 C.3   1 <1>   0.0000 
 12 C        6.6930    -3.7930    -0.2240 C.3   1 <1>  -0.2400 
 13 C        5.3070    -5.3940     1.0930 C.3   1 <1>  -0.2400 
 14 C        5.2540    -5.4460    -1.4160 C.3   1 <1>  -0.2400 
 15 H       -1.7320    -1.6170     1.2900 H     1 <1>   0.3700 
 16 H       -0.4970    -2.6470     1.9590 H     1 <1>   0.3700 
 17 H        2.9520    -5.1540    -0.1790 H     1 <1>   0.4000 
 18 H        0.7600    -5.3860    -0.8260 H     1 <1>   0.0800 
 19 H       -0.4410    -4.2810    -0.2560 H     1 <1>   0.0800 
 20 H        0.5450    -5.1580     0.8920 H     1 <1>   0.0800 
 21 H        4.2790    -2.8800    -1.0670 H     1 <1>   0.0800 
 22 H        4.3160    -2.8430     0.6780 H     1 <1>   0.0800 
 23 H        7.5110    -4.4910    -0.2270 H     1 <1>   0.0800 
 24 H        6.8010    -3.1510     0.6330 H     1 <1>   0.0800 
 25 H        6.7640    -3.1870    -1.1110 H     1 <1>   0.0800 
 26 H        5.3630    -4.7720     1.9690 H     1 <1>   0.0800 
 27 H        6.1350    -6.0810     1.1110 H     1 <1>   0.0800 
 28 H        4.3980    -5.9660     1.1460 H     1 <1>   0.0800 
 29 H        6.0840    -6.1300    -1.4420 H     1 <1>   0.0800 
 30 H        5.2700    -4.8590    -2.3180 H     1 <1>   0.0800 
 31 H        4.3470    -6.0220    -1.4060 H     1 <1>   0.0800 
@<TRIPOS>BOND
  1   1   2  2   
  2   2   3  am  
  3   2   4  1   
  4   3  15  1   
  5   3  16  1   
  6   4   5  1   
  7   4   6  2   
  8   5   7  3   
  9   6   8  1   
 10   6   9  1   
 11   8  10  1   
 12   8  17  1   
 13   9  18  1   
 14   9  19  1   
 15   9  20  1   
 16  10  11  1   
 17  10  21  1   
 18  10  22  1   
 19  11  12  1   
 20  11  13  1   
 21  11  14  1   
 22  12  23  1   
 23  12  24  1   
 24  12  25  1   
 25  13  26  1   
 26  13  27  1   
 27  13  28  1   
 28  14  29  1   
 29  14  30  1   
 30  14  31  1   
@<TRIPOS>SUBSTRUCTURE
  1 ****   8 GROUP 4 **** **** 0

# MOE 2024.06 (io_trps.svl 2023.06)
