@<TRIPOS>MOLECULE
NONAME
54 56 1 0 0 
SMALL
USER_CHARGES


@<TRIPOS>ATOM
  1 O       -1.7360     1.4070     1.0750 O.3   1 <1>  -0.3630 
  2 C       -1.2300     1.9320    -0.0830 C.ar  1 <1>   0.0830 
  3 C       -0.9280     0.5940     1.9050 C.3   1 <1>   0.0400 
  4 C        0.0760     2.4300    -0.2180 C.ar  1 <1>   0.0830 
  5 C       -2.1010     1.9740    -1.1690 C.ar  1 <1>  -0.1440 
  6 O        0.9000     2.4580     0.8680 O.3   1 <1>  -0.3620 
  7 C        0.4910     2.9120    -1.4570 C.ar  1 <1>  -0.1500 
  8 C       -1.6690     2.4630    -2.3920 C.ar  1 <1>  -0.1500 
  9 C       -3.5320     1.4960    -1.0170 C.3   1 <1>   0.4860 
 10 C        2.2230     2.9460     0.8010 C.3   1 <1>   0.0400 
 11 C       -0.3740     2.9240    -2.5350 C.ar  1 <1>  -0.1500 
 12 N       -4.1830     2.3100     0.0370 N.4   1 <1>  -0.9590 
 13 C       -5.5220     1.7730     0.4600 C.3   1 <1>   0.3430 
 14 C       -4.2490     3.7750    -0.3160 C.3   1 <1>   0.3430 
 15 C       -6.1510     2.5910     1.6080 C.3   1 <1>   0.2090 
 16 C       -4.8540     4.6270     0.8180 C.3   1 <1>   0.2090 
 17 N       -6.1380     4.0540     1.3190 N.pl3 1 <1>  -0.8380 
 18 C       -7.3250     4.6380     0.8770 C.ar  1 <1>   0.1000 
 19 C       -8.0860     5.4370     1.7300 C.ar  1 <1>  -0.1430 
 20 C       -7.7680     4.4290    -0.4260 C.ar  1 <1>  -0.1500 
 21 C       -9.2620     6.0050     1.2710 C.ar  1 <1>  -0.1500 
 22 C       -7.6370     5.6930     3.1620 C.3   1 <1>  -0.0970 
 23 C       -8.9430     4.9970    -0.8840 C.ar  1 <1>  -0.1430 
 24 C       -9.6890     5.7870    -0.0270 C.ar  1 <1>  -0.1500 
 25 C       -9.4280     4.7700    -2.3050 C.3   1 <1>  -0.0970 
 26 H       -0.3640     1.2240     2.5700 H     1 <1>   0.0800 
 27 H       -0.2650     0.0060     1.2930 H     1 <1>   0.0800 
 28 H       -1.5670    -0.0520     2.4780 H     1 <1>   0.0800 
 29 H        1.4860     3.2890    -1.6080 H     1 <1>   0.1500 
 30 H       -2.3260     2.4890    -3.2460 H     1 <1>   0.1500 
 31 H       -3.5230     0.4570    -0.7280 H     1 <1>   0.0800 
 32 H       -4.0620     1.5930    -1.9500 H     1 <1>   0.0800 
 33 H        2.2010     3.9800     0.5050 H     1 <1>   0.0800 
 34 H        2.7810     2.3540     0.0980 H     1 <1>   0.0800 
 35 H        2.6620     2.8580     1.7790 H     1 <1>   0.0800 
 36 H       -0.0360     3.2980    -3.4880 H     1 <1>   0.1500 
 37 H       -3.5320     2.2320     0.8390 H     1 <1>   0.4500 
 38 H       -5.4240     0.7480     0.7760 H     1 <1>   0.0800 
 39 H       -6.2000     1.7980    -0.3770 H     1 <1>   0.0800 
 40 H       -4.8560     3.9070    -1.1950 H     1 <1>   0.0800 
 41 H       -3.2610     4.1440    -0.5370 H     1 <1>   0.0800 
 42 H       -5.6100     2.4110     2.5200 H     1 <1>   0.0800 
 43 H       -7.1660     2.2670     1.7630 H     1 <1>   0.0800 
 44 H       -5.0250     5.6290     0.4600 H     1 <1>   0.0800 
 45 H       -4.1560     4.6900     1.6350 H     1 <1>   0.0800 
 46 H       -7.1880     3.8170    -1.0850 H     1 <1>   0.1500 
 47 H       -9.8560     6.6230     1.9200 H     1 <1>   0.1500 
 48 H       -7.5770     4.7630     3.6950 H     1 <1>   0.0800 
 49 H       -8.3250     6.3400     3.6750 H     1 <1>   0.0800 
 50 H       -6.6670     6.1550     3.1620 H     1 <1>   0.0800 
 51 H      -10.6060     6.2380    -0.3660 H     1 <1>   0.1500 
 52 H       -8.7850     4.0880    -2.8300 H     1 <1>   0.0800 
 53 H       -9.4460     5.7040    -2.8360 H     1 <1>   0.0800 
 54 H      -10.4230     4.3610    -2.2900 H     1 <1>   0.0800 
@<TRIPOS>BOND
  1   1   2  1   
  2   1   3  1   
  3   2   4  ar  
  4   2   5  ar  
  5   3  26  1   
  6   3  27  1   
  7   3  28  1   
  8   4   6  1   
  9   4   7  ar  
 10   5   8  ar  
 11   5   9  1   
 12   6  10  1   
 13   7  11  ar  
 14   7  29  1   
 15   8  11  ar  
 16   8  30  1   
 17   9  12  1   
 18   9  31  1   
 19   9  32  1   
 20  10  33  1   
 21  10  34  1   
 22  10  35  1   
 23  11  36  1   
 24  12  13  1   
 25  12  14  1   
 26  12  37  1   
 27  13  15  1   
 28  13  38  1   
 29  13  39  1   
 30  14  16  1   
 31  14  40  1   
 32  14  41  1   
 33  15  17  1   
 34  15  42  1   
 35  15  43  1   
 36  16  17  1   
 37  16  44  1   
 38  16  45  1   
 39  17  18  1   
 40  18  19  ar  
 41  18  20  ar  
 42  19  21  ar  
 43  19  22  1   
 44  20  23  ar  
 45  20  46  1   
 46  21  24  ar  
 47  21  47  1   
 48  22  48  1   
 49  22  49  1   
 50  22  50  1   
 51  23  24  ar  
 52  23  25  1   
 53  24  51  1   
 54  25  52  1   
 55  25  53  1   
 56  25  54  1   
@<TRIPOS>SUBSTRUCTURE
  1 ****  14 GROUP 4 **** **** 0

# MOE 2024.06 (io_trps.svl 2023.06)
