@<TRIPOS>MOLECULE
NONAME
39 41 1 0 0 
SMALL
USER_CHARGES


@<TRIPOS>ATOM
  1 CL       1.5020     0.3330     3.1850 Cl    1 <1>  -0.1770 
  2 C        2.7740     0.7890     2.0770 C.ar  1 <1>   0.1770 
  3 C        4.0590     1.0050     2.5420 C.ar  1 <1>   0.1600 
  4 C        2.4920     0.9330     0.7370 C.ar  1 <1>  -0.1500 
  5 N        5.0840     1.3520     1.7740 N.ar  1 <1>  -0.6200 
  6 C        3.5500     1.2940    -0.0690 C.ar  1 <1>  -0.1500 
  7 C        4.8190     1.4910     0.4800 C.ar  1 <1>   0.4270 
  8 N        5.9220     1.8520    -0.2600 N.am  1 <1>  -0.5470 
  9 C        6.1810     1.9280    -1.5940 C.2   1 <1>   0.5690 
 10 O        5.3690     1.6920    -2.4550 O.2   1 <1>  -0.5700 
 11 C        7.6010     2.3380    -1.9960 C.3   1 <1>   0.1710 
 12 N        8.6160     2.1300    -0.9210 N.3   1 <1>  -0.8100 
 13 C        9.8340     2.9080    -1.2020 C.3   1 <1>   0.1100 
 14 C        8.9350     0.6980    -0.7670 C.3   1 <1>   0.1100 
 15 C       10.7980     2.8010    -0.0220 C.3   1 <1>  -0.1600 
 16 C        9.8560     0.5040     0.4370 C.3   1 <1>  -0.1600 
 17 C       11.1240     1.3420     0.2700 C.3   1 <1>   0.5600 
 18 O       11.9080     0.8340    -0.7620 O.3   1 <1>  -0.5600 
 19 O       11.9170     1.2670     1.4040 O.3   1 <1>  -0.5600 
 20 C       12.8450    -0.0350    -0.2340 C.3   1 <1>   0.1200 
 21 C       12.8070     0.2210     1.2600 C.3   1 <1>   0.1200 
 22 H        4.2480     0.8850     3.5940 H     1 <1>   0.1500 
 23 H        1.5010     0.7720     0.3520 H     1 <1>   0.1500 
 24 H        3.3920     1.4260    -1.1230 H     1 <1>   0.1500 
 25 H        6.7540     2.0170     0.3120 H     1 <1>   0.3700 
 26 H        7.5610     3.3820    -2.2510 H     1 <1>   0.0800 
 27 H        7.8850     1.7950    -2.8800 H     1 <1>   0.0800 
 28 H        9.5790     3.9440    -1.3500 H     1 <1>   0.0800 
 29 H       10.3090     2.5410    -2.0980 H     1 <1>   0.0800 
 30 H        9.4170     0.3300    -1.6580 H     1 <1>   0.0800 
 31 H        8.0340     0.1290    -0.6110 H     1 <1>   0.0800 
 32 H       10.3360     3.2400     0.8430 H     1 <1>   0.0800 
 33 H       11.7050     3.3340    -0.2350 H     1 <1>   0.0800 
 34 H       10.1050    -0.5350     0.5410 H     1 <1>   0.0800 
 35 H        9.3370     0.8220     1.3220 H     1 <1>   0.0800 
 36 H       13.8070     0.1940    -0.6560 H     1 <1>   0.0800 
 37 H       12.5630    -1.0460    -0.4720 H     1 <1>   0.0800 
 38 H       12.4330    -0.6320     1.7980 H     1 <1>   0.0800 
 39 H       13.7650     0.5170     1.6480 H     1 <1>   0.0800 
@<TRIPOS>BOND
  1   1   2  1   
  2   2   3  ar  
  3   2   4  ar  
  4   3   5  ar  
  5   3  22  1   
  6   4   6  ar  
  7   4  23  1   
  8   5   7  ar  
  9   6   7  ar  
 10   6  24  1   
 11   7   8  1   
 12   8   9  am  
 13   8  25  1   
 14   9  10  2   
 15   9  11  1   
 16  11  12  1   
 17  11  26  1   
 18  11  27  1   
 19  12  13  1   
 20  12  14  1   
 21  13  15  1   
 22  13  28  1   
 23  13  29  1   
 24  14  16  1   
 25  14  30  1   
 26  14  31  1   
 27  15  17  1   
 28  15  32  1   
 29  15  33  1   
 30  16  17  1   
 31  16  34  1   
 32  16  35  1   
 33  17  18  1   
 34  17  19  1   
 35  18  20  1   
 36  19  21  1   
 37  20  21  1   
 38  20  36  1   
 39  20  37  1   
 40  21  38  1   
 41  21  39  1   
@<TRIPOS>SUBSTRUCTURE
  1 ****   8 GROUP 4 **** **** 0

# MOE 2024.06 (io_trps.svl 2023.06)
