@<TRIPOS>MOLECULE
NONAME
30 32 1 0 0 
SMALL
USER_CHARGES


@<TRIPOS>ATOM
  1 O       -3.6830     0.0140     0.2550 O.3   1 <1>  -0.2800 
  2 C       -4.6840    -0.6810    -0.2500 C.2   1 <1>  -0.0400 
  3 C       -4.1380     1.2170     0.5420 C.2   1 <1>  -0.0100 
  4 C       -5.8050     0.0710    -0.2970 C.2   1 <1>  -0.1500 
  5 C       -4.4440    -2.1170    -0.6730 C.3   1 <1>   0.0200 
  6 C       -5.4460     1.3200     0.2250 C.2   1 <1>  -0.1500 
  7 C       -4.0310    -2.9790     0.5240 C.3   1 <1>  -0.0990 
  8 C       -3.9170    -4.4380     0.1280 C.2   1 <1>   0.4740 
  9 N       -2.7810    -4.8970    -0.2080 N.2   1 <1>  -0.6960 
 10 C       -5.1210    -5.2230     0.1360 C.2   1 <1>  -0.2370 
 11 C       -2.6330    -6.3060    -0.6240 C.3   1 <1>   0.0860 
 12 N       -5.0300    -6.5710    -0.0310 N.pl3 1 <1>   0.0480 
 13 C       -6.4490    -4.9110     0.2830 C.2   1 <1>  -0.1500 
 14 C       -3.7300    -7.2580    -0.1060 C.3   1 <1>   0.0960 
 15 C       -6.2770    -7.0980     0.0080 C.2   1 <1>  -0.3020 
 16 C       -7.1770    -6.0970     0.1980 C.2   1 <1>  -0.1500 
 17 H       -3.4620     1.9370     0.9680 H     1 <1>   0.1500 
 18 H       -6.7830    -0.1980    -0.6520 H     1 <1>   0.1500 
 19 H       -3.6680    -2.1400    -1.4180 H     1 <1>   0.0800 
 20 H       -5.3430    -2.5080    -1.1140 H     1 <1>   0.0800 
 21 H       -6.1020     2.1650     0.3350 H     1 <1>   0.1500 
 22 H       -4.7460    -2.8780     1.3190 H     1 <1>   0.0800 
 23 H       -3.0800    -2.6380     0.8940 H     1 <1>   0.0800 
 24 H       -1.6810    -6.6650    -0.2750 H     1 <1>   0.0800 
 25 H       -2.6110    -6.3370    -1.7000 H     1 <1>   0.0800 
 26 H       -6.8820    -3.9380     0.4370 H     1 <1>   0.1500 
 27 H       -3.4720    -7.5900     0.8830 H     1 <1>   0.0800 
 28 H       -3.8130    -8.1170    -0.7460 H     1 <1>   0.0800 
 29 H       -6.4660    -8.1520    -0.0950 H     1 <1>   0.1500 
 30 H       -8.2470    -6.1800     0.2760 H     1 <1>   0.1500 
@<TRIPOS>BOND
  1   1   2  1   
  2   1   3  1   
  3   2   4  2   
  4   2   5  1   
  5   3   6  2   
  6   3  17  1   
  7   4   6  1   
  8   4  18  1   
  9   5   7  1   
 10   5  19  1   
 11   5  20  1   
 12   6  21  1   
 13   7   8  1   
 14   7  22  1   
 15   7  23  1   
 16   8   9  2   
 17   8  10  1   
 18   9  11  1   
 19  10  12  1   
 20  10  13  2   
 21  11  14  1   
 22  11  24  1   
 23  11  25  1   
 24  12  14  1   
 25  12  15  1   
 26  13  16  1   
 27  13  26  1   
 28  14  27  1   
 29  14  28  1   
 30  15  16  2   
 31  15  29  1   
 32  16  30  1   
@<TRIPOS>SUBSTRUCTURE
  1 ****   7 GROUP 4 **** **** 0

# MOE 2024.06 (io_trps.svl 2023.06)
