@<TRIPOS>MOLECULE
NONAME
38 38 1 0 0 
SMALL
USER_CHARGES


@<TRIPOS>ATOM
  1 S        0.0820    -0.9110    -0.6060 S.o2  1 <1>   1.3330 
  2 O        0.2620     0.4980    -0.3540 O.2   1 <1>  -0.6500 
  3 O       -1.2300    -1.5040    -0.5280 O.2   1 <1>  -0.6500 
  4 N        1.1330    -1.7760     0.4660 N.am  1 <1>  -0.6930 
  5 C        0.7680    -1.3060    -2.2000 C.3   1 <1>  -0.1350 
  6 C        2.5050    -1.5520     0.4760 C.ar  1 <1>   0.1990 
  7 C        0.5650    -2.8490     1.3410 C.3   1 <1>   0.3370 
  8 C        3.3850    -2.5590     0.0980 C.ar  1 <1>  -0.1500 
  9 C        3.0260    -0.3240     0.8550 C.ar  1 <1>  -0.1500 
 10 C       -0.1730    -3.9870     0.5950 C.2   1 <1>   0.6590 
 11 C       -0.2640    -2.1870     2.4520 C.3   1 <1>  -0.2400 
 12 C        4.7550    -2.3560     0.0970 C.ar  1 <1>  -0.1440 
 13 C        4.3900    -0.1090     0.8550 C.ar  1 <1>  -0.1500 
 14 O       -1.0560    -4.6280     1.1100 O.2   1 <1>  -0.5700 
 15 O        0.2540    -4.2680    -0.6380 O.3   1 <1>  -0.4300 
 16 C        5.2640    -1.1180     0.4790 C.ar  1 <1>  -0.1430 
 17 C        5.6730    -3.4940    -0.3260 C.3   1 <1>  -0.0970 
 18 C       -0.3580    -5.2740    -1.4180 C.3   1 <1>   0.0400 
 19 C        6.7610    -0.8420     0.4940 C.3   1 <1>  -0.0970 
 20 H        0.1980    -0.8290    -2.9720 H     1 <1>   0.0800 
 21 H        0.7490    -2.3650    -2.3630 H     1 <1>   0.0800 
 22 H        1.7830    -0.9640    -2.2610 H     1 <1>   0.0800 
 23 H        1.3920    -3.3290     1.8310 H     1 <1>   0.0800 
 24 H        2.9830    -3.5080    -0.2030 H     1 <1>   0.1500 
 25 H        2.3570     0.4650     1.1510 H     1 <1>   0.1500 
 26 H       -1.1630    -1.7540     2.0540 H     1 <1>   0.0800 
 27 H        0.3130    -1.4250     2.9440 H     1 <1>   0.0800 
 28 H       -0.5480    -2.9250     3.1810 H     1 <1>   0.0800 
 29 H        4.7680     0.8530     1.1530 H     1 <1>   0.1500 
 30 H        5.1090    -4.3710    -0.5870 H     1 <1>   0.0800 
 31 H        6.3390    -3.7490     0.4780 H     1 <1>   0.0800 
 32 H        6.2540    -3.2010    -1.1820 H     1 <1>   0.0800 
 33 H       -0.2750    -6.2150    -0.9020 H     1 <1>   0.0800 
 34 H        0.1450    -5.3260    -2.3670 H     1 <1>   0.0800 
 35 H       -1.3940    -5.0190    -1.5590 H     1 <1>   0.0800 
 36 H        7.1700    -0.9710    -0.4920 H     1 <1>   0.0800 
 37 H        7.2540    -1.5170     1.1700 H     1 <1>   0.0800 
 38 H        6.9650     0.1640     0.8140 H     1 <1>   0.0800 
@<TRIPOS>BOND
  1   1   2  2   
  2   1   3  2   
  3   1   4  am  
  4   1   5  1   
  5   4   6  1   
  6   4   7  1   
  7   5  20  1   
  8   5  21  1   
  9   5  22  1   
 10   6   8  ar  
 11   6   9  ar  
 12   7  10  1   
 13   7  11  1   
 14   7  23  1   
 15   8  12  ar  
 16   8  24  1   
 17   9  13  ar  
 18   9  25  1   
 19  10  14  2   
 20  10  15  1   
 21  11  26  1   
 22  11  27  1   
 23  11  28  1   
 24  12  16  ar  
 25  12  17  1   
 26  13  16  ar  
 27  13  29  1   
 28  15  18  1   
 29  16  19  1   
 30  17  30  1   
 31  17  31  1   
 32  17  32  1   
 33  18  33  1   
 34  18  34  1   
 35  18  35  1   
 36  19  36  1   
 37  19  37  1   
 38  19  38  1   
@<TRIPOS>SUBSTRUCTURE
  1 ****   4 GROUP 4 **** **** 0

# MOE 2024.06 (io_trps.svl 2023.06)
