@<TRIPOS>MOLECULE
NONAME
45 47 1 0 0 
SMALL
USER_CHARGES


@<TRIPOS>ATOM
  1 N       -0.9440    -0.1720     0.3540 N.ar  1 <1>  -0.6200 
  2 C        0.0330    -1.0180     0.0710 C.ar  1 <1>   0.1600 
  3 C       -1.9750    -0.6950     0.9970 C.ar  1 <1>   0.1600 
  4 C        0.0250    -2.3660     0.3890 C.ar  1 <1>  -0.1500 
  5 C       -2.0820    -2.0270     1.3590 C.ar  1 <1>  -0.1500 
  6 C       -1.0620    -2.9040     1.0500 C.ar  1 <1>  -0.1430 
  7 C       -1.1410    -4.3780     1.4150 C.3   1 <1>   0.2540 
  8 N       -2.2690    -5.0230     0.7140 N.3   1 <1>  -0.8100 
  9 C       -2.1160    -4.9730    -0.7640 C.3   1 <1>   0.1100 
 10 C       -2.4650    -6.4200     1.1700 C.3   1 <1>   0.1100 
 11 C       -3.3110    -5.6240    -1.5040 C.3   1 <1>   0.3430 
 12 C       -3.6320    -7.1280     0.4370 C.3   1 <1>   0.3430 
 13 N       -4.2970    -6.1980    -0.5350 N.4   1 <1>  -0.9590 
 14 C       -5.5300    -6.7410    -1.1580 C.3   1 <1>   0.4860 
 15 C       -6.4970    -7.1440    -0.0600 C.ar  1 <1>  -0.1430 
 16 C       -7.1870    -6.2030     0.7020 C.ar  1 <1>  -0.1430 
 17 C       -6.6810    -8.4980     0.1880 C.ar  1 <1>  -0.1500 
 18 C       -8.0330    -6.6380     1.7100 C.ar  1 <1>  -0.1500 
 19 C       -7.0560    -4.7010     0.4740 C.3   1 <1>  -0.0970 
 20 C       -7.5310    -8.9190     1.1940 C.ar  1 <1>  -0.1500 
 21 C       -8.2050    -7.9870     1.9570 C.ar  1 <1>  -0.1500 
 22 H        0.8880    -0.6130    -0.4440 H     1 <1>   0.1500 
 23 H       -2.7790    -0.0240     1.2470 H     1 <1>   0.1500 
 24 H        0.8670    -2.9770     0.1170 H     1 <1>   0.1500 
 25 H       -2.9580    -2.3720     1.8770 H     1 <1>   0.1500 
 26 H       -1.2870    -4.4580     2.4800 H     1 <1>   0.0800 
 27 H       -0.2180    -4.8730     1.1660 H     1 <1>   0.0800 
 28 H       -1.2060    -5.4700    -1.0550 H     1 <1>   0.0800 
 29 H       -2.0400    -3.9490    -1.0890 H     1 <1>   0.0800 
 30 H       -2.6730    -6.4230     2.2270 H     1 <1>   0.0800 
 31 H       -1.5620    -6.9870     1.0190 H     1 <1>   0.0800 
 32 H       -2.9430    -6.3950    -2.1600 H     1 <1>   0.0800 
 33 H       -3.7900    -4.8740    -2.1120 H     1 <1>   0.0800 
 34 H       -4.3470    -7.4650     1.1710 H     1 <1>   0.0800 
 35 H       -3.2570    -7.9960    -0.0780 H     1 <1>   0.0800 
 36 H       -4.5690    -5.4040     0.0630 H     1 <1>   0.4500 
 37 H       -5.2920    -7.5960    -1.7680 H     1 <1>   0.0800 
 38 H       -5.9910    -5.9940    -1.7840 H     1 <1>   0.0800 
 39 H       -6.1690    -9.2440    -0.3960 H     1 <1>   0.1500 
 40 H       -8.5740    -5.9280     2.3140 H     1 <1>   0.1500 
 41 H       -7.0550    -4.4660    -0.5740 H     1 <1>   0.0800 
 42 H       -6.1550    -4.3300     0.9280 H     1 <1>   0.0800 
 43 H       -7.8880    -4.1820     0.9180 H     1 <1>   0.0800 
 44 H       -7.6730    -9.9700     1.3840 H     1 <1>   0.1500 
 45 H       -8.8680    -8.3100     2.7420 H     1 <1>   0.1500 
@<TRIPOS>BOND
  1   1   2  ar  
  2   1   3  ar  
  3   2   4  ar  
  4   2  22  1   
  5   3   5  ar  
  6   3  23  1   
  7   4   6  ar  
  8   4  24  1   
  9   5   6  ar  
 10   5  25  1   
 11   6   7  1   
 12   7   8  1   
 13   7  26  1   
 14   7  27  1   
 15   8   9  1   
 16   8  10  1   
 17   9  11  1   
 18   9  28  1   
 19   9  29  1   
 20  10  12  1   
 21  10  30  1   
 22  10  31  1   
 23  11  13  1   
 24  11  32  1   
 25  11  33  1   
 26  12  13  1   
 27  12  34  1   
 28  12  35  1   
 29  13  14  1   
 30  13  36  1   
 31  14  15  1   
 32  14  37  1   
 33  14  38  1   
 34  15  16  ar  
 35  15  17  ar  
 36  16  18  ar  
 37  16  19  1   
 38  17  20  ar  
 39  17  39  1   
 40  18  21  ar  
 41  18  40  1   
 42  19  41  1   
 43  19  42  1   
 44  19  43  1   
 45  20  21  ar  
 46  20  44  1   
 47  21  45  1   
@<TRIPOS>SUBSTRUCTURE
  1 ****  13 GROUP 4 **** **** 0

# MOE 2024.06 (io_trps.svl 2023.06)
