@<TRIPOS>MOLECULE
NONAME
38 39 1 0 0 
SMALL
USER_CHARGES


@<TRIPOS>ATOM
  1 S       -0.2680    -0.3060    -0.6390 S.3   1 <1>  -0.0800 
  2 C       -1.1180     1.1040     0.0070 C.2   1 <1>  -0.0450 
  3 C        1.2990     0.4550    -0.4490 C.2   1 <1>  -0.1400 
  4 C       -2.5540     1.0800     0.0870 C.2   1 <1>   0.7150 
  5 C       -0.2040     2.0590     0.3090 C.2   1 <1>  -0.1500 
  6 C        1.1510     1.6930     0.0610 C.2   1 <1>  -0.1500 
  7 C        2.5110    -0.3580    -0.8710 C.3   1 <1>   0.0200 
  8 O       -3.2040     1.8550    -0.5890 O.2   1 <1>  -0.5700 
  9 N       -3.2530     0.1740     0.8680 N.am  1 <1>  -0.6600 
 10 C        3.8220     0.4020    -0.6560 C.3   1 <1>  -0.2400 
 11 C       -4.7420     0.1390     0.8120 C.3   1 <1>   0.1400 
 12 C       -2.6270    -0.8910     1.6890 C.3   1 <1>   0.1400 
 13 C       -5.1980    -0.5790    -0.4690 C.3   1 <1>   0.3430 
 14 C       -2.9450    -2.2820     1.1180 C.3   1 <1>  -0.1600 
 15 N       -4.8200    -2.0410    -0.5290 N.4   1 <1>  -0.9590 
 16 C       -3.3530    -2.3090    -0.3630 C.3   1 <1>   0.3430 
 17 C       -5.2900    -2.6130    -1.8270 C.3   1 <1>   0.2630 
 18 H       -0.4480     3.0310     0.7020 H     1 <1>   0.1500 
 19 H        1.9510     2.3800     0.2740 H     1 <1>   0.1500 
 20 H        2.4150    -0.6130    -1.9130 H     1 <1>   0.0800 
 21 H        2.5340    -1.2730    -0.3060 H     1 <1>   0.0800 
 22 H        3.8250     1.3090    -1.2340 H     1 <1>   0.0800 
 23 H        4.6540    -0.2050    -0.9670 H     1 <1>   0.0800 
 24 H        3.9450     0.6470     0.3840 H     1 <1>   0.0800 
 25 H       -5.1190     1.1490     0.8010 H     1 <1>   0.0800 
 26 H       -5.1450    -0.3470     1.6830 H     1 <1>   0.0800 
 27 H       -2.9880    -0.8190     2.7010 H     1 <1>   0.0800 
 28 H       -1.5610    -0.7490     1.7320 H     1 <1>   0.0800 
 29 H       -4.7690    -0.0570    -1.3110 H     1 <1>   0.0800 
 30 H       -6.2690    -0.4870    -0.5450 H     1 <1>   0.0800 
 31 H       -3.6970    -2.7610     1.7180 H     1 <1>   0.0800 
 32 H       -2.0530    -2.8740     1.2260 H     1 <1>   0.0800 
 33 H       -5.3070    -2.5280     0.2350 H     1 <1>   0.4500 
 34 H       -3.1320    -3.2900    -0.7500 H     1 <1>   0.0800 
 35 H       -2.7720    -1.5940    -0.9250 H     1 <1>   0.0800 
 36 H       -4.7920    -2.1280    -2.6510 H     1 <1>   0.0800 
 37 H       -6.3530    -2.4740    -1.9360 H     1 <1>   0.0800 
 38 H       -5.0770    -3.6700    -1.8700 H     1 <1>   0.0800 
@<TRIPOS>BOND
  1   1   2  1   
  2   1   3  1   
  3   2   4  1   
  4   2   5  2   
  5   3   6  2   
  6   3   7  1   
  7   4   8  2   
  8   4   9  am  
  9   5   6  1   
 10   5  18  1   
 11   6  19  1   
 12   7  10  1   
 13   7  20  1   
 14   7  21  1   
 15   9  11  1   
 16   9  12  1   
 17  10  22  1   
 18  10  23  1   
 19  10  24  1   
 20  11  13  1   
 21  11  25  1   
 22  11  26  1   
 23  12  14  1   
 24  12  27  1   
 25  12  28  1   
 26  13  15  1   
 27  13  29  1   
 28  13  30  1   
 29  14  16  1   
 30  14  31  1   
 31  14  32  1   
 32  15  16  1   
 33  15  17  1   
 34  15  33  1   
 35  16  34  1   
 36  16  35  1   
 37  17  36  1   
 38  17  37  1   
 39  17  38  1   
@<TRIPOS>SUBSTRUCTURE
  1 ****   2 GROUP 4 **** **** 0

# MOE 2024.06 (io_trps.svl 2023.06)
