@<TRIPOS>MOLECULE
NONAME
44 45 1 0 0 
SMALL
USER_CHARGES


@<TRIPOS>ATOM
  1 O       -0.4930    -0.9050     2.0490 O.2   1 <1>  -0.5700 
  2 C       -0.9260    -1.4760     1.0670 C.2   1 <1>   0.5440 
  3 N       -0.0440    -2.0890     0.2210 N.am  1 <1>  -0.7300 
  4 C       -2.3520    -1.4920     0.7880 C.ar  1 <1>   0.0860 
  5 C        1.4180    -2.1540     0.3960 C.3   1 <1>   0.2200 
  6 C       -3.1870    -0.4840     1.2730 C.ar  1 <1>  -0.1500 
  7 C       -2.9500    -2.5020     0.0290 C.ar  1 <1>  -0.1500 
  8 C        2.0650    -1.3700    -0.7540 C.3   1 <1>  -0.1600 
  9 C        1.8090    -3.6340     0.4690 C.3   1 <1>  -0.1600 
 10 C       -4.5450    -0.4770     1.0100 C.ar  1 <1>  -0.1500 
 11 C       -4.3060    -2.5010    -0.2420 C.ar  1 <1>  -0.1500 
 12 C        3.5560    -1.0930    -0.5080 C.3   1 <1>  -0.1600 
 13 C        3.3200    -3.9060     0.5650 C.3   1 <1>  -0.1600 
 14 C       -5.1180    -1.4870     0.2540 C.ar  1 <1>   0.0830 
 15 C        4.5090    -2.2020    -0.9800 C.3   1 <1>  -0.1600 
 16 C        4.0470    -3.6510    -0.7630 C.3   1 <1>  -0.1600 
 17 O       -6.4540    -1.4110     0.0300 O.3   1 <1>  -0.2320 
 18 C       -7.3200    -2.3930    -0.2250 C.2   1 <1>   0.6590 
 19 O       -7.0240    -3.5600    -0.2280 O.2   1 <1>  -0.5700 
 20 C       -8.7400    -1.9200    -0.5080 C.3   1 <1>  -0.0990 
 21 C       -9.7330    -3.0410    -0.8620 C.3   1 <1>  -0.2400 
 22 H       -0.3840    -2.4770    -0.6560 H     1 <1>   0.3700 
 23 H        1.6830    -1.6820     1.3280 H     1 <1>   0.0800 
 24 H       -2.7560     0.3040     1.8670 H     1 <1>   0.1500 
 25 H       -2.3490    -3.3080    -0.3500 H     1 <1>   0.1500 
 26 H        1.5700    -0.4170    -0.8140 H     1 <1>   0.0800 
 27 H        1.9250    -1.8770    -1.6920 H     1 <1>   0.0800 
 28 H        1.4120    -4.1550    -0.3840 H     1 <1>   0.0800 
 29 H        1.3430    -4.0470     1.3470 H     1 <1>   0.0800 
 30 H       -5.1640     0.3130     1.3950 H     1 <1>   0.1500 
 31 H       -4.7180    -3.2940    -0.8400 H     1 <1>   0.1500 
 32 H        3.7150    -0.9080     0.5410 H     1 <1>   0.0800 
 33 H        3.8270    -0.1870    -1.0230 H     1 <1>   0.0800 
 34 H        3.4460    -4.9450     0.8160 H     1 <1>   0.0800 
 35 H        3.7620    -3.3310     1.3610 H     1 <1>   0.0800 
 36 H        5.4510    -2.0610    -0.4770 H     1 <1>   0.0800 
 37 H        4.6970    -2.0700    -2.0320 H     1 <1>   0.0800 
 38 H        3.4160    -3.9520    -1.5810 H     1 <1>   0.0800 
 39 H        4.9200    -4.2810    -0.8020 H     1 <1>   0.0800 
 40 H       -8.7010    -1.2180    -1.3210 H     1 <1>   0.0800 
 41 H       -9.0950    -1.3980     0.3620 H     1 <1>   0.0800 
 42 H       -9.4050    -3.5660    -1.7420 H     1 <1>   0.0800 
 43 H      -10.7100    -2.6300    -1.0490 H     1 <1>   0.0800 
 44 H       -9.8050    -3.7460    -0.0520 H     1 <1>   0.0800 
@<TRIPOS>BOND
  1   1   2  2   
  2   2   3  am  
  3   2   4  1   
  4   3   5  1   
  5   3  22  1   
  6   4   6  ar  
  7   4   7  ar  
  8   5   8  1   
  9   5   9  1   
 10   5  23  1   
 11   6  10  ar  
 12   6  24  1   
 13   7  11  ar  
 14   7  25  1   
 15   8  12  1   
 16   8  26  1   
 17   8  27  1   
 18   9  13  1   
 19   9  28  1   
 20   9  29  1   
 21  10  14  ar  
 22  10  30  1   
 23  11  14  ar  
 24  11  31  1   
 25  12  15  1   
 26  12  32  1   
 27  12  33  1   
 28  13  16  1   
 29  13  34  1   
 30  13  35  1   
 31  14  17  1   
 32  15  16  1   
 33  15  36  1   
 34  15  37  1   
 35  16  38  1   
 36  16  39  1   
 37  17  18  1   
 38  18  19  2   
 39  18  20  1   
 40  20  21  1   
 41  20  40  1   
 42  20  41  1   
 43  21  42  1   
 44  21  43  1   
 45  21  44  1   
@<TRIPOS>SUBSTRUCTURE
  1 ****   4 GROUP 4 **** **** 0

# MOE 2024.06 (io_trps.svl 2023.06)
