@<TRIPOS>MOLECULE
NONAME
53 55 1 0 0 
SMALL
USER_CHARGES


@<TRIPOS>ATOM
  1 O        0.4270     0.6420    -1.8120 O.2   1 <1>  -0.5700 
  2 C       -0.1340     0.6430    -0.7330 C.2   1 <1>   0.7800 
  3 O        0.2120    -0.2590     0.1880 O.3   1 <1>  -0.4300 
  4 N       -1.1240     1.5390    -0.4140 N.am  1 <1>  -0.6600 
  5 C        1.2140    -1.2130    -0.0760 C.3   1 <1>   0.1200 
  6 C       -1.8330     1.5360     0.8940 C.3   1 <1>   0.1400 
  7 C       -1.5870     2.5610    -1.3910 C.3   1 <1>   0.1400 
  8 C        1.3700    -2.0910     1.1620 C.3   1 <1>  -0.2400 
  9 C       -1.7450     2.9260     1.5280 C.3   1 <1>  -0.1600 
 10 C       -1.4980     3.9520    -0.7590 C.3   1 <1>  -0.1600 
 11 C       -2.2620     3.9950     0.5640 C.3   1 <1>   0.2200 
 12 N       -2.0880     5.3200     1.1800 N.am  1 <1>  -0.7300 
 13 C       -3.0620     6.1590     1.6260 C.2   1 <1>   0.5440 
 14 O       -2.7250     6.9780     2.4550 O.2   1 <1>  -0.5700 
 15 C       -4.4350     6.0810     1.1700 C.ar  1 <1>   0.0860 
 16 C       -5.4910     6.0530     2.0810 C.ar  1 <1>  -0.1500 
 17 C       -4.7560     6.0250    -0.1860 C.ar  1 <1>  -0.1500 
 18 C       -6.8040     5.9530     1.6600 C.ar  1 <1>  -0.1500 
 19 C       -6.0670     5.9260    -0.6130 C.ar  1 <1>  -0.1500 
 20 C       -7.1120     5.8910     0.3040 C.ar  1 <1>  -0.0230 
 21 N       -8.4560     5.7930    -0.1420 N.pl3 1 <1>   0.5930 
 22 N       -8.9060     4.7440    -0.8730 N.2   1 <1>  -0.7070 
 23 C       -9.4630     6.6940     0.0420 C.2   1 <1>  -0.3320 
 24 C      -10.1510     4.9940    -1.1150 C.2   1 <1>   0.1080 
 25 C      -10.5600     6.2030    -0.5680 C.2   1 <1>  -0.1500 
 26 C       -9.3180     8.0100     0.7910 C.3   1 <1>  -0.0600 
 27 C      -11.0280     4.0550    -1.9090 C.3   1 <1>  -0.0590 
 28 H        2.1300    -0.6930    -0.3000 H     1 <1>   0.0800 
 29 H        0.9120    -1.7970    -0.9290 H     1 <1>   0.0800 
 30 H       -1.4060     0.8100     1.5650 H     1 <1>   0.0800 
 31 H       -2.8640     1.2710     0.7310 H     1 <1>   0.0800 
 32 H       -2.6060     2.3440    -1.6660 H     1 <1>   0.0800 
 33 H       -0.9880     2.5330    -2.2850 H     1 <1>   0.0800 
 34 H        1.6620    -1.4930     2.0060 H     1 <1>   0.0800 
 35 H        2.1280    -2.8320     0.9870 H     1 <1>   0.0800 
 36 H        0.4440    -2.5930     1.3780 H     1 <1>   0.0800 
 37 H       -0.7190     3.1220     1.7850 H     1 <1>   0.0800 
 38 H       -2.3310     2.9400     2.4290 H     1 <1>   0.0800 
 39 H       -1.9090     4.6730    -1.4410 H     1 <1>   0.0800 
 40 H       -0.4610     4.1900    -0.5970 H     1 <1>   0.0800 
 41 H       -3.3070     3.8110     0.3740 H     1 <1>   0.0800 
 42 H       -1.1600     5.5060     1.5640 H     1 <1>   0.3700 
 43 H       -5.2660     6.1100     3.1320 H     1 <1>   0.1500 
 44 H       -3.9630     6.0620    -0.9120 H     1 <1>   0.1500 
 45 H       -7.5970     5.9200     2.3870 H     1 <1>   0.1500 
 46 H       -6.2930     5.8730    -1.6650 H     1 <1>   0.1500 
 47 H      -11.5460     6.6280    -0.6400 H     1 <1>   0.1500 
 48 H       -9.1100     7.8300     1.8310 H     1 <1>   0.0800 
 49 H      -10.2280     8.5790     0.7200 H     1 <1>   0.0800 
 50 H       -8.5170     8.5920     0.3700 H     1 <1>   0.0800 
 51 H      -10.6210     3.9310    -2.8950 H     1 <1>   0.0800 
 52 H      -12.0260     4.4450    -1.9860 H     1 <1>   0.0800 
 53 H      -11.0610     3.0970    -1.4230 H     1 <1>   0.0800 
@<TRIPOS>BOND
  1   1   2  2   
  2   2   3  1   
  3   2   4  am  
  4   3   5  1   
  5   4   6  1   
  6   4   7  1   
  7   5   8  1   
  8   5  28  1   
  9   5  29  1   
 10   6   9  1   
 11   6  30  1   
 12   6  31  1   
 13   7  10  1   
 14   7  32  1   
 15   7  33  1   
 16   8  34  1   
 17   8  35  1   
 18   8  36  1   
 19   9  11  1   
 20   9  37  1   
 21   9  38  1   
 22  10  11  1   
 23  10  39  1   
 24  10  40  1   
 25  11  12  1   
 26  11  41  1   
 27  12  13  am  
 28  12  42  1   
 29  13  14  2   
 30  13  15  1   
 31  15  16  ar  
 32  15  17  ar  
 33  16  18  ar  
 34  16  43  1   
 35  17  19  ar  
 36  17  44  1   
 37  18  20  ar  
 38  18  45  1   
 39  19  20  ar  
 40  19  46  1   
 41  20  21  1   
 42  21  22  1   
 43  21  23  1   
 44  22  24  2   
 45  23  25  2   
 46  23  26  1   
 47  24  25  1   
 48  24  27  1   
 49  25  47  1   
 50  26  48  1   
 51  26  49  1   
 52  26  50  1   
 53  27  51  1   
 54  27  52  1   
 55  27  53  1   
@<TRIPOS>SUBSTRUCTURE
  1 ****  17 GROUP 4 **** **** 0

# MOE 2024.06 (io_trps.svl 2023.06)
