@<TRIPOS>MOLECULE
NONAME
40 42 1 0 0 
SMALL
USER_CHARGES


@<TRIPOS>ATOM
  1 S       -0.0640     0.0100    -0.0520 S.3   1 <1>  -0.0800 
  2 C        0.6300     0.3560     1.4950 C.2   1 <1>   0.4420 
  3 C       -1.6060    -0.1740     0.7350 C.2   1 <1>   0.3250 
  4 N       -0.2390     0.3220     2.4320 N.2   1 <1>  -0.3380 
  5 N        1.9680     0.6350     1.6760 N.am  1 <1>  -0.4940 
  6 N       -1.4950     0.0240     2.0030 N.2   1 <1>  -0.3380 
  7 C       -2.7850    -0.5050    -0.0340 C.ar  1 <1>   0.0530 
  8 C        3.0030     0.7130     0.7800 C.2   1 <1>   0.5690 
  9 C       -2.7660    -0.7170    -1.4170 C.ar  1 <1>  -0.1500 
 10 C       -4.0220    -0.6270     0.6050 C.ar  1 <1>  -0.1500 
 11 O        2.8720     0.5270    -0.4040 O.2   1 <1>  -0.5700 
 12 C        4.4190     1.0630     1.2790 C.3   1 <1>   0.4040 
 13 C       -3.9160    -1.0310    -2.1180 C.ar  1 <1>  -0.1500 
 14 C       -5.1750    -0.9410    -0.0900 C.ar  1 <1>  -0.1500 
 15 N        5.3560     1.5110     0.1780 N.4   1 <1>  -0.9590 
 16 C       -5.1240    -1.1440    -1.4560 C.ar  1 <1>  -0.1500 
 17 C        6.7920     1.4490     0.5780 C.3   1 <1>   0.3430 
 18 C        4.9710     2.8450    -0.3750 C.3   1 <1>   0.3430 
 19 C        7.6770     1.7430    -0.6350 C.3   1 <1>  -0.1600 
 20 C        5.8300     3.1600    -1.6010 C.3   1 <1>  -0.1600 
 21 C        7.3290     3.0900    -1.2820 C.3   1 <1>  -0.1600 
 22 H        2.1670     0.7950     2.6630 H     1 <1>   0.3700 
 23 H       -1.8470    -0.6390    -1.9680 H     1 <1>   0.1500 
 24 H       -4.0810    -0.4730     1.6690 H     1 <1>   0.1500 
 25 H        4.8230     0.1800     1.7450 H     1 <1>   0.0800 
 26 H        4.3490     1.8340     2.0260 H     1 <1>   0.0800 
 27 H       -3.8720    -1.1890    -3.1820 H     1 <1>   0.1500 
 28 H       -6.1120    -1.0280     0.4320 H     1 <1>   0.1500 
 29 H        5.2080     0.8470    -0.6010 H     1 <1>   0.4500 
 30 H       -6.0200    -1.3890    -2.0010 H     1 <1>   0.1500 
 31 H        7.0290     0.4700     0.9620 H     1 <1>   0.0800 
 32 H        6.9890     2.1760     1.3490 H     1 <1>   0.0800 
 33 H        5.1160     3.6090     0.3710 H     1 <1>   0.0800 
 34 H        3.9310     2.8400    -0.6650 H     1 <1>   0.0800 
 35 H        7.5690     0.9520    -1.3560 H     1 <1>   0.0800 
 36 H        8.7080     1.7550    -0.3240 H     1 <1>   0.0800 
 37 H        5.5870     4.1470    -1.9560 H     1 <1>   0.0800 
 38 H        5.5890     2.4690    -2.3900 H     1 <1>   0.0800 
 39 H        7.9010     3.2200    -2.1860 H     1 <1>   0.0800 
 40 H        7.5930     3.8920    -0.6110 H     1 <1>   0.0800 
@<TRIPOS>BOND
  1   1   2  1   
  2   1   3  1   
  3   2   4  2   
  4   2   5  1   
  5   3   6  2   
  6   3   7  1   
  7   4   6  1   
  8   5   8  am  
  9   5  22  1   
 10   7   9  ar  
 11   7  10  ar  
 12   8  11  2   
 13   8  12  1   
 14   9  13  ar  
 15   9  23  1   
 16  10  14  ar  
 17  10  24  1   
 18  12  15  1   
 19  12  25  1   
 20  12  26  1   
 21  13  16  ar  
 22  13  27  1   
 23  14  16  ar  
 24  14  28  1   
 25  15  17  1   
 26  15  18  1   
 27  15  29  1   
 28  16  30  1   
 29  17  19  1   
 30  17  31  1   
 31  17  32  1   
 32  18  20  1   
 33  18  33  1   
 34  18  34  1   
 35  19  21  1   
 36  19  35  1   
 37  19  36  1   
 38  20  21  1   
 39  20  37  1   
 40  20  38  1   
 41  21  39  1   
 42  21  40  1   
@<TRIPOS>SUBSTRUCTURE
  1 ****   1 GROUP 4 **** **** 0

# MOE 2024.06 (io_trps.svl 2023.06)
