@<TRIPOS>MOLECULE
NONAME
38 40 1 0 0 
SMALL
USER_CHARGES


@<TRIPOS>ATOM
  1 O       -1.1260     0.1290    -0.9020 O.2   1 <1>  -0.5700 
  2 C       -1.9930    -0.6670    -0.6040 C.2   1 <1>   0.7060 
  3 O       -3.2560    -0.2340    -0.4960 O.3   1 <1>  -0.2330 
  4 C       -1.7540    -2.0550    -0.3550 C.2   1 <1>  -0.1240 
  5 C       -4.2920    -1.0480    -0.1650 C.ar  1 <1>   0.0820 
  6 C       -2.7420    -2.8960    -0.0270 C.2   1 <1>  -0.1670 
  7 C       -0.4120    -2.7420    -0.4170 C.3   1 <1>  -0.0220 
  8 C       -4.0810    -2.4140     0.0850 C.ar  1 <1>   0.0280 
  9 C       -5.5630    -0.5050    -0.0780 C.ar  1 <1>  -0.1500 
 10 C       -2.2480    -4.3050     0.1920 C.3   1 <1>  -0.0220 
 11 C       -0.7550    -4.2280    -0.1880 C.3   1 <1>  -0.1600 
 12 C       -5.1810    -3.2030     0.4230 C.ar  1 <1>  -0.1500 
 13 C       -6.6440    -1.2980     0.2580 C.ar  1 <1>   0.0830 
 14 C       -6.4460    -2.6570     0.5090 C.ar  1 <1>  -0.1500 
 15 O       -7.8500    -0.6900     0.3220 O.3   1 <1>  -0.3630 
 16 C       -9.0260    -1.4010     0.6340 C.3   1 <1>   0.2580 
 17 C      -10.1840    -0.4190     0.6330 C.2   1 <1>  -0.2880 
 18 C      -11.3400    -0.4820    -0.0420 C.2   1 <1>  -0.2760 
 19 C      -12.3910     0.6100     0.0780 C.3   1 <1>  -0.1020 
 20 C      -11.7680    -1.5930    -0.9920 C.3   1 <1>  -0.1020 
 21 H        0.0530    -2.5880    -1.3760 H     1 <1>   0.0800 
 22 H        0.2290    -2.3650     0.3610 H     1 <1>   0.0800 
 23 H       -5.7120     0.5410    -0.2720 H     1 <1>   0.1500 
 24 H       -2.3690    -4.5840     1.2240 H     1 <1>   0.0800 
 25 H       -2.7720    -5.0020    -0.4400 H     1 <1>   0.0800 
 26 H       -0.5890    -4.7760    -1.0990 H     1 <1>   0.0800 
 27 H       -0.1390    -4.6490     0.5870 H     1 <1>   0.0800 
 28 H       -5.0380    -4.2500     0.6190 H     1 <1>   0.1500 
 29 H       -7.2650    -3.2980     0.7730 H     1 <1>   0.1500 
 30 H       -9.1530    -2.1760    -0.0970 H     1 <1>   0.0800 
 31 H       -8.9090    -1.8310     1.6130 H     1 <1>   0.0800 
 32 H       -9.9640     0.4080     1.2850 H     1 <1>   0.1500 
 33 H      -13.3110     0.2010     0.4540 H     1 <1>   0.0800 
 34 H      -12.5750     1.0550    -0.8840 H     1 <1>   0.0800 
 35 H      -12.0630     1.3840     0.7500 H     1 <1>   0.0800 
 36 H      -11.9270    -1.1900    -1.9760 H     1 <1>   0.0800 
 37 H      -12.6870    -2.0340    -0.6490 H     1 <1>   0.0800 
 38 H      -11.0340    -2.3710    -1.0660 H     1 <1>   0.0800 
@<TRIPOS>BOND
  1   1   2  2   
  2   2   3  1   
  3   2   4  1   
  4   3   5  1   
  5   4   6  2   
  6   4   7  1   
  7   5   8  ar  
  8   5   9  ar  
  9   6   8  1   
 10   6  10  1   
 11   7  11  1   
 12   7  21  1   
 13   7  22  1   
 14   8  12  ar  
 15   9  13  ar  
 16   9  23  1   
 17  10  11  1   
 18  10  24  1   
 19  10  25  1   
 20  11  26  1   
 21  11  27  1   
 22  12  14  ar  
 23  12  28  1   
 24  13  14  ar  
 25  13  15  1   
 26  14  29  1   
 27  15  16  1   
 28  16  17  1   
 29  16  30  1   
 30  16  31  1   
 31  17  18  2   
 32  17  32  1   
 33  18  19  1   
 34  18  20  1   
 35  19  33  1   
 36  19  34  1   
 37  19  35  1   
 38  20  36  1   
 39  20  37  1   
 40  20  38  1   
@<TRIPOS>SUBSTRUCTURE
  1 ****   9 GROUP 4 **** **** 0

# MOE 2024.06 (io_trps.svl 2023.06)
