@<TRIPOS>MOLECULE
NONAME
45 47 1 0 0 
SMALL
USER_CHARGES


@<TRIPOS>ATOM
  1 O        0.7290    -1.7010    -0.0010 O.3   1 <1>  -0.3630 
  2 C       -0.5750    -1.6860    -0.3810 C.ar  1 <1>   0.0830 
  3 C        1.7090    -0.9180    -0.6470 C.3   1 <1>   0.1200 
  4 C       -1.4660    -2.5180     0.3460 C.ar  1 <1>   0.0000 
  5 C       -1.0380    -0.9080    -1.4200 C.ar  1 <1>  -0.1500 
  6 C        3.0490    -1.1820     0.0330 C.3   1 <1>   0.1200 
  7 C       -2.8320    -2.5330    -0.0170 C.ar  1 <1>   0.0000 
  8 C       -1.0590    -3.3400     1.4210 C.ar  1 <1>  -0.1500 
  9 C       -2.3890    -0.9290    -1.7720 C.ar  1 <1>  -0.1500 
 10 O        4.0320    -0.4130    -0.5960 O.3   1 <1>  -0.5600 
 11 C       -3.2630    -1.7230    -1.0850 C.ar  1 <1>  -0.1500 
 12 C       -3.7240    -3.3570     0.6990 C.ar  1 <1>  -0.1500 
 13 C       -1.9460    -4.1300     2.1000 C.ar  1 <1>  -0.1500 
 14 C        5.3060    -0.5700    -0.0650 C.3   1 <1>   0.1200 
 15 C       -3.2950    -4.1390     1.7350 C.ar  1 <1>  -0.1500 
 16 C        6.2530     0.3200    -0.8790 C.3   1 <1>   0.3430 
 17 N        7.6760     0.2270    -0.4180 N.4   1 <1>  -0.9590 
 18 C        7.9140     0.7700     0.9440 C.3   1 <1>   0.3430 
 19 C        8.6000     0.9690    -1.3100 C.3   1 <1>   0.3430 
 20 C        9.4100     1.0460     0.9870 C.3   1 <1>  -0.1600 
 21 C        9.8560     1.1660    -0.4740 C.3   1 <1>  -0.1600 
 22 H        1.4340     0.1170    -0.5480 H     1 <1>   0.0800 
 23 H        1.7470    -1.2110    -1.6810 H     1 <1>   0.0800 
 24 H       -0.3910    -0.2690    -1.9890 H     1 <1>   0.1500 
 25 H        3.3080    -2.2230    -0.0610 H     1 <1>   0.0800 
 26 H        2.9950    -0.8990     1.0700 H     1 <1>   0.0800 
 27 H       -0.0230    -3.3360     1.7050 H     1 <1>   0.1500 
 28 H       -2.7290    -0.3130    -2.5870 H     1 <1>   0.1500 
 29 H       -4.3040    -1.7410    -1.3530 H     1 <1>   0.1500 
 30 H       -4.7600    -3.3590     0.4140 H     1 <1>   0.1500 
 31 H       -1.6200    -4.7500     2.9170 H     1 <1>   0.1500 
 32 H        5.5850    -1.6050    -0.1530 H     1 <1>   0.0800 
 33 H        5.2800    -0.2670     0.9670 H     1 <1>   0.0800 
 34 H       -3.9810    -4.7660     2.2780 H     1 <1>   0.1500 
 35 H        5.9160     1.3410    -0.8070 H     1 <1>   0.0800 
 36 H        6.1920     0.0170    -1.9110 H     1 <1>   0.0800 
 37 H        7.9790    -0.7570    -0.4250 H     1 <1>   0.4500 
 38 H        7.6150     0.0750     1.7130 H     1 <1>   0.0800 
 39 H        7.3750     1.6960     1.0670 H     1 <1>   0.0800 
 40 H        8.1780     1.9310    -1.5550 H     1 <1>   0.0800 
 41 H        8.8050     0.4260    -2.2190 H     1 <1>   0.0800 
 42 H        9.9200     0.2310     1.4700 H     1 <1>   0.0800 
 43 H        9.6090     1.9480     1.5400 H     1 <1>   0.0800 
 44 H       10.2990     2.1260    -0.6800 H     1 <1>   0.0800 
 45 H       10.5760     0.4010    -0.7110 H     1 <1>   0.0800 
@<TRIPOS>BOND
  1   1   2  1   
  2   1   3  1   
  3   2   4  ar  
  4   2   5  ar  
  5   3   6  1   
  6   3  22  1   
  7   3  23  1   
  8   4   7  ar  
  9   4   8  ar  
 10   5   9  ar  
 11   5  24  1   
 12   6  10  1   
 13   6  25  1   
 14   6  26  1   
 15   7  11  ar  
 16   7  12  ar  
 17   8  13  ar  
 18   8  27  1   
 19   9  11  ar  
 20   9  28  1   
 21  10  14  1   
 22  11  29  1   
 23  12  15  ar  
 24  12  30  1   
 25  13  15  ar  
 26  13  31  1   
 27  14  16  1   
 28  14  32  1   
 29  14  33  1   
 30  15  34  1   
 31  16  17  1   
 32  16  35  1   
 33  16  36  1   
 34  17  18  1   
 35  17  19  1   
 36  17  37  1   
 37  18  20  1   
 38  18  38  1   
 39  18  39  1   
 40  19  21  1   
 41  19  40  1   
 42  19  41  1   
 43  20  21  1   
 44  20  42  1   
 45  20  43  1   
 46  21  44  1   
 47  21  45  1   
@<TRIPOS>SUBSTRUCTURE
  1 ****   3 GROUP 4 **** **** 0

# MOE 2024.06 (io_trps.svl 2023.06)
