@<TRIPOS>MOLECULE
NONAME
32 33 1 0 0 
SMALL
USER_CHARGES


@<TRIPOS>ATOM
  1 F        0.6030    -0.9810     1.2030 F     1 <1>  -0.3400 
  2 C       -0.4860    -1.6020     0.7460 C.3   1 <1>   1.0200 
  3 F       -1.2200    -1.8050     1.8350 F     1 <1>  -0.3400 
  4 F       -1.1390    -0.6880     0.0310 F     1 <1>  -0.3400 
  5 C       -0.1430    -2.9000    -0.0710 C.3   1 <1>   0.5680 
  6 N       -1.1560    -3.4920    -1.0590 N.pl3 1 <1>  -0.8690 
  7 C        1.1080    -2.5170    -0.8810 C.2   1 <1>   0.5690 
  8 C        0.4870    -4.0050     0.7930 C.2   1 <1>  -0.0730 
  9 C       -2.5010    -3.5410    -0.8090 C.ar  1 <1>   0.4100 
 10 O        1.1380    -1.7340    -1.8000 O.2   1 <1>  -0.5700 
 11 N        2.1740    -3.2550    -0.4820 N.am  1 <1>  -0.5390 
 12 C       -0.2790    -4.7210     1.7590 C.1   1 <1>   0.4920 
 13 C        1.7930    -4.1400     0.5010 C.2   1 <1>  -0.0290 
 14 N       -2.8600    -3.6430     0.4520 N.ar  1 <1>  -0.6200 
 15 C       -3.4060    -3.4930    -1.8650 C.ar  1 <1>  -0.1500 
 16 N       -0.7900    -5.3180     2.5850 N.1   1 <1>  -0.5570 
 17 C        2.8260    -5.0850     1.0830 C.3   1 <1>  -0.1020 
 18 C       -4.1610    -3.7010     0.6840 C.ar  1 <1>   0.1600 
 19 C       -4.7570    -3.5500    -1.6130 C.ar  1 <1>  -0.1500 
 20 C       -5.1450    -3.6580    -0.2910 C.ar  1 <1>  -0.1430 
 21 C       -6.6200    -3.7290     0.0640 C.3   1 <1>  -0.0970 
 22 H       -0.9330    -3.1900    -2.0130 H     1 <1>   0.4000 
 23 H        3.0930    -3.1720    -0.9280 H     1 <1>   0.3700 
 24 H       -3.0450    -3.4150    -2.8720 H     1 <1>   0.1500 
 25 H        3.6280    -4.5250     1.5320 H     1 <1>   0.0800 
 26 H        3.2300    -5.7130     0.3090 H     1 <1>   0.0800 
 27 H        2.3870    -5.7140     1.8370 H     1 <1>   0.0800 
 28 H       -4.4550    -3.7900     1.7160 H     1 <1>   0.1500 
 29 H       -5.4790    -3.5140    -2.4100 H     1 <1>   0.1500 
 30 H       -6.7560    -3.8070     1.1280 H     1 <1>   0.0800 
 31 H       -7.0680    -4.5890    -0.4020 H     1 <1>   0.0800 
 32 H       -7.1230    -2.8440    -0.2820 H     1 <1>   0.0800 
@<TRIPOS>BOND
  1   1   2  1   
  2   2   3  1   
  3   2   4  1   
  4   2   5  1   
  5   5   6  1   
  6   5   7  1   
  7   5   8  1   
  8   6   9  1   
  9   6  22  1   
 10   7  10  2   
 11   7  11  am  
 12   8  12  1   
 13   8  13  2   
 14   9  14  ar  
 15   9  15  ar  
 16  11  13  1   
 17  11  23  1   
 18  12  16  3   
 19  13  17  1   
 20  14  18  ar  
 21  15  19  ar  
 22  15  24  1   
 23  17  25  1   
 24  17  26  1   
 25  17  27  1   
 26  18  20  ar  
 27  18  28  1   
 28  19  20  ar  
 29  19  29  1   
 30  20  21  1   
 31  21  30  1   
 32  21  31  1   
 33  21  32  1   
@<TRIPOS>SUBSTRUCTURE
  1 ****   5 GROUP 4 **** **** 0

# MOE 2024.06 (io_trps.svl 2023.06)
