@<TRIPOS>MOLECULE
NONAME
51 54 1 0 0 
SMALL
USER_CHARGES


@<TRIPOS>ATOM
  1 F        6.9420    -4.0400     0.7370 F     1 <1>  -0.1900 
  2 C        5.6490    -4.0800     0.5400 C.ar  1 <1>   0.1900 
  3 C        5.1520    -4.8850    -0.4670 C.ar  1 <1>  -0.1500 
  4 C        4.8280    -3.3140     1.3460 C.ar  1 <1>  -0.1500 
  5 C        3.7830    -4.9210    -0.6690 C.ar  1 <1>  -0.1500 
  6 C        3.4610    -3.3600     1.1320 C.ar  1 <1>  -0.1500 
  7 C        2.9280    -4.1620     0.1250 C.ar  1 <1>   0.1000 
  8 N        1.5580    -4.2200    -0.1040 N.pl3 1 <1>  -0.8380 
  9 C        0.9260    -2.9720    -0.6260 C.3   1 <1>   0.2090 
 10 C        0.7510    -4.9190     0.9400 C.3   1 <1>   0.2090 
 11 C       -0.5080    -3.2480    -1.1230 C.3   1 <1>   0.3430 
 12 C       -0.6850    -5.1860     0.4400 C.3   1 <1>   0.3430 
 13 N       -1.3550    -3.9400    -0.0840 N.4   1 <1>  -0.9590 
 14 C       -2.7630    -4.1690    -0.5330 C.3   1 <1>   0.3430 
 15 C       -3.5770    -2.8600    -0.4340 C.3   1 <1>   0.2000 
 16 O       -3.1300    -2.1310     0.6720 O.3   1 <1>  -0.6800 
 17 C       -5.0850    -3.1050    -0.2940 C.3   1 <1>   0.1200 
 18 O       -5.7150    -1.8680    -0.0340 O.3   1 <1>  -0.3630 
 19 C       -7.0630    -1.7890     0.1210 C.ar  1 <1>   0.0830 
 20 C       -7.9070    -2.9020     0.0840 C.ar  1 <1>  -0.1500 
 21 C       -7.5920    -0.5150     0.3270 C.ar  1 <1>  -0.1500 
 22 C       -9.2600    -2.6870     0.2550 C.ar  1 <1>   0.0830 
 23 C       -8.9570    -0.3240     0.4970 C.ar  1 <1>  -0.1500 
 24 O      -10.2430    -3.5930     0.2560 O.3   1 <1>  -0.3620 
 25 C       -9.7710    -1.4380     0.4560 C.ar  1 <1>   0.0830 
 26 C      -11.4580    -2.8760     0.4730 C.3   1 <1>   0.4000 
 27 O      -11.1010    -1.5000     0.5930 O.3   1 <1>  -0.3620 
 28 H        5.8230    -5.4660    -1.0740 H     1 <1>   0.1500 
 29 H        5.2550    -2.7000     2.1190 H     1 <1>   0.1500 
 30 H        3.3670    -5.5370    -1.4440 H     1 <1>   0.1500 
 31 H        2.8080    -2.7720     1.7490 H     1 <1>   0.1500 
 32 H        1.5200    -2.5900    -1.4390 H     1 <1>   0.0800 
 33 H        0.9050    -2.2230     0.1480 H     1 <1>   0.0800 
 34 H        0.7210    -4.3220     1.8350 H     1 <1>   0.0800 
 35 H        1.2240    -5.8550     1.1830 H     1 <1>   0.0800 
 36 H       -0.4420    -3.8640    -2.0040 H     1 <1>   0.0800 
 37 H       -0.9640    -2.3130    -1.4030 H     1 <1>   0.0800 
 38 H       -1.2640    -5.6020     1.2480 H     1 <1>   0.0800 
 39 H       -0.6320    -5.9220    -0.3450 H     1 <1>   0.0800 
 40 H       -1.4630    -3.2650     0.6980 H     1 <1>   0.4500 
 41 H       -3.2260    -4.8970     0.1120 H     1 <1>   0.0800 
 42 H       -2.7890    -4.5540    -1.5390 H     1 <1>   0.0800 
 43 H       -3.4040    -2.2600    -1.3110 H     1 <1>   0.0800 
 44 H       -3.8020    -1.4360     0.8760 H     1 <1>   0.4000 
 45 H       -5.2890    -3.7690     0.5290 H     1 <1>   0.0800 
 46 H       -5.4930    -3.5100    -1.2040 H     1 <1>   0.0800 
 47 H       -7.5630    -3.9050    -0.0690 H     1 <1>   0.1500 
 48 H       -6.9290     0.3310     0.3530 H     1 <1>   0.1500 
 49 H       -9.3790     0.6520     0.6560 H     1 <1>   0.1500 
 50 H      -11.9170    -3.2110     1.3870 H     1 <1>   0.0800 
 51 H      -12.1110    -3.0070    -0.3720 H     1 <1>   0.0800 
@<TRIPOS>BOND
  1   1   2  1   
  2   2   3  ar  
  3   2   4  ar  
  4   3   5  ar  
  5   3  28  1   
  6   4   6  ar  
  7   4  29  1   
  8   5   7  ar  
  9   5  30  1   
 10   6   7  ar  
 11   6  31  1   
 12   7   8  1   
 13   8   9  1   
 14   8  10  1   
 15   9  11  1   
 16   9  32  1   
 17   9  33  1   
 18  10  12  1   
 19  10  34  1   
 20  10  35  1   
 21  11  13  1   
 22  11  36  1   
 23  11  37  1   
 24  12  13  1   
 25  12  38  1   
 26  12  39  1   
 27  13  14  1   
 28  13  40  1   
 29  14  15  1   
 30  14  41  1   
 31  14  42  1   
 32  15  16  1   
 33  15  17  1   
 34  15  43  1   
 35  16  44  1   
 36  17  18  1   
 37  17  45  1   
 38  17  46  1   
 39  18  19  1   
 40  19  20  ar  
 41  19  21  ar  
 42  20  22  ar  
 43  20  47  1   
 44  21  23  ar  
 45  21  48  1   
 46  22  24  1   
 47  22  25  ar  
 48  23  25  ar  
 49  23  49  1   
 50  24  26  1   
 51  25  27  1   
 52  26  27  1   
 53  26  50  1   
 54  26  51  1   
@<TRIPOS>SUBSTRUCTURE
  1 ****  15 GROUP 4 **** **** 0

# MOE 2024.06 (io_trps.svl 2023.06)
