@<TRIPOS>MOLECULE
NONAME
53 57 1 0 0 
SMALL
USER_CHARGES


@<TRIPOS>ATOM
  1 O       -1.3720    -1.2310     0.2730 O.2   1 <1>  -0.5700 
  2 C       -0.8170    -2.1040    -0.3670 C.2   1 <1>   0.5440 
  3 N       -1.6010    -2.8490    -1.2190 N.am  1 <1>  -0.6600 
  4 C        0.5950    -2.3910    -0.1760 C.ar  1 <1>   0.0860 
  5 C       -1.6860    -4.3220    -1.0260 C.3   1 <1>   0.1400 
  6 C       -2.8670    -2.2590    -1.7360 C.3   1 <1>   0.1400 
  7 C        1.2230    -2.1300     1.0430 C.ar  1 <1>  -0.1500 
  8 C        1.3760    -2.9410    -1.1940 C.ar  1 <1>  -0.1500 
  9 C       -2.8540    -4.6590    -0.0750 C.3   1 <1>   0.3430 
 10 C       -4.0180    -2.5720    -0.7630 C.3   1 <1>   0.3430 
 11 C        2.5600    -2.4230     1.2440 C.ar  1 <1>  -0.1500 
 12 C        2.7130    -3.2380    -0.9990 C.ar  1 <1>  -0.1500 
 13 N       -4.1730    -4.0570    -0.5100 N.4   1 <1>  -0.9590 
 14 C        3.3060    -2.9820     0.2230 C.ar  1 <1>  -0.1500 
 15 C       -5.2860    -4.3530     0.4580 C.3   1 <1>   0.4230 
 16 C       -5.4540    -5.8830     0.6720 C.3   1 <1>  -0.0800 
 17 C       -6.6390    -3.7830    -0.0510 C.3   1 <1>  -0.0800 
 18 C       -6.5520    -6.1310     1.7260 C.3   1 <1>  -0.1600 
 19 C       -5.8700    -6.5770    -0.6460 C.3   1 <1>  -0.1600 
 20 C       -7.7310    -4.0440     1.0070 C.3   1 <1>  -0.1600 
 21 C       -7.0590    -4.4710    -1.3720 C.3   1 <1>  -0.1600 
 22 C       -7.8930    -5.5550     1.2410 C.3   1 <1>  -0.0800 
 23 C       -7.2020    -5.9890    -1.1500 C.3   1 <1>  -0.0800 
 24 C       -8.2870    -6.2340    -0.0840 C.3   1 <1>  -0.1600 
 25 H       -0.7680    -4.6950    -0.6040 H     1 <1>   0.0800 
 26 H       -1.8300    -4.8030    -1.9780 H     1 <1>   0.0800 
 27 H       -3.0830    -2.6540    -2.7130 H     1 <1>   0.0800 
 28 H       -2.7580    -1.1910    -1.8290 H     1 <1>   0.0800 
 29 H        0.6530    -1.6880     1.8420 H     1 <1>   0.1500 
 30 H        0.9320    -3.1340    -2.1550 H     1 <1>   0.1500 
 31 H       -2.6030    -4.2920     0.9070 H     1 <1>   0.0800 
 32 H       -2.9400    -5.7300    -0.0150 H     1 <1>   0.0800 
 33 H       -4.9260    -2.1660    -1.1750 H     1 <1>   0.0800 
 34 H       -3.8170    -2.0620     0.1660 H     1 <1>   0.0800 
 35 H        3.0210    -2.2140     2.1950 H     1 <1>   0.1500 
 36 H        3.2970    -3.6630    -1.7980 H     1 <1>   0.1500 
 37 H       -4.4520    -4.5000    -1.3920 H     1 <1>   0.4500 
 38 H        4.3470    -3.2100     0.3780 H     1 <1>   0.1500 
 39 H       -5.0570    -3.8960     1.4070 H     1 <1>   0.0800 
 40 H       -4.5520    -6.3230     1.0540 H     1 <1>   0.0800 
 41 H       -6.5860    -2.7190    -0.1880 H     1 <1>   0.0800 
 42 H       -6.6600    -7.1890     1.9010 H     1 <1>   0.0800 
 43 H       -6.2790    -5.6780     2.6640 H     1 <1>   0.0800 
 44 H       -5.9920    -7.6330    -0.4740 H     1 <1>   0.0800 
 45 H       -5.1110    -6.4680    -1.4000 H     1 <1>   0.0800 
 46 H       -8.6690    -3.6300     0.6750 H     1 <1>   0.0800 
 47 H       -7.4760    -3.5560     1.9330 H     1 <1>   0.0800 
 48 H       -8.0040    -4.0700    -1.7010 H     1 <1>   0.0800 
 49 H       -6.3480    -4.2780    -2.1540 H     1 <1>   0.0800 
 50 H       -8.6570    -5.7310     1.9810 H     1 <1>   0.0800 
 51 H       -7.4910    -6.4690    -2.0700 H     1 <1>   0.0800 
 52 H       -9.2310    -5.8450    -0.4260 H     1 <1>   0.0800 
 53 H       -8.4140    -7.2910     0.0730 H     1 <1>   0.0800 
@<TRIPOS>BOND
  1   1   2  2   
  2   2   3  am  
  3   2   4  1   
  4   3   5  1   
  5   3   6  1   
  6   4   7  ar  
  7   4   8  ar  
  8   5   9  1   
  9   5  25  1   
 10   5  26  1   
 11   6  10  1   
 12   6  27  1   
 13   6  28  1   
 14   7  11  ar  
 15   7  29  1   
 16   8  12  ar  
 17   8  30  1   
 18   9  13  1   
 19   9  31  1   
 20   9  32  1   
 21  10  13  1   
 22  10  33  1   
 23  10  34  1   
 24  11  14  ar  
 25  11  35  1   
 26  12  14  ar  
 27  12  36  1   
 28  13  15  1   
 29  13  37  1   
 30  14  38  1   
 31  15  16  1   
 32  15  17  1   
 33  15  39  1   
 34  16  18  1   
 35  16  19  1   
 36  16  40  1   
 37  17  20  1   
 38  17  21  1   
 39  17  41  1   
 40  18  22  1   
 41  18  42  1   
 42  18  43  1   
 43  19  23  1   
 44  19  44  1   
 45  19  45  1   
 46  20  22  1   
 47  20  46  1   
 48  20  47  1   
 49  21  23  1   
 50  21  48  1   
 51  21  49  1   
 52  22  24  1   
 53  22  50  1   
 54  23  24  1   
 55  23  51  1   
 56  24  52  1   
 57  24  53  1   
@<TRIPOS>SUBSTRUCTURE
  1 ****   9 GROUP 4 **** **** 0

# MOE 2024.06 (io_trps.svl 2023.06)
