@<TRIPOS>MOLECULE
NONAME
40 41 1 0 0 
SMALL
USER_CHARGES


@<TRIPOS>ATOM
  1 O       -0.3580    -0.2210     2.0640 O.3   1 <1>  -0.5600 
  2 C        0.5820    -1.1390     1.5680 C.3   1 <1>   0.4800 
  3 C       -1.5660    -0.0120     1.3590 C.3   1 <1>   0.2000 
  4 O        1.4920    -0.3500     0.8180 O.3   1 <1>  -0.3630 
  5 C       -0.0880    -2.2360     0.6990 C.3   1 <1>   0.2000 
  6 C       -1.3990    -0.2040    -0.1690 C.3   1 <1>   0.2000 
  7 C       -2.0800     1.3830     1.7540 C.3   1 <1>   0.1200 
  8 C        2.6610    -0.8620     0.3730 C.ar  1 <1>   0.0830 
  9 O        0.8320    -3.1950     0.2520 O.3   1 <1>  -0.6800 
 10 C       -0.8420    -1.6080    -0.4940 C.3   1 <1>   0.2000 
 11 O       -0.5400     0.7710    -0.6780 O.3   1 <1>  -0.6800 
 12 O       -3.1640     1.7570     0.9660 O.3   1 <1>  -0.6800 
 13 C        3.0800    -0.4840    -0.8900 C.ar  1 <1>  -0.1500 
 14 C        3.4260    -1.7490     1.1180 C.ar  1 <1>  -0.1500 
 15 O       -1.9020    -2.4430    -0.8470 O.3   1 <1>  -0.6800 
 16 C        4.2460    -0.9990    -1.4330 C.ar  1 <1>  -0.1430 
 17 C        4.5900    -2.2650     0.5790 C.ar  1 <1>  -0.1500 
 18 C        5.0050    -1.9010    -0.6940 C.ar  1 <1>  -0.1430 
 19 C        4.6670    -0.5610    -2.8290 C.3   1 <1>  -0.0970 
 20 C        6.2920    -2.4970    -1.2480 C.3   1 <1>  -0.0970 
 21 H        1.0910    -1.5690     2.4120 H     1 <1>   0.0800 
 22 H       -2.2690    -0.7430     1.7200 H     1 <1>   0.0800 
 23 H       -0.7910    -2.7580     1.3240 H     1 <1>   0.0800 
 24 H       -2.3440    -0.0710    -0.6660 H     1 <1>   0.0800 
 25 H       -1.3080     2.1210     1.6230 H     1 <1>   0.0800 
 26 H       -2.4040     1.3790     2.7800 H     1 <1>   0.0800 
 27 H        1.5810    -2.7660    -0.2150 H     1 <1>   0.4000 
 28 H       -0.1870    -1.5410    -1.3460 H     1 <1>   0.0800 
 29 H        0.2960     0.7570    -0.1530 H     1 <1>   0.4000 
 30 H       -2.8470     2.0090     0.0740 H     1 <1>   0.4000 
 31 H        2.4830     0.2150    -1.4470 H     1 <1>   0.1500 
 32 H        3.1360    -2.0410     2.1090 H     1 <1>   0.1500 
 33 H       -2.1800    -2.2710    -1.7680 H     1 <1>   0.4000 
 34 H        5.1750    -2.9560     1.1610 H     1 <1>   0.1500 
 35 H        3.9640     0.1390    -3.2430 H     1 <1>   0.0800 
 36 H        4.7190    -1.4130    -3.4830 H     1 <1>   0.0800 
 37 H        5.6310    -0.0880    -2.7910 H     1 <1>   0.0800 
 38 H        7.0000    -1.7150    -1.4540 H     1 <1>   0.0800 
 39 H        6.0880    -3.0360    -2.1550 H     1 <1>   0.0800 
 40 H        6.7370    -3.1780    -0.5450 H     1 <1>   0.0800 
@<TRIPOS>BOND
  1   1   2  1   
  2   1   3  1   
  3   2   4  1   
  4   2   5  1   
  5   2  21  1   
  6   3   6  1   
  7   3   7  1   
  8   3  22  1   
  9   4   8  1   
 10   5   9  1   
 11   5  10  1   
 12   5  23  1   
 13   6  10  1   
 14   6  11  1   
 15   6  24  1   
 16   7  12  1   
 17   7  25  1   
 18   7  26  1   
 19   8  13  ar  
 20   8  14  ar  
 21   9  27  1   
 22  10  15  1   
 23  10  28  1   
 24  11  29  1   
 25  12  30  1   
 26  13  16  ar  
 27  13  31  1   
 28  14  17  ar  
 29  14  32  1   
 30  15  33  1   
 31  16  18  ar  
 32  16  19  1   
 33  17  18  ar  
 34  17  34  1   
 35  18  20  1   
 36  19  35  1   
 37  19  36  1   
 38  19  37  1   
 39  20  38  1   
 40  20  39  1   
 41  20  40  1   
@<TRIPOS>SUBSTRUCTURE
  1 ****   4 GROUP 4 **** **** 0

# MOE 2024.06 (io_trps.svl 2023.06)
