@<TRIPOS>MOLECULE
NONAME
38 39 1 0 0 
SMALL
USER_CHARGES


@<TRIPOS>ATOM
  1 F       -1.9850    -0.8560     0.5330 F     1 <1>  -0.3400 
  2 C       -2.6110     0.1390    -0.0770 C.3   1 <1>   1.1640 
  3 F       -3.9080    -0.0370     0.1500 F     1 <1>  -0.3400 
  4 F       -2.4450    -0.0450    -1.3790 F     1 <1>  -0.3400 
  5 C       -2.1620     1.5480     0.3580 C.ar  1 <1>  -0.1440 
  6 C       -2.7090     2.7090    -0.2080 C.ar  1 <1>  -0.1440 
  7 C       -1.1820     1.6830     1.3380 C.ar  1 <1>  -0.1500 
  8 C       -2.2530     3.9560     0.2020 C.ar  1 <1>  -0.1500 
  9 C       -3.8000     2.6750    -1.2760 C.3   1 <1>   0.4870 
 10 C       -0.7460     2.9300     1.7460 C.ar  1 <1>  -0.1500 
 11 C       -1.2790     4.0670     1.1760 C.ar  1 <1>  -0.1500 
 12 N       -5.0660     3.2230    -0.7110 N.4   1 <1>  -0.9590 
 13 C       -5.5550     2.4320     0.4570 C.3   1 <1>   0.3430 
 14 C       -6.1080     3.3600    -1.7650 C.3   1 <1>   0.3430 
 15 C       -6.7550     3.1360     1.0840 C.3   1 <1>  -0.1600 
 16 C       -7.3240     4.0810    -1.1900 C.3   1 <1>  -0.1600 
 17 C       -7.8820     3.3790     0.0640 C.3   1 <1>  -0.0190 
 18 C       -9.0000     4.2040     0.6940 C.2   1 <1>   0.5690 
 19 O       -8.7750     5.3330     1.0400 O.2   1 <1>  -0.5700 
 20 N      -10.2230     3.6730     0.8670 N.am  1 <1>  -0.8000 
 21 H       -0.7340     0.8180     1.8020 H     1 <1>   0.1500 
 22 H       -2.6410     4.8630    -0.2300 H     1 <1>   0.1500 
 23 H       -3.9640     1.6730    -1.6330 H     1 <1>   0.0800 
 24 H       -3.4840     3.2770    -2.1130 H     1 <1>   0.0800 
 25 H        0.0150     3.0150     2.5050 H     1 <1>   0.1500 
 26 H       -0.9310     5.0370     1.4900 H     1 <1>   0.1500 
 27 H       -4.8520     4.1630    -0.3520 H     1 <1>   0.4500 
 28 H       -4.7750     2.3380     1.1970 H     1 <1>   0.0800 
 29 H       -5.8420     1.4430     0.1380 H     1 <1>   0.0800 
 30 H       -6.4010     2.3850    -2.1200 H     1 <1>   0.0800 
 31 H       -5.7220     3.9240    -2.5990 H     1 <1>   0.0800 
 32 H       -6.4320     4.0730     1.5070 H     1 <1>   0.0800 
 33 H       -7.1310     2.5360     1.8950 H     1 <1>   0.0800 
 34 H       -8.0940     4.1310    -1.9410 H     1 <1>   0.0800 
 35 H       -7.0500     5.0950    -0.9520 H     1 <1>   0.0800 
 36 H       -8.2880     2.4270    -0.2310 H     1 <1>   0.0800 
 37 H      -10.9500     4.2500     1.2970 H     1 <1>   0.3700 
 38 H      -10.5050     2.7290     0.6060 H     1 <1>   0.3700 
@<TRIPOS>BOND
  1   1   2  1   
  2   2   3  1   
  3   2   4  1   
  4   2   5  1   
  5   5   6  ar  
  6   5   7  ar  
  7   6   8  ar  
  8   6   9  1   
  9   7  10  ar  
 10   7  21  1   
 11   8  11  ar  
 12   8  22  1   
 13   9  12  1   
 14   9  23  1   
 15   9  24  1   
 16  10  11  ar  
 17  10  25  1   
 18  11  26  1   
 19  12  13  1   
 20  12  14  1   
 21  12  27  1   
 22  13  15  1   
 23  13  28  1   
 24  13  29  1   
 25  14  16  1   
 26  14  30  1   
 27  14  31  1   
 28  15  17  1   
 29  15  32  1   
 30  15  33  1   
 31  16  17  1   
 32  16  34  1   
 33  16  35  1   
 34  17  18  1   
 35  17  36  1   
 36  18  19  2   
 37  18  20  am  
 38  20  37  1   
 39  20  38  1   
@<TRIPOS>SUBSTRUCTURE
  1 ****  13 GROUP 4 **** **** 0

# MOE 2024.06 (io_trps.svl 2023.06)
