@<TRIPOS>MOLECULE
NONAME
38 39 1 0 0 
SMALL
USER_CHARGES


@<TRIPOS>ATOM
  1 O        0.4460    -0.4890    -0.4320 O.2   1 <1>  -0.5200 
  2 N       -0.1910    -1.3080    -1.1250 N.pl3 1 <1>   0.8360 
  3 O        0.1650    -1.5190    -2.3010 O.2   1 <1>  -0.5200 
  4 C       -1.2000    -2.0850    -0.5450 C.2   1 <1>   0.2190 
  5 C       -0.9430    -3.2940     0.0690 C.2   1 <1>  -0.0380 
  6 C       -2.4960    -1.5150    -0.6450 C.2   1 <1>   0.4950 
  7 N        0.2610    -3.9220     0.2540 N.pl3 1 <1>  -0.8690 
  8 C       -2.1050    -4.0920     0.6570 C.3   1 <1>  -0.0220 
  9 O       -2.7510    -0.4620    -1.1820 O.2   1 <1>  -0.5700 
 10 C       -3.6720    -2.2510    -0.0260 C.3   1 <1>  -0.0990 
 11 C        1.6330    -3.5220    -0.1480 C.3   1 <1>   0.3530 
 12 C       -3.4640    -3.7750    -0.0010 C.3   1 <1>   0.0000 
 13 C        2.5750    -4.6170     0.3170 C.ar  1 <1>  -0.1430 
 14 C       -4.5940    -4.4300     0.8080 C.3   1 <1>  -0.2400 
 15 C       -3.5080    -4.3420    -1.4330 C.3   1 <1>  -0.2400 
 16 C        3.1690    -4.5450     1.5680 C.ar  1 <1>  -0.1500 
 17 C        2.8410    -5.7040    -0.5020 C.ar  1 <1>  -0.1500 
 18 C        4.0240    -5.5470     1.9940 C.ar  1 <1>  -0.1500 
 19 C        3.6960    -6.7060    -0.0770 C.ar  1 <1>  -0.1500 
 20 C        4.2880    -6.6280     1.1710 C.ar  1 <1>  -0.1500 
 21 H        0.3070    -4.8290     0.7410 H     1 <1>   0.4000 
 22 H       -2.1510    -3.8810     1.7120 H     1 <1>   0.0800 
 23 H       -1.9100    -5.1460     0.5520 H     1 <1>   0.0800 
 24 H       -4.5650    -2.0130    -0.5780 H     1 <1>   0.0800 
 25 H       -3.8010    -1.8780     0.9740 H     1 <1>   0.0800 
 26 H        1.8970    -2.5850     0.3140 H     1 <1>   0.0800 
 27 H        1.6900    -3.4150    -1.2180 H     1 <1>   0.0800 
 28 H       -4.6070    -4.0620     1.8190 H     1 <1>   0.0800 
 29 H       -4.4670    -5.4980     0.8410 H     1 <1>   0.0800 
 30 H       -5.5510    -4.2200     0.3620 H     1 <1>   0.0800 
 31 H       -2.7250    -3.9370    -2.0500 H     1 <1>   0.0800 
 32 H       -4.4500    -4.1160    -1.9010 H     1 <1>   0.0800 
 33 H       -3.3920    -5.4110    -1.4180 H     1 <1>   0.0800 
 34 H        2.9680    -3.7090     2.2160 H     1 <1>   0.1500 
 35 H        2.3830    -5.7740    -1.4740 H     1 <1>   0.1500 
 36 H        4.4850    -5.4860     2.9650 H     1 <1>   0.1500 
 37 H        3.9000    -7.5470    -0.7170 H     1 <1>   0.1500 
 38 H        4.9530    -7.4070     1.5020 H     1 <1>   0.1500 
@<TRIPOS>BOND
  1   1   2  2   
  2   2   3  2   
  3   2   4  1   
  4   4   5  2   
  5   4   6  1   
  6   5   7  1   
  7   5   8  1   
  8   6   9  2   
  9   6  10  1   
 10   7  11  1   
 11   7  21  1   
 12   8  12  1   
 13   8  22  1   
 14   8  23  1   
 15  10  12  1   
 16  10  24  1   
 17  10  25  1   
 18  11  13  1   
 19  11  26  1   
 20  11  27  1   
 21  12  14  1   
 22  12  15  1   
 23  13  16  ar  
 24  13  17  ar  
 25  14  28  1   
 26  14  29  1   
 27  14  30  1   
 28  15  31  1   
 29  15  32  1   
 30  15  33  1   
 31  16  18  ar  
 32  16  34  1   
 33  17  19  ar  
 34  17  35  1   
 35  18  20  ar  
 36  18  36  1   
 37  19  20  ar  
 38  19  37  1   
 39  20  38  1   
@<TRIPOS>SUBSTRUCTURE
  1 ****   7 GROUP 4 **** **** 0

# MOE 2024.06 (io_trps.svl 2023.06)
