@<TRIPOS>MOLECULE
NONAME
42 44 1 0 0 
SMALL
USER_CHARGES


@<TRIPOS>ATOM
  1 CL      -3.9630    -3.9290     2.2070 Cl    1 <1>  -0.1770 
  2 C       -2.3850    -3.5030     1.5770 C.ar  1 <1>   0.1770 
  3 C       -2.2980    -2.7450     0.4070 C.ar  1 <1>   0.1170 
  4 C       -1.2640    -3.9390     2.2610 C.ar  1 <1>  -0.1500 
  5 N       -3.4720    -2.3230    -0.2380 N.am  1 <1>  -0.5470 
  6 C       -1.0280    -2.4300    -0.0670 C.ar  1 <1>  -0.1500 
  7 C       -0.0070    -3.6170     1.7750 C.ar  1 <1>  -0.1500 
  8 C       -3.7390    -1.9430    -1.5210 C.2   1 <1>   0.5690 
  9 C        0.0920    -2.8660     0.6160 C.ar  1 <1>   0.1770 
 10 O       -2.9020    -1.8520    -2.3870 O.2   1 <1>  -0.5700 
 11 C       -5.2020    -1.6340    -1.8470 C.3   1 <1>   0.1710 
 12 CL       1.6760    -2.4610     0.0070 Cl    1 <1>  -0.1770 
 13 N       -6.1650    -2.2180    -0.8660 N.3   1 <1>  -0.8100 
 14 C       -7.4920    -1.5640    -0.9720 C.3   1 <1>   0.1100 
 15 C       -6.3220    -3.6830    -1.0650 C.3   1 <1>   0.1100 
 16 C       -8.5130    -2.1490     0.0230 C.3   1 <1>   0.2090 
 17 C       -7.3180    -4.3040    -0.0660 C.3   1 <1>   0.2090 
 18 N       -8.6420    -3.6270    -0.1480 N.pl3 1 <1>  -0.8380 
 19 C       -9.7030    -4.2640     0.4650 C.ar  1 <1>   0.4100 
 20 N      -10.1720    -3.7340     1.5900 N.ar  1 <1>  -0.6200 
 21 C      -10.2260    -5.4230    -0.1050 C.ar  1 <1>  -0.1500 
 22 C      -11.1780    -4.3780     2.1580 C.ar  1 <1>   0.1600 
 23 C      -11.2720    -6.0830     0.4960 C.ar  1 <1>  -0.1500 
 24 C      -11.7560    -5.5350     1.6660 C.ar  1 <1>  -0.1500 
 25 H       -1.3750    -4.5210     3.1580 H     1 <1>   0.1500 
 26 H       -4.3430    -2.4130     0.3040 H     1 <1>   0.3700 
 27 H       -0.9020    -1.8460    -0.9600 H     1 <1>   0.1500 
 28 H        0.8850    -3.9410     2.2820 H     1 <1>   0.1500 
 29 H       -5.4230    -1.9870    -2.8390 H     1 <1>   0.0800 
 30 H       -5.3020    -0.5630    -1.8480 H     1 <1>   0.0800 
 31 H       -7.8810    -1.6820    -1.9690 H     1 <1>   0.0800 
 32 H       -7.3880    -0.5120    -0.7740 H     1 <1>   0.0800 
 33 H       -5.3710    -4.1730    -0.9480 H     1 <1>   0.0800 
 34 H       -6.6760    -3.8800    -2.0630 H     1 <1>   0.0800 
 35 H       -9.4730    -1.6890    -0.1320 H     1 <1>   0.0800 
 36 H       -8.1970    -1.9320     1.0290 H     1 <1>   0.0800 
 37 H       -6.9300    -4.2050     0.9340 H     1 <1>   0.0800 
 38 H       -7.4310    -5.3520    -0.2780 H     1 <1>   0.0800 
 39 H       -9.8010    -5.7820    -1.0210 H     1 <1>   0.1500 
 40 H      -11.5640    -3.9580     3.0710 H     1 <1>   0.1500 
 41 H      -11.6940    -6.9790     0.0750 H     1 <1>   0.1500 
 42 H      -12.5720    -5.9980     2.1900 H     1 <1>   0.1500 
@<TRIPOS>BOND
  1   1   2  1   
  2   2   3  ar  
  3   2   4  ar  
  4   3   5  1   
  5   3   6  ar  
  6   4   7  ar  
  7   4  25  1   
  8   5   8  am  
  9   5  26  1   
 10   6   9  ar  
 11   6  27  1   
 12   7   9  ar  
 13   7  28  1   
 14   8  10  2   
 15   8  11  1   
 16   9  12  1   
 17  11  13  1   
 18  11  29  1   
 19  11  30  1   
 20  13  14  1   
 21  13  15  1   
 22  14  16  1   
 23  14  31  1   
 24  14  32  1   
 25  15  17  1   
 26  15  33  1   
 27  15  34  1   
 28  16  18  1   
 29  16  35  1   
 30  16  36  1   
 31  17  18  1   
 32  17  37  1   
 33  17  38  1   
 34  18  19  1   
 35  19  20  ar  
 36  19  21  ar  
 37  20  22  ar  
 38  21  23  ar  
 39  21  39  1   
 40  22  24  ar  
 41  22  40  1   
 42  23  24  ar  
 43  23  41  1   
 44  24  42  1   
@<TRIPOS>SUBSTRUCTURE
  1 ****  15 GROUP 4 **** **** 0

# MOE 2024.06 (io_trps.svl 2023.06)
