@<TRIPOS>MOLECULE
NONAME
33 35 1 0 0 
SMALL
USER_CHARGES


@<TRIPOS>ATOM
  1 O        0.1820     0.8020    -0.9660 O.2   1 <1>  -0.5700 
  2 C        0.0510     1.9130    -0.4910 C.2   1 <1>   0.5440 
  3 N        1.1710     2.6360    -0.1930 N.am  1 <1>  -0.7300 
  4 C       -1.2700     2.4590    -0.2260 C.ar  1 <1>   0.0860 
  5 C        2.5630     2.1910    -0.4010 C.3   1 <1>   0.2200 
  6 C       -2.3460     1.6180     0.0600 C.ar  1 <1>  -0.1500 
  7 C       -1.5190     3.8330    -0.2430 C.ar  1 <1>  -0.1500 
  8 C        3.3040     2.1370     0.9470 C.3   1 <1>  -0.0800 
  9 C        3.3490     3.2630    -1.1770 C.3   1 <1>  -0.1600 
 10 C       -3.6070     2.1210     0.3300 C.ar  1 <1>  -0.1500 
 11 C       -2.7770     4.3430     0.0270 C.ar  1 <1>  -0.1500 
 12 C        3.7350     3.5850     1.1420 C.3   1 <1>  -0.1600 
 13 C        4.6610     1.4520     0.7130 C.3   1 <1>  -0.1600 
 14 C        4.4580     3.6760    -0.1910 C.3   1 <1>  -0.0800 
 15 C       -3.8240     3.4860     0.3150 C.ar  1 <1>  -0.1500 
 16 C        5.4540     2.5110    -0.0740 C.3   1 <1>  -0.1600 
 17 H        1.0790     3.5080     0.3230 H     1 <1>   0.3700 
 18 H        2.5880     1.2380    -0.9040 H     1 <1>   0.0800 
 19 H       -2.1840     0.5540     0.0700 H     1 <1>   0.1500 
 20 H       -0.7220     4.5140    -0.4790 H     1 <1>   0.1500 
 21 H        2.7300     1.6980     1.7440 H     1 <1>   0.0800 
 22 H        2.7260     4.1060    -1.4200 H     1 <1>   0.0800 
 23 H        3.7610     2.8590    -2.0840 H     1 <1>   0.0800 
 24 H       -4.4180     1.4480     0.5490 H     1 <1>   0.1500 
 25 H       -2.9450     5.4060     0.0090 H     1 <1>   0.1500 
 26 H        4.3950     3.7120     1.9840 H     1 <1>   0.0800 
 27 H        2.9080     4.2700     1.2170 H     1 <1>   0.0800 
 28 H        4.5570     0.5320     0.1630 H     1 <1>   0.0800 
 29 H        5.1440     1.2480     1.6540 H     1 <1>   0.0800 
 30 H        4.9140     4.6270    -0.4090 H     1 <1>   0.0800 
 31 H       -4.8040     3.8800     0.5250 H     1 <1>   0.1500 
 32 H        5.7670     2.1480    -1.0380 H     1 <1>   0.0800 
 33 H        6.3220     2.8160     0.4850 H     1 <1>   0.0800 
@<TRIPOS>BOND
  1   1   2  2   
  2   2   3  am  
  3   2   4  1   
  4   3   5  1   
  5   3  17  1   
  6   4   6  ar  
  7   4   7  ar  
  8   5   8  1   
  9   5   9  1   
 10   5  18  1   
 11   6  10  ar  
 12   6  19  1   
 13   7  11  ar  
 14   7  20  1   
 15   8  12  1   
 16   8  13  1   
 17   8  21  1   
 18   9  14  1   
 19   9  22  1   
 20   9  23  1   
 21  10  15  ar  
 22  10  24  1   
 23  11  15  ar  
 24  11  25  1   
 25  12  14  1   
 26  12  26  1   
 27  12  27  1   
 28  13  16  1   
 29  13  28  1   
 30  13  29  1   
 31  14  16  1   
 32  14  30  1   
 33  15  31  1   
 34  16  32  1   
 35  16  33  1   
@<TRIPOS>SUBSTRUCTURE
  1 ****   3 GROUP 4 **** **** 0

# MOE 2024.06 (io_trps.svl 2023.06)
