@<TRIPOS>MOLECULE
NONAME
36 36 1 0 0 
SMALL
USER_CHARGES


@<TRIPOS>ATOM
  1 I        0.6870     0.6180     2.5460 I     1 <1>  -0.0810 
  2 C        2.0070     1.4110     1.0630 C.ar  1 <1>   0.0810 
  3 C        1.8200     2.6950     0.5640 C.ar  1 <1>   0.0830 
  4 C        3.0330     0.5860     0.6370 C.ar  1 <1>  -0.1500 
  5 O        0.7730     3.4450     0.9910 O.3   1 <1>  -0.3630 
  6 C        2.7350     3.1660    -0.3840 C.ar  1 <1>   0.0830 
  7 C        3.9180     1.0550    -0.3230 C.ar  1 <1>  -0.1440 
  8 C       -0.3210     3.5310     0.1030 C.3   1 <1>   0.0400 
  9 O        2.7070     4.4130    -0.9220 O.3   1 <1>  -0.3630 
 10 C        3.7560     2.3390    -0.8280 C.ar  1 <1>  -0.1500 
 11 C        5.0590     0.1880    -0.8060 C.3   1 <1>   0.4860 
 12 C        2.5420     5.5250    -0.0680 C.3   1 <1>   0.1200 
 13 N        6.2240     0.5250     0.0380 N.4   1 <1>  -0.9060 
 14 C        3.1500     6.7420    -0.7570 C.3   1 <1>  -0.2400 
 15 C        7.4420    -0.2590    -0.3170 C.3   1 <1>   0.3430 
 16 C        8.6350     0.1050     0.5750 C.3   1 <1>   0.1200 
 17 O        9.6970    -0.6850     0.1810 O.3   1 <1>  -0.6800 
 18 H        3.1190    -0.4040     1.0540 H     1 <1>   0.1500 
 19 H       -1.0700     4.1580     0.5510 H     1 <1>   0.0800 
 20 H       -0.7170     2.5440    -0.0580 H     1 <1>   0.0800 
 21 H        0.0110     3.9580    -0.8270 H     1 <1>   0.0800 
 22 H        4.4210     2.7320    -1.5790 H     1 <1>   0.1500 
 23 H        5.2670     0.3960    -1.8430 H     1 <1>   0.0800 
 24 H        4.8020    -0.8540    -0.7020 H     1 <1>   0.0800 
 25 H        3.0390     5.3250     0.8660 H     1 <1>   0.0800 
 26 H        1.4910     5.6760     0.1040 H     1 <1>   0.0800 
 27 H        5.9580     0.3680     1.0170 H     1 <1>   0.4500 
 28 H        6.3960     1.5340    -0.0570 H     1 <1>   0.4500 
 29 H        4.1980     6.5850    -0.9350 H     1 <1>   0.0800 
 30 H        3.0340     7.6080    -0.1310 H     1 <1>   0.0800 
 31 H        2.6500     6.9260    -1.6910 H     1 <1>   0.0800 
 32 H        7.7120    -0.0700    -1.3440 H     1 <1>   0.0800 
 33 H        7.2410    -1.3130    -0.2050 H     1 <1>   0.0800 
 34 H        8.4300    -0.1060     1.6110 H     1 <1>   0.0800 
 35 H        8.9200     1.1360     0.4470 H     1 <1>   0.0800 
 36 H       10.5060    -0.5060     0.7110 H     1 <1>   0.4000 
@<TRIPOS>BOND
  1   1   2  1   
  2   2   3  ar  
  3   2   4  ar  
  4   3   5  1   
  5   3   6  ar  
  6   4   7  ar  
  7   4  18  1   
  8   5   8  1   
  9   6   9  1   
 10   6  10  ar  
 11   7  10  ar  
 12   7  11  1   
 13   8  19  1   
 14   8  20  1   
 15   8  21  1   
 16   9  12  1   
 17  10  22  1   
 18  11  13  1   
 19  11  23  1   
 20  11  24  1   
 21  12  14  1   
 22  12  25  1   
 23  12  26  1   
 24  13  15  1   
 25  13  27  1   
 26  13  28  1   
 27  14  29  1   
 28  14  30  1   
 29  14  31  1   
 30  15  16  1   
 31  15  32  1   
 32  15  33  1   
 33  16  17  1   
 34  16  34  1   
 35  16  35  1   
 36  17  36  1   
@<TRIPOS>SUBSTRUCTURE
  1 ****  10 GROUP 4 **** **** 0

# MOE 2024.06 (io_trps.svl 2023.06)
