@<TRIPOS>MOLECULE
NONAME
34 36 1 0 0 
SMALL
USER_CHARGES


@<TRIPOS>ATOM
  1 CL       1.0450    -2.8360     1.2070 Cl    1 <1>  -0.1770 
  2 C       -0.4950    -3.0000     0.4030 C.ar  1 <1>   0.1770 
  3 C       -1.6570    -2.8080     1.1200 C.ar  1 <1>  -0.1500 
  4 C       -0.5180    -3.3220    -0.9460 C.ar  1 <1>  -0.1500 
  5 C       -2.8930    -2.9370     0.4870 C.ar  1 <1>   0.0280 
  6 C       -1.7360    -3.4530    -1.5850 C.ar  1 <1>  -0.1500 
  7 C       -2.9140    -3.2610    -0.8740 C.ar  1 <1>   0.0830 
  8 C       -4.1400    -2.7570     1.1460 C.2   1 <1>  -0.1780 
  9 O       -4.0940    -3.3920    -1.5110 O.3   1 <1>  -0.2320 
 10 C       -5.3250    -2.8930     0.4830 C.2   1 <1>   0.0290 
 11 C       -5.2840    -3.2290    -0.9210 C.2   1 <1>   0.7060 
 12 C       -6.5950    -2.7100     1.1550 C.2   1 <1>   0.6160 
 13 O       -6.2570    -3.3820    -1.6350 O.2   1 <1>  -0.5700 
 14 O       -6.6110    -2.4270     2.3380 O.2   1 <1>  -0.5700 
 15 N       -7.7940    -2.8390     0.5220 N.am  1 <1>  -0.7300 
 16 C       -9.1340    -2.6740     1.1070 C.3   1 <1>   0.2200 
 17 C       -9.9330    -3.9470     0.8570 C.3   1 <1>  -0.1600 
 18 C       -9.8900    -1.6250     0.3030 C.3   1 <1>  -0.1600 
 19 C      -10.4360    -3.8440    -0.5880 C.3   1 <1>  -0.1600 
 20 C      -10.4090    -2.3520    -0.9440 C.3   1 <1>  -0.1600 
 21 H       -1.6050    -2.5600     2.1650 H     1 <1>   0.1500 
 22 H        0.4070    -3.4650    -1.4750 H     1 <1>   0.1500 
 23 H       -1.7810    -3.7020    -2.6310 H     1 <1>   0.1500 
 24 H       -4.1120    -2.5070     2.1950 H     1 <1>   0.1500 
 25 H       -7.7960    -3.0780    -0.4780 H     1 <1>   0.3700 
 26 H       -9.0720    -2.4250     2.1550 H     1 <1>   0.0800 
 27 H      -10.7790    -3.9540     1.5220 H     1 <1>   0.0800 
 28 H       -9.3500    -4.8340     1.0340 H     1 <1>   0.0800 
 29 H       -9.2750    -0.7750     0.0640 H     1 <1>   0.0800 
 30 H      -10.7300    -1.2890     0.8860 H     1 <1>   0.0800 
 31 H      -11.4270    -4.2540    -0.6800 H     1 <1>   0.0800 
 32 H       -9.7740    -4.3840    -1.2440 H     1 <1>   0.0800 
 33 H       -9.7340    -2.1910    -1.7680 H     1 <1>   0.0800 
 34 H      -11.3860    -1.9940    -1.2200 H     1 <1>   0.0800 
@<TRIPOS>BOND
  1   1   2  1   
  2   2   3  ar  
  3   2   4  ar  
  4   3   5  ar  
  5   3  21  1   
  6   4   6  ar  
  7   4  22  1   
  8   5   7  ar  
  9   5   8  1   
 10   6   7  ar  
 11   6  23  1   
 12   7   9  1   
 13   8  10  2   
 14   8  24  1   
 15   9  11  1   
 16  10  11  1   
 17  10  12  1   
 18  11  13  2   
 19  12  14  2   
 20  12  15  am  
 21  15  16  1   
 22  15  25  1   
 23  16  17  1   
 24  16  18  1   
 25  16  26  1   
 26  17  19  1   
 27  17  27  1   
 28  17  28  1   
 29  18  20  1   
 30  18  29  1   
 31  18  30  1   
 32  19  20  1   
 33  19  31  1   
 34  19  32  1   
 35  20  33  1   
 36  20  34  1   
@<TRIPOS>SUBSTRUCTURE
  1 ****  10 GROUP 4 **** **** 0

# MOE 2024.06 (io_trps.svl 2023.06)
