@<TRIPOS>MOLECULE
NONAME
39 40 1 0 0 
SMALL
USER_CHARGES


@<TRIPOS>ATOM
  1 O        0.2990     1.6090    -2.6210 O.2   1 <1>  -0.5700 
  2 C        0.4380     2.0710    -1.5120 C.2   1 <1>   0.5690 
  3 N       -0.4220     1.7730    -0.5020 N.am  1 <1>  -0.7300 
  4 C        1.6200     3.0110    -1.2380 C.3   1 <1>   0.2610 
  5 C       -1.5890     0.8830    -0.5840 C.3   1 <1>   0.2200 
  6 O        1.9020     3.0580     0.1560 O.3   1 <1>  -0.3630 
  7 C        1.3440     4.4460    -1.6990 C.3   1 <1>  -0.2400 
  8 C       -2.7650     1.5570     0.1120 C.3   1 <1>  -0.1600 
  9 C       -1.3310    -0.3450     0.2780 C.3   1 <1>  -0.1600 
 10 C        3.1780     2.8170     0.5230 C.ar  1 <1>   0.0820 
 11 C       -2.5700     1.2950     1.6110 C.3   1 <1>  -0.1600 
 12 C       -1.6220     0.0930     1.7180 C.3   1 <1>  -0.1600 
 13 C        3.6640     1.5150     0.6270 C.ar  1 <1>  -0.1440 
 14 C        3.9950     3.9000     0.8060 C.ar  1 <1>  -0.1500 
 15 C        4.9870     1.3240     0.9940 C.ar  1 <1>  -0.1500 
 16 C        2.7770     0.3070     0.3570 C.3   1 <1>  -0.0970 
 17 C        5.3120     3.6950     1.1740 C.ar  1 <1>  -0.1500 
 18 C        5.8080     2.4060     1.2640 C.ar  1 <1>  -0.1500 
 19 H       -0.2170     2.1410     0.4290 H     1 <1>   0.3700 
 20 H        2.4830     2.6240    -1.7520 H     1 <1>   0.0800 
 21 H       -1.8050     0.6300    -1.6100 H     1 <1>   0.0800 
 22 H        0.4950     4.8470    -1.1750 H     1 <1>   0.0800 
 23 H        1.1280     4.4490    -2.7520 H     1 <1>   0.0800 
 24 H        2.2050     5.0640    -1.5240 H     1 <1>   0.0800 
 25 H       -3.6710     1.0760    -0.2110 H     1 <1>   0.0800 
 26 H       -2.8310     2.6050    -0.1230 H     1 <1>   0.0800 
 27 H       -0.3350    -0.7310     0.1500 H     1 <1>   0.0800 
 28 H       -2.0330    -1.1100    -0.0030 H     1 <1>   0.0800 
 29 H       -3.5140     1.0940     2.0890 H     1 <1>   0.0800 
 30 H       -2.1210     2.1540     2.0810 H     1 <1>   0.0800 
 31 H       -0.7070     0.3970     2.1970 H     1 <1>   0.0800 
 32 H       -2.0610    -0.7100     2.2850 H     1 <1>   0.0800 
 33 H        3.5970     4.8950     0.7370 H     1 <1>   0.1500 
 34 H        5.3880     0.3290     1.0750 H     1 <1>   0.1500 
 35 H        2.6110     0.1980    -0.6990 H     1 <1>   0.0800 
 36 H        1.8300     0.4300     0.8500 H     1 <1>   0.0800 
 37 H        3.2330    -0.5930     0.7270 H     1 <1>   0.0800 
 38 H        5.9490     4.5350     1.3910 H     1 <1>   0.1500 
 39 H        6.8330     2.2440     1.5490 H     1 <1>   0.1500 
@<TRIPOS>BOND
  1   1   2  2   
  2   2   3  am  
  3   2   4  1   
  4   3   5  1   
  5   3  19  1   
  6   4   6  1   
  7   4   7  1   
  8   4  20  1   
  9   5   8  1   
 10   5   9  1   
 11   5  21  1   
 12   6  10  1   
 13   7  22  1   
 14   7  23  1   
 15   7  24  1   
 16   8  11  1   
 17   8  25  1   
 18   8  26  1   
 19   9  12  1   
 20   9  27  1   
 21   9  28  1   
 22  10  13  ar  
 23  10  14  ar  
 24  11  12  1   
 25  11  29  1   
 26  11  30  1   
 27  12  31  1   
 28  12  32  1   
 29  13  15  ar  
 30  13  16  1   
 31  14  17  ar  
 32  14  33  1   
 33  15  18  ar  
 34  15  34  1   
 35  16  35  1   
 36  16  36  1   
 37  16  37  1   
 38  17  18  ar  
 39  17  38  1   
 40  18  39  1   
@<TRIPOS>SUBSTRUCTURE
  1 ****   6 GROUP 4 **** **** 0

# MOE 2024.06 (io_trps.svl 2023.06)
