@<TRIPOS>MOLECULE
NONAME
32 32 1 0 0 
SMALL
USER_CHARGES


@<TRIPOS>ATOM
  1 BR      -0.6600    -0.0900     0.2550 Br    1 <1>  -0.1110 
  2 C       -0.5840     1.8190    -0.0080 C.ar  1 <1>   0.1110 
  3 C       -1.6960     2.5100    -0.4700 C.ar  1 <1>  -0.1440 
  4 C        0.6140     2.4480     0.2760 C.ar  1 <1>  -0.1500 
  5 C       -1.5760     3.8810    -0.6520 C.ar  1 <1>  -0.1500 
  6 C       -3.0110     1.8060    -0.7780 C.3   1 <1>   0.2540 
  7 C        0.7130     3.8160     0.0900 C.ar  1 <1>  -0.1500 
  8 C       -0.3820     4.5280    -0.3740 C.ar  1 <1>  -0.1500 
  9 N       -3.7480     1.4850     0.4600 N.3   1 <1>  -0.8100 
 10 C       -4.8910     0.5680     0.1860 C.3   1 <1>   0.1710 
 11 C       -4.1710     2.6850     1.1970 C.3   1 <1>   0.0300 
 12 C       -5.9820     1.1040    -0.7490 C.2   1 <1>   0.6590 
 13 O       -5.9430     0.9220    -1.9410 O.2   1 <1>  -0.5700 
 14 O       -6.9690     1.7820    -0.1740 O.3   1 <1>  -0.4300 
 15 C       -8.0200     2.3330    -0.9310 C.3   1 <1>   0.1200 
 16 C       -8.9590     3.0630     0.0240 C.3   1 <1>  -0.2400 
 17 H        1.4500     1.8760     0.6340 H     1 <1>   0.1500 
 18 H       -2.4150     4.4520    -1.0090 H     1 <1>   0.1500 
 19 H       -2.8010     0.8980    -1.3170 H     1 <1>   0.0800 
 20 H       -3.6170     2.4270    -1.4150 H     1 <1>   0.0800 
 21 H        1.6360     4.3250     0.3050 H     1 <1>   0.1500 
 22 H       -0.3040     5.5920    -0.5180 H     1 <1>   0.1500 
 23 H       -5.3510     0.3000     1.1200 H     1 <1>   0.0800 
 24 H       -4.5040    -0.3370    -0.2460 H     1 <1>   0.0800 
 25 H       -3.3070     3.2430     1.5180 H     1 <1>   0.0800 
 26 H       -4.7270     2.4010     2.0730 H     1 <1>   0.0800 
 27 H       -4.7860     3.3170     0.5790 H     1 <1>   0.0800 
 28 H       -8.5300     1.5330    -1.4410 H     1 <1>   0.0800 
 29 H       -7.6000     3.0120    -1.6550 H     1 <1>   0.0800 
 30 H       -9.3630     2.3740     0.7450 H     1 <1>   0.0800 
 31 H       -9.7730     3.4960    -0.5280 H     1 <1>   0.0800 
 32 H       -8.4330     3.8500     0.5330 H     1 <1>   0.0800 
@<TRIPOS>BOND
  1   1   2  1   
  2   2   3  ar  
  3   2   4  ar  
  4   3   5  ar  
  5   3   6  1   
  6   4   7  ar  
  7   4  17  1   
  8   5   8  ar  
  9   5  18  1   
 10   6   9  1   
 11   6  19  1   
 12   6  20  1   
 13   7   8  ar  
 14   7  21  1   
 15   8  22  1   
 16   9  10  1   
 17   9  11  1   
 18  10  12  1   
 19  10  23  1   
 20  10  24  1   
 21  11  25  1   
 22  11  26  1   
 23  11  27  1   
 24  12  13  2   
 25  12  14  1   
 26  14  15  1   
 27  15  16  1   
 28  15  28  1   
 29  15  29  1   
 30  16  30  1   
 31  16  31  1   
 32  16  32  1   
@<TRIPOS>SUBSTRUCTURE
  1 ****   6 GROUP 4 **** **** 0

# MOE 2024.06 (io_trps.svl 2023.06)
