@<TRIPOS>MOLECULE
NONAME
43 45 1 0 0 
SMALL
USER_CHARGES


@<TRIPOS>ATOM
  1 F       -0.2830    -2.8240    -2.5010 F     1 <1>  -0.1900 
  2 C       -1.1850    -2.3230    -1.6880 C.ar  1 <1>   0.1900 
  3 C       -0.9810    -2.3950    -0.3040 C.ar  1 <1>   0.1000 
  4 C       -2.3040    -1.7440    -2.2530 C.ar  1 <1>  -0.1500 
  5 N        0.1410    -2.9740     0.3060 N.pl3 1 <1>  -0.8380 
  6 C       -1.9700    -1.8480     0.5040 C.ar  1 <1>  -0.1500 
  7 C       -3.2710    -1.2080    -1.4180 C.ar  1 <1>  -0.1500 
  8 C        1.4240    -2.2390     0.0910 C.3   1 <1>   0.2090 
  9 C        0.2550    -4.4540     0.1400 C.3   1 <1>   0.2090 
 10 C       -3.1000    -1.2620    -0.0430 C.ar  1 <1>  -0.1500 
 11 C        2.5530    -2.8260     0.9630 C.3   1 <1>   0.3430 
 12 C        1.3930    -5.0250     1.0130 C.3   1 <1>   0.3430 
 13 N        2.7060    -4.3190     0.7840 N.4   1 <1>  -0.9590 
 14 C        3.7870    -4.8700     1.6440 C.3   1 <1>   0.4860 
 15 C        5.1050    -4.2360     1.2400 C.ar  1 <1>  -0.1430 
 16 C        5.7440    -4.6210     0.0690 C.ar  1 <1>  -0.1500 
 17 C        5.6820    -3.2620     2.0400 C.ar  1 <1>  -0.1500 
 18 C        6.9440    -4.0350    -0.3230 C.ar  1 <1>  -0.1430 
 19 C        6.8750    -2.6730     1.6650 C.ar  1 <1>  -0.1500 
 20 C        7.5010    -3.0550     0.4930 C.ar  1 <1>  -0.1500 
 21 C        7.6320    -4.4780    -1.6270 C.3   1 <1>   1.1630 
 22 F        8.2190    -5.6590    -1.4980 F     1 <1>  -0.3400 
 23 F        8.5630    -3.6330    -2.0500 F     1 <1>  -0.3400 
 24 F        6.7590    -4.6010    -2.6200 F     1 <1>  -0.3400 
 25 H       -2.4180    -1.7130    -3.3210 H     1 <1>   0.1500 
 26 H       -1.8480    -1.8840     1.5710 H     1 <1>   0.1500 
 27 H       -4.1530    -0.7520    -1.8350 H     1 <1>   0.1500 
 28 H        1.2820    -1.2020     0.3440 H     1 <1>   0.0800 
 29 H        1.7060    -2.2880    -0.9470 H     1 <1>   0.0800 
 30 H        0.4360    -4.6940    -0.8940 H     1 <1>   0.0800 
 31 H       -0.6770    -4.9120     0.4250 H     1 <1>   0.0800 
 32 H       -3.8530    -0.8450     0.6040 H     1 <1>   0.1500 
 33 H        2.3260    -2.6070     1.9930 H     1 <1>   0.0800 
 34 H        3.4760    -2.3280     0.7150 H     1 <1>   0.0800 
 35 H        1.4970    -6.0770     0.8050 H     1 <1>   0.0800 
 36 H        1.1020    -4.9180     2.0450 H     1 <1>   0.0800 
 37 H        2.9860    -4.4690    -0.1940 H     1 <1>   0.4500 
 38 H        3.8540    -5.9390     1.5190 H     1 <1>   0.0800 
 39 H        3.5810    -4.6600     2.6810 H     1 <1>   0.0800 
 40 H        5.3140    -5.3900    -0.5530 H     1 <1>   0.1500 
 41 H        5.2190    -2.9510     2.9620 H     1 <1>   0.1500 
 42 H        7.3240    -1.9170     2.2880 H     1 <1>   0.1500 
 43 H        8.4330    -2.5810     0.2250 H     1 <1>   0.1500 
@<TRIPOS>BOND
  1   1   2  1   
  2   2   3  ar  
  3   2   4  ar  
  4   3   5  1   
  5   3   6  ar  
  6   4   7  ar  
  7   4  25  1   
  8   5   8  1   
  9   5   9  1   
 10   6  10  ar  
 11   6  26  1   
 12   7  10  ar  
 13   7  27  1   
 14   8  11  1   
 15   8  28  1   
 16   8  29  1   
 17   9  12  1   
 18   9  30  1   
 19   9  31  1   
 20  10  32  1   
 21  11  13  1   
 22  11  33  1   
 23  11  34  1   
 24  12  13  1   
 25  12  35  1   
 26  12  36  1   
 27  13  14  1   
 28  13  37  1   
 29  14  15  1   
 30  14  38  1   
 31  14  39  1   
 32  15  16  ar  
 33  15  17  ar  
 34  16  18  ar  
 35  16  40  1   
 36  17  19  ar  
 37  17  41  1   
 38  18  20  ar  
 39  18  21  1   
 40  19  20  ar  
 41  19  42  1   
 42  20  43  1   
 43  21  22  1   
 44  21  23  1   
 45  21  24  1   
@<TRIPOS>SUBSTRUCTURE
  1 ****  11 GROUP 4 **** **** 0

# MOE 2024.06 (io_trps.svl 2023.06)
