@<TRIPOS>MOLECULE
NONAME
47 49 1 0 0 
SMALL
USER_CHARGES


@<TRIPOS>ATOM
  1 S        0.1860    -0.5640    -1.6280 S.o2  1 <1>   1.4470 
  2 O        1.1290    -1.2980    -2.4460 O.2   1 <1>  -0.6500 
  3 O       -0.0290     0.8410    -1.8930 O.2   1 <1>  -0.6500 
  4 N        0.7120    -0.7100    -0.0230 N.am  1 <1>  -0.8490 
  5 C       -1.4200    -1.4130    -1.6340 C.ar  1 <1>  -0.0090 
  6 C        1.7990     0.2280     0.2720 C.3   1 <1>   0.1960 
  7 C        1.0990    -2.0850     0.3100 C.3   1 <1>   0.1960 
  8 C       -2.2860    -1.3250    -0.5520 C.ar  1 <1>  -0.1500 
  9 C       -1.8270    -2.1600    -2.7320 C.ar  1 <1>  -0.1500 
 10 C        2.1400     0.1930     1.7660 C.3   1 <1>  -0.1600 
 11 C        1.3970    -2.2000     1.8080 C.3   1 <1>  -0.1600 
 12 C       -3.5280    -1.9590    -0.5270 C.ar  1 <1>   0.0860 
 13 C       -3.0510    -2.8040    -2.7410 C.ar  1 <1>  -0.1500 
 14 C        2.4990    -1.2230     2.2310 C.3   1 <1>  -0.1600 
 15 C       -4.3980    -1.8430     0.6290 C.2   1 <1>   0.5440 
 16 C       -3.8890    -2.7060    -1.6480 C.ar  1 <1>  -0.1500 
 17 O       -3.9320    -1.7560     1.7470 O.2   1 <1>  -0.5700 
 18 N       -5.7540    -1.8170     0.4720 N.am  1 <1>  -0.7300 
 19 C       -6.7430    -1.6840     1.5550 C.3   1 <1>   0.2200 
 20 C       -7.8090    -2.7570     1.3770 C.3   1 <1>  -0.1600 
 21 C       -7.5140    -0.3860     1.3540 C.3   1 <1>  -0.1600 
 22 C       -8.7750    -2.2170     0.3170 C.3   1 <1>  -0.1600 
 23 C       -8.5820    -0.6940     0.2980 C.3   1 <1>  -0.1600 
 24 H        1.4970     1.2300     0.0130 H     1 <1>   0.0800 
 25 H        2.6680    -0.0230    -0.3150 H     1 <1>   0.0800 
 26 H        1.9690    -2.3720    -0.2590 H     1 <1>   0.0800 
 27 H        0.2980    -2.7610     0.0630 H     1 <1>   0.0800 
 28 H       -1.9910    -0.7450     0.3080 H     1 <1>   0.1500 
 29 H       -1.1770    -2.2390    -3.5880 H     1 <1>   0.1500 
 30 H        1.2900     0.5520     2.3200 H     1 <1>   0.0800 
 31 H        2.9620     0.8590     1.9590 H     1 <1>   0.0800 
 32 H        1.6980    -3.2070     2.0360 H     1 <1>   0.0800 
 33 H        0.4940    -1.9940     2.3570 H     1 <1>   0.0800 
 34 H       -3.3470    -3.3840    -3.6000 H     1 <1>   0.1500 
 35 H        2.6170    -1.2410     3.3010 H     1 <1>   0.0800 
 36 H        3.4330    -1.5200     1.7840 H     1 <1>   0.0800 
 37 H       -4.8330    -3.2230    -1.6590 H     1 <1>   0.1500 
 38 H       -6.1560    -1.7670    -0.4620 H     1 <1>   0.3700 
 39 H       -6.2670    -1.7340     2.5210 H     1 <1>   0.0800 
 40 H       -8.3380    -2.8640     2.3080 H     1 <1>   0.0800 
 41 H       -7.3870    -3.7110     1.1130 H     1 <1>   0.0800 
 42 H       -6.8710     0.4300     1.0740 H     1 <1>   0.0800 
 43 H       -8.0010    -0.1350     2.2800 H     1 <1>   0.0800 
 44 H       -9.7910    -2.4810     0.5560 H     1 <1>   0.0800 
 45 H       -8.5300    -2.6270    -0.6480 H     1 <1>   0.0800 
 46 H       -8.2370    -0.3840    -0.6740 H     1 <1>   0.0800 
 47 H       -9.5000    -0.1780     0.5200 H     1 <1>   0.0800 
@<TRIPOS>BOND
  1   1   2  2   
  2   1   3  2   
  3   1   4  am  
  4   1   5  1   
  5   4   6  1   
  6   4   7  1   
  7   5   8  ar  
  8   5   9  ar  
  9   6  10  1   
 10   6  24  1   
 11   6  25  1   
 12   7  11  1   
 13   7  26  1   
 14   7  27  1   
 15   8  12  ar  
 16   8  28  1   
 17   9  13  ar  
 18   9  29  1   
 19  10  14  1   
 20  10  30  1   
 21  10  31  1   
 22  11  14  1   
 23  11  32  1   
 24  11  33  1   
 25  12  15  1   
 26  12  16  ar  
 27  13  16  ar  
 28  13  34  1   
 29  14  35  1   
 30  14  36  1   
 31  15  17  2   
 32  15  18  am  
 33  16  37  1   
 34  18  19  1   
 35  18  38  1   
 36  19  20  1   
 37  19  21  1   
 38  19  39  1   
 39  20  22  1   
 40  20  40  1   
 41  20  41  1   
 42  21  23  1   
 43  21  42  1   
 44  21  43  1   
 45  22  23  1   
 46  22  44  1   
 47  22  45  1   
 48  23  46  1   
 49  23  47  1   
@<TRIPOS>SUBSTRUCTURE
  1 ****   8 GROUP 4 **** **** 0

# MOE 2024.06 (io_trps.svl 2023.06)
