@<TRIPOS>MOLECULE
NONAME
50 51 1 0 0 
SMALL
USER_CHARGES


@<TRIPOS>ATOM
  1 CL       0.6050    -1.6750     1.2070 Cl    1 <1>  -0.1770 
  2 C        2.1270    -1.5530     0.3540 C.ar  1 <1>   0.1770 
  3 C        2.3170    -2.2230    -0.8490 C.ar  1 <1>   0.0830 
  4 C        3.1240    -0.7780     0.9140 C.ar  1 <1>  -0.1500 
  5 O        1.2950    -2.9700    -1.3420 O.3   1 <1>  -0.3630 
  6 C        3.5470    -2.0950    -1.4860 C.ar  1 <1>  -0.1500 
  7 C        4.3570    -0.6480     0.2860 C.ar  1 <1>  -0.0090 
  8 C        1.3960    -3.6500    -2.5740 C.3   1 <1>   0.0400 
  9 C        4.5460    -1.3190    -0.9190 C.ar  1 <1>  -0.1500 
 10 S        5.6890     0.3320     1.0320 S.o2  1 <1>   1.4470 
 11 O        5.2040     1.0790     2.1700 O.2   1 <1>  -0.6500 
 12 O        6.4440     1.0050    -0.0050 O.2   1 <1>  -0.6500 
 13 N        6.7610    -0.8210     1.6570 N.am  1 <1>  -0.8490 
 14 C        7.8980    -0.1370     2.3250 C.3   1 <1>   0.2570 
 15 C        6.1400    -1.7560     2.6080 C.3   1 <1>   0.1160 
 16 C        9.1880    -0.9690     2.3630 C.2   1 <1>   0.5690 
 17 O        9.5900    -1.3280     3.4440 O.2   1 <1>  -0.5700 
 18 N        9.8780    -1.2890     1.2120 N.am  1 <1>  -0.6600 
 19 C        9.4520    -0.8930    -0.1690 C.3   1 <1>   0.1400 
 20 C       11.1100    -2.1360     1.2640 C.3   1 <1>   0.1400 
 21 C       10.6240    -0.2780    -0.9580 C.3   1 <1>   0.3430 
 22 C       12.2570    -1.4940     0.4630 C.3   1 <1>   0.3430 
 23 N       11.8470    -1.1580    -0.9510 N.4   1 <1>  -0.9590 
 24 C       12.9490    -0.5240    -1.7210 C.3   1 <1>   0.3430 
 25 C       14.0160    -1.5630    -2.0420 C.3   1 <1>  -0.2400 
 26 H        2.9320    -0.2740     1.8460 H     1 <1>   0.1500 
 27 H        3.7460    -2.5910    -2.4180 H     1 <1>   0.1500 
 28 H        0.4620    -4.1530    -2.7520 H     1 <1>   0.0800 
 29 H        2.1920    -4.3710    -2.5130 H     1 <1>   0.0800 
 30 H        1.5790    -2.9350    -3.3550 H     1 <1>   0.0800 
 31 H        5.4930    -1.2300    -1.4230 H     1 <1>   0.1500 
 32 H        7.6240     0.1340     3.3310 H     1 <1>   0.0800 
 33 H        8.1340     0.7800     1.8150 H     1 <1>   0.0800 
 34 H        5.3740    -2.3340     2.1210 H     1 <1>   0.0800 
 35 H        5.7010    -1.2230     3.4360 H     1 <1>   0.0800 
 36 H        6.8780    -2.4420     2.9910 H     1 <1>   0.0800 
 37 H        8.6560    -0.1740    -0.1370 H     1 <1>   0.0800 
 38 H        9.0800    -1.7610    -0.6850 H     1 <1>   0.0800 
 39 H       10.8870    -3.1100     0.8650 H     1 <1>   0.0800 
 40 H       11.4340    -2.2720     2.2810 H     1 <1>   0.0800 
 41 H       10.8640     0.6760    -0.5190 H     1 <1>   0.0800 
 42 H       10.3060    -0.1010    -1.9730 H     1 <1>   0.0800 
 43 H       13.0940    -2.1720     0.4530 H     1 <1>   0.0800 
 44 H       12.5670    -0.5970     0.9740 H     1 <1>   0.0800 
 45 H       11.5990    -2.0390    -1.4210 H     1 <1>   0.4500 
 46 H       13.3780     0.2910    -1.1580 H     1 <1>   0.0800 
 47 H       12.5630    -0.1270    -2.6470 H     1 <1>   0.0800 
 48 H       14.5000    -1.9210    -1.1510 H     1 <1>   0.0800 
 49 H       14.7710    -1.1100    -2.6600 H     1 <1>   0.0800 
 50 H       13.5960    -2.3900    -2.5870 H     1 <1>   0.0800 
@<TRIPOS>BOND
  1   1   2  1   
  2   2   3  ar  
  3   2   4  ar  
  4   3   5  1   
  5   3   6  ar  
  6   4   7  ar  
  7   4  26  1   
  8   5   8  1   
  9   6   9  ar  
 10   6  27  1   
 11   7   9  ar  
 12   7  10  1   
 13   8  28  1   
 14   8  29  1   
 15   8  30  1   
 16   9  31  1   
 17  10  11  2   
 18  10  12  2   
 19  10  13  am  
 20  13  14  1   
 21  13  15  1   
 22  14  16  1   
 23  14  32  1   
 24  14  33  1   
 25  15  34  1   
 26  15  35  1   
 27  15  36  1   
 28  16  17  2   
 29  16  18  am  
 30  18  19  1   
 31  18  20  1   
 32  19  21  1   
 33  19  37  1   
 34  19  38  1   
 35  20  22  1   
 36  20  39  1   
 37  20  40  1   
 38  21  23  1   
 39  21  41  1   
 40  21  42  1   
 41  22  23  1   
 42  22  43  1   
 43  22  44  1   
 44  23  24  1   
 45  23  45  1   
 46  24  25  1   
 47  24  46  1   
 48  24  47  1   
 49  25  48  1   
 50  25  49  1   
 51  25  50  1   
@<TRIPOS>SUBSTRUCTURE
  1 ****  13 GROUP 4 **** **** 0

# MOE 2024.06 (io_trps.svl 2023.06)
