@<TRIPOS>MOLECULE
NONAME
40 41 1 0 0 
SMALL
USER_CHARGES


@<TRIPOS>ATOM
  1 O       -0.9740     4.9050    -1.2960 O.2   1 <1>  -0.5700 
  2 C       -0.5600     4.3080    -0.3300 C.2   1 <1>   0.4950 
  3 C        0.8480     4.1380    -0.1100 C.2   1 <1>  -0.1360 
  4 C       -1.5580     3.7510     0.7240 C.3   1 <1>   0.3410 
  5 C        1.8520     4.4970    -0.9450 C.2   1 <1>  -0.1780 
  6 O       -1.2060     4.2160     2.0200 O.3   1 <1>  -0.4300 
  7 C       -3.0450     4.1220     0.4730 C.3   1 <1>  -0.1600 
  8 C       -1.4470     2.2120     0.8220 C.3   1 <1>  -0.1600 
  9 C        3.2700     4.3540    -0.7370 C.ar  1 <1>   0.0280 
 10 C       -0.7580     5.4230     2.3440 C.2   1 <1>   0.6590 
 11 C       -3.6760     3.3750    -0.7180 C.3   1 <1>  -0.1600 
 12 C       -2.0210     1.4930    -0.4080 C.3   1 <1>  -0.1600 
 13 C        3.8280     4.1960     0.5320 C.ar  1 <1>  -0.1500 
 14 C        4.1400     4.3780    -1.8250 C.ar  1 <1>  -0.1500 
 15 O        0.1560     5.5240     3.1120 O.2   1 <1>  -0.5700 
 16 C       -1.4300     6.6600     1.7920 C.3   1 <1>  -0.1790 
 17 C       -3.4960     1.8590    -0.6010 C.3   1 <1>  -0.1600 
 18 C        5.1940     4.0560     0.7030 C.ar  1 <1>  -0.1500 
 19 C        5.5060     4.2400    -1.6600 C.ar  1 <1>  -0.1500 
 20 C        6.0360     4.0770    -0.3930 C.ar  1 <1>  -0.1500 
 21 H        1.0930     3.6770     0.8280 H     1 <1>   0.1500 
 22 H        1.5920     4.9440    -1.8900 H     1 <1>   0.1500 
 23 H       -3.6140     3.8860     1.3550 H     1 <1>   0.0800 
 24 H       -3.1390     5.1740     0.2830 H     1 <1>   0.0800 
 25 H       -0.4210     1.9170     0.9520 H     1 <1>   0.0800 
 26 H       -1.9910     1.8800     1.6900 H     1 <1>   0.0800 
 27 H       -4.7260     3.6070    -0.7700 H     1 <1>   0.0800 
 28 H       -3.2280     3.7130    -1.6370 H     1 <1>   0.0800 
 29 H       -1.4630     1.7630    -1.2890 H     1 <1>   0.0800 
 30 H       -1.9320     0.4280    -0.2770 H     1 <1>   0.0800 
 31 H        3.1960     4.1910     1.4000 H     1 <1>   0.1500 
 32 H        3.7410     4.5040    -2.8160 H     1 <1>   0.1500 
 33 H       -2.4790     6.6370     2.0200 H     1 <1>   0.0800 
 34 H       -1.2870     6.7350     0.7310 H     1 <1>   0.0800 
 35 H       -1.0010     7.5310     2.2520 H     1 <1>   0.0800 
 36 H       -3.8730     1.3820    -1.4900 H     1 <1>   0.0800 
 37 H       -4.0690     1.4940     0.2350 H     1 <1>   0.0800 
 38 H        5.6020     3.9350     1.6920 H     1 <1>   0.1500 
 39 H        6.1570     4.2590    -2.5160 H     1 <1>   0.1500 
 40 H        7.0990     3.9680    -0.2610 H     1 <1>   0.1500 
@<TRIPOS>BOND
  1   1   2  2   
  2   2   3  1   
  3   2   4  1   
  4   3   5  2   
  5   3  21  1   
  6   4   6  1   
  7   4   7  1   
  8   4   8  1   
  9   5   9  1   
 10   5  22  1   
 11   6  10  1   
 12   7  11  1   
 13   7  23  1   
 14   7  24  1   
 15   8  12  1   
 16   8  25  1   
 17   8  26  1   
 18   9  13  ar  
 19   9  14  ar  
 20  10  15  2   
 21  10  16  1   
 22  11  17  1   
 23  11  27  1   
 24  11  28  1   
 25  12  17  1   
 26  12  29  1   
 27  12  30  1   
 28  13  18  ar  
 29  13  31  1   
 30  14  19  ar  
 31  14  32  1   
 32  16  33  1   
 33  16  34  1   
 34  16  35  1   
 35  17  36  1   
 36  17  37  1   
 37  18  20  ar  
 38  18  38  1   
 39  19  20  ar  
 40  19  39  1   
 41  20  40  1   
@<TRIPOS>SUBSTRUCTURE
  1 ****   3 GROUP 4 **** **** 0

# MOE 2024.06 (io_trps.svl 2023.06)
