@<TRIPOS>MOLECULE
NONAME
34 35 1 0 0 
SMALL
USER_CHARGES


@<TRIPOS>ATOM
  1 CL      -1.2770     0.2510     1.3590 Cl    1 <1>  -0.1770 
  2 C       -1.8240    -1.2430     0.6450 C.ar  1 <1>   0.1770 
  3 C       -2.3360    -2.2340     1.4580 C.ar  1 <1>  -0.1500 
  4 C       -1.7290    -1.3990    -0.7400 C.ar  1 <1>  -0.1500 
  5 C       -2.7550    -3.4000     0.8340 C.ar  1 <1>   0.1400 
  6 C       -2.1540    -2.5730    -1.3370 C.ar  1 <1>  -0.1500 
  7 O       -3.2770    -4.4960     1.3520 O.3   1 <1>  -0.2800 
  8 C       -2.6730    -3.5820    -0.5300 C.ar  1 <1>   0.2270 
  9 C       -3.4820    -5.2710     0.3040 C.2   1 <1>   0.5340 
 10 N       -3.1560    -4.8140    -0.8440 N.2   1 <1>  -0.5650 
 11 S       -4.1930    -6.8760     0.6020 S.3   1 <1>  -0.2860 
 12 C       -4.3000    -7.6020    -1.1080 C.3   1 <1>   0.1310 
 13 C       -4.8910    -9.0050    -1.1020 C.2   1 <1>   0.5690 
 14 O       -5.0040    -9.5660    -2.1640 O.2   1 <1>  -0.5700 
 15 N       -5.2680    -9.5700     0.0790 N.am  1 <1>  -0.7300 
 16 C       -5.8530   -10.8880     0.3360 C.3   1 <1>   0.3000 
 17 C       -6.0680   -10.9800     1.8450 C.3   1 <1>  -0.2400 
 18 C       -4.8810   -11.9800    -0.1130 C.3   1 <1>  -0.2400 
 19 C       -7.1960   -11.0050    -0.3840 C.3   1 <1>  -0.2400 
 20 H       -2.4100    -2.1150     2.5230 H     1 <1>   0.1500 
 21 H       -1.3220    -0.5960    -1.3300 H     1 <1>   0.1500 
 22 H       -2.0950    -2.7260    -2.4000 H     1 <1>   0.1500 
 23 H       -3.3040    -7.6230    -1.5080 H     1 <1>   0.0800 
 24 H       -4.9130    -6.9450    -1.6950 H     1 <1>   0.0800 
 25 H       -5.1330    -9.0160     0.9250 H     1 <1>   0.3700 
 26 H       -5.1320   -10.8860     2.3670 H     1 <1>   0.0800 
 27 H       -6.4980   -11.9320     2.0980 H     1 <1>   0.0800 
 28 H       -6.7400   -10.2090     2.1790 H     1 <1>   0.0800 
 29 H       -3.9280   -11.8570     0.3680 H     1 <1>   0.0800 
 30 H       -4.7420   -11.9480    -1.1790 H     1 <1>   0.0800 
 31 H       -5.2710   -12.9480     0.1400 H     1 <1>   0.0800 
 32 H       -7.8520   -10.2050    -0.0910 H     1 <1>   0.0800 
 33 H       -7.6670   -11.9390    -0.1400 H     1 <1>   0.0800 
 34 H       -7.0590   -10.9720    -1.4490 H     1 <1>   0.0800 
@<TRIPOS>BOND
  1   1   2  1   
  2   2   3  ar  
  3   2   4  ar  
  4   3   5  ar  
  5   3  20  1   
  6   4   6  ar  
  7   4  21  1   
  8   5   7  1   
  9   5   8  ar  
 10   6   8  ar  
 11   6  22  1   
 12   7   9  1   
 13   8  10  1   
 14   9  10  2   
 15   9  11  1   
 16  11  12  1   
 17  12  13  1   
 18  12  23  1   
 19  12  24  1   
 20  13  14  2   
 21  13  15  am  
 22  15  16  1   
 23  15  25  1   
 24  16  17  1   
 25  16  18  1   
 26  16  19  1   
 27  17  26  1   
 28  17  27  1   
 29  17  28  1   
 30  18  29  1   
 31  18  30  1   
 32  18  31  1   
 33  19  32  1   
 34  19  33  1   
 35  19  34  1   
@<TRIPOS>SUBSTRUCTURE
  1 ****   9 GROUP 4 **** **** 0

# MOE 2024.06 (io_trps.svl 2023.06)
