@<TRIPOS>MOLECULE
NONAME
43 44 1 0 0 
SMALL
USER_CHARGES


@<TRIPOS>ATOM
  1 S       -0.0640    -0.0780    -0.1490 S.o2  1 <1>   1.4470 
  2 O       -0.7330    -0.6560     0.9940 O.2   1 <1>  -0.6500 
  3 O       -0.3930    -0.5140    -1.4870 O.2   1 <1>  -0.6500 
  4 N       -0.4390     1.5560    -0.1700 N.am  1 <1>  -0.9140 
  5 C        1.7310    -0.0820     0.1040 C.ar  1 <1>  -0.0090 
  6 C       -1.8240     1.8200     0.1590 C.3   1 <1>   0.1960 
  7 C        2.6030    -0.5160    -0.8870 C.ar  1 <1>  -0.1500 
  8 C        2.2790     0.3640     1.3010 C.ar  1 <1>  -0.1500 
  9 C       -2.0850     3.3040    -0.0530 C.3   1 <1>  -0.2400 
 10 C        3.9740    -0.5040    -0.6920 C.ar  1 <1>  -0.1500 
 11 C        3.6480     0.3770     1.5030 C.ar  1 <1>  -0.1500 
 12 C        4.5040    -0.0570     0.5060 C.ar  1 <1>  -0.1430 
 13 C        6.0080    -0.0370     0.7240 C.3   1 <1>  -0.0170 
 14 C        6.5870     1.3280     0.3260 C.3   1 <1>  -0.0990 
 15 C        8.0940     1.4270     0.5070 C.2   1 <1>   0.5690 
 16 O        8.6900     0.4980     1.0010 O.2   1 <1>  -0.5700 
 17 N        8.7440     2.5610     0.1100 N.am  1 <1>  -0.6600 
 18 C        8.1310     3.7660    -0.4900 C.3   1 <1>   0.1400 
 19 C       10.2080     2.7160     0.2390 C.3   1 <1>   0.1400 
 20 C        9.2510     4.8010    -0.5120 C.3   1 <1>  -0.1600 
 21 C       10.5370     3.9790    -0.5480 C.3   1 <1>  -0.1600 
 22 H       -0.3180     1.8100    -1.1480 H     1 <1>   0.4200 
 23 H       -2.0110     1.5580     1.1880 H     1 <1>   0.0800 
 24 H       -2.4760     1.2340    -0.4710 H     1 <1>   0.0800 
 25 H        2.2070    -0.8680    -1.8250 H     1 <1>   0.1500 
 26 H        1.6220     0.7050     2.0840 H     1 <1>   0.1500 
 27 H       -1.4350     3.8880     0.5750 H     1 <1>   0.0800 
 28 H       -3.1020     3.5310     0.2080 H     1 <1>   0.0800 
 29 H       -1.9290     3.5740    -1.0820 H     1 <1>   0.0800 
 30 H        4.6260    -0.8470    -1.4770 H     1 <1>   0.1500 
 31 H        4.0430     0.7270     2.4420 H     1 <1>   0.1500 
 32 H        6.4730    -0.8120     0.1400 H     1 <1>   0.0800 
 33 H        6.2270    -0.2370     1.7590 H     1 <1>   0.0800 
 34 H        6.1240     2.0910     0.9230 H     1 <1>   0.0800 
 35 H        6.3550     1.5160    -0.7050 H     1 <1>   0.0800 
 36 H        7.2930     4.1100     0.0920 H     1 <1>   0.0800 
 37 H        7.8140     3.5390    -1.4940 H     1 <1>   0.0800 
 38 H       10.7210     1.8530    -0.1520 H     1 <1>   0.0800 
 39 H       10.4550     2.8400     1.2800 H     1 <1>   0.0800 
 40 H        9.2120     5.3760     0.3970 H     1 <1>   0.0800 
 41 H        9.1660     5.4670    -1.3520 H     1 <1>   0.0800 
 42 H       10.7690     3.7060    -1.5620 H     1 <1>   0.0800 
 43 H       11.3750     4.5050    -0.1260 H     1 <1>   0.0800 
@<TRIPOS>BOND
  1   1   2  2   
  2   1   3  2   
  3   1   4  am  
  4   1   5  1   
  5   4   6  1   
  6   4  22  1   
  7   5   7  ar  
  8   5   8  ar  
  9   6   9  1   
 10   6  23  1   
 11   6  24  1   
 12   7  10  ar  
 13   7  25  1   
 14   8  11  ar  
 15   8  26  1   
 16   9  27  1   
 17   9  28  1   
 18   9  29  1   
 19  10  12  ar  
 20  10  30  1   
 21  11  12  ar  
 22  11  31  1   
 23  12  13  1   
 24  13  14  1   
 25  13  32  1   
 26  13  33  1   
 27  14  15  1   
 28  14  34  1   
 29  14  35  1   
 30  15  16  2   
 31  15  17  am  
 32  17  18  1   
 33  17  19  1   
 34  18  20  1   
 35  18  36  1   
 36  18  37  1   
 37  19  21  1   
 38  19  38  1   
 39  19  39  1   
 40  20  21  1   
 41  20  40  1   
 42  20  41  1   
 43  21  42  1   
 44  21  43  1   
@<TRIPOS>SUBSTRUCTURE
  1 ****  12 GROUP 4 **** **** 0

# MOE 2024.06 (io_trps.svl 2023.06)
