@<TRIPOS>MOLECULE
NONAME
47 48 1 0 0 
SMALL
USER_CHARGES


@<TRIPOS>ATOM
  1 S        0.5200     0.8610    -0.1960 S.3   1 <1>  -0.2860 
  2 C       -1.2170     1.1050    -0.5860 C.2   1 <1>   0.2420 
  3 C        1.3220     0.9250    -1.8740 C.3   1 <1>   0.1310 
  4 N       -1.6580     1.2310    -1.7860 N.2   1 <1>  -0.3380 
  5 N       -2.1680     1.1680     0.3440 N.pl3 1 <1>   0.0480 
  6 C        2.8090     0.6190    -1.7960 C.2   1 <1>   0.5690 
  7 N       -2.9800     1.3870    -1.6680 N.2   1 <1>  -0.3380 
  8 C       -3.2680     1.3460    -0.4060 C.2   1 <1>   0.0060 
  9 C       -2.0270     1.0700     1.8140 C.3   1 <1>   0.0960 
 10 O        3.5160     1.0320    -2.6810 O.2   1 <1>  -0.5700 
 11 N        3.2710    -0.1110    -0.7320 N.am  1 <1>  -0.5470 
 12 C       -4.6690     1.4830     0.1820 C.3   1 <1>   0.0200 
 13 C       -2.1040    -0.3910     2.2700 C.3   1 <1>  -0.2400 
 14 C        4.5510    -0.5790    -0.3970 C.ar  1 <1>   0.1170 
 15 C       -5.7700     1.5580    -0.8840 C.3   1 <1>  -0.2400 
 16 C        4.7870    -0.9860     0.9100 C.ar  1 <1>  -0.1500 
 17 C        5.5950    -0.6710    -1.3100 C.ar  1 <1>  -0.1500 
 18 C        6.0260    -1.4670     1.2950 C.ar  1 <1>  -0.1500 
 19 C        6.8350    -1.1500    -0.9260 C.ar  1 <1>  -0.1500 
 20 C        7.0650    -1.5530     0.3810 C.ar  1 <1>  -0.1430 
 21 C        8.4280    -2.0840     0.8210 C.3   1 <1>   0.0630 
 22 C        9.5120    -1.0150     0.6480 C.3   1 <1>  -0.2400 
 23 C        8.7930    -3.3580     0.0520 C.3   1 <1>  -0.2400 
 24 H        1.1610     1.9120    -2.2670 H     1 <1>   0.0800 
 25 H        0.8260     0.2020    -2.4960 H     1 <1>   0.0800 
 26 H       -2.8080     1.6440     2.2800 H     1 <1>   0.0800 
 27 H       -1.0830     1.4960     2.1020 H     1 <1>   0.0800 
 28 H        2.5560    -0.3000    -0.0290 H     1 <1>   0.3700 
 29 H       -4.7080     2.3750     0.7830 H     1 <1>   0.0800 
 30 H       -4.8650     0.6400     0.8190 H     1 <1>   0.0800 
 31 H       -3.0500    -0.8240     1.9940 H     1 <1>   0.0800 
 32 H       -2.0040    -0.4440     3.3390 H     1 <1>   0.0800 
 33 H       -1.3090    -0.9640     1.8260 H     1 <1>   0.0800 
 34 H       -5.6130     2.4120    -1.5200 H     1 <1>   0.0800 
 35 H       -6.7350     1.6460    -0.4190 H     1 <1>   0.0800 
 36 H       -5.7560     0.6710    -1.4930 H     1 <1>   0.0800 
 37 H        3.9990    -0.9270     1.6370 H     1 <1>   0.1500 
 38 H        5.4480    -0.3710    -2.3310 H     1 <1>   0.1500 
 39 H        6.1780    -1.7730     2.3150 H     1 <1>   0.1500 
 40 H        7.6220    -1.2060    -1.6570 H     1 <1>   0.1500 
 41 H        8.3800    -2.3350     1.8670 H     1 <1>   0.0800 
 42 H        9.6380    -0.7610    -0.3890 H     1 <1>   0.0800 
 43 H       10.4510    -1.3710     1.0320 H     1 <1>   0.0800 
 44 H        9.2360    -0.1260     1.1870 H     1 <1>   0.0800 
 45 H        8.9030    -3.1540    -0.9980 H     1 <1>   0.0800 
 46 H        8.0190    -4.0940     0.1780 H     1 <1>   0.0800 
 47 H        9.7170    -3.7650     0.4220 H     1 <1>   0.0800 
@<TRIPOS>BOND
  1   1   2  1   
  2   1   3  1   
  3   2   4  2   
  4   2   5  1   
  5   3   6  1   
  6   3  24  1   
  7   3  25  1   
  8   4   7  1   
  9   5   8  1   
 10   5   9  1   
 11   6  10  2   
 12   6  11  am  
 13   7   8  2   
 14   8  12  1   
 15   9  13  1   
 16   9  26  1   
 17   9  27  1   
 18  11  14  1   
 19  11  28  1   
 20  12  15  1   
 21  12  29  1   
 22  12  30  1   
 23  13  31  1   
 24  13  32  1   
 25  13  33  1   
 26  14  16  ar  
 27  14  17  ar  
 28  15  34  1   
 29  15  35  1   
 30  15  36  1   
 31  16  18  ar  
 32  16  37  1   
 33  17  19  ar  
 34  17  38  1   
 35  18  20  ar  
 36  18  39  1   
 37  19  20  ar  
 38  19  40  1   
 39  20  21  1   
 40  21  22  1   
 41  21  23  1   
 42  21  41  1   
 43  22  42  1   
 44  22  43  1   
 45  22  44  1   
 46  23  45  1   
 47  23  46  1   
 48  23  47  1   
@<TRIPOS>SUBSTRUCTURE
  1 ****  11 GROUP 4 **** **** 0

# MOE 2024.06 (io_trps.svl 2023.06)
