@<TRIPOS>MOLECULE
NONAME
30 30 1 0 0 
SMALL
USER_CHARGES


@<TRIPOS>ATOM
  1 O        0.3490     0.4370    -1.9190 O.2   1 <1>  -0.5700 
  2 C        0.3720     1.1970    -0.9800 C.2   1 <1>   0.5690 
  3 N        1.4750     1.4320    -0.2120 N.am  1 <1>  -0.5470 
  4 C       -0.9030     1.9560    -0.6240 C.3   1 <1>   0.1810 
  5 C        2.8030     0.9690    -0.2490 C.ar  1 <1>   0.1170 
  6 O       -0.6610     2.9560     0.3410 O.3   1 <1>  -0.5600 
  7 C        3.7810     1.6530     0.4810 C.ar  1 <1>   0.0830 
  8 C        3.1870    -0.1590    -0.9650 C.ar  1 <1>  -0.1500 
  9 C       -1.7990     3.6670     0.7100 C.3   1 <1>   0.0400 
 10 O        3.4640     2.7670     1.1900 O.3   1 <1>  -0.3630 
 11 C        5.0900     1.2020     0.5130 C.ar  1 <1>  -0.1500 
 12 C        4.5000    -0.6010    -0.9460 C.ar  1 <1>  -0.1500 
 13 C        3.3250     3.9700     0.4630 C.3   1 <1>   0.1200 
 14 C        5.4520     0.0760    -0.2040 C.ar  1 <1>  -0.1500 
 15 C        4.6930     4.6360     0.3240 C.3   1 <1>  -0.2400 
 16 H        1.3050     2.1390     0.5120 H     1 <1>   0.3700 
 17 H       -1.6240     1.2630    -0.2310 H     1 <1>   0.0800 
 18 H       -1.2940     2.4200    -1.5110 H     1 <1>   0.0800 
 19 H        2.4610    -0.7050    -1.5390 H     1 <1>   0.1500 
 20 H       -1.5130     4.4010     1.4430 H     1 <1>   0.0800 
 21 H       -2.5200     2.9910     1.1370 H     1 <1>   0.0800 
 22 H       -2.2080     4.1610    -0.1550 H     1 <1>   0.0800 
 23 H        5.8180     1.7360     1.0970 H     1 <1>   0.1500 
 24 H        4.7770    -1.4760    -1.5080 H     1 <1>   0.1500 
 25 H        2.6530     4.6050     1.0150 H     1 <1>   0.0800 
 26 H        2.8960     3.7580    -0.5020 H     1 <1>   0.0800 
 27 H        6.4700    -0.2720    -0.1850 H     1 <1>   0.1500 
 28 H        5.1230     4.8040     1.2960 H     1 <1>   0.0800 
 29 H        4.5850     5.5830    -0.1720 H     1 <1>   0.0800 
 30 H        5.3510     4.0210    -0.2620 H     1 <1>   0.0800 
@<TRIPOS>BOND
  1   1   2  2   
  2   2   3  am  
  3   2   4  1   
  4   3   5  1   
  5   3  16  1   
  6   4   6  1   
  7   4  17  1   
  8   4  18  1   
  9   5   7  ar  
 10   5   8  ar  
 11   6   9  1   
 12   7  10  1   
 13   7  11  ar  
 14   8  12  ar  
 15   8  19  1   
 16   9  20  1   
 17   9  21  1   
 18   9  22  1   
 19  10  13  1   
 20  11  14  ar  
 21  11  23  1   
 22  12  14  ar  
 23  12  24  1   
 24  13  15  1   
 25  13  25  1   
 26  13  26  1   
 27  14  27  1   
 28  15  28  1   
 29  15  29  1   
 30  15  30  1   
@<TRIPOS>SUBSTRUCTURE
  1 ****   5 GROUP 4 **** **** 0

# MOE 2024.06 (io_trps.svl 2023.06)
