@<TRIPOS>MOLECULE
NONAME
36 37 1 0 0 
SMALL
USER_CHARGES


@<TRIPOS>ATOM
  1 S       -0.3590    -0.4580     0.6780 S.o2  1 <1>   1.5010 
  2 O       -0.9920    -0.5590     1.9730 O.2   1 <1>  -0.6500 
  3 O       -0.5720    -1.4710    -0.3300 O.2   1 <1>  -0.6500 
  4 N       -0.9360     0.9360    -0.0520 N.am  1 <1>  -0.9140 
  5 C        1.3930    -0.1170     0.8690 C.2   1 <1>  -0.0630 
  6 C       -2.3780     1.0870     0.0850 C.3   1 <1>   0.1960 
  7 C        1.9580     0.4100     2.0220 C.2   1 <1>   0.1390 
  8 C        2.4470    -0.2450     0.0240 C.2   1 <1>  -0.3020 
  9 C       -2.8400     2.3350    -0.6660 C.3   1 <1>  -0.0160 
 10 N        3.2400     0.5910     1.9170 N.2   1 <1>  -0.7070 
 11 N        3.5450     0.1830     0.6750 N.pl3 1 <1>   0.3140 
 12 C       -4.3470     2.4900    -0.5430 C.ar  1 <1>  -0.1430 
 13 C        4.9270     0.2230     0.1540 C.3   1 <1>   0.0960 
 14 C       -4.8930     3.1680     0.5350 C.ar  1 <1>  -0.1500 
 15 C       -5.1890     1.9500    -1.5040 C.ar  1 <1>  -0.1500 
 16 C        5.1340     1.4230    -0.7780 C.3   1 <1>  -0.2400 
 17 C       -6.2650     3.3060     0.6530 C.ar  1 <1>  -0.1500 
 18 C       -6.5610     2.0870    -1.3870 C.ar  1 <1>  -0.1500 
 19 C       -7.1000     2.7660    -0.3080 C.ar  1 <1>  -0.1500 
 20 H       -0.7430     0.7720    -1.0380 H     1 <1>   0.4200 
 21 H       -2.6370     1.1860     1.1270 H     1 <1>   0.0800 
 22 H       -2.8810     0.2170    -0.3080 H     1 <1>   0.0800 
 23 H        1.3970     0.6460     2.9130 H     1 <1>   0.1500 
 24 H        2.4670    -0.6130    -0.9860 H     1 <1>   0.1500 
 25 H       -2.5710     2.2580    -1.7040 H     1 <1>   0.0800 
 26 H       -2.3550     3.2010    -0.2530 H     1 <1>   0.0800 
 27 H        5.1220    -0.6950    -0.3680 H     1 <1>   0.0800 
 28 H        5.5980     0.2890     0.9920 H     1 <1>   0.0800 
 29 H       -4.2530     3.5930     1.2900 H     1 <1>   0.1500 
 30 H       -4.7840     1.4200    -2.3480 H     1 <1>   0.1500 
 31 H        4.4790     1.3580    -1.6290 H     1 <1>   0.0800 
 32 H        6.1500     1.4420    -1.1280 H     1 <1>   0.0800 
 33 H        4.9390     2.3390    -0.2470 H     1 <1>   0.0800 
 34 H       -6.6830     3.8340     1.4930 H     1 <1>   0.1500 
 35 H       -7.2100     1.6670    -2.1350 H     1 <1>   0.1500 
 36 H       -8.1670     2.8730    -0.2170 H     1 <1>   0.1500 
@<TRIPOS>BOND
  1   1   2  2   
  2   1   3  2   
  3   1   4  am  
  4   1   5  1   
  5   4   6  1   
  6   4  20  1   
  7   5   7  1   
  8   5   8  2   
  9   6   9  1   
 10   6  21  1   
 11   6  22  1   
 12   7  10  2   
 13   7  23  1   
 14   8  11  1   
 15   8  24  1   
 16   9  12  1   
 17   9  25  1   
 18   9  26  1   
 19  10  11  1   
 20  11  13  1   
 21  12  14  ar  
 22  12  15  ar  
 23  13  16  1   
 24  13  27  1   
 25  13  28  1   
 26  14  17  ar  
 27  14  29  1   
 28  15  18  ar  
 29  15  30  1   
 30  16  31  1   
 31  16  32  1   
 32  16  33  1   
 33  17  19  ar  
 34  17  34  1   
 35  18  19  ar  
 36  18  35  1   
 37  19  36  1   
@<TRIPOS>SUBSTRUCTURE
  1 ****   4 GROUP 4 **** **** 0

# MOE 2024.06 (io_trps.svl 2023.06)
