@<TRIPOS>MOLECULE
NONAME
35 37 1 0 0 
SMALL
USER_CHARGES


@<TRIPOS>ATOM
  1 S        0.2390    -0.0940     0.8950 S.3   1 <1>  -0.0800 
  2 C        1.3000    -1.0090    -0.1240 C.2   1 <1>   0.4420 
  3 C       -1.0840    -0.7770     0.0100 C.2   1 <1>   0.1980 
  4 N        0.6580    -1.7140    -0.9830 N.2   1 <1>  -0.3380 
  5 N        2.6490    -0.8620     0.1130 N.am  1 <1>  -0.4940 
  6 N       -0.7010    -1.5780    -0.8990 N.2   1 <1>  -0.3380 
  7 C       -2.4950    -0.3770     0.4060 C.3   1 <1>   0.1580 
  8 C        3.7230    -1.4530    -0.4980 C.2   1 <1>   0.7150 
  9 C       -2.8640     1.0700     0.0660 C.2   1 <1>  -0.2760 
 10 O        3.5530    -2.2760    -1.3720 O.2   1 <1>  -0.5700 
 11 C        5.0450    -1.0720    -0.0670 C.2   1 <1>  -0.0450 
 12 C       -2.1400     1.8820    -0.7170 C.2   1 <1>  -0.2880 
 13 C       -4.1740     1.5190     0.7100 C.3   1 <1>  -0.0220 
 14 S        6.4430    -1.8510    -0.8200 S.3   1 <1>  -0.0800 
 15 C        5.4990    -0.1810     0.8570 C.2   1 <1>  -0.1500 
 16 C       -2.5000     3.3260    -1.0290 C.3   1 <1>  -0.0220 
 17 C       -4.7090     2.8170     0.0870 C.3   1 <1>  -0.1600 
 18 C        7.5750    -0.9370     0.1510 C.2   1 <1>  -0.1100 
 19 C        6.9170    -0.1070     0.9790 C.2   1 <1>  -0.1500 
 20 C       -3.5890     3.8500    -0.0850 C.3   1 <1>  -0.1600 
 21 H        2.8860    -0.2110     0.8520 H     1 <1>   0.3700 
 22 H       -2.5950    -0.5290     1.4650 H     1 <1>   0.0800 
 23 H       -3.1870    -1.0360    -0.0870 H     1 <1>   0.0800 
 24 H       -1.2310     1.5790    -1.2090 H     1 <1>   0.1500 
 25 H       -4.0100     1.6690     1.7630 H     1 <1>   0.0800 
 26 H       -4.9220     0.7540     0.5950 H     1 <1>   0.0800 
 27 H        4.8820     0.4450     1.4760 H     1 <1>   0.1500 
 28 H       -2.8420     3.3820    -2.0480 H     1 <1>   0.0800 
 29 H       -1.6250     3.9450    -0.9360 H     1 <1>   0.0800 
 30 H       -5.4900     3.2190     0.7080 H     1 <1>   0.0800 
 31 H       -5.1310     2.5960    -0.8780 H     1 <1>   0.0800 
 32 H        8.6240    -1.1200    -0.0030 H     1 <1>   0.1500 
 33 H        7.3840     0.5650     1.6800 H     1 <1>   0.1500 
 34 H       -3.9910     4.7700    -0.4740 H     1 <1>   0.0800 
 35 H       -3.1520     4.0580     0.8770 H     1 <1>   0.0800 
@<TRIPOS>BOND
  1   1   2  1   
  2   1   3  1   
  3   2   4  2   
  4   2   5  1   
  5   3   6  2   
  6   3   7  1   
  7   4   6  1   
  8   5   8  am  
  9   5  21  1   
 10   7   9  1   
 11   7  22  1   
 12   7  23  1   
 13   8  10  2   
 14   8  11  1   
 15   9  12  2   
 16   9  13  1   
 17  11  14  1   
 18  11  15  2   
 19  12  16  1   
 20  12  24  1   
 21  13  17  1   
 22  13  25  1   
 23  13  26  1   
 24  14  18  1   
 25  15  19  1   
 26  15  27  1   
 27  16  20  1   
 28  16  28  1   
 29  16  29  1   
 30  17  20  1   
 31  17  30  1   
 32  17  31  1   
 33  18  19  2   
 34  18  32  1   
 35  19  33  1   
 36  20  34  1   
 37  20  35  1   
@<TRIPOS>SUBSTRUCTURE
  1 ****   2 GROUP 4 **** **** 0

# MOE 2024.06 (io_trps.svl 2023.06)
