@<TRIPOS>MOLECULE
NONAME
41 43 1 0 0 
SMALL
USER_CHARGES


@<TRIPOS>ATOM
  1 O       -0.3260    -0.7400     0.6130 O.2   1 <1>  -0.5700 
  2 C       -0.7250    -1.6960    -0.0170 C.2   1 <1>   0.5440 
  3 N        0.0890    -2.5840    -0.6700 N.am  1 <1>  -0.4200 
  4 C       -2.0920    -2.0900    -0.2180 C.ar  1 <1>   0.0860 
  5 C       -0.6960    -3.5250    -1.2850 C.2   1 <1>   0.5440 
  6 C        1.5650    -2.5420    -0.6970 C.3   1 <1>   0.1400 
  7 C       -2.0710    -3.2270    -1.0070 C.ar  1 <1>   0.0860 
  8 C       -3.2980    -1.5570     0.2130 C.ar  1 <1>  -0.1500 
  9 O       -0.2700    -4.4440    -1.9520 O.2   1 <1>  -0.5700 
 10 C        2.1300    -3.3440     0.4780 C.3   1 <1>  -0.1600 
 11 C       -3.2620    -3.8430    -1.3670 C.ar  1 <1>  -0.1500 
 12 C       -4.5110    -2.1490    -0.1440 C.ar  1 <1>   0.0860 
 13 C        3.6630    -3.3210     0.4790 C.3   1 <1>  -0.1600 
 14 C       -4.4620    -3.3060    -0.9350 C.ar  1 <1>  -0.1500 
 15 C       -5.7680    -1.5770     0.2990 C.2   1 <1>   0.5440 
 16 C        4.2240    -4.1240     1.6560 C.3   1 <1>  -0.2400 
 17 O       -5.8360    -1.0110     1.3710 O.2   1 <1>  -0.5700 
 18 N       -6.8730    -1.6630    -0.5020 N.am  1 <1>  -0.4930 
 19 C       -8.1850    -1.2480    -0.2870 C.2   1 <1>   0.3520 
 20 N       -9.0800    -1.4020    -1.1980 N.2   1 <1>  -0.4100 
 21 C       -8.7350    -0.6500     0.8480 C.2   1 <1>  -0.1500 
 22 O      -10.1920    -0.9230    -0.6980 O.3   1 <1>  -0.0190 
 23 C      -10.0200    -0.4690     0.5160 C.2   1 <1>  -0.0400 
 24 C      -11.1870     0.1280     1.2730 C.3   1 <1>  -0.0600 
 25 H        1.8900    -1.5170    -0.6350 H     1 <1>   0.0800 
 26 H        1.9140    -2.9560    -1.6280 H     1 <1>   0.0800 
 27 H       -3.2910    -0.6730     0.8310 H     1 <1>   0.1500 
 28 H        1.7900    -4.3630     0.4070 H     1 <1>   0.0800 
 29 H        1.7680    -2.9210     1.4000 H     1 <1>   0.0800 
 30 H       -3.2320    -4.7320    -1.9760 H     1 <1>   0.1500 
 31 H        4.0110    -2.3040     0.5480 H     1 <1>   0.0800 
 32 H        4.0330    -3.7400    -0.4420 H     1 <1>   0.0800 
 33 H       -5.3770    -3.8030    -1.2100 H     1 <1>   0.1500 
 34 H        3.8850    -3.7090     2.5900 H     1 <1>   0.0800 
 35 H        5.2990    -4.0970     1.6410 H     1 <1>   0.0800 
 36 H        3.9070    -5.1500     1.5970 H     1 <1>   0.0800 
 37 H       -6.7480    -2.0490    -1.4340 H     1 <1>   0.3700 
 38 H       -8.2160    -0.4060     1.7560 H     1 <1>   0.1500 
 39 H      -10.8710     0.4490     2.2490 H     1 <1>   0.0800 
 40 H      -11.9650    -0.6060     1.3820 H     1 <1>   0.0800 
 41 H      -11.5760     0.9730     0.7350 H     1 <1>   0.0800 
@<TRIPOS>BOND
  1   1   2  2   
  2   2   3  am  
  3   2   4  1   
  4   3   5  am  
  5   3   6  1   
  6   4   7  ar  
  7   4   8  ar  
  8   5   7  1   
  9   5   9  2   
 10   6  10  1   
 11   6  25  1   
 12   6  26  1   
 13   7  11  ar  
 14   8  12  ar  
 15   8  27  1   
 16  10  13  1   
 17  10  28  1   
 18  10  29  1   
 19  11  14  ar  
 20  11  30  1   
 21  12  14  ar  
 22  12  15  1   
 23  13  16  1   
 24  13  31  1   
 25  13  32  1   
 26  14  33  1   
 27  15  17  2   
 28  15  18  am  
 29  16  34  1   
 30  16  35  1   
 31  16  36  1   
 32  18  19  1   
 33  18  37  1   
 34  19  20  2   
 35  19  21  1   
 36  20  22  1   
 37  21  23  2   
 38  21  38  1   
 39  22  23  1   
 40  23  24  1   
 41  24  39  1   
 42  24  40  1   
 43  24  41  1   
@<TRIPOS>SUBSTRUCTURE
  1 ****   8 GROUP 4 **** **** 0

# MOE 2024.06 (io_trps.svl 2023.06)
