@<TRIPOS>MOLECULE
NONAME
50 53 1 0 0 
SMALL
USER_CHARGES


@<TRIPOS>ATOM
  1 S        2.5860     1.1570    -2.2960 S.3   1 <1>  -0.0800 
  2 C        2.2980     2.8770    -2.1250 C.2   1 <1>   0.1040 
  3 C        2.5000     0.9210    -0.5690 C.2   1 <1>  -0.1400 
  4 N        2.3730     3.5750    -3.3190 N.am  1 <1>  -0.4940 
  5 C        2.0620     3.2150    -0.8130 C.2   1 <1>  -0.0860 
  6 C        2.2440     2.0730     0.0670 C.2   1 <1>  -0.1810 
  7 C        2.7270    -0.4600     0.0060 C.3   1 <1>   0.0200 
  8 C        3.0440     4.7030    -3.7160 C.2   1 <1>   0.5690 
  9 C        1.6580     4.5330    -0.3870 C.2   1 <1>   0.8060 
 10 C        2.1780     2.0880     1.5930 C.3   1 <1>   0.0210 
 11 C        2.2920    -0.4680     1.4800 C.3   1 <1>  -0.1600 
 12 O        2.9150     5.0670    -4.8570 O.2   1 <1>  -0.5700 
 13 C        3.9720     5.5200    -2.8380 C.3   1 <1>   0.1570 
 14 O        1.3850     5.4290    -1.1660 O.2   1 <1>  -0.5700 
 15 O        1.5720     4.8070     0.9190 O.3   1 <1>  -0.4300 
 16 C        2.7620     0.8020     2.2120 C.3   1 <1>  -0.1600 
 17 N        4.7950     4.6630    -1.9880 N.pl3 1 <1>   0.5800 
 18 C        1.2350     6.0890     1.3970 C.3   1 <1>   0.1200 
 19 N        5.6170     3.7370    -2.4480 N.2   1 <1>  -0.4180 
 20 N        4.7550     4.7210    -0.6750 N.2   1 <1>  -0.7070 
 21 C        1.2960     6.0500     2.9200 C.3   1 <1>  -0.2400 
 22 N        6.0880     3.1530    -1.4220 N.2   1 <1>  -0.2270 
 23 C        5.5420     3.7460    -0.3520 C.2   1 <1>   0.4620 
 24 C        5.7910     3.3110     1.0110 C.ar  1 <1>   0.0540 
 25 C        6.4850     2.1310     1.2920 C.ar  1 <1>  -0.1500 
 26 C        5.3280     4.0510     2.1010 C.ar  1 <1>  -0.1500 
 27 C        6.7030     1.7110     2.5910 C.ar  1 <1>  -0.1500 
 28 C        5.5410     3.6360     3.4030 C.ar  1 <1>  -0.1500 
 29 C        6.2300     2.4630     3.6510 C.ar  1 <1>  -0.1500 
 30 H        1.9900     3.0840    -4.1280 H     1 <1>   0.3700 
 31 H        3.7730    -0.6990    -0.0740 H     1 <1>   0.0800 
 32 H        2.1630    -1.1900    -0.5480 H     1 <1>   0.0800 
 33 H        1.1520     2.2030     1.8960 H     1 <1>   0.0800 
 34 H        2.7400     2.9170     1.9810 H     1 <1>   0.0800 
 35 H        2.6870    -1.3430     1.9660 H     1 <1>   0.0800 
 36 H        1.2170    -0.5190     1.5260 H     1 <1>   0.0800 
 37 H        3.4110     6.1970    -2.2280 H     1 <1>   0.0800 
 38 H        4.6290     6.0930    -3.4630 H     1 <1>   0.0800 
 39 H        2.4870     0.7500     3.2510 H     1 <1>   0.0800 
 40 H        3.8360     0.8530     2.1610 H     1 <1>   0.0800 
 41 H        0.2440     6.3340     1.0530 H     1 <1>   0.0800 
 42 H        1.9430     6.7980     1.0010 H     1 <1>   0.0800 
 43 H        0.5930     5.3310     3.3010 H     1 <1>   0.0800 
 44 H        1.0460     7.0170     3.3180 H     1 <1>   0.0800 
 45 H        2.2880     5.7910     3.2450 H     1 <1>   0.0800 
 46 H        6.8580     1.5310     0.4800 H     1 <1>   0.1500 
 47 H        4.7890     4.9650     1.9220 H     1 <1>   0.1500 
 48 H        7.2420     0.7980     2.7790 H     1 <1>   0.1500 
 49 H        5.1730     4.2260     4.2250 H     1 <1>   0.1500 
 50 H        6.3990     2.1380     4.6630 H     1 <1>   0.1500 
@<TRIPOS>BOND
  1   1   2  1   
  2   1   3  1   
  3   2   4  1   
  4   2   5  2   
  5   3   6  2   
  6   3   7  1   
  7   4   8  am  
  8   4  30  1   
  9   5   6  1   
 10   5   9  1   
 11   6  10  1   
 12   7  11  1   
 13   7  31  1   
 14   7  32  1   
 15   8  12  2   
 16   8  13  1   
 17   9  14  2   
 18   9  15  1   
 19  10  16  1   
 20  10  33  1   
 21  10  34  1   
 22  11  16  1   
 23  11  35  1   
 24  11  36  1   
 25  13  17  1   
 26  13  37  1   
 27  13  38  1   
 28  15  18  1   
 29  16  39  1   
 30  16  40  1   
 31  17  19  1   
 32  17  20  1   
 33  18  21  1   
 34  18  41  1   
 35  18  42  1   
 36  19  22  2   
 37  20  23  2   
 38  21  43  1   
 39  21  44  1   
 40  21  45  1   
 41  22  23  1   
 42  23  24  1   
 43  24  25  ar  
 44  24  26  ar  
 45  25  27  ar  
 46  25  46  1   
 47  26  28  ar  
 48  26  47  1   
 49  27  29  ar  
 50  27  48  1   
 51  28  29  ar  
 52  28  49  1   
 53  29  50  1   
@<TRIPOS>SUBSTRUCTURE
  1 ****   5 GROUP 4 **** **** 0

# MOE 2024.06 (io_trps.svl 2023.06)
