@<TRIPOS>MOLECULE
NONAME
38 40 1 0 0 
SMALL
USER_CHARGES


@<TRIPOS>ATOM
  1 O       -3.6750     5.8090     1.3010 O.2   1 <1>  -0.5700 
  2 C       -4.3220     4.9110     0.8330 C.2   1 <1>   0.5690 
  3 N       -5.3780     4.3890     1.5180 N.am  1 <1>  -0.5470 
  4 C       -3.9060     4.3290    -0.5320 C.3   1 <1>   0.4040 
  5 C       -6.1040     3.2450     1.1880 C.ar  1 <1>   0.1170 
  6 N       -3.6580     2.8340    -0.5340 N.4   1 <1>  -0.9590 
  7 C       -5.8160     2.0450     1.8320 C.ar  1 <1>  -0.1500 
  8 C       -7.0530     3.2790     0.1640 C.ar  1 <1>  -0.1500 
  9 C       -2.5000     2.4670     0.3340 C.3   1 <1>   0.3430 
 10 C       -3.5240     2.2840    -1.9100 C.3   1 <1>   0.3430 
 11 C       -6.4540     0.9040     1.3940 C.ar  1 <1>   0.0820 
 12 C       -7.6930     2.1200    -0.2550 C.ar  1 <1>  -0.1500 
 13 C       -2.4240     0.9430     0.4520 C.3   1 <1>  -0.1600 
 14 C       -3.4790     0.7570    -1.8340 C.3   1 <1>  -0.1600 
 15 O       -6.3030    -0.3470     1.8360 O.3   1 <1>  -0.3620 
 16 C       -7.3630     0.9380     0.3780 C.ar  1 <1>   0.0820 
 17 C       -2.3450     0.2670    -0.9230 C.3   1 <1>  -0.1600 
 18 C       -7.2210    -1.1550     1.0980 C.3   1 <1>   0.4000 
 19 O       -7.8280    -0.2920     0.1360 O.3   1 <1>  -0.3620 
 20 H       -5.5620     4.8280     2.4270 H     1 <1>   0.3700 
 21 H       -3.0160     4.8430    -0.8530 H     1 <1>   0.0800 
 22 H       -4.6890     4.5610    -1.2330 H     1 <1>   0.0800 
 23 H       -4.4890     2.3880    -0.1150 H     1 <1>   0.4500 
 24 H       -5.1140     1.9920     2.6440 H     1 <1>   0.1500 
 25 H       -7.2980     4.2160    -0.3070 H     1 <1>   0.1500 
 26 H       -2.6160     2.8970     1.3160 H     1 <1>   0.0800 
 27 H       -1.5850     2.8430    -0.0960 H     1 <1>   0.0800 
 28 H       -2.6190     2.6510    -2.3680 H     1 <1>   0.0800 
 29 H       -4.3630     2.5870    -2.5160 H     1 <1>   0.0800 
 30 H       -8.4300     2.1250    -1.0400 H     1 <1>   0.1500 
 31 H       -3.2850     0.5820     0.9880 H     1 <1>   0.0800 
 32 H       -1.5550     0.6790     1.0300 H     1 <1>   0.0800 
 33 H       -3.3380     0.3590    -2.8240 H     1 <1>   0.0800 
 34 H       -4.4250     0.3890    -1.4730 H     1 <1>   0.0800 
 35 H       -2.4050    -0.8030    -0.8080 H     1 <1>   0.0800 
 36 H       -1.3950     0.4930    -1.3800 H     1 <1>   0.0800 
 37 H       -7.9750    -1.5410     1.7620 H     1 <1>   0.0800 
 38 H       -6.6920    -1.9460     0.5960 H     1 <1>   0.0800 
@<TRIPOS>BOND
  1   1   2  2   
  2   2   3  am  
  3   2   4  1   
  4   3   5  1   
  5   3  20  1   
  6   4   6  1   
  7   4  21  1   
  8   4  22  1   
  9   5   7  ar  
 10   5   8  ar  
 11   6   9  1   
 12   6  10  1   
 13   6  23  1   
 14   7  11  ar  
 15   7  24  1   
 16   8  12  ar  
 17   8  25  1   
 18   9  13  1   
 19   9  26  1   
 20   9  27  1   
 21  10  14  1   
 22  10  28  1   
 23  10  29  1   
 24  11  15  1   
 25  11  16  ar  
 26  12  16  ar  
 27  12  30  1   
 28  13  17  1   
 29  13  31  1   
 30  13  32  1   
 31  14  17  1   
 32  14  33  1   
 33  14  34  1   
 34  15  18  1   
 35  16  19  1   
 36  17  35  1   
 37  17  36  1   
 38  18  19  1   
 39  18  37  1   
 40  18  38  1   
@<TRIPOS>SUBSTRUCTURE
  1 ****   7 GROUP 4 **** **** 0

# MOE 2024.06 (io_trps.svl 2023.06)
