@<TRIPOS>MOLECULE
NONAME
44 46 1 0 0 
SMALL
USER_CHARGES


@<TRIPOS>ATOM
  1 O       -1.4610     1.6610    -2.2120 O.2   1 <1>  -0.5700 
  2 C       -0.8420     1.8740    -1.1950 C.2   1 <1>   0.5690 
  3 N       -1.1180     1.2610    -0.0150 N.am  1 <1>  -0.5790 
  4 C        0.3120     2.8800    -1.2140 C.3   1 <1>   0.1710 
  5 C       -2.1600     0.2600     0.2380 C.3   1 <1>   0.0490 
  6 N        1.3280     2.6610    -0.1410 N.3   1 <1>  -0.8100 
  7 C       -2.7850     0.2260     1.5920 C.3   1 <1>  -0.2000 
  8 C       -1.8420    -0.8610     1.1710 C.3   1 <1>  -0.2000 
  9 C        2.1620     1.4680    -0.4400 C.3   1 <1>   0.1100 
 10 C        2.2080     3.8430     0.0000 C.3   1 <1>   0.1100 
 11 C        3.2100     1.1970     0.6560 C.3   1 <1>   0.2090 
 12 C        3.2760     3.6570     1.0980 C.3   1 <1>   0.2090 
 13 N        4.0590     2.3980     0.9090 N.pl3 1 <1>  -0.8380 
 14 C        5.3560     2.4120     0.3940 C.ar  1 <1>   0.1000 
 15 C        6.2890     1.5010     0.8710 C.ar  1 <1>  -0.1500 
 16 C        5.7550     3.3060    -0.5950 C.ar  1 <1>  -0.1500 
 17 C        7.5830     1.4680     0.3810 C.ar  1 <1>   0.0820 
 18 C        7.0460     3.2880    -1.0910 C.ar  1 <1>  -0.1500 
 19 O        8.4160     0.5350     0.9110 O.3   1 <1>  -0.3630 
 20 C        7.9630     2.3720    -0.6080 C.ar  1 <1>  -0.1500 
 21 C        9.7620     0.4420     0.5030 C.3   1 <1>   0.0400 
 22 H       -0.4910     1.4900     0.7610 H     1 <1>   0.3700 
 23 H       -0.1240     3.8550    -1.0940 H     1 <1>   0.0800 
 24 H        0.7850     2.8470    -2.1800 H     1 <1>   0.0800 
 25 H       -2.7770     0.0600    -0.6250 H     1 <1>   0.1000 
 26 H       -3.8320    -0.0090     1.6690 H     1 <1>   0.1000 
 27 H       -2.4660     0.9430     2.3280 H     1 <1>   0.1000 
 28 H       -0.8640    -0.9060     1.6150 H     1 <1>   0.1000 
 29 H       -2.2500    -1.8350     0.9630 H     1 <1>   0.1000 
 30 H        2.6780     1.6070    -1.3750 H     1 <1>   0.0800 
 31 H        1.5360     0.5980    -0.5350 H     1 <1>   0.0800 
 32 H        1.6110     4.7030     0.2490 H     1 <1>   0.0800 
 33 H        2.7020     4.0400    -0.9350 H     1 <1>   0.0800 
 34 H        3.8300     0.3700     0.3550 H     1 <1>   0.0800 
 35 H        2.7100     0.9220     1.5680 H     1 <1>   0.0800 
 36 H        2.7890     3.6180     2.0560 H     1 <1>   0.0800 
 37 H        3.9430     4.5010     1.1060 H     1 <1>   0.0800 
 38 H        6.0020     0.8110     1.6400 H     1 <1>   0.1500 
 39 H        5.0510     4.0150    -0.9840 H     1 <1>   0.1500 
 40 H        7.3380     3.9870    -1.8550 H     1 <1>   0.1500 
 41 H        8.9580     2.3760    -1.0090 H     1 <1>   0.1500 
 42 H       10.2260    -0.3510     1.0600 H     1 <1>   0.0800 
 43 H       10.2550     1.3750     0.7140 H     1 <1>   0.0800 
 44 H        9.7930     0.2180    -0.5490 H     1 <1>   0.0800 
@<TRIPOS>BOND
  1   1   2  2   
  2   2   3  am  
  3   2   4  1   
  4   3   5  1   
  5   3  22  1   
  6   4   6  1   
  7   4  23  1   
  8   4  24  1   
  9   5   7  1   
 10   5   8  1   
 11   5  25  1   
 12   6   9  1   
 13   6  10  1   
 14   7   8  1   
 15   7  26  1   
 16   7  27  1   
 17   8  28  1   
 18   8  29  1   
 19   9  11  1   
 20   9  30  1   
 21   9  31  1   
 22  10  12  1   
 23  10  32  1   
 24  10  33  1   
 25  11  13  1   
 26  11  34  1   
 27  11  35  1   
 28  12  13  1   
 29  12  36  1   
 30  12  37  1   
 31  13  14  1   
 32  14  15  ar  
 33  14  16  ar  
 34  15  17  ar  
 35  15  38  1   
 36  16  18  ar  
 37  16  39  1   
 38  17  19  1   
 39  17  20  ar  
 40  18  20  ar  
 41  18  40  1   
 42  19  21  1   
 43  20  41  1   
 44  21  42  1   
 45  21  43  1   
 46  21  44  1   
@<TRIPOS>SUBSTRUCTURE
  1 ****  11 GROUP 4 **** **** 0

# MOE 2024.06 (io_trps.svl 2023.06)
