@<TRIPOS>MOLECULE
NONAME
52 53 1 0 0 
SMALL
USER_CHARGES


@<TRIPOS>ATOM
  1 S        0.4170    -0.2840    -0.1670 S.o2  1 <1>   1.4470 
  2 O        1.2610     0.0210    -1.3000 O.2   1 <1>  -0.6500 
  3 O        0.9060    -1.1600     0.8720 O.2   1 <1>  -0.6500 
  4 N        0.1420     1.2410     0.6060 N.am  1 <1>  -0.6930 
  5 C       -1.2370    -0.8190    -0.6880 C.ar  1 <1>  -0.0090 
  6 C       -0.8640     2.1090     0.1960 C.ar  1 <1>   0.1990 
  7 C        0.9120     1.5350     1.8550 C.3   1 <1>   0.2570 
  8 C       -1.8290    -0.3040    -1.8370 C.ar  1 <1>  -0.1500 
  9 C       -1.9690    -1.7320     0.0640 C.ar  1 <1>  -0.1500 
 10 C       -0.6420     3.1310    -0.7300 C.ar  1 <1>  -0.1430 
 11 C       -2.1400     1.9420     0.7230 C.ar  1 <1>  -0.1500 
 12 C        2.4290     1.7140     1.6880 C.2   1 <1>   0.5690 
 13 C       -3.1020    -0.6860    -2.2240 C.ar  1 <1>  -0.1500 
 14 C       -3.2420    -2.1200    -0.3160 C.ar  1 <1>  -0.1500 
 15 C       -1.6950     3.9450    -1.1120 C.ar  1 <1>  -0.1500 
 16 C        0.7350     3.3810    -1.3300 C.3   1 <1>  -0.0960 
 17 C       -3.1910     2.7510     0.3350 C.ar  1 <1>  -0.1430 
 18 O        3.0620     2.0440     2.6630 O.2   1 <1>  -0.5700 
 19 N        3.0360     1.5180     0.4840 N.am  1 <1>  -0.7300 
 20 C       -3.8100    -1.5960    -1.4620 C.ar  1 <1>  -0.1500 
 21 C       -2.9610     3.7580    -0.5870 C.ar  1 <1>  -0.1500 
 22 C       -4.5790     2.5390     0.9110 C.3   1 <1>  -0.0970 
 23 C        4.4900     1.5820     0.2240 C.3   1 <1>   0.1400 
 24 C        4.8190     2.7480    -0.7220 C.3   1 <1>  -0.0800 
 25 C        6.2770     2.6530    -1.1910 C.3   1 <1>  -0.2400 
 26 C        4.5880     4.1090    -0.0460 C.3   1 <1>  -0.2400 
 27 H        0.7490     0.7420     2.5630 H     1 <1>   0.0800 
 28 H        0.5290     2.4390     2.2940 H     1 <1>   0.0800 
 29 H       -1.2870     0.4100    -2.4340 H     1 <1>   0.1500 
 30 H       -1.5370    -2.1470     0.9600 H     1 <1>   0.1500 
 31 H       -2.3070     1.1590     1.4390 H     1 <1>   0.1500 
 32 H       -3.5400    -0.2730    -3.1160 H     1 <1>   0.1500 
 33 H       -3.7900    -2.8310     0.2800 H     1 <1>   0.1500 
 34 H       -1.5400     4.7360    -1.8250 H     1 <1>   0.1500 
 35 H        1.0510     2.5330    -1.9080 H     1 <1>   0.0800 
 36 H        1.4470     3.5570    -0.5460 H     1 <1>   0.0800 
 37 H        0.7280     4.2420    -1.9730 H     1 <1>   0.0800 
 38 H        2.4680     1.2130    -0.3190 H     1 <1>   0.3700 
 39 H       -4.8000    -1.8960    -1.7610 H     1 <1>   0.1500 
 40 H       -3.7660     4.4010    -0.8980 H     1 <1>   0.1500 
 41 H       -4.7220     1.5070     1.1750 H     1 <1>   0.0800 
 42 H       -5.3290     2.8100     0.1900 H     1 <1>   0.0800 
 43 H       -4.7050     3.1450     1.7900 H     1 <1>   0.0800 
 44 H        4.7960     0.6510    -0.2220 H     1 <1>   0.0800 
 45 H        5.0260     1.7000     1.1510 H     1 <1>   0.0800 
 46 H        4.1850     2.6720    -1.5900 H     1 <1>   0.0800 
 47 H        6.9490     2.7170    -0.3530 H     1 <1>   0.0800 
 48 H        6.5030     3.4540    -1.8730 H     1 <1>   0.0800 
 49 H        6.4470     1.7200    -1.6990 H     1 <1>   0.0800 
 50 H        5.2190     4.2100     0.8190 H     1 <1>   0.0800 
 51 H        3.5670     4.2060     0.2730 H     1 <1>   0.0800 
 52 H        4.8070     4.9100    -0.7290 H     1 <1>   0.0800 
@<TRIPOS>BOND
  1   1   2  2   
  2   1   3  2   
  3   1   4  am  
  4   1   5  1   
  5   4   6  1   
  6   4   7  1   
  7   5   8  ar  
  8   5   9  ar  
  9   6  10  ar  
 10   6  11  ar  
 11   7  12  1   
 12   7  27  1   
 13   7  28  1   
 14   8  13  ar  
 15   8  29  1   
 16   9  14  ar  
 17   9  30  1   
 18  10  15  ar  
 19  10  16  1   
 20  11  17  ar  
 21  11  31  1   
 22  12  18  2   
 23  12  19  am  
 24  13  20  ar  
 25  13  32  1   
 26  14  20  ar  
 27  14  33  1   
 28  15  21  ar  
 29  15  34  1   
 30  16  35  1   
 31  16  36  1   
 32  16  37  1   
 33  17  21  ar  
 34  17  22  1   
 35  19  23  1   
 36  19  38  1   
 37  20  39  1   
 38  21  40  1   
 39  22  41  1   
 40  22  42  1   
 41  22  43  1   
 42  23  24  1   
 43  23  44  1   
 44  23  45  1   
 45  24  25  1   
 46  24  26  1   
 47  24  46  1   
 48  25  47  1   
 49  25  48  1   
 50  25  49  1   
 51  26  50  1   
 52  26  51  1   
 53  26  52  1   
@<TRIPOS>SUBSTRUCTURE
  1 ****   4 GROUP 4 **** **** 0

# MOE 2024.06 (io_trps.svl 2023.06)
