@<TRIPOS>MOLECULE
NONAME
50 51 1 0 0 
SMALL
USER_CHARGES


@<TRIPOS>ATOM
  1 O        1.5020     1.0470     0.6900 O.3   1 <1>  -0.3630 
  2 C        0.6460     2.0340     0.3040 C.ar  1 <1>   0.0830 
  3 C        1.0990     0.0690     1.6280 C.3   1 <1>   0.0400 
  4 C        0.9860     2.7840    -0.8200 C.ar  1 <1>  -0.1440 
  5 C       -0.5350     2.3160     0.9870 C.ar  1 <1>  -0.1500 
  6 C        0.1440     3.7990    -1.2500 C.ar  1 <1>  -0.1500 
  7 C        2.2740     2.4980    -1.5710 C.3   1 <1>  -0.0160 
  8 C       -1.3650     3.3320     0.5510 C.ar  1 <1>  -0.1500 
  9 C       -1.0270     4.0720    -0.5670 C.ar  1 <1>  -0.1500 
 10 C        3.4470     2.8890    -0.6740 C.3   1 <1>   0.3430 
 11 N        4.7440     2.4410    -1.2620 N.4   1 <1>  -0.9060 
 12 C        5.9060     2.6550    -0.3660 C.3   1 <1>   0.4230 
 13 C        6.2270     4.1470    -0.2380 C.3   1 <1>  -0.1600 
 14 C        7.1110     1.9010    -0.9270 C.3   1 <1>  -0.1600 
 15 C        7.4800     4.3660     0.6130 C.3   1 <1>   0.3430 
 16 C        8.3560     2.1380    -0.0700 C.3   1 <1>   0.3430 
 17 N        8.6280     3.6030     0.0450 N.4   1 <1>  -0.9590 
 18 C        9.8530     3.8640     0.8650 C.3   1 <1>   0.3430 
 19 C       11.1120     3.4550     0.0960 C.3   1 <1>  -0.1600 
 20 C       12.3730     3.8320     0.8810 C.3   1 <1>  -0.2400 
 21 H        1.8700    -0.6780     1.6920 H     1 <1>   0.0800 
 22 H        0.1820    -0.3840     1.2900 H     1 <1>   0.0800 
 23 H        0.9630     0.5360     2.5870 H     1 <1>   0.0800 
 24 H       -0.8270     1.7620     1.8590 H     1 <1>   0.1500 
 25 H        0.3820     4.3870    -2.1200 H     1 <1>   0.1500 
 26 H        2.3010     3.0570    -2.4900 H     1 <1>   0.0800 
 27 H        2.3050     1.4480    -1.8030 H     1 <1>   0.0800 
 28 H       -2.2780     3.5470     1.0810 H     1 <1>   0.1500 
 29 H       -1.6780     4.8610    -0.9040 H     1 <1>   0.1500 
 30 H        3.3090     2.4290     0.2920 H     1 <1>   0.0800 
 31 H        3.4390     3.9590    -0.5360 H     1 <1>   0.0800 
 32 H        4.8830     2.9040    -2.1690 H     1 <1>   0.4500 
 33 H        4.6480     1.4350    -1.4610 H     1 <1>   0.4500 
 34 H        5.6750     2.2580     0.6120 H     1 <1>   0.0800 
 35 H        5.4130     4.6620     0.2410 H     1 <1>   0.0800 
 36 H        6.3810     4.5900    -1.2060 H     1 <1>   0.0800 
 37 H        7.3210     2.2100    -1.9360 H     1 <1>   0.0800 
 38 H        6.9070     0.8440    -0.9340 H     1 <1>   0.0800 
 39 H        7.2940     4.0430     1.6250 H     1 <1>   0.0800 
 40 H        7.7170     5.4200     0.6390 H     1 <1>   0.0800 
 41 H        9.1990     1.6380    -0.5200 H     1 <1>   0.0800 
 42 H        8.2090     1.7170     0.9140 H     1 <1>   0.0800 
 43 H        8.8410     3.9760    -0.8930 H     1 <1>   0.4500 
 44 H        9.8040     3.3270     1.7990 H     1 <1>   0.0800 
 45 H        9.9220     4.9170     1.0890 H     1 <1>   0.0800 
 46 H       11.1430     3.9570    -0.8550 H     1 <1>   0.0800 
 47 H       11.1290     2.3920    -0.0700 H     1 <1>   0.0800 
 48 H       12.4200     4.8960     1.0460 H     1 <1>   0.0800 
 49 H       13.2510     3.5420     0.3280 H     1 <1>   0.0800 
 50 H       12.3980     3.3330     1.8340 H     1 <1>   0.0800 
@<TRIPOS>BOND
  1   1   2  1   
  2   1   3  1   
  3   2   4  ar  
  4   2   5  ar  
  5   3  21  1   
  6   3  22  1   
  7   3  23  1   
  8   4   6  ar  
  9   4   7  1   
 10   5   8  ar  
 11   5  24  1   
 12   6   9  ar  
 13   6  25  1   
 14   7  10  1   
 15   7  26  1   
 16   7  27  1   
 17   8   9  ar  
 18   8  28  1   
 19   9  29  1   
 20  10  11  1   
 21  10  30  1   
 22  10  31  1   
 23  11  12  1   
 24  11  32  1   
 25  11  33  1   
 26  12  13  1   
 27  12  14  1   
 28  12  34  1   
 29  13  15  1   
 30  13  35  1   
 31  13  36  1   
 32  14  16  1   
 33  14  37  1   
 34  14  38  1   
 35  15  17  1   
 36  15  39  1   
 37  15  40  1   
 38  16  17  1   
 39  16  41  1   
 40  16  42  1   
 41  17  18  1   
 42  17  43  1   
 43  18  19  1   
 44  18  44  1   
 45  18  45  1   
 46  19  20  1   
 47  19  46  1   
 48  19  47  1   
 49  20  48  1   
 50  20  49  1   
 51  20  50  1   
@<TRIPOS>SUBSTRUCTURE
  1 ****  10 GROUP 4 **** **** 0

# MOE 2024.06 (io_trps.svl 2023.06)
