@<TRIPOS>MOLECULE
NONAME
50 52 1 0 0 
SMALL
USER_CHARGES


@<TRIPOS>ATOM
  1 S       -0.4700     0.6250     1.9340 S.o2  1 <1>   1.4470 
  2 O        0.0870    -0.1200     3.0450 O.2   1 <1>  -0.6500 
  3 O       -1.3920     1.7070     2.2030 O.2   1 <1>  -0.6500 
  4 N        0.8470     1.2820     1.0910 N.am  1 <1>  -0.8490 
  5 C       -1.2090    -0.5080     0.7250 C.ar  1 <1>  -0.0090 
  6 C        1.9070     0.2940     0.8750 C.3   1 <1>   0.1960 
  7 C        1.3560     2.4860     1.7530 C.3   1 <1>   0.1960 
  8 C       -1.4920    -1.8290     1.0510 C.ar  1 <1>  -0.1500 
  9 C       -1.5070    -0.0810    -0.5630 C.ar  1 <1>  -0.1500 
 10 C        3.0060     0.8800    -0.0120 C.3   1 <1>  -0.1600 
 11 C        2.4470     3.1380     0.9000 C.3   1 <1>  -0.1600 
 12 C       -2.0460    -2.6950     0.1230 C.ar  1 <1>  -0.1500 
 13 C       -2.0620    -0.9400    -1.4960 C.ar  1 <1>  -0.1500 
 14 C        3.5990     2.1570     0.6080 C.3   1 <1>  -0.0190 
 15 C       -2.3320    -2.2550    -1.1580 C.ar  1 <1>  -0.1430 
 16 C        4.6940     2.7550    -0.2890 C.2   1 <1>   0.5690 
 17 C       -2.9410    -3.2000    -2.1770 C.3   1 <1>  -0.0970 
 18 O        4.3860     3.6740    -1.0130 O.2   1 <1>  -0.5700 
 19 N        5.9790     2.2600    -0.2760 N.am  1 <1>  -0.6600 
 20 C        7.0330     2.8550    -1.1500 C.3   1 <1>   0.1400 
 21 C        6.4750     1.1070     0.5320 C.3   1 <1>   0.1400 
 22 C        7.5780     1.7870    -2.1040 C.3   1 <1>  -0.1600 
 23 C        7.0120     0.0160    -0.4010 C.3   1 <1>  -0.1600 
 24 C        8.0950     0.5590    -1.3420 C.3   1 <1>  -0.1600 
 25 H        1.4980    -0.5780     0.3910 H     1 <1>   0.0800 
 26 H        2.3240    -0.0120     1.8220 H     1 <1>   0.0800 
 27 H        1.7430     2.2320     2.7270 H     1 <1>   0.0800 
 28 H        0.5560     3.1960     1.8840 H     1 <1>   0.0800 
 29 H       -1.2770    -2.1870     2.0440 H     1 <1>   0.1500 
 30 H       -1.3000     0.9400    -0.8370 H     1 <1>   0.1500 
 31 H        2.5920     1.1060    -0.9800 H     1 <1>   0.0800 
 32 H        3.7760     0.1440    -0.1530 H     1 <1>   0.0800 
 33 H        2.8300     4.0040     1.4090 H     1 <1>   0.0800 
 34 H        2.0030     3.4730    -0.0220 H     1 <1>   0.0800 
 35 H       -2.2560    -3.7120     0.4040 H     1 <1>   0.1500 
 36 H       -2.2820    -0.5790    -2.4860 H     1 <1>   0.1500 
 37 H        4.0390     1.9170     1.5570 H     1 <1>   0.0800 
 38 H       -2.6270    -4.2110    -1.9880 H     1 <1>   0.0800 
 39 H       -2.6350    -2.9300    -3.1710 H     1 <1>   0.0800 
 40 H       -4.0140    -3.1530    -2.1200 H     1 <1>   0.0800 
 41 H        7.8280     3.2340    -0.5320 H     1 <1>   0.0800 
 42 H        6.6410     3.6790    -1.7230 H     1 <1>   0.0800 
 43 H        5.7030     0.6900     1.1490 H     1 <1>   0.0800 
 44 H        7.2640     1.4510     1.1780 H     1 <1>   0.0800 
 45 H        8.3720     2.2100    -2.6920 H     1 <1>   0.0800 
 46 H        6.7920     1.4950    -2.7790 H     1 <1>   0.0800 
 47 H        6.1970    -0.3810    -0.9800 H     1 <1>   0.0800 
 48 H        7.4190    -0.7880     0.1880 H     1 <1>   0.0800 
 49 H        8.9620     0.8370    -0.7670 H     1 <1>   0.0800 
 50 H        8.3900    -0.2050    -2.0410 H     1 <1>   0.0800 
@<TRIPOS>BOND
  1   1   2  2   
  2   1   3  2   
  3   1   4  am  
  4   1   5  1   
  5   4   6  1   
  6   4   7  1   
  7   5   8  ar  
  8   5   9  ar  
  9   6  10  1   
 10   6  25  1   
 11   6  26  1   
 12   7  11  1   
 13   7  27  1   
 14   7  28  1   
 15   8  12  ar  
 16   8  29  1   
 17   9  13  ar  
 18   9  30  1   
 19  10  14  1   
 20  10  31  1   
 21  10  32  1   
 22  11  14  1   
 23  11  33  1   
 24  11  34  1   
 25  12  15  ar  
 26  12  35  1   
 27  13  15  ar  
 28  13  36  1   
 29  14  16  1   
 30  14  37  1   
 31  15  17  1   
 32  16  18  2   
 33  16  19  am  
 34  17  38  1   
 35  17  39  1   
 36  17  40  1   
 37  19  20  1   
 38  19  21  1   
 39  20  22  1   
 40  20  41  1   
 41  20  42  1   
 42  21  23  1   
 43  21  43  1   
 44  21  44  1   
 45  22  24  1   
 46  22  45  1   
 47  22  46  1   
 48  23  24  1   
 49  23  47  1   
 50  23  48  1   
 51  24  49  1   
 52  24  50  1   
@<TRIPOS>SUBSTRUCTURE
  1 ****   6 GROUP 4 **** **** 0

# MOE 2024.06 (io_trps.svl 2023.06)
