@<TRIPOS>MOLECULE
NONAME
58 62 1 0 0 
SMALL
USER_CHARGES


@<TRIPOS>ATOM
  1 O        0.3500    -0.7760    -0.7030 O.2   1 <1>  -0.5700 
  2 C        0.5870    -1.9590    -0.6840 C.2   1 <1>   0.5690 
  3 N        1.8530    -2.4380    -0.7990 N.am  1 <1>  -0.7300 
  4 C       -0.5700    -2.9340    -0.5070 C.3   1 <1>  -0.0190 
  5 C        3.0810    -1.6220    -0.9120 C.3   1 <1>   0.1400 
  6 C       -0.5310    -3.5810     0.9010 C.3   1 <1>   0.2070 
  7 C       -0.6170    -4.0440    -1.6170 C.3   1 <1>  -0.1600 
  8 C        3.8350    -1.6520     0.4160 C.3   1 <1>  -0.0160 
  9 C        0.6690    -4.5330     0.9090 C.ar  1 <1>  -0.1440 
 10 C       -1.7640    -4.4840     0.9710 C.ar  1 <1>  -0.1440 
 11 C       -0.6160    -5.4490    -0.9710 C.3   1 <1>   0.2070 
 12 C        5.1210    -0.8500     0.3130 C.ar  1 <1>  -0.1440 
 13 C        0.6330    -5.4990    -0.0870 C.ar  1 <1>  -0.1440 
 14 C        1.7390    -4.4670     1.7840 C.ar  1 <1>  -0.1500 
 15 C       -1.8080    -5.4640    -0.0120 C.ar  1 <1>  -0.1440 
 16 C       -2.7820    -4.3830     1.9030 C.ar  1 <1>  -0.1500 
 17 C        6.3250    -1.4810     0.0470 C.ar  1 <1>  -0.1500 
 18 C        5.1020     0.5230     0.4800 C.ar  1 <1>  -0.1500 
 19 C        1.6750    -6.4000    -0.2190 C.ar  1 <1>  -0.1500 
 20 C        2.7820    -5.3690     1.6500 C.ar  1 <1>  -0.1500 
 21 C       -2.8710    -6.3480    -0.0670 C.ar  1 <1>  -0.1500 
 22 C       -3.8460    -5.2680     1.8460 C.ar  1 <1>  -0.1500 
 23 C        7.5070    -0.7660    -0.0520 C.ar  1 <1>   0.0820 
 24 C        6.2710     1.2570     0.3750 C.ar  1 <1>  -0.1500 
 25 C        2.7510    -6.3300     0.6510 C.ar  1 <1>  -0.1500 
 26 C       -3.8900    -6.2460     0.8650 C.ar  1 <1>  -0.1500 
 27 O        8.6130    -1.5240    -0.3030 O.3   1 <1>  -0.3620 
 28 C        7.4860     0.6310     0.1010 C.ar  1 <1>   0.0820 
 29 C        9.8830    -1.1520     0.1860 C.3   1 <1>   0.0400 
 30 O        8.6370     1.3520    -0.0370 O.3   1 <1>  -0.3630 
 31 C        8.6340     2.7620    -0.1030 C.3   1 <1>   0.0400 
 32 H        1.9980    -3.4420    -0.6360 H     1 <1>   0.3700 
 33 H       -1.4780    -2.3610    -0.5720 H     1 <1>   0.0800 
 34 H        2.8250    -0.6060    -1.1620 H     1 <1>   0.0800 
 35 H        3.7020    -2.0180    -1.6970 H     1 <1>   0.0800 
 36 H       -0.5010    -2.8540     1.6940 H     1 <1>   0.0800 
 37 H        0.2200    -3.9580    -2.2860 H     1 <1>   0.0800 
 38 H       -1.5130    -3.9250    -2.2000 H     1 <1>   0.0800 
 39 H        4.0640    -2.6700     0.6780 H     1 <1>   0.0800 
 40 H        3.2130    -1.2350     1.1880 H     1 <1>   0.0800 
 41 H       -0.6510    -6.2430    -1.6950 H     1 <1>   0.0800 
 42 H        1.7660    -3.7220     2.5590 H     1 <1>   0.1500 
 43 H       -2.7510    -3.6260     2.6670 H     1 <1>   0.1500 
 44 H        6.3620    -2.5470    -0.0860 H     1 <1>   0.1500 
 45 H        4.1750     1.0280     0.6890 H     1 <1>   0.1500 
 46 H        1.6520    -7.1530    -0.9880 H     1 <1>   0.1500 
 47 H        3.6190    -5.3250     2.3260 H     1 <1>   0.1500 
 48 H       -2.9090    -7.1110    -0.8250 H     1 <1>   0.1500 
 49 H       -4.6410    -5.1960     2.5670 H     1 <1>   0.1500 
 50 H        6.2060     2.3190     0.5110 H     1 <1>   0.1500 
 51 H        3.5640    -7.0290     0.5560 H     1 <1>   0.1500 
 52 H       -4.7200    -6.9310     0.8290 H     1 <1>   0.1500 
 53 H       10.5080    -2.0260     0.1920 H     1 <1>   0.0800 
 54 H        9.7760    -0.7660     1.1840 H     1 <1>   0.0800 
 55 H       10.3020    -0.4100    -0.4690 H     1 <1>   0.0800 
 56 H        9.6390     3.0880    -0.3010 H     1 <1>   0.0800 
 57 H        8.3020     3.1550     0.8410 H     1 <1>   0.0800 
 58 H        7.9850     3.0720    -0.9030 H     1 <1>   0.0800 
@<TRIPOS>BOND
  1   1   2  2   
  2   2   3  am  
  3   2   4  1   
  4   3   5  1   
  5   3  32  1   
  6   4   6  1   
  7   4   7  1   
  8   4  33  1   
  9   5   8  1   
 10   5  34  1   
 11   5  35  1   
 12   6   9  1   
 13   6  10  1   
 14   6  36  1   
 15   7  11  1   
 16   7  37  1   
 17   7  38  1   
 18   8  12  1   
 19   8  39  1   
 20   8  40  1   
 21   9  13  ar  
 22   9  14  ar  
 23  10  15  ar  
 24  10  16  ar  
 25  11  13  1   
 26  11  15  1   
 27  11  41  1   
 28  12  17  ar  
 29  12  18  ar  
 30  13  19  ar  
 31  14  20  ar  
 32  14  42  1   
 33  15  21  ar  
 34  16  22  ar  
 35  16  43  1   
 36  17  23  ar  
 37  17  44  1   
 38  18  24  ar  
 39  18  45  1   
 40  19  25  ar  
 41  19  46  1   
 42  20  25  ar  
 43  20  47  1   
 44  21  26  ar  
 45  21  48  1   
 46  22  26  ar  
 47  22  49  1   
 48  23  27  1   
 49  23  28  ar  
 50  24  28  ar  
 51  24  50  1   
 52  25  51  1   
 53  26  52  1   
 54  27  29  1   
 55  28  30  1   
 56  29  53  1   
 57  29  54  1   
 58  29  55  1   
 59  30  31  1   
 60  31  56  1   
 61  31  57  1   
 62  31  58  1   
@<TRIPOS>SUBSTRUCTURE
  1 ****   3 GROUP 4 **** **** 0

# MOE 2024.06 (io_trps.svl 2023.06)
