@<TRIPOS>MOLECULE
NONAME
49 50 1 0 0 
SMALL
USER_CHARGES


@<TRIPOS>ATOM
  1 S       -1.1750    -0.1300    -2.4390 S.2   1 <1>  -0.3800 
  2 C       -2.2610     0.8030    -1.6940 C.2   1 <1>   0.5000 
  3 N       -1.8700     1.6490    -0.7280 N.am  1 <1>  -0.5390 
  4 N       -3.5480     0.7350    -2.0250 N.am  1 <1>  -0.7300 
  5 C       -2.7310     2.4720    -0.0240 C.2   1 <1>  -0.0290 
  6 C       -4.6150     1.5110    -1.3590 C.3   1 <1>   0.5020 
  7 C       -4.0710     2.4500    -0.2740 C.2   1 <1>  -0.1240 
  8 C       -2.0170     3.3510     0.9930 C.3   1 <1>  -0.1020 
  9 C       -5.6060     0.4990    -0.7900 C.ar  1 <1>  -0.1440 
 10 C       -5.1000     3.2060     0.3750 C.2   1 <1>   0.7060 
 11 C       -5.2580    -0.2850     0.3040 C.ar  1 <1>  -0.1500 
 12 C       -6.8650     0.3560    -1.3570 C.ar  1 <1>  -0.1500 
 13 O       -5.0010     3.6530     1.5000 O.2   1 <1>  -0.5700 
 14 O       -6.2400     3.4230    -0.2980 O.3   1 <1>  -0.4300 
 15 C       -6.1570    -1.2020     0.8390 C.ar  1 <1>   0.0830 
 16 C       -7.7650    -0.5560    -0.8380 C.ar  1 <1>  -0.1500 
 17 C       -7.3720     4.0330     0.2890 C.3   1 <1>   0.1200 
 18 O       -5.8590    -1.9850     1.9160 O.3   1 <1>  -0.3630 
 19 C       -7.4150    -1.3380     0.2510 C.ar  1 <1>   0.0830 
 20 C       -8.1680     2.9690     1.0440 C.3   1 <1>  -0.2400 
 21 C       -4.6700    -1.8020     2.6510 C.3   1 <1>   0.0400 
 22 O       -8.3180    -2.2190     0.7490 O.3   1 <1>  -0.3630 
 23 C       -8.5760    -3.3800    -0.0100 C.3   1 <1>   0.1200 
 24 C       -7.4360    -4.3870     0.1830 C.3   1 <1>  -0.1600 
 25 C       -7.7240    -5.7050    -0.5430 C.3   1 <1>  -0.2400 
 26 H       -0.8680     1.6610    -0.5260 H     1 <1>   0.3700 
 27 H       -3.8600     0.0440    -2.7070 H     1 <1>   0.3700 
 28 H       -5.1020     2.1050    -2.1130 H     1 <1>   0.0800 
 29 H       -1.1390     3.7870     0.5520 H     1 <1>   0.0800 
 30 H       -1.7230     2.7610     1.8410 H     1 <1>   0.0800 
 31 H       -2.6340     4.1590     1.3370 H     1 <1>   0.0800 
 32 H       -4.2770    -0.1680     0.7240 H     1 <1>   0.1500 
 33 H       -7.1560     0.9580    -2.2010 H     1 <1>   0.1500 
 34 H       -8.7440    -0.6600    -1.2690 H     1 <1>   0.1500 
 35 H       -7.9660     4.4500    -0.5050 H     1 <1>   0.0800 
 36 H       -7.0540     4.8280     0.9430 H     1 <1>   0.0800 
 37 H       -8.4760     2.1860     0.3760 H     1 <1>   0.0800 
 38 H       -9.0450     3.4130     1.4780 H     1 <1>   0.0800 
 39 H       -7.5750     2.5490     1.8370 H     1 <1>   0.0800 
 40 H       -4.6870    -2.4810     3.4840 H     1 <1>   0.0800 
 41 H       -4.6330    -0.7870     3.0070 H     1 <1>   0.0800 
 42 H       -3.8300    -2.0210     2.0170 H     1 <1>   0.0800 
 43 H       -8.6860    -3.1080    -1.0450 H     1 <1>   0.0800 
 44 H       -9.5020    -3.7940     0.3470 H     1 <1>   0.0800 
 45 H       -7.3120    -4.5780     1.2350 H     1 <1>   0.0800 
 46 H       -6.5200    -3.9690    -0.1960 H     1 <1>   0.0800 
 47 H       -8.6260    -6.1540    -0.1650 H     1 <1>   0.0800 
 48 H       -6.9110    -6.3920    -0.3900 H     1 <1>   0.0800 
 49 H       -7.8350    -5.5360    -1.6000 H     1 <1>   0.0800 
@<TRIPOS>BOND
  1   1   2  2   
  2   2   3  am  
  3   2   4  am  
  4   3   5  1   
  5   3  26  1   
  6   4   6  1   
  7   4  27  1   
  8   5   7  2   
  9   5   8  1   
 10   6   7  1   
 11   6   9  1   
 12   6  28  1   
 13   7  10  1   
 14   8  29  1   
 15   8  30  1   
 16   8  31  1   
 17   9  11  ar  
 18   9  12  ar  
 19  10  13  2   
 20  10  14  1   
 21  11  15  ar  
 22  11  32  1   
 23  12  16  ar  
 24  12  33  1   
 25  14  17  1   
 26  15  18  1   
 27  15  19  ar  
 28  16  19  ar  
 29  16  34  1   
 30  17  20  1   
 31  17  35  1   
 32  17  36  1   
 33  18  21  1   
 34  19  22  1   
 35  20  37  1   
 36  20  38  1   
 37  20  39  1   
 38  21  40  1   
 39  21  41  1   
 40  21  42  1   
 41  22  23  1   
 42  23  24  1   
 43  23  43  1   
 44  23  44  1   
 45  24  25  1   
 46  24  45  1   
 47  24  46  1   
 48  25  47  1   
 49  25  48  1   
 50  25  49  1   
@<TRIPOS>SUBSTRUCTURE
  1 ****  11 GROUP 4 **** **** 0

# MOE 2024.06 (io_trps.svl 2023.06)
