@<TRIPOS>MOLECULE
NONAME
35 36 1 0 0 
SMALL
USER_CHARGES


@<TRIPOS>ATOM
  1 S       -0.0970    -0.0800    -0.0690 S.3   1 <1>  -0.4600 
  2 C        1.5030     0.7670    -0.1530 C.3   1 <1>   0.0700 
  3 C        0.3300    -1.7800    -0.5260 C.3   1 <1>   0.0700 
  4 C        2.5210    -0.0020     0.6980 C.3   1 <1>   0.3430 
  5 C        1.4780    -2.2650     0.3690 C.3   1 <1>   0.3430 
  6 N        2.7150    -1.4230     0.2300 N.4   1 <1>  -0.9590 
  7 C        3.8680    -2.0570     0.9290 C.3   1 <1>   0.4860 
  8 C        5.1290    -1.3110     0.5430 C.ar  1 <1>  -0.1430 
  9 C        5.7500    -0.4700     1.4550 C.ar  1 <1>  -0.1500 
 10 C        5.6700    -1.4560    -0.7270 C.ar  1 <1>  -0.1500 
 11 C        6.8870     0.2300     1.0940 C.ar  1 <1>  -0.1500 
 12 C        6.8070    -0.7540    -1.0830 C.ar  1 <1>  -0.1500 
 13 C        7.4200     0.0950    -0.1770 C.ar  1 <1>  -0.1430 
 14 C        8.6720     0.8640    -0.5700 C.3   1 <1>  -0.0170 
 15 C        9.9250     0.0470    -0.2500 C.3   1 <1>  -0.2400 
 16 H        1.3520     1.7620     0.2280 H     1 <1>   0.0800 
 17 H        1.7990     0.8180    -1.1860 H     1 <1>   0.0800 
 18 H        0.5990    -1.7850    -1.5680 H     1 <1>   0.0800 
 19 H       -0.5550    -2.3750    -0.3800 H     1 <1>   0.0800 
 20 H        2.1900     0.0020     1.7240 H     1 <1>   0.0800 
 21 H        3.4610     0.5260     0.6530 H     1 <1>   0.0800 
 22 H        1.7050    -3.2860     0.1070 H     1 <1>   0.0800 
 23 H        1.1440    -2.2530     1.3940 H     1 <1>   0.0800 
 24 H        2.9790    -1.3750    -0.7620 H     1 <1>   0.4500 
 25 H        3.9650    -3.0880     0.6310 H     1 <1>   0.0800 
 26 H        3.7280    -2.0200     1.9970 H     1 <1>   0.0800 
 27 H        5.3650    -0.3490     2.4530 H     1 <1>   0.1500 
 28 H        5.2250    -2.1150    -1.4530 H     1 <1>   0.1500 
 29 H        7.3650     0.8790     1.8080 H     1 <1>   0.1500 
 30 H        7.2230    -0.8720    -2.0700 H     1 <1>   0.1500 
 31 H        8.7080     1.8000    -0.0400 H     1 <1>   0.0800 
 32 H        8.6480     1.0880    -1.6230 H     1 <1>   0.0800 
 33 H        9.9710    -0.1670     0.8030 H     1 <1>   0.0800 
 34 H       10.8060     0.5950    -0.5300 H     1 <1>   0.0800 
 35 H        9.9110    -0.8840    -0.7900 H     1 <1>   0.0800 
@<TRIPOS>BOND
  1   1   2  1   
  2   1   3  1   
  3   2   4  1   
  4   2  16  1   
  5   2  17  1   
  6   3   5  1   
  7   3  18  1   
  8   3  19  1   
  9   4   6  1   
 10   4  20  1   
 11   4  21  1   
 12   5   6  1   
 13   5  22  1   
 14   5  23  1   
 15   6   7  1   
 16   6  24  1   
 17   7   8  1   
 18   7  25  1   
 19   7  26  1   
 20   8   9  ar  
 21   8  10  ar  
 22   9  11  ar  
 23   9  27  1   
 24  10  12  ar  
 25  10  28  1   
 26  11  13  ar  
 27  11  29  1   
 28  12  13  ar  
 29  12  30  1   
 30  13  14  1   
 31  14  15  1   
 32  14  31  1   
 33  14  32  1   
 34  15  33  1   
 35  15  34  1   
 36  15  35  1   
@<TRIPOS>SUBSTRUCTURE
  1 ****   8 GROUP 4 **** **** 0

# MOE 2024.06 (io_trps.svl 2023.06)
