@<TRIPOS>MOLECULE
NONAME
44 45 1 0 0 
SMALL
USER_CHARGES


@<TRIPOS>ATOM
  1 O        0.6460     0.5380     0.5730 O.3   1 <1>  -0.3630 
  2 C       -0.6130     1.0360     0.4820 C.ar  1 <1>   0.0830 
  3 C        1.7610     1.2900     0.1720 C.3   1 <1>   0.1200 
  4 C       -0.9160     2.3050    -0.0030 C.ar  1 <1>  -0.1500 
  5 C       -1.6400     0.2100     0.9020 C.ar  1 <1>  -0.1500 
  6 C        2.9970     0.4230     0.4080 C.3   1 <1>  -0.1600 
  7 C       -2.2310     2.7430    -0.0660 C.ar  1 <1>  -0.1440 
  8 C       -2.9520     0.6400     0.8410 C.ar  1 <1>  -0.1500 
  9 C        4.2660     1.1600    -0.0130 C.3   1 <1>   0.3430 
 10 C       -3.2570     1.9040     0.3590 C.ar  1 <1>  -0.1440 
 11 C       -2.5240     4.1380    -0.6020 C.3   1 <1>  -0.0960 
 12 N        5.4720     0.3530     0.3230 N.4   1 <1>  -0.9590 
 13 C       -4.7150     2.3400     0.3090 C.3   1 <1>  -0.0970 
 14 C        6.7010     1.2010     0.2770 C.3   1 <1>   0.3430 
 15 C        5.6130    -0.8550    -0.5490 C.3   1 <1>   0.3430 
 16 C        7.9030     0.3960     0.7740 C.3   1 <1>  -0.1600 
 17 C        6.7930    -1.7020    -0.0710 C.3   1 <1>  -0.1600 
 18 C        8.0960    -0.8940    -0.0320 C.3   1 <1>  -0.1600 
 19 H        1.7910     2.1890     0.7660 H     1 <1>   0.0800 
 20 H        1.6440     1.5310    -0.8720 H     1 <1>   0.0800 
 21 H       -0.1400     2.9650    -0.3340 H     1 <1>   0.1500 
 22 H       -1.4090    -0.7700     1.2760 H     1 <1>   0.1500 
 23 H        2.8810    -0.4810    -0.1620 H     1 <1>   0.0800 
 24 H        3.0460     0.1840     1.4560 H     1 <1>   0.0800 
 25 H       -3.7340    -0.0180     1.1730 H     1 <1>   0.1500 
 26 H        4.3070     2.1020     0.5110 H     1 <1>   0.0800 
 27 H        4.2400     1.3650    -1.0720 H     1 <1>   0.0800 
 28 H       -1.6190     4.6440    -0.8830 H     1 <1>   0.0800 
 29 H       -3.0170     4.7250     0.1520 H     1 <1>   0.0800 
 30 H       -3.1570     4.0740    -1.4680 H     1 <1>   0.0800 
 31 H        5.3740     0.0180     1.2900 H     1 <1>   0.4500 
 32 H       -4.8590     3.2150     0.9160 H     1 <1>   0.0800 
 33 H       -5.3620     1.5650     0.6760 H     1 <1>   0.0800 
 34 H       -4.9980     2.5630    -0.7040 H     1 <1>   0.0800 
 35 H        6.5730     2.0730     0.8980 H     1 <1>   0.0800 
 36 H        6.8820     1.5270    -0.7350 H     1 <1>   0.0800 
 37 H        5.7780    -0.5510    -1.5700 H     1 <1>   0.0800 
 38 H        4.7140    -1.4490    -0.5130 H     1 <1>   0.0800 
 39 H        7.7710     0.1620     1.8170 H     1 <1>   0.0800 
 40 H        8.7890     1.0020     0.6920 H     1 <1>   0.0800 
 41 H        6.9150    -2.5410    -0.7360 H     1 <1>   0.0800 
 42 H        6.5760    -2.0980     0.9060 H     1 <1>   0.0800 
 43 H        8.8820    -1.4870     0.4070 H     1 <1>   0.0800 
 44 H        8.3960    -0.6480    -1.0380 H     1 <1>   0.0800 
@<TRIPOS>BOND
  1   1   2  1   
  2   1   3  1   
  3   2   4  ar  
  4   2   5  ar  
  5   3   6  1   
  6   3  19  1   
  7   3  20  1   
  8   4   7  ar  
  9   4  21  1   
 10   5   8  ar  
 11   5  22  1   
 12   6   9  1   
 13   6  23  1   
 14   6  24  1   
 15   7  10  ar  
 16   7  11  1   
 17   8  10  ar  
 18   8  25  1   
 19   9  12  1   
 20   9  26  1   
 21   9  27  1   
 22  10  13  1   
 23  11  28  1   
 24  11  29  1   
 25  11  30  1   
 26  12  14  1   
 27  12  15  1   
 28  12  31  1   
 29  13  32  1   
 30  13  33  1   
 31  13  34  1   
 32  14  16  1   
 33  14  35  1   
 34  14  36  1   
 35  15  17  1   
 36  15  37  1   
 37  15  38  1   
 38  16  18  1   
 39  16  39  1   
 40  16  40  1   
 41  17  18  1   
 42  17  41  1   
 43  17  42  1   
 44  18  43  1   
 45  18  44  1   
@<TRIPOS>SUBSTRUCTURE
  1 ****   3 GROUP 4 **** **** 0

# MOE 2024.06 (io_trps.svl 2023.06)
