@<TRIPOS>MOLECULE
NONAME
60 65 1 0 0 
SMALL
USER_CHARGES


@<TRIPOS>ATOM
  1 S       -0.3560    -0.9860    -0.3940 S.3   1 <1>  -0.0800 
  2 C       -1.6500     0.2050    -0.2070 C.ar  1 <1>   0.2970 
  3 C        0.8750     0.2050     0.0440 C.ar  1 <1>   0.0400 
  4 N       -2.8930    -0.1480    -0.4070 N.ar  1 <1>  -0.5670 
  5 C       -1.1420     1.4500     0.1550 C.ar  1 <1>   0.0000 
  6 C        2.2510     0.0040     0.1400 C.ar  1 <1>   0.4100 
  7 C        0.2890     1.4120     0.3050 C.ar  1 <1>   0.3070 
  8 C       -3.7670     0.8320    -0.2330 C.ar  1 <1>   0.4100 
  9 C       -2.0730     2.4840     0.3120 C.ar  1 <1>  -0.1430 
 10 N        3.0340     1.0310     0.5090 N.ar  1 <1>  -0.6200 
 11 N        2.8230    -1.1820    -0.1220 N.pl3 1 <1>  -0.8690 
 12 N        1.1340     2.4060     0.6830 N.ar  1 <1>  -0.1250 
 13 N       -5.0810     0.4960    -0.4490 N.pl3 1 <1>  -0.8380 
 14 C       -3.4050     2.1450     0.1330 C.ar  1 <1>  -0.1430 
 15 C       -1.6490     3.9100     0.6740 C.3   1 <1>  -0.0170 
 16 C        2.4680     2.1760     0.7670 C.ar  1 <1>   0.5210 
 17 C        4.2560    -1.5310    -0.0610 C.3   1 <1>   0.2890 
 18 C       -5.6290    -0.7140     0.2310 C.3   1 <1>   0.2090 
 19 C       -5.6060     0.6210    -1.8370 C.3   1 <1>   0.2090 
 20 C       -4.5230     3.1750     0.3200 C.3   1 <1>  -0.0170 
 21 C       -2.7600     4.9440     0.4720 C.3   1 <1>  -0.1600 
 22 C        4.7070    -1.9850    -1.4520 C.3   1 <1>  -0.1600 
 23 C        4.4430    -2.6440     0.9730 C.3   1 <1>  -0.1600 
 24 C       -7.1640    -0.7480     0.1260 C.3   1 <1>   0.1200 
 25 C       -7.1430     0.5270    -1.8470 C.3   1 <1>   0.1200 
 26 C       -4.0720     4.4350     1.0630 C.3   1 <1>  -0.1600 
 27 C        6.1630    -2.4760    -1.4320 C.3   1 <1>  -0.1600 
 28 C        5.8980    -3.1380     1.0020 C.3   1 <1>  -0.1600 
 29 O       -7.5830    -0.6410    -1.2090 O.3   1 <1>  -0.5600 
 30 C        6.3580    -3.5870    -0.3910 C.3   1 <1>  -0.1600 
 31 H        2.2400    -1.9770    -0.4030 H     1 <1>   0.4000 
 32 H        0.7590     3.3260     0.9100 H     1 <1>   0.4570 
 33 H       -0.8210     4.2170     0.0630 H     1 <1>   0.0800 
 34 H       -1.3570     3.9290     1.7100 H     1 <1>   0.0800 
 35 H        3.1030     2.9950     1.0690 H     1 <1>   0.1500 
 36 H        4.8420    -0.6770     0.2350 H     1 <1>   0.0800 
 37 H       -5.3350    -0.7080     1.2660 H     1 <1>   0.0800 
 38 H       -5.2220    -1.6000    -0.2270 H     1 <1>   0.0800 
 39 H       -5.1980    -0.1690    -2.4450 H     1 <1>   0.0800 
 40 H       -5.2980     1.5610    -2.2590 H     1 <1>   0.0800 
 41 H       -5.3390     2.7350     0.8670 H     1 <1>   0.0800 
 42 H       -4.8960     3.4520    -0.6500 H     1 <1>   0.0800 
 43 H       -2.8950     5.1300    -0.5810 H     1 <1>   0.0800 
 44 H       -2.4860     5.8740     0.9400 H     1 <1>   0.0800 
 45 H        4.6200    -1.1620    -2.1400 H     1 <1>   0.0800 
 46 H        4.0750    -2.7850    -1.7930 H     1 <1>   0.0800 
 47 H        3.8000    -3.4720     0.7330 H     1 <1>   0.0800 
 48 H        4.1750    -2.2740     1.9470 H     1 <1>   0.0800 
 49 H       -7.5940     0.0640     0.6860 H     1 <1>   0.0800 
 50 H       -7.5410    -1.6760     0.5150 H     1 <1>   0.0800 
 51 H       -7.5060     0.5040    -2.8590 H     1 <1>   0.0800 
 52 H       -7.5720     1.3750    -1.3430 H     1 <1>   0.0800 
 53 H       -3.9390     4.2080     2.1070 H     1 <1>   0.0800 
 54 H       -4.8330     5.1910     0.9810 H     1 <1>   0.0800 
 55 H        6.8160    -1.6520    -1.1980 H     1 <1>   0.0800 
 56 H        6.4340    -2.8430    -2.4070 H     1 <1>   0.0800 
 57 H        5.9870    -3.9580     1.6930 H     1 <1>   0.0800 
 58 H        6.5380    -2.3440     1.3490 H     1 <1>   0.0800 
 59 H        7.3970    -3.8670    -0.3540 H     1 <1>   0.0800 
 60 H        5.7960    -4.4560    -0.6890 H     1 <1>   0.0800 
@<TRIPOS>BOND
  1   1   2  1   
  2   1   3  1   
  3   2   4  ar  
  4   2   5  ar  
  5   3   6  ar  
  6   3   7  ar  
  7   4   8  ar  
  8   5   7  1   
  9   5   9  ar  
 10   6  10  ar  
 11   6  11  1   
 12   7  12  ar  
 13   8  13  1   
 14   8  14  ar  
 15   9  14  ar  
 16   9  15  1   
 17  10  16  ar  
 18  11  17  1   
 19  11  31  1   
 20  12  16  ar  
 21  12  32  1   
 22  13  18  1   
 23  13  19  1   
 24  14  20  1   
 25  15  21  1   
 26  15  33  1   
 27  15  34  1   
 28  16  35  1   
 29  17  22  1   
 30  17  23  1   
 31  17  36  1   
 32  18  24  1   
 33  18  37  1   
 34  18  38  1   
 35  19  25  1   
 36  19  39  1   
 37  19  40  1   
 38  20  26  1   
 39  20  41  1   
 40  20  42  1   
 41  21  26  1   
 42  21  43  1   
 43  21  44  1   
 44  22  27  1   
 45  22  45  1   
 46  22  46  1   
 47  23  28  1   
 48  23  47  1   
 49  23  48  1   
 50  24  29  1   
 51  24  49  1   
 52  24  50  1   
 53  25  29  1   
 54  25  51  1   
 55  25  52  1   
 56  26  53  1   
 57  26  54  1   
 58  27  30  1   
 59  27  55  1   
 60  27  56  1   
 61  28  30  1   
 62  28  57  1   
 63  28  58  1   
 64  30  59  1   
 65  30  60  1   
@<TRIPOS>SUBSTRUCTURE
  1 ****   2 GROUP 4 **** **** 0

# MOE 2024.06 (io_trps.svl 2023.06)
