@<TRIPOS>MOLECULE
NONAME
53 54 1 0 0 
SMALL
USER_CHARGES


@<TRIPOS>ATOM
  1 O        5.9890    -4.5000     2.2640 O.2   1 <1>  -0.5700 
  2 C        5.6450    -4.0990     1.1710 C.2   1 <1>   0.7800 
  3 O        6.2910    -4.4950     0.0770 O.3   1 <1>  -0.4300 
  4 N        4.5710    -3.2640     1.0090 N.am  1 <1>  -0.6600 
  5 C        7.4110    -5.3460     0.1680 C.3   1 <1>   0.1200 
  6 C        3.9870    -2.9320    -0.3230 C.3   1 <1>   0.1400 
  7 C        3.7540    -2.8140     2.1720 C.3   1 <1>   0.1400 
  8 C        7.9190    -5.6140    -1.2450 C.3   1 <1>  -0.2400 
  9 C        2.5590    -3.5000    -0.4290 C.3   1 <1>   0.3430 
 10 C        2.3280    -3.3860     2.0700 C.3   1 <1>   0.3430 
 11 N        1.6950    -3.0860     0.7360 N.4   1 <1>  -0.9590 
 12 C        0.2950    -3.6000     0.6260 C.3   1 <1>   0.3430 
 13 C       -0.5060    -2.7630    -0.3950 C.3   1 <1>   0.2000 
 14 O       -0.0680    -1.4370    -0.3360 O.3   1 <1>  -0.6800 
 15 C       -2.0170    -2.8010    -0.1400 C.3   1 <1>   0.1200 
 16 O       -2.6340    -1.8730    -1.0060 O.3   1 <1>  -0.3630 
 17 C       -3.9800    -1.7010    -1.0120 C.ar  1 <1>   0.0820 
 18 C       -4.8540    -2.3670    -0.1570 C.ar  1 <1>  -0.1500 
 19 C       -4.4880    -0.8040    -1.9340 C.ar  1 <1>  -0.1500 
 20 C       -6.2200    -2.1380    -0.2250 C.ar  1 <1>  -0.1440 
 21 C       -5.8480    -0.5720    -2.0050 C.ar  1 <1>  -0.1500 
 22 C       -6.7220    -1.2340    -1.1560 C.ar  1 <1>  -0.1440 
 23 C       -7.1460    -2.8850     0.7260 C.3   1 <1>  -0.0970 
 24 C       -8.2130    -0.9490    -1.2670 C.3   1 <1>  -0.0970 
 25 H        7.1090    -6.2610     0.6500 H     1 <1>   0.0800 
 26 H        8.1650    -4.8570     0.7630 H     1 <1>   0.0800 
 27 H        4.5880    -3.3350    -1.1190 H     1 <1>   0.0800 
 28 H        3.9650    -1.8620    -0.4440 H     1 <1>   0.0800 
 29 H        3.7180    -1.7390     2.1880 H     1 <1>   0.0800 
 30 H        4.1990    -3.1360     3.0990 H     1 <1>   0.0800 
 31 H        7.1570    -6.0950    -1.8300 H     1 <1>   0.0800 
 32 H        8.7770    -6.2610    -1.2040 H     1 <1>   0.0800 
 33 H        8.2100    -4.6920    -1.7160 H     1 <1>   0.0800 
 34 H        2.6250    -4.5750    -0.4670 H     1 <1>   0.0800 
 35 H        2.1160    -3.1600    -1.3500 H     1 <1>   0.0800 
 36 H        1.7260    -2.9720     2.8630 H     1 <1>   0.0800 
 37 H        2.3810    -4.4520     2.2150 H     1 <1>   0.0800 
 38 H        1.5690    -2.0580     0.6490 H     1 <1>   0.4500 
 39 H       -0.1910    -3.5080     1.5830 H     1 <1>   0.0800 
 40 H        0.2860    -4.6420     0.3500 H     1 <1>   0.0800 
 41 H       -0.3140    -3.1270    -1.3900 H     1 <1>   0.0800 
 42 H       -0.7410    -0.8720    -0.7880 H     1 <1>   0.4000 
 43 H       -2.2420    -2.5190     0.8740 H     1 <1>   0.0800 
 44 H       -2.4170    -3.7780    -0.3490 H     1 <1>   0.0800 
 45 H       -4.4890    -3.0670     0.5670 H     1 <1>   0.1500 
 46 H       -3.8180    -0.2870    -2.5970 H     1 <1>   0.1500 
 47 H       -6.2230     0.1290    -2.7300 H     1 <1>   0.1500 
 48 H       -6.5930    -3.5400     1.3740 H     1 <1>   0.0800 
 49 H       -7.8480    -3.4770     0.1670 H     1 <1>   0.0800 
 50 H       -7.6870    -2.1850     1.3370 H     1 <1>   0.0800 
 51 H       -8.7440    -1.8530    -1.5070 H     1 <1>   0.0800 
 52 H       -8.4120    -0.2270    -2.0380 H     1 <1>   0.0800 
 53 H       -8.5840    -0.5590    -0.3370 H     1 <1>   0.0800 
@<TRIPOS>BOND
  1   1   2  2   
  2   2   3  1   
  3   2   4  am  
  4   3   5  1   
  5   4   6  1   
  6   4   7  1   
  7   5   8  1   
  8   5  25  1   
  9   5  26  1   
 10   6   9  1   
 11   6  27  1   
 12   6  28  1   
 13   7  10  1   
 14   7  29  1   
 15   7  30  1   
 16   8  31  1   
 17   8  32  1   
 18   8  33  1   
 19   9  11  1   
 20   9  34  1   
 21   9  35  1   
 22  10  11  1   
 23  10  36  1   
 24  10  37  1   
 25  11  12  1   
 26  11  38  1   
 27  12  13  1   
 28  12  39  1   
 29  12  40  1   
 30  13  14  1   
 31  13  15  1   
 32  13  41  1   
 33  14  42  1   
 34  15  16  1   
 35  15  43  1   
 36  15  44  1   
 37  16  17  1   
 38  17  18  ar  
 39  17  19  ar  
 40  18  20  ar  
 41  18  45  1   
 42  19  21  ar  
 43  19  46  1   
 44  20  22  ar  
 45  20  23  1   
 46  21  22  ar  
 47  21  47  1   
 48  22  24  1   
 49  23  48  1   
 50  23  49  1   
 51  23  50  1   
 52  24  51  1   
 53  24  52  1   
 54  24  53  1   
@<TRIPOS>SUBSTRUCTURE
  1 ****  13 GROUP 4 **** **** 0

# MOE 2024.06 (io_trps.svl 2023.06)
