@<TRIPOS>MOLECULE
NONAME
43 45 1 0 0 
SMALL
USER_CHARGES


@<TRIPOS>ATOM
  1 BR      -0.0240    -0.6500    -0.4550 Br    1 <1>  -0.1110 
  2 C       -1.8220    -1.3300    -0.4250 C.ar  1 <1>   0.1110 
  3 C       -2.5740    -1.2770    -1.5830 C.ar  1 <1>  -0.1500 
  4 C       -2.3170    -1.8570     0.7520 C.ar  1 <1>  -0.1500 
  5 C       -3.8700    -1.7640    -1.5560 C.ar  1 <1>  -0.1500 
  6 C       -3.6130    -2.3420     0.7690 C.ar  1 <1>  -0.1500 
  7 C       -4.3960    -2.2920    -0.3810 C.ar  1 <1>  -0.1430 
  8 C       -5.8220    -2.8090    -0.3550 C.3   1 <1>   0.4870 
  9 N       -6.6720    -1.8250     0.3690 N.4   1 <1>  -0.9590 
 10 C       -8.0670    -2.3490     0.6020 C.3   1 <1>   0.3430 
 11 C       -6.7090    -0.4870    -0.3320 C.3   1 <1>   0.3430 
 12 C       -8.9550    -1.3520     1.3770 C.3   1 <1>   0.2090 
 13 C       -7.5660     0.5550     0.4160 C.3   1 <1>   0.2090 
 14 N       -8.9080     0.0110     0.7760 N.pl3 1 <1>  -0.8380 
 15 C      -10.0030     0.4240     0.0190 C.ar  1 <1>   0.1000 
 16 C      -10.9340     1.3230     0.5410 C.ar  1 <1>  -0.1430 
 17 C      -10.1840    -0.0590    -1.2730 C.ar  1 <1>  -0.1500 
 18 C      -12.0170     1.7180    -0.2280 C.ar  1 <1>  -0.1500 
 19 C      -10.7750     1.8790     1.9500 C.3   1 <1>  -0.0970 
 20 C      -11.2660     0.3390    -2.0350 C.ar  1 <1>  -0.1500 
 21 C      -12.1850     1.2290    -1.5120 C.ar  1 <1>  -0.1500 
 22 H       -2.1470    -0.8650    -2.4810 H     1 <1>   0.1500 
 23 H       -1.6940    -1.8870     1.6290 H     1 <1>   0.1500 
 24 H       -4.4530    -1.7290    -2.4610 H     1 <1>   0.1500 
 25 H       -3.9940    -2.7610     1.6850 H     1 <1>   0.1500 
 26 H       -5.8450    -3.7620     0.1490 H     1 <1>   0.0800 
 27 H       -6.1830    -2.9460    -1.3610 H     1 <1>   0.0800 
 28 H       -6.2330    -1.6610     1.2830 H     1 <1>   0.4500 
 29 H       -8.0270    -3.2760     1.1500 H     1 <1>   0.0800 
 30 H       -8.5410    -2.5460    -0.3450 H     1 <1>   0.0800 
 31 H       -7.1200    -0.6090    -1.3200 H     1 <1>   0.0800 
 32 H       -5.7090    -0.0980    -0.4380 H     1 <1>   0.0800 
 33 H       -8.6320    -1.2940     2.4020 H     1 <1>   0.0800 
 34 H       -9.9730    -1.7060     1.3780 H     1 <1>   0.0800 
 35 H       -7.6890     1.4280    -0.2040 H     1 <1>   0.0800 
 36 H       -7.0610     0.8660     1.3130 H     1 <1>   0.0800 
 37 H       -9.4780    -0.7490    -1.6880 H     1 <1>   0.1500 
 38 H      -12.7400     2.4100     0.1670 H     1 <1>   0.1500 
 39 H      -10.7910     1.0740     2.6620 H     1 <1>   0.0800 
 40 H      -11.5670     2.5650     2.1890 H     1 <1>   0.0800 
 41 H       -9.8370     2.3960     2.0320 H     1 <1>   0.0800 
 42 H      -11.3980    -0.0400    -3.0340 H     1 <1>   0.1500 
 43 H      -13.0300     1.5430    -2.1000 H     1 <1>   0.1500 
@<TRIPOS>BOND
  1   1   2  1   
  2   2   3  ar  
  3   2   4  ar  
  4   3   5  ar  
  5   3  22  1   
  6   4   6  ar  
  7   4  23  1   
  8   5   7  ar  
  9   5  24  1   
 10   6   7  ar  
 11   6  25  1   
 12   7   8  1   
 13   8   9  1   
 14   8  26  1   
 15   8  27  1   
 16   9  10  1   
 17   9  11  1   
 18   9  28  1   
 19  10  12  1   
 20  10  29  1   
 21  10  30  1   
 22  11  13  1   
 23  11  31  1   
 24  11  32  1   
 25  12  14  1   
 26  12  33  1   
 27  12  34  1   
 28  13  14  1   
 29  13  35  1   
 30  13  36  1   
 31  14  15  1   
 32  15  16  ar  
 33  15  17  ar  
 34  16  18  ar  
 35  16  19  1   
 36  17  20  ar  
 37  17  37  1   
 38  18  21  ar  
 39  18  38  1   
 40  19  39  1   
 41  19  40  1   
 42  19  41  1   
 43  20  21  ar  
 44  20  42  1   
 45  21  43  1   
@<TRIPOS>SUBSTRUCTURE
  1 ****  11 GROUP 4 **** **** 0

# MOE 2024.06 (io_trps.svl 2023.06)
