@<TRIPOS>MOLECULE
NONAME
47 48 1 0 0 
SMALL
USER_CHARGES


@<TRIPOS>ATOM
  1 O        0.2810     1.0520    -0.0530 O.2   1 <1>  -0.5700 
  2 C        0.8740     2.0470     0.3200 C.2   1 <1>   0.5440 
  3 N        0.1470     3.1100     0.8240 N.am  1 <1>  -0.6600 
  4 C        2.3190     2.0840     0.2130 C.ar  1 <1>   0.0860 
  5 C        0.6850     4.4940     0.9400 C.3   1 <1>   0.1400 
  6 C       -1.3050     2.9850     1.1290 C.3   1 <1>   0.1400 
  7 C        2.9520     1.8330    -1.0040 C.ar  1 <1>  -0.1500 
  8 C        3.1300     2.3630     1.3140 C.ar  1 <1>  -0.1500 
  9 C       -0.1040     5.4280     0.0180 C.3   1 <1>  -0.1600 
 10 C       -2.1050     3.9010     0.2010 C.3   1 <1>  -0.1600 
 11 C        4.3290     1.8740    -1.1210 C.ar  1 <1>  -0.1500 
 12 C        4.5070     2.4090     1.2060 C.ar  1 <1>  -0.1500 
 13 C       -1.6220     5.3620     0.2890 C.3   1 <1>  -0.0190 
 14 C        5.1190     2.1610    -0.0180 C.ar  1 <1>   0.0830 
 15 C       -2.4310     6.2670    -0.6390 C.2   1 <1>   0.6590 
 16 O        6.4610     2.1940    -0.2140 O.3   1 <1>  -0.2330 
 17 O       -1.9610     6.7800    -1.6230 O.2   1 <1>  -0.5700 
 18 O       -3.6960     6.4590    -0.2850 O.3   1 <1>  -0.4300 
 19 C        7.4490     2.0180     0.6640 C.2   1 <1>   0.6590 
 20 C       -4.5580     7.2670    -1.0500 C.3   1 <1>   0.1200 
 21 O        7.2820     1.7160     1.8170 O.2   1 <1>  -0.5700 
 22 C        8.8480     2.2170     0.1090 C.3   1 <1>  -0.0990 
 23 C       -5.9260     7.2700    -0.3770 C.3   1 <1>  -0.2400 
 24 C        9.1480     3.6840    -0.2430 C.3   1 <1>  -0.2400 
 25 H        1.7240     4.5310     0.6660 H     1 <1>   0.0800 
 26 H        0.5940     4.8210     1.9620 H     1 <1>   0.0800 
 27 H       -1.4710     3.2640     2.1560 H     1 <1>   0.0800 
 28 H       -1.6360     1.9680     1.0080 H     1 <1>   0.0800 
 29 H        2.3450     1.6000    -1.8620 H     1 <1>   0.1500 
 30 H        2.6650     2.5440     2.2670 H     1 <1>   0.1500 
 31 H        0.0950     5.1510    -1.0030 H     1 <1>   0.0800 
 32 H        0.2430     6.4370     0.1540 H     1 <1>   0.0800 
 33 H       -3.1460     3.8440     0.4660 H     1 <1>   0.0800 
 34 H       -2.0040     3.5420    -0.8090 H     1 <1>   0.0800 
 35 H        4.7950     1.6800    -2.0710 H     1 <1>   0.1500 
 36 H        5.0900     2.6410     2.0790 H     1 <1>   0.1500 
 37 H       -1.7950     5.7120     1.2910 H     1 <1>   0.0800 
 38 H       -4.6170     6.8570    -2.0450 H     1 <1>   0.0800 
 39 H       -4.1450     8.2610    -1.0940 H     1 <1>   0.0800 
 40 H        8.9590     1.6040    -0.7660 H     1 <1>   0.0800 
 41 H        9.5580     1.8770     0.8430 H     1 <1>   0.0800 
 42 H       -6.3190     6.2700    -0.3310 H     1 <1>   0.0800 
 43 H       -6.6070     7.8800    -0.9420 H     1 <1>   0.0800 
 44 H       -5.8500     7.6740     0.6170 H     1 <1>   0.0800 
 45 H        8.4630     4.0390    -0.9930 H     1 <1>   0.0800 
 46 H       10.1500     3.7760    -0.6220 H     1 <1>   0.0800 
 47 H        9.0540     4.3030     0.6320 H     1 <1>   0.0800 
@<TRIPOS>BOND
  1   1   2  2   
  2   2   3  am  
  3   2   4  1   
  4   3   5  1   
  5   3   6  1   
  6   4   7  ar  
  7   4   8  ar  
  8   5   9  1   
  9   5  25  1   
 10   5  26  1   
 11   6  10  1   
 12   6  27  1   
 13   6  28  1   
 14   7  11  ar  
 15   7  29  1   
 16   8  12  ar  
 17   8  30  1   
 18   9  13  1   
 19   9  31  1   
 20   9  32  1   
 21  10  13  1   
 22  10  33  1   
 23  10  34  1   
 24  11  14  ar  
 25  11  35  1   
 26  12  14  ar  
 27  12  36  1   
 28  13  15  1   
 29  13  37  1   
 30  14  16  1   
 31  15  17  2   
 32  15  18  1   
 33  16  19  1   
 34  18  20  1   
 35  19  21  2   
 36  19  22  1   
 37  20  23  1   
 38  20  38  1   
 39  20  39  1   
 40  22  24  1   
 41  22  40  1   
 42  22  41  1   
 43  23  42  1   
 44  23  43  1   
 45  23  44  1   
 46  24  45  1   
 47  24  46  1   
 48  24  47  1   
@<TRIPOS>SUBSTRUCTURE
  1 ****   5 GROUP 4 **** **** 0

# MOE 2024.06 (io_trps.svl 2023.06)
