@<TRIPOS>MOLECULE
NONAME
48 51 1 0 0 
SMALL
USER_CHARGES


@<TRIPOS>ATOM
  1 O        0.0240    -0.2570     0.1400 O.2   1 <1>  -0.5700 
  2 C        0.9380    -0.8080    -0.4360 C.2   1 <1>   0.7800 
  3 O        1.8000    -0.1020    -1.1630 O.3   1 <1>  -0.4300 
  4 N        1.1920    -2.1430    -0.3860 N.am  1 <1>  -0.5470 
  5 C        1.6650     1.2990    -1.2980 C.3   1 <1>   0.0400 
  6 C        0.5670    -3.2100     0.2820 C.ar  1 <1>   0.1170 
  7 C        1.2850    -4.3900     0.5450 C.ar  1 <1>   0.0860 
  8 C       -0.7700    -3.1330     0.6670 C.ar  1 <1>  -0.1500 
  9 C        2.6820    -4.5270     0.1980 C.2   1 <1>   0.5440 
 10 C        0.6240    -5.4530     1.1610 C.ar  1 <1>  -0.1500 
 11 C       -1.4000    -4.1920     1.2900 C.ar  1 <1>  -0.1500 
 12 O        3.0670    -5.4990    -0.4200 O.2   1 <1>  -0.5700 
 13 N        3.5750    -3.5560     0.5670 N.am  1 <1>  -0.7300 
 14 C       -0.7020    -5.3610     1.5350 C.ar  1 <1>  -0.1500 
 15 C        5.0080    -3.4300     0.2500 C.3   1 <1>   0.3000 
 16 C        5.8120    -4.5910     0.8650 C.3   1 <1>  -0.1600 
 17 C        5.4980    -2.1050     0.8630 C.3   1 <1>  -0.1600 
 18 C        5.2340    -3.3820    -1.2740 C.3   1 <1>  -0.1600 
 19 C        7.3130    -4.4060     0.5670 C.3   1 <1>  -0.0800 
 20 C        6.9970    -1.9010     0.5730 C.3   1 <1>  -0.0800 
 21 C        6.7330    -3.1950    -1.5780 C.3   1 <1>  -0.0800 
 22 C        7.7910    -3.0750     1.1770 C.3   1 <1>  -0.1600 
 23 C        7.5230    -4.3660    -0.9600 C.3   1 <1>  -0.1600 
 24 C        7.2160    -1.8730    -0.9520 C.3   1 <1>  -0.1600 
 25 H        2.0580    -2.3800    -0.8730 H     1 <1>   0.3700 
 26 H        2.4610     1.6600    -1.9250 H     1 <1>   0.0800 
 27 H        1.7260     1.7520    -0.3230 H     1 <1>   0.0800 
 28 H        0.7110     1.5150    -1.7480 H     1 <1>   0.0800 
 29 H       -1.3370    -2.2400     0.4740 H     1 <1>   0.1500 
 30 H        1.1680    -6.3640     1.3450 H     1 <1>   0.1500 
 31 H       -2.4340    -4.1110     1.5790 H     1 <1>   0.1500 
 32 H        3.2450    -2.8390     1.2140 H     1 <1>   0.3700 
 33 H       -1.1920    -6.1920     2.0130 H     1 <1>   0.1500 
 34 H        5.6530    -4.6250     1.9270 H     1 <1>   0.0800 
 35 H        5.4850    -5.5260     0.4460 H     1 <1>   0.0800 
 36 H        5.3440    -2.1160     1.9280 H     1 <1>   0.0800 
 37 H        4.9420    -1.2820     0.4480 H     1 <1>   0.0800 
 38 H        4.6730    -2.5720    -1.7040 H     1 <1>   0.0800 
 39 H        4.9010    -4.3000    -1.7250 H     1 <1>   0.0800 
 40 H        7.8710    -5.2240     0.9900 H     1 <1>   0.0800 
 41 H        7.3320    -0.9740     1.0060 H     1 <1>   0.0800 
 42 H        6.8880    -3.1730    -2.6430 H     1 <1>   0.0800 
 43 H        8.8420    -2.9430     0.9830 H     1 <1>   0.0800 
 44 H        7.6580    -3.0960     2.2450 H     1 <1>   0.0800 
 45 H        7.1960    -5.2950    -1.3960 H     1 <1>   0.0800 
 46 H        8.5710    -4.2550    -1.1800 H     1 <1>   0.0800 
 47 H        8.2610    -1.7300    -1.1670 H     1 <1>   0.0800 
 48 H        6.6780    -1.0470    -1.3840 H     1 <1>   0.0800 
@<TRIPOS>BOND
  1   1   2  2   
  2   2   3  1   
  3   2   4  am  
  4   3   5  1   
  5   4   6  1   
  6   4  25  1   
  7   5  26  1   
  8   5  27  1   
  9   5  28  1   
 10   6   7  ar  
 11   6   8  ar  
 12   7   9  1   
 13   7  10  ar  
 14   8  11  ar  
 15   8  29  1   
 16   9  12  2   
 17   9  13  am  
 18  10  14  ar  
 19  10  30  1   
 20  11  14  ar  
 21  11  31  1   
 22  13  15  1   
 23  13  32  1   
 24  14  33  1   
 25  15  16  1   
 26  15  17  1   
 27  15  18  1   
 28  16  19  1   
 29  16  34  1   
 30  16  35  1   
 31  17  20  1   
 32  17  36  1   
 33  17  37  1   
 34  18  21  1   
 35  18  38  1   
 36  18  39  1   
 37  19  22  1   
 38  19  23  1   
 39  19  40  1   
 40  20  22  1   
 41  20  24  1   
 42  20  41  1   
 43  21  23  1   
 44  21  24  1   
 45  21  42  1   
 46  22  43  1   
 47  22  44  1   
 48  23  45  1   
 49  23  46  1   
 50  24  47  1   
 51  24  48  1   
@<TRIPOS>SUBSTRUCTURE
  1 ****  13 GROUP 4 **** **** 0

# MOE 2024.06 (io_trps.svl 2023.06)
