@<TRIPOS>MOLECULE
NONAME
32 33 1 0 0 
SMALL
USER_CHARGES


@<TRIPOS>ATOM
  1 S       -0.0860    -0.3280     1.4810 S.o2  1 <1>   1.4470 
  2 O        0.4840    -1.4230     2.2390 O.2   1 <1>  -0.6500 
  3 O       -0.4960     0.8540     2.2100 O.2   1 <1>  -0.6500 
  4 N        1.1240     0.1830     0.4110 N.am  1 <1>  -0.8490 
  5 C       -1.3990    -0.9020     0.3520 C.ar  1 <1>  -0.0090 
  6 C        0.7330     1.3060    -0.4270 C.3   1 <1>   0.1960 
  7 C        2.3320     0.6080     1.0900 C.3   1 <1>   0.1960 
  8 C       -1.3500    -2.1220    -0.3300 C.ar  1 <1>  -0.1440 
  9 C       -2.4860    -0.0700     0.1110 C.ar  1 <1>  -0.1500 
 10 C        2.0490     1.8460    -0.9720 C.3   1 <1>  -0.1600 
 11 C        3.1070     1.3920     0.0360 C.3   1 <1>  -0.1600 
 12 C       -2.3740    -2.4730    -1.1950 C.ar  1 <1>  -0.1500 
 13 C       -0.1890    -3.0950    -0.1630 C.3   1 <1>  -0.0970 
 14 C       -3.5190    -0.3890    -0.7700 C.ar  1 <1>  -0.1790 
 15 C       -3.4390    -1.6220    -1.4100 C.ar  1 <1>  -0.1500 
 16 C       -4.6250     0.5290    -1.0170 C.2   1 <1>   0.9790 
 17 O       -4.5950     1.6860    -0.5620 O.co2 1 <1>  -0.9000 
 18 O       -5.6030     0.1770    -1.6990 O.co2 1 <1>  -0.9000 
 19 H        0.2480     2.0670     0.1640 H     1 <1>   0.0800 
 20 H        0.0690     0.9910    -1.2160 H     1 <1>   0.0800 
 21 H        2.8860    -0.2400     1.4560 H     1 <1>   0.0800 
 22 H        2.0810     1.2560     1.9160 H     1 <1>   0.0800 
 23 H       -2.5460     0.8800     0.6190 H     1 <1>   0.1500 
 24 H        2.0110     2.9170    -1.0670 H     1 <1>   0.0800 
 25 H        2.2430     1.4130    -1.9370 H     1 <1>   0.0800 
 26 H        3.8230     0.7450    -0.4400 H     1 <1>   0.0800 
 27 H        3.6240     2.2220     0.4840 H     1 <1>   0.0800 
 28 H       -2.3520    -3.4130    -1.7160 H     1 <1>   0.1500 
 29 H        0.7490    -2.5860    -0.2930 H     1 <1>   0.0800 
 30 H       -0.2400    -3.8860    -0.8890 H     1 <1>   0.0800 
 31 H       -0.2160    -3.5340     0.8180 H     1 <1>   0.0800 
 32 H       -4.2300    -1.9010    -2.0870 H     1 <1>   0.1500 
@<TRIPOS>BOND
  1   1   2  2   
  2   1   3  2   
  3   1   4  am  
  4   1   5  1   
  5   4   6  1   
  6   4   7  1   
  7   5   8  ar  
  8   5   9  ar  
  9   6  10  1   
 10   6  19  1   
 11   6  20  1   
 12   7  11  1   
 13   7  21  1   
 14   7  22  1   
 15   8  12  ar  
 16   8  13  1   
 17   9  14  ar  
 18   9  23  1   
 19  10  11  1   
 20  10  24  1   
 21  10  25  1   
 22  11  26  1   
 23  11  27  1   
 24  12  15  ar  
 25  12  28  1   
 26  13  29  1   
 27  13  30  1   
 28  13  31  1   
 29  14  15  ar  
 30  14  16  1   
 31  15  32  1   
 32  16  17  ar  
 33  16  18  ar  
@<TRIPOS>SUBSTRUCTURE
  1 ****   5 GROUP 4 **** **** 0

# MOE 2024.06 (io_trps.svl 2023.06)
