@<TRIPOS>MOLECULE
NONAME
34 35 1 0 0 
SMALL
USER_CHARGES


@<TRIPOS>ATOM
  1 CL       2.6490     5.0360     2.1300 Cl    1 <1>  -0.1770 
  2 C        1.8800     3.6070     1.4720 C.ar  1 <1>   0.1770 
  3 C        2.0530     3.2770     0.1300 C.ar  1 <1>   0.0830 
  4 C        1.1230     2.8230     2.3200 C.ar  1 <1>  -0.1500 
  5 O        2.8170     4.1000    -0.6370 O.3   1 <1>  -0.3630 
  6 C        1.4430     2.1230    -0.3630 C.ar  1 <1>  -0.1500 
  7 C        0.5310     1.6840     1.8090 C.ar  1 <1>   0.1770 
  8 C        3.4400     3.6500    -1.8340 C.3   1 <1>   0.2610 
  9 C        0.6840     1.3270     0.4800 C.ar  1 <1>  -0.1500 
 10 CL      -0.4270     0.6740     2.8600 Cl    1 <1>  -0.1770 
 11 C        4.3400     2.4170    -1.6050 C.2   1 <1>   0.5690 
 12 C        4.1840     4.8410    -2.4510 C.3   1 <1>  -0.2400 
 13 O        4.1310     1.4710    -2.3330 O.2   1 <1>  -0.5700 
 14 N        5.3230     2.3560    -0.6400 N.am  1 <1>  -0.6600 
 15 C        6.1080     1.1060    -0.4070 C.3   1 <1>   0.1400 
 16 C        5.6550     3.4160     0.3630 C.3   1 <1>   0.1400 
 17 C        5.9860     0.6620     1.0600 C.3   1 <1>   0.1200 
 18 C        5.5540     2.8520     1.7900 C.3   1 <1>   0.1200 
 19 O        6.3450     1.7050     1.9240 O.3   1 <1>  -0.5600 
 20 H        0.9980     3.0890     3.3530 H     1 <1>   0.1500 
 21 H        1.5460     1.8280    -1.3920 H     1 <1>   0.1500 
 22 H        2.6530     3.3710    -2.5110 H     1 <1>   0.0800 
 23 H        0.2110     0.4340     0.1120 H     1 <1>   0.1500 
 24 H        4.9720     5.1810    -1.8060 H     1 <1>   0.0800 
 25 H        3.4970     5.6480    -2.6330 H     1 <1>   0.0800 
 26 H        4.6180     4.5440    -3.3890 H     1 <1>   0.0800 
 27 H        7.1430     1.2880    -0.6380 H     1 <1>   0.0800 
 28 H        5.7630     0.3100    -1.0440 H     1 <1>   0.0800 
 29 H        5.0060     4.2650     0.2790 H     1 <1>   0.0800 
 30 H        6.6610     3.7570     0.1940 H     1 <1>   0.0800 
 31 H        6.6440    -0.1660     1.2540 H     1 <1>   0.0800 
 32 H        4.9760     0.3630     1.2810 H     1 <1>   0.0800 
 33 H        4.5360     2.5980     2.0280 H     1 <1>   0.0800 
 34 H        5.9040     3.5780     2.5020 H     1 <1>   0.0800 
@<TRIPOS>BOND
  1   1   2  1   
  2   2   3  ar  
  3   2   4  ar  
  4   3   5  1   
  5   3   6  ar  
  6   4   7  ar  
  7   4  20  1   
  8   5   8  1   
  9   6   9  ar  
 10   6  21  1   
 11   7   9  ar  
 12   7  10  1   
 13   8  11  1   
 14   8  12  1   
 15   8  22  1   
 16   9  23  1   
 17  11  13  2   
 18  11  14  am  
 19  12  24  1   
 20  12  25  1   
 21  12  26  1   
 22  14  15  1   
 23  14  16  1   
 24  15  17  1   
 25  15  27  1   
 26  15  28  1   
 27  16  18  1   
 28  16  29  1   
 29  16  30  1   
 30  17  19  1   
 31  17  31  1   
 32  17  32  1   
 33  18  19  1   
 34  18  33  1   
 35  18  34  1   
@<TRIPOS>SUBSTRUCTURE
  1 ****   3 GROUP 4 **** **** 0

# MOE 2024.06 (io_trps.svl 2023.06)
