@<TRIPOS>MOLECULE
NONAME
47 49 1 0 0 
SMALL
USER_CHARGES


@<TRIPOS>ATOM
  1 O       -0.3030     0.0440     0.1700 O.2   1 <1>  -0.5700 
  2 C       -0.8730    -0.9960     0.4480 C.2   1 <1>   0.6900 
  3 N       -2.2340    -1.0380     0.6020 N.am  1 <1>  -0.6600 
  4 N       -0.1500    -2.1290     0.5870 N.am  1 <1>  -0.7300 
  5 C       -3.0900     0.1110     0.2090 C.3   1 <1>   0.1400 
  6 C       -2.9820    -2.1670     1.2150 C.3   1 <1>   0.1400 
  7 C        1.2750    -2.2400     0.2540 C.3   1 <1>   0.2840 
  8 C       -4.1550    -0.3650    -0.7850 C.3   1 <1>  -0.1600 
  9 C       -4.0360    -2.6750     0.2280 C.3   1 <1>  -0.1600 
 10 C        1.5480    -3.6850    -0.1220 C.ar  1 <1>  -0.1440 
 11 C       -4.9770    -1.5430    -0.2300 C.3   1 <1>  -0.0800 
 12 C        2.0110    -4.5840     0.8270 C.ar  1 <1>  -0.1500 
 13 C        1.3280    -4.1190    -1.4200 C.ar  1 <1>  -0.1500 
 14 C       -5.9920    -2.0320    -1.2800 C.3   1 <1>  -0.0170 
 15 C        2.2530    -5.9020     0.4810 C.ar  1 <1>  -0.1500 
 16 C        1.5700    -5.4370    -1.7680 C.ar  1 <1>  -0.1500 
 17 C       -6.8880    -3.1380    -0.7410 C.ar  1 <1>  -0.1440 
 18 C        2.0330    -6.3290    -0.8170 C.ar  1 <1>  -0.1500 
 19 C       -7.9250    -2.8340     0.1280 C.ar  1 <1>  -0.1500 
 20 C       -6.6780    -4.4580    -1.1110 C.ar  1 <1>  -0.1500 
 21 C       -8.7410    -3.8360     0.6240 C.ar  1 <1>  -0.1500 
 22 C       -7.4930    -5.4620    -0.6150 C.ar  1 <1>  -0.1500 
 23 C       -8.5240    -5.1510     0.2530 C.ar  1 <1>  -0.1500 
 24 H       -0.6520    -3.0110     0.5620 H     1 <1>   0.3700 
 25 H       -2.5000     0.8900    -0.2440 H     1 <1>   0.0800 
 26 H       -3.5590     0.5160     1.0890 H     1 <1>   0.0800 
 27 H       -3.4660    -1.8150     2.1110 H     1 <1>   0.0800 
 28 H       -2.3240    -2.9700     1.4940 H     1 <1>   0.0800 
 29 H        1.8650    -1.9490     1.1060 H     1 <1>   0.0800 
 30 H        1.5140    -1.5870    -0.5680 H     1 <1>   0.0800 
 31 H       -3.6600    -0.6580    -1.6950 H     1 <1>   0.0800 
 32 H       -4.8060     0.4580    -1.0160 H     1 <1>   0.0800 
 33 H       -4.6040    -3.4530     0.7060 H     1 <1>   0.0800 
 34 H       -3.5360    -3.1070    -0.6220 H     1 <1>   0.0800 
 35 H       -5.5240    -1.1940     0.6290 H     1 <1>   0.0800 
 36 H        2.1820    -4.2610     1.8390 H     1 <1>   0.1500 
 37 H        0.9650    -3.4300    -2.1640 H     1 <1>   0.1500 
 38 H       -5.4690    -2.3810    -2.1530 H     1 <1>   0.0800 
 39 H       -6.6120    -1.2080    -1.5880 H     1 <1>   0.0800 
 40 H        2.6130    -6.5960     1.2210 H     1 <1>   0.1500 
 41 H        1.3980    -5.7680    -2.7770 H     1 <1>   0.1500 
 42 H        2.2220    -7.3540    -1.0860 H     1 <1>   0.1500 
 43 H       -8.1010    -1.8140     0.4210 H     1 <1>   0.1500 
 44 H       -5.8790    -4.7110    -1.7840 H     1 <1>   0.1500 
 45 H       -9.5440    -3.5920     1.2970 H     1 <1>   0.1500 
 46 H       -7.3250    -6.4840    -0.9060 H     1 <1>   0.1500 
 47 H       -9.1580    -5.9310     0.6380 H     1 <1>   0.1500 
@<TRIPOS>BOND
  1   1   2  2   
  2   2   3  am  
  3   2   4  am  
  4   3   5  1   
  5   3   6  1   
  6   4   7  1   
  7   4  24  1   
  8   5   8  1   
  9   5  25  1   
 10   5  26  1   
 11   6   9  1   
 12   6  27  1   
 13   6  28  1   
 14   7  10  1   
 15   7  29  1   
 16   7  30  1   
 17   8  11  1   
 18   8  31  1   
 19   8  32  1   
 20   9  11  1   
 21   9  33  1   
 22   9  34  1   
 23  10  12  ar  
 24  10  13  ar  
 25  11  14  1   
 26  11  35  1   
 27  12  15  ar  
 28  12  36  1   
 29  13  16  ar  
 30  13  37  1   
 31  14  17  1   
 32  14  38  1   
 33  14  39  1   
 34  15  18  ar  
 35  15  40  1   
 36  16  18  ar  
 37  16  41  1   
 38  17  19  ar  
 39  17  20  ar  
 40  18  42  1   
 41  19  21  ar  
 42  19  43  1   
 43  20  22  ar  
 44  20  44  1   
 45  21  23  ar  
 46  21  45  1   
 47  22  23  ar  
 48  22  46  1   
 49  23  47  1   
@<TRIPOS>SUBSTRUCTURE
  1 ****   9 GROUP 4 **** **** 0

# MOE 2024.06 (io_trps.svl 2023.06)
