@<TRIPOS>MOLECULE
NONAME
41 42 1 0 0 
SMALL
USER_CHARGES


@<TRIPOS>ATOM
  1 S       -0.6820     1.2340     1.0970 S.o2  1 <1>   1.4970 
  2 O       -1.5320     2.3940     0.8920 O.2   1 <1>  -0.6500 
  3 O       -0.7370     0.6280     2.4130 O.2   1 <1>  -0.6500 
  4 N       -1.2170     0.0860    -0.0010 N.2   1 <1>  -0.6380 
  5 C        1.0820     1.5390     0.6430 C.ar  1 <1>  -0.0090 
  6 C       -2.4510    -0.2530    -0.0250 C.2   1 <1>   0.4860 
  7 C        1.9530     0.4640     0.3820 C.ar  1 <1>  -0.1440 
  8 C        1.6060     2.8430     0.5530 C.ar  1 <1>  -0.1440 
  9 N       -3.4350     0.3770     0.7250 N.pl3 1 <1>  -0.5500 
 10 C       -2.9120    -1.3390    -0.8580 C.2   1 <1>  -0.1240 
 11 C        3.2480     0.6910    -0.0780 C.ar  1 <1>  -0.1430 
 12 C        1.5230    -0.9930     0.5960 C.3   1 <1>  -0.0970 
 13 C        2.9030     3.0610     0.0940 C.ar  1 <1>  -0.1430 
 14 C        0.7690     4.0580     0.9690 C.3   1 <1>  -0.0970 
 15 C       -4.7570    -0.0150     0.7300 C.2   1 <1>  -0.0500 
 16 C       -4.2170    -1.7240    -0.8600 C.2   1 <1>  -0.1500 
 17 C       -1.9030    -2.0630    -1.7440 C.3   1 <1>  -0.1020 
 18 C        3.7020     1.9840    -0.2220 C.ar  1 <1>  -0.1500 
 19 C        4.2150    -0.4320    -0.4430 C.3   1 <1>  -0.0970 
 20 C        3.5090     4.4490    -0.0900 C.3   1 <1>  -0.0970 
 21 C       -5.1600    -1.0520    -0.0410 C.2   1 <1>  -0.1500 
 22 H       -3.1500     1.2350     1.2160 H     1 <1>   0.4000 
 23 H        1.1070    -1.3900    -0.3130 H     1 <1>   0.0800 
 24 H        0.8020    -1.0930     1.3840 H     1 <1>   0.0800 
 25 H        2.3500    -1.6110     0.8900 H     1 <1>   0.0800 
 26 H        1.3620     4.9280     1.1700 H     1 <1>   0.0800 
 27 H        0.0660     4.3060     0.1940 H     1 <1>   0.0800 
 28 H        0.2370     3.8560     1.8810 H     1 <1>   0.0800 
 29 H       -5.4370     0.5360     1.3600 H     1 <1>   0.1500 
 30 H       -4.5740    -2.5350    -1.4710 H     1 <1>   0.1500 
 31 H       -2.3790    -2.8280    -2.3290 H     1 <1>   0.0800 
 32 H       -1.4340    -1.3630    -2.4120 H     1 <1>   0.0800 
 33 H       -1.1450    -2.5210    -1.1340 H     1 <1>   0.0800 
 34 H        4.7020     2.1540    -0.5800 H     1 <1>   0.1500 
 35 H        4.5650    -0.9190     0.4480 H     1 <1>   0.0800 
 36 H        5.0680    -0.0520    -0.9750 H     1 <1>   0.0800 
 37 H        3.7300    -1.1520    -1.0760 H     1 <1>   0.0800 
 38 H        3.6860     4.9040     0.8680 H     1 <1>   0.0800 
 39 H        2.8460     5.0720    -0.6640 H     1 <1>   0.0800 
 40 H        4.4460     4.4000    -0.6150 H     1 <1>   0.0800 
 41 H       -6.1840    -1.3820    -0.0580 H     1 <1>   0.1500 
@<TRIPOS>BOND
  1   1   2  2   
  2   1   3  2   
  3   1   4  1   
  4   1   5  1   
  5   4   6  2   
  6   5   7  ar  
  7   5   8  ar  
  8   6   9  1   
  9   6  10  1   
 10   7  11  ar  
 11   7  12  1   
 12   8  13  ar  
 13   8  14  1   
 14   9  15  1   
 15   9  22  1   
 16  10  16  2   
 17  10  17  1   
 18  11  18  ar  
 19  11  19  1   
 20  12  23  1   
 21  12  24  1   
 22  12  25  1   
 23  13  18  ar  
 24  13  20  1   
 25  14  26  1   
 26  14  27  1   
 27  14  28  1   
 28  15  21  2   
 29  15  29  1   
 30  16  21  1   
 31  16  30  1   
 32  17  31  1   
 33  17  32  1   
 34  17  33  1   
 35  18  34  1   
 36  19  35  1   
 37  19  36  1   
 38  19  37  1   
 39  20  38  1   
 40  20  39  1   
 41  20  40  1   
 42  21  41  1   
@<TRIPOS>SUBSTRUCTURE
  1 ****   1 GROUP 4 **** **** 0

# MOE 2024.06 (io_trps.svl 2023.06)
