@<TRIPOS>MOLECULE
NONAME
32 33 1 0 0 
SMALL
USER_CHARGES


@<TRIPOS>ATOM
  1 BR       0.2870    -0.3490     1.0860 Br    1 <1>  -0.1110 
  2 C        1.7640     0.7760     0.5830 C.ar  1 <1>   0.1110 
  3 C        2.4100     1.5060     1.5620 C.ar  1 <1>  -0.1500 
  4 C        2.1430     0.8260    -0.7440 C.ar  1 <1>  -0.1500 
  5 C        3.4720     2.3140     1.1930 C.ar  1 <1>  -0.1500 
  6 C        3.2070     1.6380    -1.0990 C.ar  1 <1>  -0.1500 
  7 C        3.8770     2.3870    -0.1370 C.ar  1 <1>  -0.1430 
  8 C        5.0490     3.2670    -0.5620 C.3   1 <1>   0.3640 
  9 N        6.2660     2.7310     0.0510 N.am  1 <1>  -0.7300 
 10 C        4.8720     4.7200    -0.1280 C.3   1 <1>  -0.2400 
 11 C        7.4930     2.7560    -0.5250 C.2   1 <1>   0.5770 
 12 O        7.6780     3.3050    -1.5850 O.2   1 <1>  -0.5700 
 13 C        8.6450     2.0680     0.1980 C.3   1 <1>   0.0530 
 14 C        9.9360     2.9160     0.3570 C.3   1 <1>   0.0000 
 15 C        9.4850     1.0880    -0.6650 C.3   1 <1>   0.0000 
 16 C       10.7290     1.6080     0.1020 C.3   1 <1>   0.0000 
 17 H        2.0860     1.4420     2.5850 H     1 <1>   0.1500 
 18 H        1.6180     0.2430    -1.4790 H     1 <1>   0.1500 
 19 H        3.9790     2.8860     1.9510 H     1 <1>   0.1500 
 20 H        3.5120     1.6810    -2.1300 H     1 <1>   0.1500 
 21 H        5.1520     3.2380    -1.6350 H     1 <1>   0.0800 
 22 H        6.1050     2.2040     0.9070 H     1 <1>   0.3700 
 23 H        4.8480     4.8080     0.9420 H     1 <1>   0.0800 
 24 H        3.9520     5.1050    -0.5280 H     1 <1>   0.0800 
 25 H        5.6830     5.3120    -0.5130 H     1 <1>   0.0800 
 26 H        8.3510     1.6180     1.1330 H     1 <1>   0.0000 
 27 H       10.0720     3.3210     1.3440 H     1 <1>   0.0000 
 28 H       10.0770     3.6400    -0.4280 H     1 <1>   0.0000 
 29 H        9.5110     1.3450    -1.7100 H     1 <1>   0.0000 
 30 H        9.2650     0.0510    -0.4830 H     1 <1>   0.0000 
 31 H       10.9220     1.0550     1.0060 H     1 <1>   0.0000 
 32 H       11.5990     1.7400    -0.5180 H     1 <1>   0.0000 
@<TRIPOS>BOND
  1   1   2  1   
  2   2   3  ar  
  3   2   4  ar  
  4   3   5  ar  
  5   3  17  1   
  6   4   6  ar  
  7   4  18  1   
  8   5   7  ar  
  9   5  19  1   
 10   6   7  ar  
 11   6  20  1   
 12   7   8  1   
 13   8   9  1   
 14   8  10  1   
 15   8  21  1   
 16   9  11  am  
 17   9  22  1   
 18  10  23  1   
 19  10  24  1   
 20  10  25  1   
 21  11  12  2   
 22  11  13  1   
 23  13  14  1   
 24  13  15  1   
 25  13  26  1   
 26  14  16  1   
 27  14  27  1   
 28  14  28  1   
 29  15  16  1   
 30  15  29  1   
 31  15  30  1   
 32  16  31  1   
 33  16  32  1   
@<TRIPOS>SUBSTRUCTURE
  1 ****   9 GROUP 4 **** **** 0

# MOE 2024.06 (io_trps.svl 2023.06)
