@<TRIPOS>MOLECULE
NONAME
44 46 1 0 0 
SMALL
USER_CHARGES


@<TRIPOS>ATOM
  1 O       -0.2420    -0.6050     1.3730 O.3   1 <1>  -0.0190 
  2 N       -1.4810    -0.7330     1.0210 N.2   1 <1>  -0.4100 
  3 C        0.3590    -1.6260     0.8200 C.2   1 <1>   0.2980 
  4 C       -1.5760    -1.7890     0.2950 C.2   1 <1>   0.4620 
  5 N       -0.3960    -2.3950     0.1450 N.2   1 <1>  -0.5650 
  6 C        1.8640    -1.7740     1.0430 C.3   1 <1>   0.1000 
  7 C       -2.7950    -2.2960    -0.3050 C.ar  1 <1>   0.0540 
  8 C        2.6320    -0.6720     0.2920 C.3   1 <1>  -0.1600 
  9 C        2.3890    -3.1610     0.6270 C.3   1 <1>  -0.1600 
 10 C       -4.0240    -1.6680    -0.1450 C.ar  1 <1>  -0.1500 
 11 C       -2.8330    -3.4440    -1.0850 C.ar  1 <1>  -0.1500 
 12 C        4.1500    -0.7890     0.4980 C.3   1 <1>  -0.1600 
 13 C        3.9040    -3.2800     0.8480 C.3   1 <1>  -0.1600 
 14 C       -5.1600    -2.1860    -0.7360 C.ar  1 <1>   0.1600 
 15 C       -4.0230    -3.8830    -1.6340 C.ar  1 <1>   0.1600 
 16 C        4.6770    -2.1810     0.0980 C.3   1 <1>  -0.0800 
 17 N       -5.1900    -3.2800    -1.4780 N.ar  1 <1>  -0.6200 
 18 C        6.1860    -2.3340     0.3720 C.3   1 <1>  -0.1600 
 19 C        7.0620    -1.3960    -0.4730 C.3   1 <1>  -0.1600 
 20 C        8.5510    -1.6900    -0.2570 C.3   1 <1>  -0.1600 
 21 C        9.4250    -0.7520    -1.0940 C.3   1 <1>  -0.2400 
 22 H        2.0430    -1.6540     2.0970 H     1 <1>   0.0800 
 23 H        2.3030     0.2940     0.6320 H     1 <1>   0.0800 
 24 H        2.4110    -0.7430    -0.7590 H     1 <1>   0.0800 
 25 H        2.1700    -3.3290    -0.4140 H     1 <1>   0.0800 
 26 H        1.8830    -3.9210     1.1960 H     1 <1>   0.0800 
 27 H       -4.0940    -0.7710     0.4430 H     1 <1>   0.1500 
 28 H       -1.9300    -3.9990    -1.2660 H     1 <1>   0.1500 
 29 H        4.3850    -0.6000     1.5320 H     1 <1>   0.0800 
 30 H        4.6300    -0.0290    -0.0920 H     1 <1>   0.0800 
 31 H        4.2310    -4.2480     0.5080 H     1 <1>   0.0800 
 32 H        4.1150    -3.2140     1.9020 H     1 <1>   0.0800 
 33 H       -6.0970    -1.6740    -0.5920 H     1 <1>   0.1500 
 34 H       -4.0170    -4.7770    -2.2340 H     1 <1>   0.1500 
 35 H        4.5100    -2.3180    -0.9580 H     1 <1>   0.0800 
 36 H        6.4710    -3.3500     0.1530 H     1 <1>   0.0800 
 37 H        6.3830    -2.1610     1.4160 H     1 <1>   0.0800 
 38 H        6.8690    -0.3720    -0.2050 H     1 <1>   0.0800 
 39 H        6.8210    -1.5230    -1.5150 H     1 <1>   0.0800 
 40 H        8.7630    -2.7090    -0.5330 H     1 <1>   0.0800 
 41 H        8.7970    -1.5680     0.7840 H     1 <1>   0.0800 
 42 H        9.2100    -0.8730    -2.1420 H     1 <1>   0.0800 
 43 H       10.4640    -0.9740    -0.9300 H     1 <1>   0.0800 
 44 H        9.2470     0.2730    -0.8200 H     1 <1>   0.0800 
@<TRIPOS>BOND
  1   1   2  1   
  2   1   3  1   
  3   2   4  2   
  4   3   5  2   
  5   3   6  1   
  6   4   5  1   
  7   4   7  1   
  8   6   8  1   
  9   6   9  1   
 10   6  22  1   
 11   7  10  ar  
 12   7  11  ar  
 13   8  12  1   
 14   8  23  1   
 15   8  24  1   
 16   9  13  1   
 17   9  25  1   
 18   9  26  1   
 19  10  14  ar  
 20  10  27  1   
 21  11  15  ar  
 22  11  28  1   
 23  12  16  1   
 24  12  29  1   
 25  12  30  1   
 26  13  16  1   
 27  13  31  1   
 28  13  32  1   
 29  14  17  ar  
 30  14  33  1   
 31  15  17  ar  
 32  15  34  1   
 33  16  18  1   
 34  16  35  1   
 35  18  19  1   
 36  18  36  1   
 37  18  37  1   
 38  19  20  1   
 39  19  38  1   
 40  19  39  1   
 41  20  21  1   
 42  20  40  1   
 43  20  41  1   
 44  21  42  1   
 45  21  43  1   
 46  21  44  1   
@<TRIPOS>SUBSTRUCTURE
  1 ****   3 GROUP 4 **** **** 0

# MOE 2024.06 (io_trps.svl 2023.06)
