@<TRIPOS>MOLECULE
Structure2252
31 32 1 0 0 
SMALL
USER_CHARGES


@<TRIPOS>ATOM
  1 N       -0.2600     0.3070     0.4830 N.4   1 <1>  -0.9060 
  2 C       -0.8060     1.6610     0.2960 C.3   1 <1>   0.5660 
  3 C        1.2010     0.2860     0.7500 C.3   1 <1>   0.3430 
  4 C       -2.3040     1.5140     0.1030 C.ar  1 <1>  -0.1440 
  5 C       -0.1040     2.3490    -0.8810 C.3   1 <1>  -0.1600 
  6 C        1.9440     0.9510    -0.4120 C.3   1 <1>  -0.1600 
  7 C       -2.8480     0.8780    -1.0070 C.ar  1 <1>  -0.1500 
  8 C       -3.1580     2.0170     1.0740 C.ar  1 <1>  -0.1500 
  9 C        1.4210     2.3680    -0.6950 C.3   1 <1>  -0.1600 
 10 C       -4.2190     0.7450    -1.1350 C.ar  1 <1>  -0.1500 
 11 C       -4.5280     1.8820     0.9420 C.ar  1 <1>  -0.1500 
 12 C       -5.0650     1.2430    -0.1610 C.ar  1 <1>  -0.1430 
 13 C       -6.5700     1.0990    -0.3060 C.3   1 <1>  -0.0970 
 14 H       -0.4740    -0.2190    -0.3670 H     1 <1>   0.4500 
 15 H       -0.7920    -0.1360     1.2410 H     1 <1>   0.4500 
 16 H       -0.6270     2.2410     1.1870 H     1 <1>   0.0800 
 17 H        1.5440    -0.7310     0.8650 H     1 <1>   0.0800 
 18 H        1.4140     0.8200     1.6630 H     1 <1>   0.0800 
 19 H       -0.4670     3.3600    -0.9610 H     1 <1>   0.0800 
 20 H       -0.3450     1.8520    -1.8030 H     1 <1>   0.0800 
 21 H        1.8460     0.3420    -1.2950 H     1 <1>   0.0800 
 22 H        2.9930     1.0010    -0.1760 H     1 <1>   0.0800 
 23 H       -2.2280     0.4800    -1.7910 H     1 <1>   0.1500 
 24 H       -2.7750     2.5230     1.9450 H     1 <1>   0.1500 
 25 H        1.6770     3.0170     0.1270 H     1 <1>   0.0800 
 26 H        1.8930     2.7630    -1.5800 H     1 <1>   0.0800 
 27 H       -4.6300     0.2530    -2.0010 H     1 <1>   0.1500 
 28 H       -5.1800     2.2800     1.7020 H     1 <1>   0.1500 
 29 H       -6.8140     0.2090    -0.8580 H     1 <1>   0.0800 
 30 H       -6.9690     1.9510    -0.8280 H     1 <1>   0.0800 
 31 H       -7.0380     1.0350     0.6600 H     1 <1>   0.0800 
@<TRIPOS>BOND
  1   1   2  1   
  2   1   3  1   
  3   1  14  1   
  4   1  15  1   
  5   2   4  1   
  6   2   5  1   
  7   2  16  1   
  8   3   6  1   
  9   3  17  1   
 10   3  18  1   
 11   4   7  ar  
 12   4   8  ar  
 13   5   9  1   
 14   5  19  1   
 15   5  20  1   
 16   6   9  1   
 17   6  21  1   
 18   6  22  1   
 19   7  10  ar  
 20   7  23  1   
 21   8  11  ar  
 22   8  24  1   
 23   9  25  1   
 24   9  26  1   
 25  10  12  ar  
 26  10  27  1   
 27  11  12  ar  
 28  11  28  1   
 29  12  13  1   
 30  13  29  1   
 31  13  30  1   
 32  13  31  1   
@<TRIPOS>SUBSTRUCTURE
  1 ****   4 GROUP 4 **** **** 0

# MOE 2024.06 (io_trps.svl 2023.06)
