@<TRIPOS>MOLECULE
NONAME
40 42 1 0 0 
SMALL
USER_CHARGES


@<TRIPOS>ATOM
  1 S       -1.0950     1.0220    -1.4160 S.3   1 <1>  -0.2860 
  2 C        0.5890     1.5550    -1.1470 C.2   1 <1>   0.2420 
  3 C       -1.7130     0.4060     0.2470 C.3   1 <1>   0.3520 
  4 N        1.0970     1.7570     0.0120 N.2   1 <1>  -0.5650 
  5 N        1.4040     1.7890    -2.1990 N.pl3 1 <1>   0.0330 
  6 C       -1.0210    -0.9020     0.5900 C.2   1 <1>   0.6590 
  7 C       -1.6470     1.4460     1.3690 C.2   1 <1>   0.4480 
  8 C       -3.1620    -0.0490     0.0260 C.3   1 <1>  -0.1600 
  9 C        2.3700     2.1510    -0.2750 C.ar  1 <1>   0.2270 
 10 C        2.5790     2.1840    -1.6460 C.ar  1 <1>  -0.1520 
 11 O        0.1210    -1.0600     0.9350 O.2   1 <1>  -0.5700 
 12 O       -1.8350    -1.9280     0.4110 O.3   1 <1>  -0.4300 
 13 O       -1.6040     1.1080     2.5170 O.2   1 <1>  -0.5700 
 14 C       -1.7990     2.9280     1.0070 C.3   1 <1>  -0.0990 
 15 C       -3.0860    -1.5770    -0.1030 C.3   1 <1>   0.2800 
 16 C        3.4020     2.5010     0.5920 C.ar  1 <1>  -0.1500 
 17 C        3.8100     2.5670    -2.1820 C.ar  1 <1>  -0.1500 
 18 C       -2.4640     3.7680     2.1100 C.3   1 <1>  -0.2400 
 19 C       -3.1260    -2.0440    -1.5590 C.3   1 <1>  -0.2400 
 20 C       -4.1470    -2.2920     0.7310 C.3   1 <1>  -0.2400 
 21 C        4.6200     2.8800     0.0710 C.ar  1 <1>  -0.1500 
 22 C        4.8230     2.9130    -1.3150 C.ar  1 <1>  -0.1500 
 23 H        1.1790     1.6730    -3.1880 H     1 <1>   0.2700 
 24 H       -3.6210     0.4110    -0.8300 H     1 <1>   0.0800 
 25 H       -3.7560     0.2010     0.8890 H     1 <1>   0.0800 
 26 H       -2.3900     3.0210     0.1150 H     1 <1>   0.0800 
 27 H       -0.8270     3.3380     0.8060 H     1 <1>   0.0800 
 28 H        3.2190     2.4620     1.6500 H     1 <1>   0.1500 
 29 H        3.9580     2.5880    -3.2480 H     1 <1>   0.1500 
 30 H       -3.4410     3.3810     2.3390 H     1 <1>   0.0800 
 31 H       -2.5590     4.7910     1.7930 H     1 <1>   0.0800 
 32 H       -1.8670     3.7410     3.0060 H     1 <1>   0.0800 
 33 H       -2.3450    -1.5810    -2.1350 H     1 <1>   0.0800 
 34 H       -4.0720    -1.7930    -2.0040 H     1 <1>   0.0800 
 35 H       -3.0040    -3.1120    -1.6080 H     1 <1>   0.0800 
 36 H       -4.0640    -2.0140     1.7670 H     1 <1>   0.0800 
 37 H       -4.0280    -3.3580     0.6490 H     1 <1>   0.0800 
 38 H       -5.1310    -2.0330     0.3850 H     1 <1>   0.0800 
 39 H        5.4280     3.1520     0.7280 H     1 <1>   0.1500 
 40 H        5.7840     3.2130    -1.6950 H     1 <1>   0.1500 
@<TRIPOS>BOND
  1   1   2  1   
  2   1   3  1   
  3   2   4  2   
  4   2   5  1   
  5   3   6  1   
  6   3   7  1   
  7   3   8  1   
  8   4   9  1   
  9   5  10  1   
 10   5  23  1   
 11   6  11  2   
 12   6  12  1   
 13   7  13  2   
 14   7  14  1   
 15   8  15  1   
 16   8  24  1   
 17   8  25  1   
 18   9  10  ar  
 19   9  16  ar  
 20  10  17  ar  
 21  12  15  1   
 22  14  18  1   
 23  14  26  1   
 24  14  27  1   
 25  15  19  1   
 26  15  20  1   
 27  16  21  ar  
 28  16  28  1   
 29  17  22  ar  
 30  17  29  1   
 31  18  30  1   
 32  18  31  1   
 33  18  32  1   
 34  19  33  1   
 35  19  34  1   
 36  19  35  1   
 37  20  36  1   
 38  20  37  1   
 39  20  38  1   
 40  21  22  ar  
 41  21  39  1   
 42  22  40  1   
@<TRIPOS>SUBSTRUCTURE
  1 ****   2 GROUP 4 **** **** 0

# MOE 2024.06 (io_trps.svl 2023.06)
