@<TRIPOS>MOLECULE
NONAME
46 48 1 0 0 
SMALL
USER_CHARGES


@<TRIPOS>ATOM
  1 S       -0.0840    -0.6340    -0.9210 S.o2  1 <1>   1.5010 
  2 O        0.1050     0.6900    -0.3690 O.2   1 <1>  -0.6500 
  3 O       -0.1140    -0.8100    -2.3580 O.2   1 <1>  -0.6500 
  4 N       -1.5540    -1.2310    -0.3220 N.am  1 <1>  -0.8490 
  5 C        1.1150    -1.7540    -0.1880 C.2   1 <1>  -0.0630 
  6 C       -1.9230    -2.5060    -0.9440 C.3   1 <1>   0.1960 
  7 C       -2.6310    -0.2480    -0.4670 C.3   1 <1>   0.1960 
  8 C        1.0520    -2.2040     1.1230 C.2   1 <1>   0.1390 
  9 C        2.2370    -2.3410    -0.6760 C.2   1 <1>  -0.3020 
 10 C       -3.1530    -3.0920    -0.2450 C.3   1 <1>  -0.1600 
 11 C       -3.8970    -0.7470     0.2330 C.3   1 <1>  -0.1600 
 12 N        2.0270    -3.0060     1.4280 N.2   1 <1>  -0.7070 
 13 N        2.7680    -3.0860     0.3110 N.pl3 1 <1>   0.3140 
 14 C       -4.3410    -2.1200    -0.2990 C.3   1 <1>  -0.0800 
 15 C        3.9970    -3.9030     0.2430 C.3   1 <1>   0.0960 
 16 C       -5.5420    -2.6840     0.4830 C.3   1 <1>  -0.0170 
 17 C        5.2500    -3.0280     0.3660 C.3   1 <1>  -0.2400 
 18 C       -6.7560    -1.7700     0.3990 C.ar  1 <1>  -0.1430 
 19 C       -7.5280    -1.7400    -0.7520 C.ar  1 <1>  -0.1500 
 20 C       -7.0990    -0.9560     1.4680 C.ar  1 <1>  -0.1500 
 21 C       -8.6280    -0.9050    -0.8350 C.ar  1 <1>  -0.1500 
 22 C       -8.1980    -0.1200     1.3860 C.ar  1 <1>  -0.1500 
 23 C       -8.9640    -0.0930     0.2340 C.ar  1 <1>  -0.1500 
 24 H       -1.1080    -3.2050    -0.8580 H     1 <1>   0.0800 
 25 H       -2.1320    -2.3600    -1.9920 H     1 <1>   0.0800 
 26 H       -2.8280    -0.0700    -1.5120 H     1 <1>   0.0800 
 27 H       -2.3380     0.6860    -0.0170 H     1 <1>   0.0800 
 28 H        0.2740    -1.9220     1.8160 H     1 <1>   0.1500 
 29 H        2.6710    -2.2620    -1.6560 H     1 <1>   0.1500 
 30 H       -2.8950    -3.3080     0.7770 H     1 <1>   0.0800 
 31 H       -3.4180    -4.0190    -0.7220 H     1 <1>   0.0800 
 32 H       -4.6800    -0.0240     0.0810 H     1 <1>   0.0800 
 33 H       -3.7050    -0.8050     1.2900 H     1 <1>   0.0800 
 34 H       -4.6350    -2.0020    -1.3290 H     1 <1>   0.0800 
 35 H        4.0020    -4.4350    -0.6910 H     1 <1>   0.0800 
 36 H        3.9690    -4.6180     1.0450 H     1 <1>   0.0800 
 37 H       -5.2670    -2.8280     1.5130 H     1 <1>   0.0800 
 38 H       -5.8080    -3.6470     0.0850 H     1 <1>   0.0800 
 39 H        5.2960    -2.3180    -0.4410 H     1 <1>   0.0800 
 40 H        6.1300    -3.6440     0.3310 H     1 <1>   0.0800 
 41 H        5.2390    -2.5000     1.3040 H     1 <1>   0.0800 
 42 H       -7.2760    -2.3680    -1.5890 H     1 <1>   0.1500 
 43 H       -6.5100    -0.9670     2.3680 H     1 <1>   0.1500 
 44 H       -9.2240    -0.8860    -1.7320 H     1 <1>   0.1500 
 45 H       -8.4590     0.5100     2.2190 H     1 <1>   0.1500 
 46 H       -9.8190     0.5570     0.1700 H     1 <1>   0.1500 
@<TRIPOS>BOND
  1   1   2  2   
  2   1   3  2   
  3   1   4  am  
  4   1   5  1   
  5   4   6  1   
  6   4   7  1   
  7   5   8  1   
  8   5   9  2   
  9   6  10  1   
 10   6  24  1   
 11   6  25  1   
 12   7  11  1   
 13   7  26  1   
 14   7  27  1   
 15   8  12  2   
 16   8  28  1   
 17   9  13  1   
 18   9  29  1   
 19  10  14  1   
 20  10  30  1   
 21  10  31  1   
 22  11  14  1   
 23  11  32  1   
 24  11  33  1   
 25  12  13  1   
 26  13  15  1   
 27  14  16  1   
 28  14  34  1   
 29  15  17  1   
 30  15  35  1   
 31  15  36  1   
 32  16  18  1   
 33  16  37  1   
 34  16  38  1   
 35  17  39  1   
 36  17  40  1   
 37  17  41  1   
 38  18  19  ar  
 39  18  20  ar  
 40  19  21  ar  
 41  19  42  1   
 42  20  22  ar  
 43  20  43  1   
 44  21  23  ar  
 45  21  44  1   
 46  22  23  ar  
 47  22  45  1   
 48  23  46  1   
@<TRIPOS>SUBSTRUCTURE
  1 ****   4 GROUP 4 **** **** 0

# MOE 2024.06 (io_trps.svl 2023.06)
