@<TRIPOS>MOLECULE
NONAME
42 44 1 0 0 
SMALL
USER_CHARGES


@<TRIPOS>ATOM
  1 CL       3.8390    -1.3500    -4.4310 Cl    1 <1>  -0.1770 
  2 C        3.7460    -1.3140    -2.6850 C.ar  1 <1>   0.1770 
  3 C        2.5280    -1.4480    -2.0390 C.ar  1 <1>   0.1770 
  4 C        4.9110    -1.1490    -1.9610 C.ar  1 <1>  -0.1500 
  5 CL       1.0470    -1.6580    -2.9460 Cl    1 <1>  -0.1770 
  6 C        2.4710    -1.4170    -0.6580 C.ar  1 <1>  -0.1500 
  7 C        4.8740    -1.1180    -0.5710 C.ar  1 <1>   0.1170 
  8 C        3.6400    -1.2510     0.0670 C.ar  1 <1>  -0.1500 
  9 N        6.0790    -0.9470     0.1250 N.am  1 <1>  -0.5470 
 10 C        6.4270    -1.1000     1.4370 C.2   1 <1>   0.5690 
 11 O        5.6720    -1.4660     2.3060 O.2   1 <1>  -0.5700 
 12 C        7.8800    -0.7850     1.7940 C.3   1 <1>   0.1710 
 13 N        8.8230    -0.9170     0.6420 N.3   1 <1>  -0.8100 
 14 C       10.0980    -0.2270     0.9390 C.3   1 <1>   0.1100 
 15 C        9.0850    -2.3490     0.3470 C.3   1 <1>   0.1100 
 16 C       11.1010    -0.3440    -0.2230 C.3   1 <1>   0.1400 
 17 C       10.0510    -2.5160    -0.8370 C.3   1 <1>   0.1400 
 18 N       11.3230    -1.7760    -0.5830 N.am  1 <1>  -0.6600 
 19 C       12.5110    -2.4370    -0.3380 C.2   1 <1>   0.7150 
 20 O       12.4730    -3.6380    -0.1310 O.2   1 <1>  -0.5700 
 21 C       13.7760    -1.7310    -0.3300 C.2   1 <1>   0.0550 
 22 O       14.7160    -2.0110     0.5690 O.3   1 <1>  -0.2800 
 23 C       14.2430    -0.7350    -1.1370 C.2   1 <1>  -0.1500 
 24 C       15.7530    -1.2330     0.3610 C.2   1 <1>  -0.0100 
 25 C       15.5240    -0.4140    -0.6860 C.2   1 <1>  -0.1500 
 26 H        5.8440    -1.0470    -2.4840 H     1 <1>   0.1500 
 27 H        1.5240    -1.5200    -0.1580 H     1 <1>   0.1500 
 28 H        3.5820    -1.2230     1.1410 H     1 <1>   0.1500 
 29 H        6.9050    -0.7130    -0.4370 H     1 <1>   0.3700 
 30 H        8.1890    -1.4270     2.6010 H     1 <1>   0.0800 
 31 H        7.8980     0.2280     2.1560 H     1 <1>   0.0800 
 32 H       10.5430    -0.6460     1.8270 H     1 <1>   0.0800 
 33 H        9.9050     0.8160     1.1230 H     1 <1>   0.0800 
 34 H        8.1620    -2.8500     0.1120 H     1 <1>   0.0800 
 35 H        9.5130    -2.8330     1.2100 H     1 <1>   0.0800 
 36 H       12.0220     0.1260     0.0710 H     1 <1>   0.0800 
 37 H       10.7160     0.1820    -1.0790 H     1 <1>   0.0800 
 38 H        9.5900    -2.1310    -1.7290 H     1 <1>   0.0800 
 39 H       10.2440    -3.5640    -0.9950 H     1 <1>   0.0800 
 40 H       13.7420    -0.2770    -1.9710 H     1 <1>   0.1500 
 41 H       16.6130    -1.3280     1.0010 H     1 <1>   0.1500 
 42 H       16.1730     0.3340    -1.1070 H     1 <1>   0.1500 
@<TRIPOS>BOND
  1   1   2  1   
  2   2   3  ar  
  3   2   4  ar  
  4   3   5  1   
  5   3   6  ar  
  6   4   7  ar  
  7   4  26  1   
  8   6   8  ar  
  9   6  27  1   
 10   7   8  ar  
 11   7   9  1   
 12   8  28  1   
 13   9  10  am  
 14   9  29  1   
 15  10  11  2   
 16  10  12  1   
 17  12  13  1   
 18  12  30  1   
 19  12  31  1   
 20  13  14  1   
 21  13  15  1   
 22  14  16  1   
 23  14  32  1   
 24  14  33  1   
 25  15  17  1   
 26  15  34  1   
 27  15  35  1   
 28  16  18  1   
 29  16  36  1   
 30  16  37  1   
 31  17  18  1   
 32  17  38  1   
 33  17  39  1   
 34  18  19  am  
 35  19  20  2   
 36  19  21  1   
 37  21  22  1   
 38  21  23  2   
 39  22  24  1   
 40  23  25  1   
 41  23  40  1   
 42  24  25  2   
 43  24  41  1   
 44  25  42  1   
@<TRIPOS>SUBSTRUCTURE
  1 ****  13 GROUP 4 **** **** 0

# MOE 2024.06 (io_trps.svl 2023.06)
