@<TRIPOS>MOLECULE
NONAME
45 46 1 0 0 
SMALL
USER_CHARGES


@<TRIPOS>ATOM
  1 O       -1.3190     0.6000    -0.3520 O.co2 1 <1>  -0.9000 
  2 C       -0.5170     1.4980    -0.6220 C.2   1 <1>   0.9060 
  3 O       -0.3620     1.8940    -1.7860 O.co2 1 <1>  -0.9000 
  4 C        0.3020     2.1200     0.5080 C.3   1 <1>  -0.1860 
  5 C        0.4090     3.6800     0.5040 C.3   1 <1>  -0.0190 
  6 C        1.6940     1.4360     0.5530 C.3   1 <1>  -0.1600 
  7 C       -0.8460     4.4790     0.1230 C.2   1 <1>   0.5690 
  8 C        1.6370     4.1360    -0.3060 C.3   1 <1>  -0.1600 
  9 C        2.7820     2.3390     1.1440 C.3   1 <1>  -0.1600 
 10 O       -1.2660     5.3090     0.8990 O.2   1 <1>  -0.5700 
 11 N       -1.4260     4.2940    -1.0830 N.am  1 <1>  -0.7300 
 12 C        2.9550     3.6170     0.3040 C.3   1 <1>  -0.1600 
 13 C       -2.7230     4.8410    -1.5000 C.3   1 <1>   0.2840 
 14 C       -3.8570     3.9680    -0.9810 C.ar  1 <1>  -0.1440 
 15 C       -4.9110     4.5320    -0.2780 C.ar  1 <1>  -0.1500 
 16 C       -3.8470     2.5990    -1.1970 C.ar  1 <1>  -0.1500 
 17 C       -5.9470     3.7410     0.2100 C.ar  1 <1>   0.0820 
 18 C       -4.8690     1.8020    -0.7180 C.ar  1 <1>  -0.1500 
 19 O       -6.9840     4.2780     0.9150 O.3   1 <1>  -0.3620 
 20 C       -5.9300     2.3620    -0.0120 C.ar  1 <1>   0.0820 
 21 C       -6.7720     5.4240     1.7070 C.3   1 <1>   0.0400 
 22 O       -6.9510     1.6070     0.4890 O.3   1 <1>  -0.3630 
 23 C       -6.8130     0.2090     0.6060 C.3   1 <1>   0.0400 
 24 H       -0.2200     1.8600     1.4100 H     1 <1>   0.0800 
 25 H        0.6060     3.9650     1.5220 H     1 <1>   0.0800 
 26 H        1.9870     1.1720    -0.4510 H     1 <1>   0.0800 
 27 H        1.6190     0.5200     1.1130 H     1 <1>   0.0800 
 28 H        1.6640     5.2100    -0.3620 H     1 <1>   0.0800 
 29 H        1.5350     3.7600    -1.3110 H     1 <1>   0.0800 
 30 H        3.7160     1.8060     1.1890 H     1 <1>   0.0800 
 31 H        2.5070     2.6010     2.1510 H     1 <1>   0.0800 
 32 H       -1.1090     3.4530    -1.6110 H     1 <1>   0.3700 
 33 H        3.3870     4.3810     0.9270 H     1 <1>   0.0800 
 34 H        3.6460     3.4250    -0.5000 H     1 <1>   0.0800 
 35 H       -2.7570     4.8780    -2.5750 H     1 <1>   0.0800 
 36 H       -2.8190     5.8420    -1.1190 H     1 <1>   0.0800 
 37 H       -4.9120     5.5910    -0.1150 H     1 <1>   0.1500 
 38 H       -3.0300     2.1350    -1.7290 H     1 <1>   0.1500 
 39 H       -4.8000     0.7470    -0.9040 H     1 <1>   0.1500 
 40 H       -7.6170     5.5380     2.3610 H     1 <1>   0.0800 
 41 H       -6.6880     6.2830     1.0660 H     1 <1>   0.0800 
 42 H       -5.8750     5.2860     2.2860 H     1 <1>   0.0800 
 43 H       -7.6600    -0.1650     1.1520 H     1 <1>   0.0800 
 44 H       -5.9050    -0.0070     1.1420 H     1 <1>   0.0800 
 45 H       -6.7910    -0.2230    -0.3780 H     1 <1>   0.0800 
@<TRIPOS>BOND
  1   1   2  ar  
  2   2   3  ar  
  3   2   4  1   
  4   4   5  1   
  5   4   6  1   
  6   4  24  1   
  7   5   7  1   
  8   5   8  1   
  9   5  25  1   
 10   6   9  1   
 11   6  26  1   
 12   6  27  1   
 13   7  10  2   
 14   7  11  am  
 15   8  12  1   
 16   8  28  1   
 17   8  29  1   
 18   9  12  1   
 19   9  30  1   
 20   9  31  1   
 21  11  13  1   
 22  11  32  1   
 23  12  33  1   
 24  12  34  1   
 25  13  14  1   
 26  13  35  1   
 27  13  36  1   
 28  14  15  ar  
 29  14  16  ar  
 30  15  17  ar  
 31  15  37  1   
 32  16  18  ar  
 33  16  38  1   
 34  17  19  1   
 35  17  20  ar  
 36  18  20  ar  
 37  18  39  1   
 38  19  21  1   
 39  20  22  1   
 40  21  40  1   
 41  21  41  1   
 42  21  42  1   
 43  22  23  1   
 44  23  43  1   
 45  23  44  1   
 46  23  45  1   
@<TRIPOS>SUBSTRUCTURE
  1 ****  11 GROUP 4 **** **** 0

# MOE 2024.06 (io_trps.svl 2023.06)
