@<TRIPOS>MOLECULE
NONAME
42 44 1 0 0 
SMALL
USER_CHARGES


@<TRIPOS>ATOM
  1 O       -0.6380    -2.1890     1.2230 O.3   1 <1>  -0.6800 
  2 C       -0.3640    -3.0640     0.1680 C.3   1 <1>   0.2000 
  3 C       -1.6980    -3.6240    -0.4310 C.3   1 <1>   0.4230 
  4 C        0.5910    -4.1430     0.7080 C.3   1 <1>  -0.1600 
  5 N       -2.7940    -2.6170    -0.2470 N.4   1 <1>  -0.9590 
  6 C       -2.0600    -4.9640     0.2350 C.3   1 <1>  -0.1600 
  7 C        0.4540    -5.4450    -0.0900 C.3   1 <1>  -0.1600 
  8 C       -4.2140    -3.0610    -0.3770 C.3   1 <1>   0.3430 
  9 C       -2.6450    -1.4040    -1.0800 C.3   1 <1>   0.3430 
 10 C       -0.9650    -6.0280     0.0200 C.3   1 <1>  -0.1600 
 11 C       -5.0050    -1.8750    -0.9450 C.3   1 <1>   0.0630 
 12 C       -3.9930    -0.7230    -0.9520 C.3   1 <1>  -0.1600 
 13 C       -6.3040    -1.6150    -0.1780 C.ar  1 <1>  -0.1430 
 14 C       -7.1080    -2.6900     0.1890 C.ar  1 <1>  -0.1500 
 15 C       -6.7270    -0.3320     0.1500 C.ar  1 <1>  -0.1500 
 16 C       -8.2840    -2.4900     0.8890 C.ar  1 <1>  -0.1500 
 17 C       -7.9040    -0.1310     0.8500 C.ar  1 <1>  -0.1500 
 18 C       -8.6830    -1.2100     1.2240 C.ar  1 <1>  -0.1500 
 19 H        0.1920    -1.9450     1.6850 H     1 <1>   0.4000 
 20 H        0.1430    -2.5020    -0.5980 H     1 <1>   0.0800 
 21 H       -1.5520    -3.8150    -1.4810 H     1 <1>   0.0800 
 22 H        0.3690    -4.3590     1.7410 H     1 <1>   0.0800 
 23 H        1.6060    -3.7920     0.6480 H     1 <1>   0.0800 
 24 H       -2.6370    -2.2930     0.7250 H     1 <1>   0.4500 
 25 H       -2.9790    -5.3630    -0.1540 H     1 <1>   0.0800 
 26 H       -2.1810    -4.8020     1.2930 H     1 <1>   0.0800 
 27 H        1.1670    -6.1700     0.2680 H     1 <1>   0.0800 
 28 H        0.6890    -5.2530    -1.1240 H     1 <1>   0.0800 
 29 H       -4.6010    -3.3440     0.5880 H     1 <1>   0.0800 
 30 H       -4.2940    -3.8970    -1.0510 H     1 <1>   0.0800 
 31 H       -2.4670    -1.6790    -2.1070 H     1 <1>   0.0800 
 32 H       -1.8430    -0.7750    -0.7240 H     1 <1>   0.0800 
 33 H       -1.1720    -6.5920    -0.8750 H     1 <1>   0.0800 
 34 H       -1.0000    -6.7220     0.8430 H     1 <1>   0.0800 
 35 H       -5.2650    -2.1130    -1.9620 H     1 <1>   0.0800 
 36 H       -4.1700    -0.0300    -1.7550 H     1 <1>   0.0800 
 37 H       -4.0080    -0.1920    -0.0160 H     1 <1>   0.0800 
 38 H       -6.8430    -3.7000    -0.0670 H     1 <1>   0.1500 
 39 H       -6.1620     0.5380    -0.1320 H     1 <1>   0.1500 
 40 H       -8.8960    -3.3290     1.1710 H     1 <1>   0.1500 
 41 H       -8.2180     0.8670     1.1020 H     1 <1>   0.1500 
 42 H       -9.5970    -1.0530     1.7690 H     1 <1>   0.1500 
@<TRIPOS>BOND
  1   1   2  1   
  2   1  19  1   
  3   2   3  1   
  4   2   4  1   
  5   2  20  1   
  6   3   5  1   
  7   3   6  1   
  8   3  21  1   
  9   4   7  1   
 10   4  22  1   
 11   4  23  1   
 12   5   8  1   
 13   5   9  1   
 14   5  24  1   
 15   6  10  1   
 16   6  25  1   
 17   6  26  1   
 18   7  10  1   
 19   7  27  1   
 20   7  28  1   
 21   8  11  1   
 22   8  29  1   
 23   8  30  1   
 24   9  12  1   
 25   9  31  1   
 26   9  32  1   
 27  10  33  1   
 28  10  34  1   
 29  11  12  1   
 30  11  13  1   
 31  11  35  1   
 32  12  36  1   
 33  12  37  1   
 34  13  14  ar  
 35  13  15  ar  
 36  14  16  ar  
 37  14  38  1   
 38  15  17  ar  
 39  15  39  1   
 40  16  18  ar  
 41  16  40  1   
 42  17  18  ar  
 43  17  41  1   
 44  18  42  1   
@<TRIPOS>SUBSTRUCTURE
  1 ****   8 GROUP 4 **** **** 0

# MOE 2024.06 (io_trps.svl 2023.06)
