@<TRIPOS>MOLECULE
NONAME
46 47 1 0 0 
SMALL
USER_CHARGES


@<TRIPOS>ATOM
  1 S       -0.2540     0.2440    -0.6400 S.o2  1 <1>   1.3330 
  2 O       -0.7500     0.9990    -1.7690 O.2   1 <1>  -0.6500 
  3 O        0.4250     0.9230     0.4410 O.2   1 <1>  -0.6500 
  4 N       -1.5540    -0.6170     0.0290 N.am  1 <1>  -0.8490 
  5 C        0.8020    -1.0660    -1.2780 C.3   1 <1>  -0.0550 
  6 C       -2.7830     0.1960     0.0570 C.3   1 <1>   0.1960 
  7 C       -1.2530    -1.1240     1.3730 C.3   1 <1>   0.1960 
  8 C        2.0840    -0.5700    -1.9700 C.3   1 <1>  -0.2400 
  9 C       -3.9840    -0.6550     0.4900 C.3   1 <1>  -0.0190 
 10 C       -2.3820    -2.0420     1.8560 C.3   1 <1>  -0.1600 
 11 C       -5.2400     0.2010     0.5020 C.2   1 <1>   0.5690 
 12 C       -3.7290    -1.3080     1.8620 C.3   1 <1>  -0.1600 
 13 O       -5.2600     1.2090     1.1670 O.2   1 <1>  -0.5700 
 14 N       -6.3050    -0.1940    -0.2400 N.am  1 <1>  -0.7300 
 15 C       -7.5790     0.5340    -0.3480 C.3   1 <1>   0.2200 
 16 C       -8.7160    -0.3800     0.1180 C.3   1 <1>  -0.1600 
 17 C       -7.7770     0.9720    -1.8030 C.3   1 <1>  -0.1600 
 18 C      -10.0830     0.2940    -0.0720 C.3   1 <1>  -0.1600 
 19 C       -9.1420     1.6490    -1.9970 C.3   1 <1>  -0.1600 
 20 C      -10.2850     0.7390    -1.5280 C.3   1 <1>  -0.1600 
 21 H        0.2370    -1.6480    -1.9810 H     1 <1>   0.0800 
 22 H        1.0810    -1.7150    -0.4720 H     1 <1>   0.0800 
 23 H       -2.9870     0.5890    -0.9250 H     1 <1>   0.0800 
 24 H       -2.6550     1.0310     0.7280 H     1 <1>   0.0800 
 25 H       -1.1350    -0.3000     2.0600 H     1 <1>   0.0800 
 26 H       -0.3310    -1.6800     1.3590 H     1 <1>   0.0800 
 27 H        1.8310     0.0610    -2.8050 H     1 <1>   0.0800 
 28 H        2.6630    -1.4030    -2.3270 H     1 <1>   0.0800 
 29 H        2.6810     0.0000    -1.2780 H     1 <1>   0.0800 
 30 H       -4.1090    -1.4310    -0.2430 H     1 <1>   0.0800 
 31 H       -2.1570    -2.3900     2.8480 H     1 <1>   0.0800 
 32 H       -2.4330    -2.9000     1.2080 H     1 <1>   0.0800 
 33 H       -4.5240    -1.9930     2.0980 H     1 <1>   0.0800 
 34 H       -3.7120    -0.5420     2.6200 H     1 <1>   0.0800 
 35 H       -6.2540    -1.0490    -0.7940 H     1 <1>   0.3700 
 36 H       -7.5520     1.4100     0.2820 H     1 <1>   0.0800 
 37 H       -8.5790    -0.6150     1.1590 H     1 <1>   0.0800 
 38 H       -8.6980    -1.2970    -0.4450 H     1 <1>   0.0800 
 39 H       -7.7170     0.1150    -2.4500 H     1 <1>   0.0800 
 40 H       -6.9970     1.6620    -2.0740 H     1 <1>   0.0800 
 41 H      -10.1480     1.1530     0.5740 H     1 <1>   0.0800 
 42 H      -10.8660    -0.3900     0.2090 H     1 <1>   0.0800 
 43 H       -9.2780     1.8950    -3.0360 H     1 <1>   0.0800 
 44 H       -9.1650     2.5680    -1.4350 H     1 <1>   0.0800 
 45 H      -11.2220     1.2620    -1.6170 H     1 <1>   0.0800 
 46 H      -10.3320    -0.1300    -2.1620 H     1 <1>   0.0800 
@<TRIPOS>BOND
  1   1   2  2   
  2   1   3  2   
  3   1   4  am  
  4   1   5  1   
  5   4   6  1   
  6   4   7  1   
  7   5   8  1   
  8   5  21  1   
  9   5  22  1   
 10   6   9  1   
 11   6  23  1   
 12   6  24  1   
 13   7  10  1   
 14   7  25  1   
 15   7  26  1   
 16   8  27  1   
 17   8  28  1   
 18   8  29  1   
 19   9  11  1   
 20   9  12  1   
 21   9  30  1   
 22  10  12  1   
 23  10  31  1   
 24  10  32  1   
 25  11  13  2   
 26  11  14  am  
 27  12  33  1   
 28  12  34  1   
 29  14  15  1   
 30  14  35  1   
 31  15  16  1   
 32  15  17  1   
 33  15  36  1   
 34  16  18  1   
 35  16  37  1   
 36  16  38  1   
 37  17  19  1   
 38  17  39  1   
 39  17  40  1   
 40  18  20  1   
 41  18  41  1   
 42  18  42  1   
 43  19  20  1   
 44  19  43  1   
 45  19  44  1   
 46  20  45  1   
 47  20  46  1   
@<TRIPOS>SUBSTRUCTURE
  1 ****   9 GROUP 4 **** **** 0

# MOE 2024.06 (io_trps.svl 2023.06)
