@<TRIPOS>MOLECULE
NONAME
50 52 1 0 0 
SMALL
USER_CHARGES


@<TRIPOS>ATOM
  1 O       -0.3770    -0.8520    -1.0670 O.3   1 <1>  -0.3630 
  2 C       -1.4420    -1.1270    -0.2500 C.ar  1 <1>   0.0830 
  3 C       -0.3590     0.2950    -1.8860 C.3   1 <1>   0.1200 
  4 C       -1.3480    -2.2310     0.6180 C.ar  1 <1>   0.1000 
  5 C       -2.5990    -0.3530    -0.2550 C.ar  1 <1>  -0.1500 
  6 C        0.9840     0.3380    -2.6070 C.3   1 <1>  -0.2400 
  7 N       -0.2280    -3.0710     0.6960 N.pl3 1 <1>  -0.8380 
  8 C       -2.4190    -2.5180     1.4520 C.ar  1 <1>  -0.1500 
  9 C       -3.6540    -0.6610     0.5870 C.ar  1 <1>  -0.1500 
 10 C        0.9970    -2.4050     1.2340 C.3   1 <1>   0.2090 
 11 C        0.0070    -3.8850    -0.5340 C.3   1 <1>   0.2090 
 12 C       -3.5640    -1.7430     1.4420 C.ar  1 <1>  -0.1500 
 13 C        2.1530    -3.4090     1.4060 C.3   1 <1>   0.3430 
 14 C        1.1730    -4.8750    -0.3390 C.3   1 <1>   0.3430 
 15 N        2.4240    -4.1900     0.1430 N.4   1 <1>  -0.9590 
 16 C        3.5620    -5.1310     0.3070 C.3   1 <1>   0.4860 
 17 C        4.8060    -4.3160     0.5920 C.ar  1 <1>  -0.1430 
 18 C        5.4040    -3.5770    -0.4200 C.ar  1 <1>  -0.1500 
 19 C        5.3480    -4.2910     1.8680 C.ar  1 <1>  -0.1500 
 20 C        6.5240    -2.8050    -0.1590 C.ar  1 <1>  -0.1430 
 21 C        6.4680    -3.5230     2.1310 C.ar  1 <1>  -0.1500 
 22 C        7.0510    -2.7810     1.1210 C.ar  1 <1>  -0.1500 
 23 C        7.1790    -1.9970    -1.2660 C.3   1 <1>  -0.0970 
 24 H       -0.4840     1.1640    -1.2620 H     1 <1>   0.0800 
 25 H       -1.1680     0.2230    -2.5930 H     1 <1>   0.0800 
 26 H       -2.7100     0.4940    -0.9040 H     1 <1>   0.1500 
 27 H        1.7870     0.3980    -1.8940 H     1 <1>   0.0800 
 28 H        1.0260     1.2060    -3.2400 H     1 <1>   0.0800 
 29 H        1.1050    -0.5370    -3.2200 H     1 <1>   0.0800 
 30 H       -2.3490    -3.3600     2.1160 H     1 <1>   0.1500 
 31 H       -4.5460    -0.0570     0.5780 H     1 <1>   0.1500 
 32 H        0.7650    -1.9630     2.1880 H     1 <1>   0.0800 
 33 H        1.3080    -1.6140     0.5750 H     1 <1>   0.0800 
 34 H        0.2210    -3.2400    -1.3680 H     1 <1>   0.0800 
 35 H       -0.8900    -4.4330    -0.7670 H     1 <1>   0.0800 
 36 H       -4.3830    -1.9830     2.0970 H     1 <1>   0.1500 
 37 H        1.8930    -4.0860     2.2030 H     1 <1>   0.0800 
 38 H        3.0380    -2.8700     1.7040 H     1 <1>   0.0800 
 39 H        1.3630    -5.3780    -1.2720 H     1 <1>   0.0800 
 40 H        0.8650    -5.6140     0.3820 H     1 <1>   0.0800 
 41 H        2.7050    -3.4980    -0.5630 H     1 <1>   0.4500 
 42 H        3.7090    -5.7010    -0.5960 H     1 <1>   0.0800 
 43 H        3.3710    -5.8130     1.1190 H     1 <1>   0.0800 
 44 H        5.0110    -3.5970    -1.4220 H     1 <1>   0.1500 
 45 H        4.9130    -4.8640     2.6700 H     1 <1>   0.1500 
 46 H        6.8920    -3.5020     3.1210 H     1 <1>   0.1500 
 47 H        7.9240    -2.1880     1.3350 H     1 <1>   0.1500 
 48 H        7.9280    -2.5920    -1.7560 H     1 <1>   0.0800 
 49 H        7.6480    -1.1170    -0.8630 H     1 <1>   0.0800 
 50 H        6.4510    -1.6870    -1.9940 H     1 <1>   0.0800 
@<TRIPOS>BOND
  1   1   2  1   
  2   1   3  1   
  3   2   4  ar  
  4   2   5  ar  
  5   3   6  1   
  6   3  24  1   
  7   3  25  1   
  8   4   7  1   
  9   4   8  ar  
 10   5   9  ar  
 11   5  26  1   
 12   6  27  1   
 13   6  28  1   
 14   6  29  1   
 15   7  10  1   
 16   7  11  1   
 17   8  12  ar  
 18   8  30  1   
 19   9  12  ar  
 20   9  31  1   
 21  10  13  1   
 22  10  32  1   
 23  10  33  1   
 24  11  14  1   
 25  11  34  1   
 26  11  35  1   
 27  12  36  1   
 28  13  15  1   
 29  13  37  1   
 30  13  38  1   
 31  14  15  1   
 32  14  39  1   
 33  14  40  1   
 34  15  16  1   
 35  15  41  1   
 36  16  17  1   
 37  16  42  1   
 38  16  43  1   
 39  17  18  ar  
 40  17  19  ar  
 41  18  20  ar  
 42  18  44  1   
 43  19  21  ar  
 44  19  45  1   
 45  20  22  ar  
 46  20  23  1   
 47  21  22  ar  
 48  21  46  1   
 49  22  47  1   
 50  23  48  1   
 51  23  49  1   
 52  23  50  1   
@<TRIPOS>SUBSTRUCTURE
  1 ****  10 GROUP 4 **** **** 0

# MOE 2024.06 (io_trps.svl 2023.06)
