@<TRIPOS>MOLECULE
NONAME
48 50 1 0 0 
SMALL
USER_CHARGES


@<TRIPOS>ATOM
  1 S        0.4530     0.4170     0.3570 S.3   1 <1>  -0.2860 
  2 C        0.8930    -1.3240     0.3880 C.2   1 <1>   0.1960 
  3 C       -0.2820     0.6480    -1.3170 C.3   1 <1>   0.0700 
  4 O        1.3920    -1.8100     1.5010 O.3   1 <1>  -0.2800 
  5 C        0.7920    -2.2590    -0.5750 C.2   1 <1>  -0.1500 
  6 C       -0.7230     2.1050    -1.4410 C.3   1 <1>  -0.2400 
  7 C        1.6210    -3.0930     1.2830 C.2   1 <1>  -0.0400 
  8 C        1.2780    -3.4370     0.0150 C.2   1 <1>  -0.1810 
  9 C        2.1910    -3.8920     2.4350 C.3   1 <1>  -0.0600 
 10 C        1.3580    -4.7750    -0.7220 C.3   1 <1>   0.3770 
 11 C        0.2670    -5.7080    -0.1960 C.2   1 <1>  -0.1240 
 12 C        2.7770    -5.3410    -0.5880 C.2   1 <1>  -0.1240 
 13 C        0.6100    -6.8450     0.4600 C.2   1 <1>  -0.0380 
 14 C       -1.0810    -5.3150    -0.4350 C.2   1 <1>   0.4950 
 15 C        2.9720    -6.5180     0.0700 C.2   1 <1>  -0.0380 
 16 C        3.7560    -4.4910    -1.1910 C.2   1 <1>   0.7060 
 17 N        1.9220    -7.2150     0.6270 N.pl3 1 <1>  -0.6000 
 18 C       -0.4360    -7.7880     1.0400 C.3   1 <1>  -0.0220 
 19 O       -1.4180    -4.4120    -1.1640 O.2   1 <1>  -0.5700 
 20 C       -2.1780    -6.1070     0.2560 C.3   1 <1>  -0.0990 
 21 C        4.3130    -7.2090     0.2620 C.3   1 <1>  -0.1020 
 22 O        3.5420    -3.8320    -2.1920 O.2   1 <1>  -0.5700 
 23 O        4.9620    -4.3960    -0.6170 O.3   1 <1>  -0.4300 
 24 C       -1.8080    -7.5950     0.3760 C.3   1 <1>  -0.1600 
 25 C        5.9520    -3.5160    -1.1140 C.3   1 <1>   0.0400 
 26 H       -1.1140    -0.0300    -1.3970 H     1 <1>   0.0800 
 27 H        0.4770     0.3970    -2.0370 H     1 <1>   0.0800 
 28 H        0.4210    -2.1680    -1.5790 H     1 <1>   0.1500 
 29 H       -1.4540     2.3350    -0.6870 H     1 <1>   0.0800 
 30 H       -1.1580     2.2750    -2.4090 H     1 <1>   0.0800 
 31 H        0.1230     2.7580    -1.3220 H     1 <1>   0.0800 
 32 H        1.5680    -3.7660     3.3010 H     1 <1>   0.0800 
 33 H        3.1800    -3.5410     2.6630 H     1 <1>   0.0800 
 34 H        2.2350    -4.9360     2.1960 H     1 <1>   0.0800 
 35 H        1.1610    -4.6100    -1.7670 H     1 <1>   0.0800 
 36 H        2.1290    -8.0850     1.1330 H     1 <1>   0.4000 
 37 H       -0.5140    -7.6040     2.0970 H     1 <1>   0.0800 
 38 H       -0.1260    -8.8090     0.9010 H     1 <1>   0.0800 
 39 H       -3.0920    -6.0050    -0.3020 H     1 <1>   0.0800 
 40 H       -2.3350    -5.6850     1.2320 H     1 <1>   0.0800 
 41 H        4.2120    -8.2660     0.0940 H     1 <1>   0.0800 
 42 H        4.6650    -7.0480     1.2650 H     1 <1>   0.0800 
 43 H        5.0530    -6.8480    -0.4260 H     1 <1>   0.0800 
 44 H       -2.5640    -8.1200     0.9350 H     1 <1>   0.0800 
 45 H       -1.7750    -8.0200    -0.6140 H     1 <1>   0.0800 
 46 H        6.8270    -3.6030    -0.4950 H     1 <1>   0.0800 
 47 H        5.5700    -2.5100    -1.0770 H     1 <1>   0.0800 
 48 H        6.1840    -3.7900    -2.1280 H     1 <1>   0.0800 
@<TRIPOS>BOND
  1   1   2  1   
  2   1   3  1   
  3   2   4  1   
  4   2   5  2   
  5   3   6  1   
  6   3  26  1   
  7   3  27  1   
  8   4   7  1   
  9   5   8  1   
 10   5  28  1   
 11   6  29  1   
 12   6  30  1   
 13   6  31  1   
 14   7   8  2   
 15   7   9  1   
 16   8  10  1   
 17   9  32  1   
 18   9  33  1   
 19   9  34  1   
 20  10  11  1   
 21  10  12  1   
 22  10  35  1   
 23  11  13  2   
 24  11  14  1   
 25  12  15  2   
 26  12  16  1   
 27  13  17  1   
 28  13  18  1   
 29  14  19  2   
 30  14  20  1   
 31  15  17  1   
 32  15  21  1   
 33  16  22  2   
 34  16  23  1   
 35  17  36  1   
 36  18  24  1   
 37  18  37  1   
 38  18  38  1   
 39  20  24  1   
 40  20  39  1   
 41  20  40  1   
 42  21  41  1   
 43  21  42  1   
 44  21  43  1   
 45  23  25  1   
 46  24  44  1   
 47  24  45  1   
 48  25  46  1   
 49  25  47  1   
 50  25  48  1   
@<TRIPOS>SUBSTRUCTURE
  1 ****   8 GROUP 4 **** **** 0

# MOE 2024.06 (io_trps.svl 2023.06)
