@<TRIPOS>MOLECULE
NONAME
37 38 1 0 0 
SMALL
USER_CHARGES


@<TRIPOS>ATOM
  1 S       -0.0140     0.0180    -1.9380 S.o2  1 <1>   1.5010 
  2 O       -0.9970    -1.0390    -1.9260 O.2   1 <1>  -0.6500 
  3 O        0.5810     0.4620    -3.1750 O.2   1 <1>  -0.6500 
  4 N       -0.7700     1.4250    -1.3160 N.am  1 <1>  -0.7570 
  5 C        1.2620    -0.3000    -0.7180 C.2   1 <1>  -0.0630 
  6 C       -1.7390     1.4990    -0.3180 C.ar  1 <1>   0.1990 
  7 C        1.5220    -1.5520    -0.1760 C.2   1 <1>   0.1390 
  8 C        2.1640     0.5090    -0.1060 C.2   1 <1>  -0.3020 
  9 C       -2.7080     2.5060    -0.3840 C.ar  1 <1>   0.0830 
 10 C       -1.7640     0.6090     0.7490 C.ar  1 <1>  -0.1500 
 11 N        2.4840    -1.5330     0.6950 N.2   1 <1>  -0.7070 
 12 N        2.8840    -0.2510     0.7390 N.pl3 1 <1>   0.3140 
 13 O       -2.6510     3.3630    -1.4510 O.3   1 <1>  -0.3620 
 14 C       -3.6750     2.6010     0.6110 C.ar  1 <1>  -0.1500 
 15 C       -2.7260     0.7050     1.7400 C.ar  1 <1>  -0.1430 
 16 C        3.9730     0.2030     1.6270 C.3   1 <1>   0.0960 
 17 C       -3.6310     4.3610    -1.6370 C.3   1 <1>   0.0400 
 18 C       -3.6820     1.7030     1.6650 C.ar  1 <1>  -0.1500 
 19 C       -2.7350    -0.2820     2.8930 C.3   1 <1>  -0.0970 
 20 C        3.4150     0.8910     2.8790 C.3   1 <1>  -0.2400 
 21 H       -0.8820     2.1100    -2.0590 H     1 <1>   0.4200 
 22 H        0.9830    -2.4470    -0.4440 H     1 <1>   0.1500 
 23 H        2.3160     1.5650    -0.2270 H     1 <1>   0.1500 
 24 H       -1.0270    -0.1690     0.8140 H     1 <1>   0.1500 
 25 H       -4.4320     3.3620     0.5890 H     1 <1>   0.1500 
 26 H        4.6020     0.8780     1.0770 H     1 <1>   0.0800 
 27 H        4.5550    -0.6560     1.9090 H     1 <1>   0.0800 
 28 H       -3.4020     4.8890    -2.5460 H     1 <1>   0.0800 
 29 H       -3.6010     5.0410    -0.8040 H     1 <1>   0.0800 
 30 H       -4.5960     3.8930    -1.7210 H     1 <1>   0.0800 
 31 H       -4.4370     1.7850     2.4280 H     1 <1>   0.1500 
 32 H       -3.1310     0.1790     3.7810 H     1 <1>   0.0800 
 33 H       -1.7370    -0.6230     3.1050 H     1 <1>   0.0800 
 34 H       -3.3440    -1.1310     2.6400 H     1 <1>   0.0800 
 35 H        2.8410     1.7600     2.6080 H     1 <1>   0.0800 
 36 H        4.2230     1.1990     3.5170 H     1 <1>   0.0800 
 37 H        2.7890     0.2080     3.4260 H     1 <1>   0.0800 
@<TRIPOS>BOND
  1   1   2  2   
  2   1   3  2   
  3   1   4  am  
  4   1   5  1   
  5   4   6  1   
  6   4  21  1   
  7   5   7  1   
  8   5   8  2   
  9   6   9  ar  
 10   6  10  ar  
 11   7  11  2   
 12   7  22  1   
 13   8  12  1   
 14   8  23  1   
 15   9  13  1   
 16   9  14  ar  
 17  10  15  ar  
 18  10  24  1   
 19  11  12  1   
 20  12  16  1   
 21  13  17  1   
 22  14  18  ar  
 23  14  25  1   
 24  15  18  ar  
 25  15  19  1   
 26  16  20  1   
 27  16  26  1   
 28  16  27  1   
 29  17  28  1   
 30  17  29  1   
 31  17  30  1   
 32  18  31  1   
 33  19  32  1   
 34  19  33  1   
 35  19  34  1   
 36  20  35  1   
 37  20  36  1   
 38  20  37  1   
@<TRIPOS>SUBSTRUCTURE
  1 ****   4 GROUP 4 **** **** 0

# MOE 2024.06 (io_trps.svl 2023.06)
