@<TRIPOS>MOLECULE
NONAME
46 47 1 0 0 
SMALL
USER_CHARGES


@<TRIPOS>ATOM
  1 CL      -1.6780     0.0600    -3.4040 Cl    1 <1>  -0.1770 
  2 C       -2.9890    -0.3040    -2.3140 C.ar  1 <1>   0.1770 
  3 C       -2.7490    -1.0740    -1.1930 C.ar  1 <1>  -0.1500 
  4 C       -4.2530     0.1830    -2.5850 C.ar  1 <1>  -0.1500 
  5 C       -3.7950    -1.3570    -0.3300 C.ar  1 <1>  -0.1500 
  6 C       -5.2900    -0.1080    -1.7140 C.ar  1 <1>  -0.1500 
  7 C       -5.0810    -0.8790    -0.5730 C.ar  1 <1>  -0.0090 
  8 S       -6.4470    -1.2420     0.5680 S.o2  1 <1>   1.4470 
  9 O       -5.9630    -1.8990     1.7610 O.2   1 <1>  -0.6500 
 10 O       -7.5580    -1.8110    -0.1660 O.2   1 <1>  -0.6500 
 11 N       -7.0000     0.2790     1.0670 N.am  1 <1>  -0.8490 
 12 C       -8.1280     0.1150     2.0200 C.3   1 <1>   0.2570 
 13 C       -5.9610     1.1090     1.6940 C.3   1 <1>   0.1160 
 14 C       -9.1070     1.2990     2.0390 C.2   1 <1>   0.5690 
 15 O       -9.1830     1.9450     3.0570 O.2   1 <1>  -0.5700 
 16 N       -9.8890     1.6100     0.9460 N.am  1 <1>  -0.6600 
 17 C       -9.8660     0.8660    -0.3530 C.3   1 <1>   0.1400 
 18 C      -10.8170     2.7830     0.9710 C.3   1 <1>   0.1400 
 19 C      -11.2910     0.4950    -0.8080 C.3   1 <1>   0.3430 
 20 C      -12.2290     2.3800     0.5100 C.3   1 <1>   0.3430 
 21 N      -12.2150     1.6850    -0.8310 N.4   1 <1>  -0.9590 
 22 C      -13.5750     1.2780    -1.2680 C.3   1 <1>   0.3430 
 23 C      -14.3780     2.5100    -1.6650 C.3   1 <1>  -0.2400 
 24 H       -1.7570    -1.4450    -1.0030 H     1 <1>   0.1500 
 25 H       -4.4170     0.7790    -3.4650 H     1 <1>   0.1500 
 26 H       -3.6080    -1.9590     0.5450 H     1 <1>   0.1500 
 27 H       -6.2770     0.2690    -1.9210 H     1 <1>   0.1500 
 28 H       -7.7480    -0.0430     3.0160 H     1 <1>   0.0800 
 29 H       -8.7040    -0.7590     1.7710 H     1 <1>   0.0800 
 30 H       -5.1690     1.3120     0.9930 H     1 <1>   0.0800 
 31 H       -5.5430     0.6120     2.5550 H     1 <1>   0.0800 
 32 H       -6.3770     2.0530     2.0070 H     1 <1>   0.0800 
 33 H       -9.2960    -0.0390    -0.2710 H     1 <1>   0.0800 
 34 H       -9.3910     1.4770    -1.1010 H     1 <1>   0.0800 
 35 H      -10.4280     3.5550     0.3300 H     1 <1>   0.0800 
 36 H      -10.8830     3.1940     1.9650 H     1 <1>   0.0800 
 37 H      -11.6780    -0.2500    -0.1320 H     1 <1>   0.0800 
 38 H      -11.2390     0.0520    -1.7890 H     1 <1>   0.0800 
 39 H      -12.8420     3.2650     0.4610 H     1 <1>   0.0800 
 40 H      -12.6540     1.7260     1.2530 H     1 <1>   0.0800 
 41 H      -11.8480     2.3510    -1.5230 H     1 <1>   0.4500 
 42 H      -14.0790     0.7440    -0.4760 H     1 <1>   0.0800 
 43 H      -13.5020     0.6220    -2.1220 H     1 <1>   0.0800 
 44 H      -14.5620     3.1520    -0.8230 H     1 <1>   0.0800 
 45 H      -15.3340     2.1970    -2.0480 H     1 <1>   0.0800 
 46 H      -13.8770     3.0610    -2.4420 H     1 <1>   0.0800 
@<TRIPOS>BOND
  1   1   2  1   
  2   2   3  ar  
  3   2   4  ar  
  4   3   5  ar  
  5   3  24  1   
  6   4   6  ar  
  7   4  25  1   
  8   5   7  ar  
  9   5  26  1   
 10   6   7  ar  
 11   6  27  1   
 12   7   8  1   
 13   8   9  2   
 14   8  10  2   
 15   8  11  am  
 16  11  12  1   
 17  11  13  1   
 18  12  14  1   
 19  12  28  1   
 20  12  29  1   
 21  13  30  1   
 22  13  31  1   
 23  13  32  1   
 24  14  15  2   
 25  14  16  am  
 26  16  17  1   
 27  16  18  1   
 28  17  19  1   
 29  17  33  1   
 30  17  34  1   
 31  18  20  1   
 32  18  35  1   
 33  18  36  1   
 34  19  21  1   
 35  19  37  1   
 36  19  38  1   
 37  20  21  1   
 38  20  39  1   
 39  20  40  1   
 40  21  22  1   
 41  21  41  1   
 42  22  23  1   
 43  22  42  1   
 44  22  43  1   
 45  23  44  1   
 46  23  45  1   
 47  23  46  1   
@<TRIPOS>SUBSTRUCTURE
  1 ****  11 GROUP 4 **** **** 0

# MOE 2024.06 (io_trps.svl 2023.06)
