@<TRIPOS>MOLECULE
NONAME
36 37 1 0 0 
SMALL
USER_CHARGES


@<TRIPOS>ATOM
  1 S        0.1450     0.1700     1.2920 S.o2  1 <1>   1.4470 
  2 O        0.5780     0.0230     2.6630 O.2   1 <1>  -0.6500 
  3 O        0.0420     1.4790     0.6900 O.2   1 <1>  -0.6500 
  4 N        1.2400    -0.6370     0.3130 N.am  1 <1>  -0.9140 
  5 C       -1.4030    -0.7430     1.0310 C.ar  1 <1>  -0.0090 
  6 C        2.5900    -0.7120     0.8290 C.3   1 <1>   0.2760 
  7 C       -2.6110    -0.0750     0.8630 C.ar  1 <1>  -0.1500 
  8 C       -1.4240    -2.1310     1.0110 C.ar  1 <1>  -0.1500 
  9 C        3.2890     0.6420     0.7220 C.3   1 <1>  -0.1600 
 10 C        3.3990    -1.5740    -0.1330 C.3   1 <1>  -0.1600 
 11 C       -3.8140    -0.7430     0.6690 C.ar  1 <1>  -0.0090 
 12 C       -2.6050    -2.8240     0.8220 C.ar  1 <1>  -0.1500 
 13 C        3.7120     0.7800    -0.7440 C.3   1 <1>  -0.1600 
 14 C        3.8040    -0.6510    -1.2900 C.3   1 <1>  -0.1600 
 15 S       -5.3580     0.1690     0.4120 S.o2  1 <1>   1.2040 
 16 C       -3.7890    -2.1310     0.6520 C.ar  1 <1>  -0.1500 
 17 O       -6.4830    -0.7100     0.6410 O.2   1 <1>  -0.6500 
 18 O       -5.2810     1.4410     1.0920 O.2   1 <1>  -0.6500 
 19 C       -5.3020     0.5050    -1.3370 C.3   1 <1>  -0.1350 
 20 H        1.3010    -0.0530    -0.5180 H     1 <1>   0.4200 
 21 H        2.6050    -1.1170     1.8290 H     1 <1>   0.0800 
 22 H       -2.6130     1.0040     0.8890 H     1 <1>   0.1500 
 23 H       -0.5030    -2.6750     1.1470 H     1 <1>   0.1500 
 24 H        4.1750     0.6070     1.3320 H     1 <1>   0.0800 
 25 H        2.6910     1.4690     1.0610 H     1 <1>   0.0800 
 26 H        2.8530    -2.4400    -0.4650 H     1 <1>   0.0800 
 27 H        4.2870    -1.9060     0.3740 H     1 <1>   0.0800 
 28 H       -2.6030    -3.9020     0.8110 H     1 <1>   0.1500 
 29 H        4.6540     1.2950    -0.8250 H     1 <1>   0.0800 
 30 H        2.9680     1.3330    -1.2910 H     1 <1>   0.0800 
 31 H        3.1220    -0.7710    -2.1140 H     1 <1>   0.0800 
 32 H        4.8010    -0.8790    -1.6290 H     1 <1>   0.0800 
 33 H       -4.7070    -2.6790     0.5090 H     1 <1>   0.1500 
 34 H       -5.2720    -0.4110    -1.8940 H     1 <1>   0.0800 
 35 H       -4.4350     1.0890    -1.5790 H     1 <1>   0.0800 
 36 H       -6.1750     1.0550    -1.6310 H     1 <1>   0.0800 
@<TRIPOS>BOND
  1   1   2  2   
  2   1   3  2   
  3   1   4  am  
  4   1   5  1   
  5   4   6  1   
  6   4  20  1   
  7   5   7  ar  
  8   5   8  ar  
  9   6   9  1   
 10   6  10  1   
 11   6  21  1   
 12   7  11  ar  
 13   7  22  1   
 14   8  12  ar  
 15   8  23  1   
 16   9  13  1   
 17   9  24  1   
 18   9  25  1   
 19  10  14  1   
 20  10  26  1   
 21  10  27  1   
 22  11  15  1   
 23  11  16  ar  
 24  12  16  ar  
 25  12  28  1   
 26  13  14  1   
 27  13  29  1   
 28  13  30  1   
 29  14  31  1   
 30  14  32  1   
 31  15  17  2   
 32  15  18  2   
 33  15  19  1   
 34  16  33  1   
 35  19  34  1   
 36  19  35  1   
 37  19  36  1   
@<TRIPOS>SUBSTRUCTURE
  1 ****   5 GROUP 4 **** **** 0

# MOE 2024.06 (io_trps.svl 2023.06)
