@<TRIPOS>MOLECULE
NONAME
31 32 1 0 0 
SMALL
USER_CHARGES


@<TRIPOS>ATOM
  1 CL      -0.8250     0.1520     1.9080 Cl    1 <1>  -0.1770 
  2 C       -1.3800     1.5190     0.9760 C.ar  1 <1>   0.1770 
  3 C       -0.4510     2.3520     0.3850 C.ar  1 <1>  -0.1500 
  4 C       -2.7370     1.7400     0.8470 C.ar  1 <1>  -0.1500 
  5 C       -0.9190     3.4240    -0.3490 C.ar  1 <1>   0.1770 
  6 C       -3.2040     2.8240     0.1090 C.ar  1 <1>   0.1170 
  7 CL       0.2300     4.4920    -1.1140 Cl    1 <1>  -0.1770 
  8 C       -2.2720     3.6660    -0.4930 C.ar  1 <1>  -0.1500 
  9 N       -4.5850     3.0160    -0.0140 N.am  1 <1>  -0.5470 
 10 C       -5.3140     4.1530    -0.2220 C.2   1 <1>   0.6900 
 11 O       -4.7810     5.2460    -0.1970 O.2   1 <1>  -0.5700 
 12 N       -6.6650     4.0390    -0.4260 N.am  1 <1>  -0.6600 
 13 C       -7.3390     2.8280    -0.9700 C.3   1 <1>   0.1400 
 14 C       -7.5640     5.2170    -0.2740 C.3   1 <1>   0.1400 
 15 C       -8.4960     2.4300    -0.0480 C.3   1 <1>  -0.1600 
 16 C       -8.7380     4.8490     0.6410 C.3   1 <1>  -0.1600 
 17 C       -9.4770     3.5950     0.1500 C.3   1 <1>  -0.1600 
 18 H        0.6030     2.1720     0.4910 H     1 <1>   0.1500 
 19 H       -3.4260     1.0700     1.3250 H     1 <1>   0.1500 
 20 H       -2.5940     4.5100    -1.0750 H     1 <1>   0.1500 
 21 H       -5.1750     2.2280     0.2280 H     1 <1>   0.3700 
 22 H       -6.6500     2.0100    -1.0740 H     1 <1>   0.0800 
 23 H       -7.7230     3.0590    -1.9490 H     1 <1>   0.0800 
 24 H       -7.9270     5.5080    -1.2440 H     1 <1>   0.0800 
 25 H       -7.0290     6.0510     0.1480 H     1 <1>   0.0800 
 26 H       -8.0980     2.1250     0.9040 H     1 <1>   0.0800 
 27 H       -9.0170     1.5900    -0.4720 H     1 <1>   0.0800 
 28 H       -9.4220     5.6780     0.6890 H     1 <1>   0.0800 
 29 H       -8.3590     4.6810     1.6350 H     1 <1>   0.0800 
 30 H      -10.2350     3.3180     0.8630 H     1 <1>   0.0800 
 31 H       -9.9650     3.8140    -0.7850 H     1 <1>   0.0800 
@<TRIPOS>BOND
  1   1   2  1   
  2   2   3  ar  
  3   2   4  ar  
  4   3   5  ar  
  5   3  18  1   
  6   4   6  ar  
  7   4  19  1   
  8   5   7  1   
  9   5   8  ar  
 10   6   8  ar  
 11   6   9  1   
 12   8  20  1   
 13   9  10  am  
 14   9  21  1   
 15  10  11  2   
 16  10  12  am  
 17  12  13  1   
 18  12  14  1   
 19  13  15  1   
 20  13  22  1   
 21  13  23  1   
 22  14  16  1   
 23  14  24  1   
 24  14  25  1   
 25  15  17  1   
 26  15  26  1   
 27  15  27  1   
 28  16  17  1   
 29  16  28  1   
 30  16  29  1   
 31  17  30  1   
 32  17  31  1   
@<TRIPOS>SUBSTRUCTURE
  1 ****   9 GROUP 4 **** **** 0

# MOE 2024.06 (io_trps.svl 2023.06)
