@<TRIPOS>MOLECULE
NONAME
50 51 1 0 0 
SMALL
USER_CHARGES


@<TRIPOS>ATOM
  1 S        0.5090    -1.3540    -0.7550 S.o2  1 <1>   1.4470 
  2 O        1.2770    -2.5780    -0.7050 O.2   1 <1>  -0.6500 
  3 O        0.6160    -0.5200    -1.9300 O.2   1 <1>  -0.6500 
  4 N        1.0510    -0.4200     0.5530 N.am  1 <1>  -0.8490 
  5 C       -1.2340    -1.6680    -0.3690 C.ar  1 <1>  -0.0090 
  6 C        2.3250     0.3040     0.2840 C.3   1 <1>   0.2570 
  7 C        1.0620    -1.1130     1.8480 C.3   1 <1>   0.1160 
  8 C       -2.1210    -0.6160    -0.1750 C.ar  1 <1>  -0.1500 
  9 C       -1.7260    -2.9620    -0.2490 C.ar  1 <1>  -0.1500 
 10 C        3.6600    -0.4300     0.5120 C.2   1 <1>   0.5690 
 11 C       -3.4540    -0.8330     0.1340 C.ar  1 <1>  -0.1440 
 12 C       -3.0540    -3.2000     0.0580 C.ar  1 <1>  -0.1500 
 13 O        4.5270     0.1910     1.0790 O.2   1 <1>  -0.5700 
 14 N        3.8390    -1.7200     0.0780 N.am  1 <1>  -0.5470 
 15 C       -3.9280    -2.1350     0.2540 C.ar  1 <1>   0.0830 
 16 C       -4.3870     0.3530     0.3370 C.3   1 <1>  -0.0970 
 17 C        4.9780    -2.5440     0.1050 C.ar  1 <1>   0.1170 
 18 O       -5.2400    -2.3050     0.5600 O.3   1 <1>  -0.3630 
 19 C        5.1910    -3.4970    -0.8980 C.ar  1 <1>  -0.1430 
 20 C        5.9090    -2.4470     1.1370 C.ar  1 <1>  -0.1500 
 21 C       -5.8220    -3.5840     0.6670 C.3   1 <1>   0.0400 
 22 C        6.3140    -4.3080    -0.8490 C.ar  1 <1>  -0.1500 
 23 C        4.2320    -3.6900    -2.0700 C.3   1 <1>  -0.0170 
 24 C        7.0250    -3.2590     1.1770 C.ar  1 <1>  -0.1500 
 25 C        7.2300    -4.1940     0.1810 C.ar  1 <1>  -0.1500 
 26 C        3.3150    -4.8910    -1.8240 C.3   1 <1>  -0.2400 
 27 H        2.3400     1.1660     0.9280 H     1 <1>   0.0800 
 28 H        2.3270     0.6880    -0.7200 H     1 <1>   0.0800 
 29 H        0.0720    -1.4630     2.0880 H     1 <1>   0.0800 
 30 H        1.3770    -0.4380     2.6260 H     1 <1>   0.0800 
 31 H        1.7290    -1.9590     1.8290 H     1 <1>   0.0800 
 32 H       -1.7520     0.3920    -0.2700 H     1 <1>   0.1500 
 33 H       -1.0610    -3.7970    -0.3980 H     1 <1>   0.1500 
 34 H       -3.3870    -4.2170     0.1410 H     1 <1>   0.1500 
 35 H        3.0250    -2.1590    -0.3700 H     1 <1>   0.3700 
 36 H       -3.8660     1.2850     0.2210 H     1 <1>   0.0800 
 37 H       -4.8130     0.3160     1.3240 H     1 <1>   0.0800 
 38 H       -5.1860     0.3130    -0.3830 H     1 <1>   0.0800 
 39 H        5.7630    -1.7300     1.9240 H     1 <1>   0.1500 
 40 H       -6.8640    -3.4580     0.9000 H     1 <1>   0.0800 
 41 H       -5.3350    -4.1250     1.4580 H     1 <1>   0.0800 
 42 H       -5.7180    -4.0950    -0.2740 H     1 <1>   0.0800 
 43 H        6.4820    -5.0410    -1.6180 H     1 <1>   0.1500 
 44 H        4.8000    -3.8590    -2.9680 H     1 <1>   0.0800 
 45 H        3.6390    -2.8090    -2.2410 H     1 <1>   0.0800 
 46 H        7.7320    -3.1630     1.9820 H     1 <1>   0.1500 
 47 H        8.0980    -4.8290     0.2060 H     1 <1>   0.1500 
 48 H        3.8930    -5.7940    -1.7500 H     1 <1>   0.0800 
 49 H        2.6130    -4.9920    -2.6320 H     1 <1>   0.0800 
 50 H        2.7690    -4.7600    -0.9060 H     1 <1>   0.0800 
@<TRIPOS>BOND
  1   1   2  2   
  2   1   3  2   
  3   1   4  am  
  4   1   5  1   
  5   4   6  1   
  6   4   7  1   
  7   5   8  ar  
  8   5   9  ar  
  9   6  10  1   
 10   6  27  1   
 11   6  28  1   
 12   7  29  1   
 13   7  30  1   
 14   7  31  1   
 15   8  11  ar  
 16   8  32  1   
 17   9  12  ar  
 18   9  33  1   
 19  10  13  2   
 20  10  14  am  
 21  11  15  ar  
 22  11  16  1   
 23  12  15  ar  
 24  12  34  1   
 25  14  17  1   
 26  14  35  1   
 27  15  18  1   
 28  16  36  1   
 29  16  37  1   
 30  16  38  1   
 31  17  19  ar  
 32  17  20  ar  
 33  18  21  1   
 34  19  22  ar  
 35  19  23  1   
 36  20  24  ar  
 37  20  39  1   
 38  21  40  1   
 39  21  41  1   
 40  21  42  1   
 41  22  25  ar  
 42  22  43  1   
 43  23  26  1   
 44  23  44  1   
 45  23  45  1   
 46  24  25  ar  
 47  24  46  1   
 48  25  47  1   
 49  26  48  1   
 50  26  49  1   
 51  26  50  1   
@<TRIPOS>SUBSTRUCTURE
  1 ****   2 GROUP 4 **** **** 0

# MOE 2024.06 (io_trps.svl 2023.06)
