@<TRIPOS>MOLECULE
NONAME
39 40 1 0 0 
SMALL
USER_CHARGES


@<TRIPOS>ATOM
  1 S       -3.0500    -0.0040    -1.9070 S.o2  1 <1>   1.5680 
  2 S       -1.8650    -0.5340    -0.2690 S.3   1 <1>  -0.3480 
  3 O       -4.2130    -0.9210    -1.7930 O.co2 1 <1>  -0.8170 
  4 O       -3.3810     1.4150    -1.6360 O.co2 1 <1>  -0.8170 
  5 O       -2.1750    -0.2430    -3.0830 O.co2 1 <1>  -0.8170 
  6 C       -2.9190    -0.1260     1.1450 C.3   1 <1>   0.0700 
  7 C       -3.8660    -1.2970     1.4370 C.3   1 <1>  -0.0990 
  8 C       -5.2870    -0.7970     1.5290 C.2   1 <1>   0.5690 
  9 O       -5.7620    -0.5530     2.6140 O.2   1 <1>  -0.5700 
 10 N       -5.9500    -0.6120     0.3690 N.am  1 <1>  -0.7300 
 11 C       -7.2380     0.0620     0.1780 C.3   1 <1>   0.2200 
 12 C       -8.1910    -0.8280    -0.6370 C.3   1 <1>   0.0210 
 13 C       -6.9390     1.3700    -0.5530 C.3   1 <1>  -0.2400 
 14 C       -8.7610    -2.0140     0.1320 C.2   1 <1>  -0.1810 
 15 C       -9.6280    -2.9690    -0.4470 C.ar  1 <1>   0.0000 
 16 C       -8.5800    -2.3670     1.4280 C.2   1 <1>  -0.3020 
 17 C       -9.9440    -3.8790     0.5570 C.ar  1 <1>  -0.1520 
 18 C      -10.1700    -3.1420    -1.7250 C.ar  1 <1>  -0.1500 
 19 N       -9.2910    -3.4990     1.7010 N.pl3 1 <1>   0.0330 
 20 C      -10.7970    -4.9580     0.3090 C.ar  1 <1>  -0.1500 
 21 C      -11.0090    -4.2040    -1.9700 C.ar  1 <1>  -0.1500 
 22 C      -11.3240    -5.1130    -0.9520 C.ar  1 <1>  -0.1500 
 23 H       -3.4510     0.7730     0.8820 H     1 <1>   0.0800 
 24 H       -2.2700     0.0690     1.9790 H     1 <1>   0.0800 
 25 H       -3.5950    -1.7620     2.3660 H     1 <1>   0.0800 
 26 H       -3.8150    -2.0400     0.6620 H     1 <1>   0.0800 
 27 H       -5.4350    -0.7970    -0.5150 H     1 <1>   0.3700 
 28 H       -7.6800     0.2840     1.1360 H     1 <1>   0.0800 
 29 H       -7.6780    -1.1820    -1.5140 H     1 <1>   0.0800 
 30 H       -9.0220    -0.2310    -0.9630 H     1 <1>   0.0800 
 31 H       -6.4790     1.1730    -1.5060 H     1 <1>   0.0800 
 32 H       -6.2680     1.9720     0.0340 H     1 <1>   0.0800 
 33 H       -7.8440     1.9260    -0.7110 H     1 <1>   0.0800 
 34 H       -7.9800    -1.8790     2.1780 H     1 <1>   0.1500 
 35 H       -9.9170    -2.4400    -2.4980 H     1 <1>   0.1500 
 36 H       -9.3300    -3.9870     2.6000 H     1 <1>   0.2700 
 37 H      -11.0300    -5.6510     1.0980 H     1 <1>   0.1500 
 38 H      -11.4310    -4.3480    -2.9490 H     1 <1>   0.1500 
 39 H      -11.9830    -5.9350    -1.1690 H     1 <1>   0.1500 
@<TRIPOS>BOND
  1   1   2  1   
  2   1   3  ar  
  3   1   4  ar  
  4   1   5  ar  
  5   2   6  1   
  6   6   7  1   
  7   6  23  1   
  8   6  24  1   
  9   7   8  1   
 10   7  25  1   
 11   7  26  1   
 12   8   9  2   
 13   8  10  am  
 14  10  11  1   
 15  10  27  1   
 16  11  12  1   
 17  11  13  1   
 18  11  28  1   
 19  12  14  1   
 20  12  29  1   
 21  12  30  1   
 22  13  31  1   
 23  13  32  1   
 24  13  33  1   
 25  14  15  1   
 26  14  16  2   
 27  15  17  ar  
 28  15  18  ar  
 29  16  19  1   
 30  16  34  1   
 31  17  19  1   
 32  17  20  ar  
 33  18  21  ar  
 34  18  35  1   
 35  19  36  1   
 36  20  22  ar  
 37  20  37  1   
 38  21  22  ar  
 39  21  38  1   
 40  22  39  1   
@<TRIPOS>SUBSTRUCTURE
  1 ****  10 GROUP 4 **** **** 0

# MOE 2024.06 (io_trps.svl 2023.06)
