@<TRIPOS>MOLECULE
NONAME
44 45 1 0 0 
SMALL
USER_CHARGES


@<TRIPOS>ATOM
  1 O       -0.0970    -0.2390    -0.2100 O.3   1 <1>  -0.3630 
  2 C       -1.2910    -0.7550     0.1610 C.ar  1 <1>   0.0830 
  3 C        0.9340    -0.3720     0.7330 C.3   1 <1>   0.1200 
  4 C       -1.5840    -2.0970    -0.0920 C.ar  1 <1>  -0.1440 
  5 C       -2.2130     0.0740     0.7940 C.ar  1 <1>  -0.1440 
  6 C        2.1800     0.2820     0.1410 C.3   1 <1>  -0.1600 
  7 C       -2.7960    -2.6200     0.3490 C.ar  1 <1>  -0.1430 
  8 C       -0.5940    -2.9830    -0.8480 C.3   1 <1>  -0.0960 
  9 C       -3.4160    -0.4610     1.2170 C.ar  1 <1>  -0.1500 
 10 C       -1.9330     1.5520     1.0260 C.3   1 <1>  -0.0970 
 11 C        3.3580     0.1670     1.1050 C.3   1 <1>   0.3430 
 12 C       -3.7010    -1.7960     1.0010 C.ar  1 <1>  -0.1500 
 13 C       -3.1740    -4.0800     0.1360 C.3   1 <1>  -0.0970 
 14 N        4.5440     0.8780     0.5540 N.4   1 <1>  -0.9590 
 15 C        5.1330     0.2430    -0.6530 C.3   1 <1>   0.3430 
 16 C        5.6550     0.9920     1.5310 C.3   1 <1>   0.3430 
 17 C        6.5430     0.8110    -0.7310 C.3   1 <1>  -0.1600 
 18 C        6.8760     1.3060     0.6790 C.3   1 <1>  -0.1600 
 19 H        1.0860    -1.4220     0.9180 H     1 <1>   0.0800 
 20 H        0.6230     0.1150     1.6420 H     1 <1>   0.0800 
 21 H        1.9620     1.3190    -0.0460 H     1 <1>   0.0800 
 22 H        2.4080    -0.2110    -0.7870 H     1 <1>   0.0800 
 23 H        0.1200    -2.3980    -1.3970 H     1 <1>   0.0800 
 24 H       -1.1110    -3.5980    -1.5620 H     1 <1>   0.0800 
 25 H       -0.0690    -3.6160    -0.1570 H     1 <1>   0.0800 
 26 H       -4.1410     0.1580     1.7150 H     1 <1>   0.1500 
 27 H       -1.4650     1.9810     0.1580 H     1 <1>   0.0800 
 28 H       -1.2850     1.6750     1.8730 H     1 <1>   0.0800 
 29 H       -2.8470     2.0880     1.2100 H     1 <1>   0.0800 
 30 H        3.5940    -0.8710     1.2730 H     1 <1>   0.0800 
 31 H        3.0810     0.6080     2.0500 H     1 <1>   0.0800 
 32 H       -4.6420    -2.1880     1.3430 H     1 <1>   0.1500 
 33 H       -2.3770    -4.7230     0.4620 H     1 <1>   0.0800 
 34 H       -3.3680    -4.2590    -0.9060 H     1 <1>   0.0800 
 35 H       -4.0560    -4.3360     0.6940 H     1 <1>   0.0800 
 36 H        4.2680     1.8350     0.2920 H     1 <1>   0.4500 
 37 H        4.5620     0.4650    -1.5410 H     1 <1>   0.0800 
 38 H        5.1820    -0.8250    -0.5160 H     1 <1>   0.0800 
 39 H        5.8000     0.0470     2.0310 H     1 <1>   0.0800 
 40 H        5.4690     1.7620     2.2630 H     1 <1>   0.0800 
 41 H        6.5700     1.6270    -1.4330 H     1 <1>   0.0800 
 42 H        7.2330     0.0540    -1.0630 H     1 <1>   0.0800 
 43 H        7.7490     0.8180     1.0790 H     1 <1>   0.0800 
 44 H        7.0530     2.3680     0.6720 H     1 <1>   0.0800 
@<TRIPOS>BOND
  1   1   2  1   
  2   1   3  1   
  3   2   4  ar  
  4   2   5  ar  
  5   3   6  1   
  6   3  19  1   
  7   3  20  1   
  8   4   7  ar  
  9   4   8  1   
 10   5   9  ar  
 11   5  10  1   
 12   6  11  1   
 13   6  21  1   
 14   6  22  1   
 15   7  12  ar  
 16   7  13  1   
 17   8  23  1   
 18   8  24  1   
 19   8  25  1   
 20   9  12  ar  
 21   9  26  1   
 22  10  27  1   
 23  10  28  1   
 24  10  29  1   
 25  11  14  1   
 26  11  30  1   
 27  11  31  1   
 28  12  32  1   
 29  13  33  1   
 30  13  34  1   
 31  13  35  1   
 32  14  15  1   
 33  14  16  1   
 34  14  36  1   
 35  15  17  1   
 36  15  37  1   
 37  15  38  1   
 38  16  18  1   
 39  16  39  1   
 40  16  40  1   
 41  17  18  1   
 42  17  41  1   
 43  17  42  1   
 44  18  43  1   
 45  18  44  1   
@<TRIPOS>SUBSTRUCTURE
  1 ****   3 GROUP 4 **** **** 0

# MOE 2024.06 (io_trps.svl 2023.06)
