@<TRIPOS>MOLECULE
NONAME
47 49 1 0 0 
SMALL
USER_CHARGES


@<TRIPOS>ATOM
  1 N       -0.2070    -0.2580     0.8110 N.pl3 1 <1>   0.0330 
  2 C       -0.8780    -1.3600     0.3510 C.ar  1 <1>  -0.1520 
  3 C        1.1350    -0.5090     0.7260 C.2   1 <1>  -0.3020 
  4 C        0.0570    -2.3160    -0.0290 C.ar  1 <1>   0.0000 
  5 C       -2.2480    -1.6040     0.2330 C.ar  1 <1>  -0.1500 
  6 C        1.3290    -1.7530     0.2190 C.2   1 <1>  -0.1810 
  7 C       -0.3840    -3.5440    -0.5370 C.ar  1 <1>  -0.1500 
  8 C       -2.6660    -2.8140    -0.2680 C.ar  1 <1>  -0.1500 
  9 C        2.6190    -2.4940    -0.0680 C.3   1 <1>   0.0210 
 10 C       -1.7330    -3.7840    -0.6530 C.ar  1 <1>  -0.1500 
 11 C        3.8290    -1.6340     0.2910 C.3   1 <1>   0.3430 
 12 N        5.1020    -2.3560     0.0080 N.4   1 <1>  -0.9060 
 13 C        6.3080    -1.5830     0.3640 C.3   1 <1>   0.4230 
 14 C        6.5050    -0.4270    -0.6250 C.3   1 <1>  -0.1600 
 15 C        7.5070    -2.5320     0.3360 C.3   1 <1>  -0.1600 
 16 C        7.8100     0.3280    -0.3330 C.3   1 <1>  -0.1600 
 17 C        8.8170    -1.7850     0.6270 C.3   1 <1>  -0.1600 
 18 C        9.0310    -0.6090    -0.3450 C.3   1 <1>  -0.0800 
 19 C       10.3000     0.1960    -0.0090 C.3   1 <1>  -0.1600 
 20 C       11.5950    -0.6120    -0.1630 C.3   1 <1>  -0.2400 
 21 H       -0.6560     0.5970     1.1560 H     1 <1>   0.2700 
 22 H        1.8470     0.2340     1.0390 H     1 <1>   0.1500 
 23 H       -2.9580    -0.8530     0.5310 H     1 <1>   0.1500 
 24 H        0.3320    -4.2870    -0.8320 H     1 <1>   0.1500 
 25 H       -3.7160    -3.0270    -0.3690 H     1 <1>   0.1500 
 26 H        2.6400    -2.7420    -1.1140 H     1 <1>   0.0800 
 27 H        2.6240    -3.4000     0.5110 H     1 <1>   0.0800 
 28 H       -2.0880    -4.7230    -1.0420 H     1 <1>   0.1500 
 29 H        3.7750    -1.3780     1.3370 H     1 <1>   0.0800 
 30 H        3.7840    -0.7220    -0.2810 H     1 <1>   0.0800 
 31 H        5.1580    -2.5990    -0.9880 H     1 <1>   0.4500 
 32 H        5.1200    -3.2370     0.5350 H     1 <1>   0.4500 
 33 H        6.2080    -1.1840     1.3610 H     1 <1>   0.0800 
 34 H        5.6920     0.2730    -0.5530 H     1 <1>   0.0800 
 35 H        6.5470    -0.8040    -1.6320 H     1 <1>   0.0800 
 36 H        7.5900    -2.9950    -0.6330 H     1 <1>   0.0800 
 37 H        7.3840    -3.3040     1.0760 H     1 <1>   0.0800 
 38 H        7.7390     0.8110     0.6280 H     1 <1>   0.0800 
 39 H        7.9450     1.1000    -1.0730 H     1 <1>   0.0800 
 40 H        9.6340    -2.4810     0.5440 H     1 <1>   0.0800 
 41 H        8.8070    -1.4160     1.6390 H     1 <1>   0.0800 
 42 H        9.1430    -1.0030    -1.3430 H     1 <1>   0.0800 
 43 H       10.2400     0.5770     0.9970 H     1 <1>   0.0800 
 44 H       10.3610     1.0440    -0.6700 H     1 <1>   0.0800 
 45 H       11.6540    -1.3980     0.5690 H     1 <1>   0.0800 
 46 H       12.4440     0.0340    -0.0230 H     1 <1>   0.0800 
 47 H       11.6580    -1.0430    -1.1470 H     1 <1>   0.0800 
@<TRIPOS>BOND
  1   1   2  1   
  2   1   3  1   
  3   1  21  1   
  4   2   4  ar  
  5   2   5  ar  
  6   3   6  2   
  7   3  22  1   
  8   4   6  1   
  9   4   7  ar  
 10   5   8  ar  
 11   5  23  1   
 12   6   9  1   
 13   7  10  ar  
 14   7  24  1   
 15   8  10  ar  
 16   8  25  1   
 17   9  11  1   
 18   9  26  1   
 19   9  27  1   
 20  10  28  1   
 21  11  12  1   
 22  11  29  1   
 23  11  30  1   
 24  12  13  1   
 25  12  31  1   
 26  12  32  1   
 27  13  14  1   
 28  13  15  1   
 29  13  33  1   
 30  14  16  1   
 31  14  34  1   
 32  14  35  1   
 33  15  17  1   
 34  15  36  1   
 35  15  37  1   
 36  16  18  1   
 37  16  38  1   
 38  16  39  1   
 39  17  18  1   
 40  17  40  1   
 41  17  41  1   
 42  18  19  1   
 43  18  42  1   
 44  19  20  1   
 45  19  43  1   
 46  19  44  1   
 47  20  45  1   
 48  20  46  1   
 49  20  47  1   
@<TRIPOS>SUBSTRUCTURE
  1 ****  11 GROUP 4 **** **** 0

# MOE 2024.06 (io_trps.svl 2023.06)
