@<TRIPOS>MOLECULE
NONAME
51 55 1 0 0 
SMALL
USER_CHARGES


@<TRIPOS>ATOM
  1 O        0.0510     0.4010     0.8020 O.2   1 <1>  -0.5700 
  2 C        0.0380     1.3980     0.0990 C.2   1 <1>   0.7150 
  3 N        1.2330     1.8190    -0.4530 N.am  1 <1>  -0.6600 
  4 C       -1.2000     2.1070    -0.1500 C.2   1 <1>   0.0550 
  5 C        1.5390     3.2590    -0.7220 C.3   1 <1>   0.1400 
  6 C        2.4420     0.9370    -0.4640 C.3   1 <1>   0.1400 
  7 O       -2.1280     2.2250     0.7960 O.3   1 <1>  -0.2800 
  8 C       -1.6520     2.7420    -1.2690 C.2   1 <1>  -0.1500 
  9 C        2.6400     3.7660     0.2220 C.3   1 <1>   0.1400 
 10 C        3.5230     1.4760     0.4850 C.3   1 <1>   0.1400 
 11 C       -3.1430     2.9070     0.3180 C.2   1 <1>  -0.0100 
 12 C       -2.9110     3.2610    -0.9630 C.2   1 <1>  -0.1500 
 13 N        3.8570     2.8940     0.1360 N.am  1 <1>  -0.6600 
 14 C        5.0380     3.3980    -0.3800 C.2   1 <1>   0.5690 
 15 O        5.0240     4.5000    -0.8840 O.2   1 <1>  -0.5700 
 16 C        6.4020     2.6430    -0.3630 C.3   1 <1>   0.0610 
 17 C        7.5590     3.5950    -0.7950 C.3   1 <1>  -0.1600 
 18 C        6.4140     1.4630    -1.3740 C.3   1 <1>  -0.1600 
 19 C        6.7730     2.1390     1.0610 C.3   1 <1>  -0.1600 
 20 C        8.9270     2.8860    -0.7980 C.3   1 <1>  -0.0800 
 21 C        7.7650     0.7250    -1.3540 C.3   1 <1>  -0.0800 
 22 C        8.1200     1.3940     1.0580 C.3   1 <1>  -0.0800 
 23 C        8.8770     1.7000    -1.7760 C.3   1 <1>  -0.1600 
 24 C        9.2280     2.3640     0.6160 C.3   1 <1>  -0.1600 
 25 C        8.0490     0.2130     0.0710 C.3   1 <1>  -0.1600 
 26 H        0.6650     3.8700    -0.5840 H     1 <1>   0.0800 
 27 H        1.8680     3.3710    -1.7410 H     1 <1>   0.0800 
 28 H        2.8370     0.8950    -1.4640 H     1 <1>   0.0800 
 29 H        2.1830    -0.0670    -0.1760 H     1 <1>   0.0800 
 30 H       -1.1560     2.8310    -2.2190 H     1 <1>   0.1500 
 31 H        2.2720     3.7570     1.2330 H     1 <1>   0.0800 
 32 H        2.8730     4.7870    -0.0230 H     1 <1>   0.0800 
 33 H        4.3740     0.8330     0.4320 H     1 <1>   0.0800 
 34 H        3.1520     1.4370     1.4950 H     1 <1>   0.0800 
 35 H       -3.9910     3.0950     0.9540 H     1 <1>   0.1500 
 36 H       -3.5440     3.8200    -1.6300 H     1 <1>   0.1500 
 37 H        7.5980     4.4410    -0.1300 H     1 <1>   0.0800 
 38 H        7.3660     3.9790    -1.7830 H     1 <1>   0.0800 
 39 H        6.2300     1.8450    -2.3640 H     1 <1>   0.0800 
 40 H        5.6390     0.7550    -1.1680 H     1 <1>   0.0800 
 41 H        6.0300     1.4810     1.4590 H     1 <1>   0.0800 
 42 H        6.8300     2.9810     1.7290 H     1 <1>   0.0800 
 43 H        9.6950     3.5770    -1.1020 H     1 <1>   0.0800 
 44 H        7.7360    -0.1050    -2.0400 H     1 <1>   0.0800 
 45 H        8.3350     1.0290     2.0480 H     1 <1>   0.0800 
 46 H        9.8260     1.1930    -1.7830 H     1 <1>   0.0800 
 47 H        8.6910     2.0580    -2.7730 H     1 <1>   0.0800 
 48 H        9.2890     3.1890     1.3040 H     1 <1>   0.0800 
 49 H       10.1800     1.8610     0.6250 H     1 <1>   0.0800 
 50 H        8.9820    -0.3230     0.0830 H     1 <1>   0.0800 
 51 H        7.2760    -0.4710     0.3750 H     1 <1>   0.0800 
@<TRIPOS>BOND
  1   1   2  2   
  2   2   3  am  
  3   2   4  1   
  4   3   5  1   
  5   3   6  1   
  6   4   7  1   
  7   4   8  2   
  8   5   9  1   
  9   5  26  1   
 10   5  27  1   
 11   6  10  1   
 12   6  28  1   
 13   6  29  1   
 14   7  11  1   
 15   8  12  1   
 16   8  30  1   
 17   9  13  1   
 18   9  31  1   
 19   9  32  1   
 20  10  13  1   
 21  10  33  1   
 22  10  34  1   
 23  11  12  2   
 24  11  35  1   
 25  12  36  1   
 26  13  14  am  
 27  14  15  2   
 28  14  16  1   
 29  16  17  1   
 30  16  18  1   
 31  16  19  1   
 32  17  20  1   
 33  17  37  1   
 34  17  38  1   
 35  18  21  1   
 36  18  39  1   
 37  18  40  1   
 38  19  22  1   
 39  19  41  1   
 40  19  42  1   
 41  20  23  1   
 42  20  24  1   
 43  20  43  1   
 44  21  23  1   
 45  21  25  1   
 46  21  44  1   
 47  22  24  1   
 48  22  25  1   
 49  22  45  1   
 50  23  46  1   
 51  23  47  1   
 52  24  48  1   
 53  24  49  1   
 54  25  50  1   
 55  25  51  1   
@<TRIPOS>SUBSTRUCTURE
  1 ****  13 GROUP 4 **** **** 0

# MOE 2024.06 (io_trps.svl 2023.06)
