@<TRIPOS>MOLECULE
NONAME
40 41 1 0 0 
SMALL
USER_CHARGES


@<TRIPOS>ATOM
  1 BR       1.5560    -0.3420    -1.0750 Br    1 <1>  -0.1110 
  2 C        0.5760    -1.9320    -0.6110 C.ar  1 <1>   0.1110 
  3 C       -0.7230    -2.0640    -1.0620 C.ar  1 <1>  -0.1500 
  4 C        1.1940    -2.8960     0.1600 C.ar  1 <1>  -0.1500 
  5 C       -1.4340    -3.2070    -0.7260 C.ar  1 <1>  -0.1440 
  6 C        0.4830    -4.0360     0.4930 C.ar  1 <1>  -0.1500 
  7 C       -0.8320    -4.1960     0.0520 C.ar  1 <1>   0.0830 
  8 C       -2.8620    -3.3790    -1.2100 C.3   1 <1>   0.4870 
  9 O       -1.5800    -5.2930     0.3570 O.3   1 <1>  -0.3630 
 10 N       -3.7530    -3.4900    -0.0260 N.4   1 <1>  -0.9590 
 11 C       -0.9840    -6.4480     0.9160 C.3   1 <1>   0.0400 
 12 C       -5.1030    -3.9880    -0.4290 C.3   1 <1>   0.3430 
 13 C       -3.8030    -2.2080     0.7450 C.3   1 <1>   0.2630 
 14 C       -5.9320    -4.4590     0.7680 C.3   1 <1>  -0.0170 
 15 C       -7.2800    -4.9390     0.2720 C.ar  1 <1>   0.1670 
 16 N       -7.8920    -4.1340    -0.5830 N.ar  1 <1>  -0.6200 
 17 C       -7.7980    -6.1480     0.7120 C.ar  1 <1>  -0.1500 
 18 C       -9.0740    -4.5490    -1.0140 C.ar  1 <1>   0.1600 
 19 C       -9.0270    -6.5680     0.2510 C.ar  1 <1>  -0.1500 
 20 C       -9.6760    -5.7370    -0.6360 C.ar  1 <1>  -0.1500 
 21 H       -1.1490    -1.2800    -1.6650 H     1 <1>   0.1500 
 22 H        2.2090    -2.7550     0.4900 H     1 <1>   0.1500 
 23 H        0.9720    -4.7800     1.0950 H     1 <1>   0.1500 
 24 H       -2.9200    -4.2800    -1.8000 H     1 <1>   0.0800 
 25 H       -3.1550    -2.5450    -1.8250 H     1 <1>   0.0800 
 26 H       -3.2800    -4.2100     0.5510 H     1 <1>   0.4500 
 27 H       -1.7280    -7.2210     0.9730 H     1 <1>   0.0800 
 28 H       -0.6240    -6.2180     1.9040 H     1 <1>   0.0800 
 29 H       -0.1760    -6.7690     0.2810 H     1 <1>   0.0800 
 30 H       -4.9980    -4.8170    -1.1100 H     1 <1>   0.0800 
 31 H       -5.6420    -3.2080    -0.9440 H     1 <1>   0.0800 
 32 H       -4.2630    -1.4330     0.1540 H     1 <1>   0.0800 
 33 H       -2.8060    -1.8940     1.0120 H     1 <1>   0.0800 
 34 H       -4.3720    -2.3350     1.6510 H     1 <1>   0.0800 
 35 H       -6.1050    -3.6470     1.4500 H     1 <1>   0.0800 
 36 H       -5.4230    -5.2540     1.2810 H     1 <1>   0.0800 
 37 H       -7.2580    -6.7610     1.4100 H     1 <1>   0.1500 
 38 H       -9.5950    -3.9090    -1.7060 H     1 <1>   0.1500 
 39 H       -9.4630    -7.5000     0.5700 H     1 <1>   0.1500 
 40 H      -10.6390    -6.0050    -1.0320 H     1 <1>   0.1500 
@<TRIPOS>BOND
  1   1   2  1   
  2   2   3  ar  
  3   2   4  ar  
  4   3   5  ar  
  5   3  21  1   
  6   4   6  ar  
  7   4  22  1   
  8   5   7  ar  
  9   5   8  1   
 10   6   7  ar  
 11   6  23  1   
 12   7   9  1   
 13   8  10  1   
 14   8  24  1   
 15   8  25  1   
 16   9  11  1   
 17  10  12  1   
 18  10  13  1   
 19  10  26  1   
 20  11  27  1   
 21  11  28  1   
 22  11  29  1   
 23  12  14  1   
 24  12  30  1   
 25  12  31  1   
 26  13  32  1   
 27  13  33  1   
 28  13  34  1   
 29  14  15  1   
 30  14  35  1   
 31  14  36  1   
 32  15  16  ar  
 33  15  17  ar  
 34  16  18  ar  
 35  17  19  ar  
 36  17  37  1   
 37  18  20  ar  
 38  18  38  1   
 39  19  20  ar  
 40  19  39  1   
 41  20  40  1   
@<TRIPOS>SUBSTRUCTURE
  1 ****  10 GROUP 4 **** **** 0

# MOE 2024.06 (io_trps.svl 2023.06)
