@<TRIPOS>MOLECULE
NONAME
34 35 1 0 0 
SMALL
USER_CHARGES


@<TRIPOS>ATOM
  1 BR       0.4710     0.1910    -2.0470 Br    1 <1>  -0.0580 
  2 C        1.9680     0.2350    -0.8420 C.2   1 <1>   0.1980 
  3 O        3.0890    -0.3130    -1.2330 O.3   1 <1>  -0.2800 
  4 C        2.0410     0.7670     0.3930 C.2   1 <1>  -0.1500 
  5 C        3.9690    -0.1580    -0.2410 C.2   1 <1>   0.0550 
  6 C        3.3560     0.5070     0.7870 C.2   1 <1>  -0.1500 
  7 C        5.3200    -0.6650    -0.3600 C.2   1 <1>   0.7150 
  8 O        5.5360    -1.7170    -0.9360 O.2   1 <1>  -0.5700 
  9 N        6.3960     0.0150     0.1790 N.am  1 <1>  -0.6600 
 10 C        7.7300    -0.6450     0.3490 C.3   1 <1>   0.1400 
 11 C        6.4470     1.5070     0.2810 C.3   1 <1>   0.1400 
 12 C        8.7580    -0.0680    -0.6350 C.3   1 <1>   0.1400 
 13 C        7.4870     2.0910    -0.6900 C.3   1 <1>   0.1400 
 14 N        8.8090     1.4200    -0.5200 N.am  1 <1>  -0.6600 
 15 C        9.9410     2.1200    -0.2010 C.2   1 <1>   0.7800 
 16 O        9.9430     3.3270    -0.0510 O.2   1 <1>  -0.5700 
 17 O       11.0740     1.4330    -0.0450 O.3   1 <1>  -0.4300 
 18 C       12.2780     2.0900     0.2790 C.3   1 <1>   0.1200 
 19 C       13.3760     1.0370     0.3890 C.3   1 <1>  -0.2400 
 20 H        1.2780     1.2720     0.9570 H     1 <1>   0.1500 
 21 H        3.7840     0.7800     1.7360 H     1 <1>   0.1500 
 22 H        7.6510    -1.7080     0.1990 H     1 <1>   0.0800 
 23 H        8.0770    -0.4840     1.3550 H     1 <1>   0.0800 
 24 H        6.7100     1.7840     1.2880 H     1 <1>   0.0800 
 25 H        5.4900     1.9410     0.0560 H     1 <1>   0.0800 
 26 H        8.4760    -0.3370    -1.6390 H     1 <1>   0.0800 
 27 H        9.7220    -0.5030    -0.4370 H     1 <1>   0.0800 
 28 H        7.5760     3.1510    -0.5200 H     1 <1>   0.0800 
 29 H        7.1500     1.9480    -1.7020 H     1 <1>   0.0800 
 30 H       12.1440     2.6080     1.2140 H     1 <1>   0.0800 
 31 H       12.4990     2.8000    -0.5000 H     1 <1>   0.0800 
 32 H       13.1360     0.3300     1.1620 H     1 <1>   0.0800 
 33 H       14.3090     1.5110     0.6350 H     1 <1>   0.0800 
 34 H       13.4910     0.5220    -0.5480 H     1 <1>   0.0800 
@<TRIPOS>BOND
  1   1   2  1   
  2   2   3  1   
  3   2   4  2   
  4   3   5  1   
  5   4   6  1   
  6   4  20  1   
  7   5   6  2   
  8   5   7  1   
  9   6  21  1   
 10   7   8  2   
 11   7   9  am  
 12   9  10  1   
 13   9  11  1   
 14  10  12  1   
 15  10  22  1   
 16  10  23  1   
 17  11  13  1   
 18  11  24  1   
 19  11  25  1   
 20  12  14  1   
 21  12  26  1   
 22  12  27  1   
 23  13  14  1   
 24  13  28  1   
 25  13  29  1   
 26  14  15  am  
 27  15  16  2   
 28  15  17  1   
 29  17  18  1   
 30  18  19  1   
 31  18  30  1   
 32  18  31  1   
 33  19  32  1   
 34  19  33  1   
 35  19  34  1   
@<TRIPOS>SUBSTRUCTURE
  1 ****   9 GROUP 4 **** **** 0

# MOE 2024.06 (io_trps.svl 2023.06)
