@<TRIPOS>MOLECULE
NONAME
53 55 1 0 0 
SMALL
USER_CHARGES


@<TRIPOS>ATOM
  1 O        0.3420    -1.0350     2.5860 O.2   1 <1>  -0.5700 
  2 C        0.7330    -1.1920     1.4540 C.2   1 <1>   0.5690 
  3 N       -0.0360    -1.0480     0.3340 N.am  1 <1>  -0.5470 
  4 C        2.1940    -1.5820     1.2200 C.3   1 <1>   0.1710 
  5 C       -1.3790    -0.7100     0.1140 C.ar  1 <1>   0.1170 
  6 N        2.7000    -1.2250    -0.1400 N.3   1 <1>  -0.8100 
  7 C       -1.8160    -0.5640    -1.1970 C.ar  1 <1>  -0.1500 
  8 C       -2.2970    -0.5140     1.1410 C.ar  1 <1>  -0.1500 
  9 C        3.9530    -1.9510    -0.4410 C.3   1 <1>   0.1100 
 10 C        2.9480     0.2360    -0.2420 C.3   1 <1>   0.1100 
 11 C       -3.1280    -0.2320    -1.4850 C.ar  1 <1>  -0.1430 
 12 C       -3.6130    -0.1790     0.8690 C.ar  1 <1>  -0.1430 
 13 C        4.5090    -1.6160    -1.8400 C.3   1 <1>   0.2090 
 14 C        3.4690     0.6530    -1.6320 C.3   1 <1>   0.2090 
 15 C       -4.0230    -0.0390    -0.4460 C.ar  1 <1>  -0.1500 
 16 C       -3.5910    -0.0760    -2.9220 C.3   1 <1>  -0.0970 
 17 C       -4.6040     0.0330     1.9990 C.3   1 <1>  -0.0970 
 18 N        4.6550    -0.1470    -2.0590 N.pl3 1 <1>  -0.8380 
 19 C        5.9160     0.4150    -1.8890 C.ar  1 <1>   0.1000 
 20 C        6.4930     0.5600    -0.6340 C.ar  1 <1>  -0.1500 
 21 C        6.6250     0.8450    -3.0010 C.ar  1 <1>  -0.1500 
 22 C        7.7490     1.1210    -0.4850 C.ar  1 <1>   0.0820 
 23 C        7.8810     1.4080    -2.8670 C.ar  1 <1>  -0.1500 
 24 O        8.2280     1.2190     0.7830 O.3   1 <1>  -0.3630 
 25 C        8.4480     1.5480    -1.6120 C.ar  1 <1>  -0.1500 
 26 C        9.4990     1.7750     1.0400 C.3   1 <1>   0.0400 
 27 H        0.5350    -1.1760    -0.5070 H     1 <1>   0.3700 
 28 H        2.2550    -2.6480     1.3530 H     1 <1>   0.0800 
 29 H        2.8040    -1.1200     1.9760 H     1 <1>   0.0800 
 30 H       -1.1180    -0.7130    -2.0000 H     1 <1>   0.1500 
 31 H       -1.9850    -0.6260     2.1610 H     1 <1>   0.1500 
 32 H        3.7710    -3.0110    -0.3940 H     1 <1>   0.0800 
 33 H        4.7010    -1.7130     0.2950 H     1 <1>   0.0800 
 34 H        3.6680     0.5380     0.4980 H     1 <1>   0.0800 
 35 H        2.0370     0.7750    -0.0470 H     1 <1>   0.0800 
 36 H        3.8440    -2.0130    -2.5860 H     1 <1>   0.0800 
 37 H        5.4660    -2.0920    -1.9670 H     1 <1>   0.0800 
 38 H        3.7310     1.6970    -1.6150 H     1 <1>   0.0800 
 39 H        2.6850     0.5230    -2.3560 H     1 <1>   0.0800 
 40 H       -5.0450     0.2210    -0.6600 H     1 <1>   0.1500 
 41 H       -2.9320    -0.5970    -3.5930 H     1 <1>   0.0800 
 42 H       -3.6050     0.9660    -3.1880 H     1 <1>   0.0800 
 43 H       -4.5810    -0.4780    -3.0400 H     1 <1>   0.0800 
 44 H       -4.0940     0.1370     2.9400 H     1 <1>   0.0800 
 45 H       -5.2700    -0.8080     2.0590 H     1 <1>   0.0800 
 46 H       -5.1790     0.9240     1.8230 H     1 <1>   0.0800 
 47 H        5.9630     0.2360     0.2380 H     1 <1>   0.1500 
 48 H        6.1770     0.7310    -3.9710 H     1 <1>   0.1500 
 49 H        8.4170     1.7360    -3.7410 H     1 <1>   0.1500 
 50 H        9.4230     1.9870    -1.5330 H     1 <1>   0.1500 
 51 H        9.6650     1.7490     2.1020 H     1 <1>   0.0800 
 52 H        9.5110     2.7920     0.6920 H     1 <1>   0.0800 
 53 H       10.2450     1.1850     0.5390 H     1 <1>   0.0800 
@<TRIPOS>BOND
  1   1   2  2   
  2   2   3  am  
  3   2   4  1   
  4   3   5  1   
  5   3  27  1   
  6   4   6  1   
  7   4  28  1   
  8   4  29  1   
  9   5   7  ar  
 10   5   8  ar  
 11   6   9  1   
 12   6  10  1   
 13   7  11  ar  
 14   7  30  1   
 15   8  12  ar  
 16   8  31  1   
 17   9  13  1   
 18   9  32  1   
 19   9  33  1   
 20  10  14  1   
 21  10  34  1   
 22  10  35  1   
 23  11  15  ar  
 24  11  16  1   
 25  12  15  ar  
 26  12  17  1   
 27  13  18  1   
 28  13  36  1   
 29  13  37  1   
 30  14  18  1   
 31  14  38  1   
 32  14  39  1   
 33  15  40  1   
 34  16  41  1   
 35  16  42  1   
 36  16  43  1   
 37  17  44  1   
 38  17  45  1   
 39  17  46  1   
 40  18  19  1   
 41  19  20  ar  
 42  19  21  ar  
 43  20  22  ar  
 44  20  47  1   
 45  21  23  ar  
 46  21  48  1   
 47  22  24  1   
 48  22  25  ar  
 49  23  25  ar  
 50  23  49  1   
 51  24  26  1   
 52  25  50  1   
 53  26  51  1   
 54  26  52  1   
 55  26  53  1   
@<TRIPOS>SUBSTRUCTURE
  1 ****  10 GROUP 4 **** **** 0

# MOE 2024.06 (io_trps.svl 2023.06)
