@<TRIPOS>MOLECULE
NONAME
56 58 1 0 0 
SMALL
USER_CHARGES


@<TRIPOS>ATOM
  1 N        0.1980     0.1000     0.3640 N.4   1 <1>  -0.9590 
  2 C        1.3300     1.0650     0.5150 C.3   1 <1>   0.4230 
  3 C        0.2840    -0.8320    -0.8100 C.3   1 <1>   0.3430 
  4 C       -1.1310     0.7910     0.3940 C.3   1 <1>   0.3430 
  5 C        1.5510     1.9200    -0.7400 C.3   1 <1>  -0.1600 
  6 C        2.6180     0.3260     0.8840 C.3   1 <1>  -0.1600 
  7 C       -0.8030    -1.9020    -0.7010 C.3   1 <1>  -0.1600 
  8 C       -2.2500    -0.2440     0.5270 C.3   1 <1>  -0.1600 
  9 C        2.7060     2.9000    -0.5230 C.3   1 <1>   0.3430 
 10 C        3.7640     1.3160     1.0920 C.3   1 <1>   0.3430 
 11 C       -2.2020    -1.2820    -0.6000 C.3   1 <1>  -0.1600 
 12 N        3.9450     2.1620    -0.1320 N.4   1 <1>  -0.9590 
 13 C        5.1140     3.0940    -0.0440 C.3   1 <1>   0.4230 
 14 C        6.4090     2.2730    -0.0870 C.3   1 <1>  -0.1600 
 15 C        5.0310     3.9880     1.2000 C.3   1 <1>  -0.2400 
 16 C        7.6630     3.1300    -0.3180 C.3   1 <1>  -0.0170 
 17 C        8.8680     2.2190    -0.4650 C.ar  1 <1>  -0.1430 
 18 C        9.5650     1.7980     0.6580 C.ar  1 <1>  -0.1500 
 19 C        9.2770     1.7920    -1.7190 C.ar  1 <1>  -0.1500 
 20 C       10.6550     0.9560     0.5280 C.ar  1 <1>  -0.1500 
 21 C       10.3670     0.9500    -1.8490 C.ar  1 <1>  -0.1500 
 22 C       11.0560     0.5300    -0.7250 C.ar  1 <1>  -0.1500 
 23 H        0.1930    -0.5100     1.1940 H     1 <1>   0.4500 
 24 H        1.0920     1.7300     1.3320 H     1 <1>   0.0800 
 25 H        1.2470    -1.3140    -0.8400 H     1 <1>   0.0800 
 26 H        0.1490    -0.2820    -1.7270 H     1 <1>   0.0800 
 27 H       -1.2750     1.3540    -0.5150 H     1 <1>   0.0800 
 28 H       -1.1810     1.4720     1.2280 H     1 <1>   0.0800 
 29 H        0.6670     2.4920    -0.9580 H     1 <1>   0.0800 
 30 H        1.7780     1.3100    -1.5950 H     1 <1>   0.0800 
 31 H        2.9030    -0.3740     0.1200 H     1 <1>   0.0800 
 32 H        2.4740    -0.2170     1.8020 H     1 <1>   0.0800 
 33 H       -0.6130    -2.5240     0.1570 H     1 <1>   0.0800 
 34 H       -0.7610    -2.5370    -1.5700 H     1 <1>   0.0800 
 35 H       -3.2010     0.2610     0.5010 H     1 <1>   0.0800 
 36 H       -2.1760    -0.7340     1.4830 H     1 <1>   0.0800 
 37 H        2.4420     3.6040     0.2500 H     1 <1>   0.0800 
 38 H        2.8820     3.4550    -1.4320 H     1 <1>   0.0800 
 39 H        4.6720     0.7730     1.3030 H     1 <1>   0.0800 
 40 H        3.5500     1.9460     1.9410 H     1 <1>   0.0800 
 41 H       -2.9320    -2.0540    -0.4180 H     1 <1>   0.0800 
 42 H       -2.4550    -0.8100    -1.5350 H     1 <1>   0.0800 
 43 H        4.1860     1.5290    -0.9080 H     1 <1>   0.4500 
 44 H        5.1050     3.7310    -0.9160 H     1 <1>   0.0800 
 45 H        6.3540     1.5640    -0.8940 H     1 <1>   0.0800 
 46 H        6.5430     1.7280     0.8310 H     1 <1>   0.0800 
 47 H        5.1910     3.4290     2.1040 H     1 <1>   0.0800 
 48 H        4.0910     4.5040     1.2560 H     1 <1>   0.0800 
 49 H        5.7960     4.7420     1.1510 H     1 <1>   0.0800 
 50 H        7.8310     3.8000     0.5070 H     1 <1>   0.0800 
 51 H        7.5550     3.7250    -1.2100 H     1 <1>   0.0800 
 52 H        9.2690     2.1230     1.6400 H     1 <1>   0.1500 
 53 H        8.7560     2.1110    -2.6040 H     1 <1>   0.1500 
 54 H       11.1930     0.6320     1.4020 H     1 <1>   0.1500 
 55 H       10.6820     0.6210    -2.8240 H     1 <1>   0.1500 
 56 H       11.9040    -0.1250    -0.8260 H     1 <1>   0.1500 
@<TRIPOS>BOND
  1   1   2  1   
  2   1   3  1   
  3   1   4  1   
  4   1  23  1   
  5   2   5  1   
  6   2   6  1   
  7   2  24  1   
  8   3   7  1   
  9   3  25  1   
 10   3  26  1   
 11   4   8  1   
 12   4  27  1   
 13   4  28  1   
 14   5   9  1   
 15   5  29  1   
 16   5  30  1   
 17   6  10  1   
 18   6  31  1   
 19   6  32  1   
 20   7  11  1   
 21   7  33  1   
 22   7  34  1   
 23   8  11  1   
 24   8  35  1   
 25   8  36  1   
 26   9  12  1   
 27   9  37  1   
 28   9  38  1   
 29  10  12  1   
 30  10  39  1   
 31  10  40  1   
 32  11  41  1   
 33  11  42  1   
 34  12  13  1   
 35  12  43  1   
 36  13  14  1   
 37  13  15  1   
 38  13  44  1   
 39  14  16  1   
 40  14  45  1   
 41  14  46  1   
 42  15  47  1   
 43  15  48  1   
 44  15  49  1   
 45  16  17  1   
 46  16  50  1   
 47  16  51  1   
 48  17  18  ar  
 49  17  19  ar  
 50  18  20  ar  
 51  18  52  1   
 52  19  21  ar  
 53  19  53  1   
 54  20  22  ar  
 55  20  54  1   
 56  21  22  ar  
 57  21  55  1   
 58  22  56  1   
@<TRIPOS>SUBSTRUCTURE
  1 ****  12 GROUP 4 **** **** 0

# MOE 2024.06 (io_trps.svl 2023.06)
