@<TRIPOS>MOLECULE
NONAME
24 25 1 0 0 
SMALL
USER_CHARGES


@<TRIPOS>ATOM
  1 S       -0.4490    -0.1040    -0.2730 S.3   1 <1>  -0.0800 
  2 C       -1.6310     1.0530     0.3180 C.2   1 <1>  -0.1400 
  3 C        0.0590     0.9940    -1.5430 C.2   1 <1>  -0.1100 
  4 C       -1.5980     2.1780    -0.4230 C.2   1 <1>  -0.1500 
  5 C       -2.4660     0.6260     1.5190 C.3   1 <1>   0.0810 
  6 C       -0.6390     2.1430    -1.4840 C.2   1 <1>  -0.1500 
  7 C       -3.8390     1.2730     1.5480 C.2   1 <1>   0.5690 
  8 O       -4.2470     1.7010     2.5970 O.2   1 <1>  -0.5700 
  9 N       -4.5390     1.3200     0.3790 N.am  1 <1>  -0.4900 
 10 C       -5.7900     1.8040     0.1140 C.2   1 <1>   0.6510 
 11 S       -6.2120     1.7460    -1.5910 S.3   1 <1>  -0.3710 
 12 N       -6.6870     2.2760     0.8630 N.2   1 <1>  -0.6960 
 13 C       -7.8650     2.4690    -1.3230 C.3   1 <1>   0.0700 
 14 C       -7.9290     2.7020     0.1960 C.3   1 <1>   0.0860 
 15 H        0.8360     0.6590    -2.2070 H     1 <1>   0.1500 
 16 H       -2.2090     3.0530    -0.2720 H     1 <1>   0.1500 
 17 H       -1.9360     0.8720     2.4220 H     1 <1>   0.0800 
 18 H       -2.6060    -0.4390     1.5000 H     1 <1>   0.0800 
 19 H       -0.5180     2.9810    -2.1480 H     1 <1>   0.1500 
 20 H       -4.0520     0.9920    -0.4510 H     1 <1>   0.3700 
 21 H       -8.6020     1.7610    -1.6590 H     1 <1>   0.0800 
 22 H       -7.9270     3.3860    -1.8800 H     1 <1>   0.0800 
 23 H       -8.0900     3.7470     0.3970 H     1 <1>   0.0800 
 24 H       -8.7540     2.1500     0.6140 H     1 <1>   0.0800 
@<TRIPOS>BOND
  1   1   2  1   
  2   1   3  1   
  3   2   4  2   
  4   2   5  1   
  5   3   6  2   
  6   3  15  1   
  7   4   6  1   
  8   4  16  1   
  9   5   7  1   
 10   5  17  1   
 11   5  18  1   
 12   6  19  1   
 13   7   8  2   
 14   7   9  am  
 15   9  10  1   
 16   9  20  1   
 17  10  11  1   
 18  10  12  2   
 19  11  13  1   
 20  12  14  1   
 21  13  14  1   
 22  13  21  1   
 23  13  22  1   
 24  14  23  1   
 25  14  24  1   
@<TRIPOS>SUBSTRUCTURE
  1 ****   9 GROUP 4 **** **** 0

# MOE 2024.06 (io_trps.svl 2023.06)
