@<TRIPOS>MOLECULE
NONAME
61 64 1 0 0 
SMALL
USER_CHARGES


@<TRIPOS>ATOM
  1 O       -0.2420    -1.5220    -0.5610 O.3   1 <1>  -0.3630 
  2 C       -1.5000    -1.9100    -0.8840 C.ar  1 <1>   0.0830 
  3 C       -0.0200    -0.9670     0.7210 C.3   1 <1>   0.2640 
  4 C       -2.2820    -2.7580    -0.0930 C.ar  1 <1>   0.0830 
  5 C       -2.0180    -1.4230    -2.0720 C.ar  1 <1>  -0.1500 
  6 C        1.2240    -0.0920     0.6800 C.ar  1 <1>  -0.1440 
  7 O       -1.8300    -3.3150     1.0530 O.3   1 <1>  -0.3630 
  8 C       -3.5770    -3.0600    -0.4770 C.ar  1 <1>  -0.1500 
  9 C       -3.3100    -1.7380    -2.4590 C.ar  1 <1>  -0.1500 
 10 C        1.1790     1.2150     1.1420 C.ar  1 <1>  -0.1500 
 11 C        2.4190    -0.5950     0.1870 C.ar  1 <1>  -0.1500 
 12 C       -0.8760    -4.3460     0.9040 C.3   1 <1>   0.0400 
 13 C       -4.1020    -2.5490    -1.6570 C.ar  1 <1>  -0.1430 
 14 C        2.3130     2.0080     1.1130 C.ar  1 <1>  -0.1500 
 15 C        3.5550     0.1970     0.1570 C.ar  1 <1>  -0.1500 
 16 C       -5.5280    -2.8700    -2.0600 C.3   1 <1>   0.4860 
 17 C        3.5020     1.4990     0.6210 C.ar  1 <1>  -0.1500 
 18 N       -6.4510    -2.1590    -1.1380 N.4   1 <1>  -0.9590 
 19 C       -7.8670    -2.5650    -1.3400 C.3   1 <1>   0.4860 
 20 C       -6.3170    -0.6730    -1.2130 C.3   1 <1>   0.3430 
 21 C       -8.7610    -1.8550    -0.3370 C.ar  1 <1>  -0.1430 
 22 C       -7.0270    -0.0250    -0.0220 C.3   1 <1>  -0.0170 
 23 C       -8.3800    -0.6600     0.2670 C.ar  1 <1>  -0.1430 
 24 C       -9.9910    -2.4160    -0.0250 C.ar  1 <1>  -0.1500 
 25 C       -9.2380    -0.0370     1.1600 C.ar  1 <1>  -0.1500 
 26 C      -10.8420    -1.8040     0.8780 C.ar  1 <1>   0.0830 
 27 C      -10.4720    -0.5860     1.4570 C.ar  1 <1>   0.0830 
 28 O      -12.0080    -2.4410     1.1500 O.3   1 <1>  -0.3630 
 29 O      -11.2700     0.1030     2.3060 O.3   1 <1>  -0.3620 
 30 C      -12.2430    -2.8140     2.4920 C.3   1 <1>   0.0400 
 31 C      -12.4500     0.6470     1.7550 C.3   1 <1>   0.0400 
 32 H        0.1180    -1.7660     1.4250 H     1 <1>   0.0800 
 33 H       -0.8840    -0.3890     0.9970 H     1 <1>   0.0800 
 34 H       -1.4000    -0.7920    -2.6870 H     1 <1>   0.1500 
 35 H       -4.1530    -3.7070     0.1610 H     1 <1>   0.1500 
 36 H       -3.6790    -1.3410    -3.3900 H     1 <1>   0.1500 
 37 H        0.2620     1.6250     1.5270 H     1 <1>   0.1500 
 38 H        2.4660    -1.6060    -0.1800 H     1 <1>   0.1500 
 39 H       -0.5970    -4.6930     1.8820 H     1 <1>   0.0800 
 40 H       -0.0120    -3.9620     0.3900 H     1 <1>   0.0800 
 41 H       -1.3160    -5.1490     0.3390 H     1 <1>   0.0800 
 42 H        2.2710     3.0210     1.4720 H     1 <1>   0.1500 
 43 H        4.4770    -0.2020    -0.2290 H     1 <1>   0.1500 
 44 H       -5.6820    -3.9350    -1.9960 H     1 <1>   0.0800 
 45 H       -5.7010    -2.5590    -3.0780 H     1 <1>   0.0800 
 46 H        4.3840     2.1150     0.5970 H     1 <1>   0.1500 
 47 H       -6.2000    -2.4270    -0.1780 H     1 <1>   0.4500 
 48 H       -7.9680    -3.6310    -1.2110 H     1 <1>   0.0800 
 49 H       -8.1880    -2.3100    -2.3370 H     1 <1>   0.0800 
 50 H       -6.7580    -0.3150    -2.1290 H     1 <1>   0.0800 
 51 H       -5.2770    -0.3840    -1.2000 H     1 <1>   0.0800 
 52 H       -7.1530     1.0250    -0.2210 H     1 <1>   0.0800 
 53 H       -6.4040    -0.1140     0.8510 H     1 <1>   0.0800 
 54 H      -10.3150    -3.3400    -0.4710 H     1 <1>   0.1500 
 55 H       -8.9640     0.8890     1.6360 H     1 <1>   0.1500 
 56 H      -13.0950    -3.4690     2.5130 H     1 <1>   0.0800 
 57 H      -12.4460    -1.9370     3.0790 H     1 <1>   0.0800 
 58 H      -11.3760    -3.3250     2.8700 H     1 <1>   0.0800 
 59 H      -12.9510     1.2090     2.5210 H     1 <1>   0.0800 
 60 H      -13.0850    -0.1490     1.4100 H     1 <1>   0.0800 
 61 H      -12.1850     1.2930     0.9370 H     1 <1>   0.0800 
@<TRIPOS>BOND
  1   1   2  1   
  2   1   3  1   
  3   2   4  ar  
  4   2   5  ar  
  5   3   6  1   
  6   3  32  1   
  7   3  33  1   
  8   4   7  1   
  9   4   8  ar  
 10   5   9  ar  
 11   5  34  1   
 12   6  10  ar  
 13   6  11  ar  
 14   7  12  1   
 15   8  13  ar  
 16   8  35  1   
 17   9  13  ar  
 18   9  36  1   
 19  10  14  ar  
 20  10  37  1   
 21  11  15  ar  
 22  11  38  1   
 23  12  39  1   
 24  12  40  1   
 25  12  41  1   
 26  13  16  1   
 27  14  17  ar  
 28  14  42  1   
 29  15  17  ar  
 30  15  43  1   
 31  16  18  1   
 32  16  44  1   
 33  16  45  1   
 34  17  46  1   
 35  18  19  1   
 36  18  20  1   
 37  18  47  1   
 38  19  21  1   
 39  19  48  1   
 40  19  49  1   
 41  20  22  1   
 42  20  50  1   
 43  20  51  1   
 44  21  23  ar  
 45  21  24  ar  
 46  22  23  1   
 47  22  52  1   
 48  22  53  1   
 49  23  25  ar  
 50  24  26  ar  
 51  24  54  1   
 52  25  27  ar  
 53  25  55  1   
 54  26  27  ar  
 55  26  28  1   
 56  27  29  1   
 57  28  30  1   
 58  29  31  1   
 59  30  56  1   
 60  30  57  1   
 61  30  58  1   
 62  31  59  1   
 63  31  60  1   
 64  31  61  1   
@<TRIPOS>SUBSTRUCTURE
  1 ****   8 GROUP 4 **** **** 0

# MOE 2024.06 (io_trps.svl 2023.06)
