@<TRIPOS>MOLECULE
NONAME
42 44 1 0 0 
SMALL
USER_CHARGES


@<TRIPOS>ATOM
  1 O       -0.8590    -0.2450    -1.1200 O.3   1 <1>  -0.3630 
  2 C       -1.8980    -0.7740    -0.4280 C.ar  1 <1>   0.0830 
  3 C        0.0360    -1.0330    -1.8750 C.3   1 <1>   0.0400 
  4 C       -2.6680     0.1170     0.3610 C.ar  1 <1>   0.0000 
  5 C       -2.2110    -2.1110    -0.4730 C.ar  1 <1>  -0.1500 
  6 C       -3.7590    -0.3870     1.1120 C.ar  1 <1>   0.0000 
  7 C       -2.3840     1.4990     0.4300 C.ar  1 <1>  -0.1500 
  8 C       -3.3000    -2.6050     0.2440 C.ar  1 <1>  -0.1500 
  9 C       -4.0710    -1.7670     1.0070 C.ar  1 <1>  -0.1440 
 10 C       -4.4810     0.5230     1.9250 C.ar  1 <1>  -0.1500 
 11 C       -3.1140     2.3500     1.2090 C.ar  1 <1>  -0.1500 
 12 C       -5.2770    -2.3510     1.7190 C.3   1 <1>   0.4860 
 13 C       -4.1720     1.8530     1.9710 C.ar  1 <1>  -0.1500 
 14 N       -6.4040    -2.4470     0.7460 N.4   1 <1>  -0.9590 
 15 C       -6.8230    -1.1010     0.2390 C.3   1 <1>   0.3430 
 16 C       -7.5410    -3.2300     1.3110 C.3   1 <1>   0.3430 
 17 C       -7.8950    -1.2580    -0.8350 C.3   1 <1>  -0.1600 
 18 C       -8.6200    -3.4200     0.2480 C.3   1 <1>  -0.1600 
 19 C       -9.0700    -2.0660    -0.2920 C.3   1 <1>   0.2000 
 20 O       -9.9680    -2.2750    -1.3090 O.3   1 <1>  -0.6800 
 21 H        0.7820    -0.3820    -2.2940 H     1 <1>   0.0800 
 22 H       -0.5070    -1.5200    -2.6660 H     1 <1>   0.0800 
 23 H        0.5030    -1.7520    -1.2250 H     1 <1>   0.0800 
 24 H       -1.6360    -2.8080    -1.0560 H     1 <1>   0.1500 
 25 H       -1.5640     1.8860    -0.1490 H     1 <1>   0.1500 
 26 H       -3.5080    -3.6590     0.1690 H     1 <1>   0.1500 
 27 H       -5.2910     0.1840     2.5390 H     1 <1>   0.1500 
 28 H       -2.8800     3.4000     1.2500 H     1 <1>   0.1500 
 29 H       -5.5540    -1.7510     2.5680 H     1 <1>   0.0800 
 30 H       -5.0220    -3.3350     2.0790 H     1 <1>   0.0800 
 31 H       -4.7270     2.5370     2.5910 H     1 <1>   0.1500 
 32 H       -6.0290    -2.9560    -0.0650 H     1 <1>   0.4500 
 33 H       -5.9760    -0.5800    -0.1820 H     1 <1>   0.0800 
 34 H       -7.2120    -0.5080     1.0510 H     1 <1>   0.0800 
 35 H       -7.9610    -2.7070     2.1560 H     1 <1>   0.0800 
 36 H       -7.1980    -4.1960     1.6470 H     1 <1>   0.0800 
 37 H       -7.4660    -1.7390    -1.6960 H     1 <1>   0.0800 
 38 H       -8.2390    -0.2820    -1.1290 H     1 <1>   0.0800 
 39 H       -9.4630    -3.9220     0.6910 H     1 <1>   0.0800 
 40 H       -8.2360    -4.0370    -0.5450 H     1 <1>   0.0800 
 41 H       -9.5830    -1.5090     0.4760 H     1 <1>   0.0800 
 42 H       -9.5650    -2.7440    -2.0650 H     1 <1>   0.4000 
@<TRIPOS>BOND
  1   1   2  1   
  2   1   3  1   
  3   2   4  ar  
  4   2   5  ar  
  5   3  21  1   
  6   3  22  1   
  7   3  23  1   
  8   4   6  ar  
  9   4   7  ar  
 10   5   8  ar  
 11   5  24  1   
 12   6   9  ar  
 13   6  10  ar  
 14   7  11  ar  
 15   7  25  1   
 16   8   9  ar  
 17   8  26  1   
 18   9  12  1   
 19  10  13  ar  
 20  10  27  1   
 21  11  13  ar  
 22  11  28  1   
 23  12  14  1   
 24  12  29  1   
 25  12  30  1   
 26  13  31  1   
 27  14  15  1   
 28  14  16  1   
 29  14  32  1   
 30  15  17  1   
 31  15  33  1   
 32  15  34  1   
 33  16  18  1   
 34  16  35  1   
 35  16  36  1   
 36  17  19  1   
 37  17  37  1   
 38  17  38  1   
 39  18  19  1   
 40  18  39  1   
 41  18  40  1   
 42  19  20  1   
 43  19  41  1   
 44  20  42  1   
@<TRIPOS>SUBSTRUCTURE
  1 ****   9 GROUP 4 **** **** 0

# MOE 2024.06 (io_trps.svl 2023.06)
