@<TRIPOS>MOLECULE
NONAME
37 38 1 0 0 
SMALL
USER_CHARGES


@<TRIPOS>ATOM
  1 CL       0.1270    -0.6830    -1.7990 Cl    1 <1>  -0.1770 
  2 C        1.4980    -1.1710    -0.8240 C.ar  1 <1>   0.1770 
  3 C        1.5120    -2.4200    -0.2130 C.ar  1 <1>   0.0820 
  4 C        2.5510    -0.2860    -0.6860 C.ar  1 <1>  -0.1500 
  5 O        0.4410    -3.2380    -0.3950 O.3   1 <1>  -0.3630 
  6 C        2.6220    -2.7700     0.5530 C.ar  1 <1>  -0.1500 
  7 C        3.6520    -0.6410     0.0780 C.ar  1 <1>  -0.1430 
  8 C        0.4210    -4.5570     0.1000 C.3   1 <1>   0.1200 
  9 C        3.6790    -1.8850     0.6920 C.ar  1 <1>  -0.1500 
 10 C        4.8180     0.3170     0.2390 C.3   1 <1>  -0.0960 
 11 C       -0.9140    -5.1860    -0.3080 C.3   1 <1>   0.1100 
 12 N       -1.0180    -6.5970     0.1280 N.3   1 <1>  -0.8100 
 13 C       -2.4340    -7.0110     0.2050 C.3   1 <1>   0.1100 
 14 C       -0.2340    -7.5060    -0.7380 C.3   1 <1>   0.1100 
 15 C       -2.5700    -8.4640     0.7010 C.3   1 <1>   0.3430 
 16 C       -0.3400    -8.9680    -0.2590 C.3   1 <1>   0.3430 
 17 N       -1.7690    -9.4100    -0.1440 N.4   1 <1>  -0.9060 
 18 H        2.5010     0.6690    -1.1750 H     1 <1>   0.1500 
 19 H        2.6830    -3.7200     1.0490 H     1 <1>   0.1500 
 20 H        0.5040    -4.5200     1.1720 H     1 <1>   0.0800 
 21 H        1.2510    -5.0840    -0.3330 H     1 <1>   0.0800 
 22 H        4.5310    -2.1680     1.2860 H     1 <1>   0.1500 
 23 H        4.4980     1.3330     0.0850 H     1 <1>   0.0800 
 24 H        5.5840     0.0840    -0.4790 H     1 <1>   0.0800 
 25 H        5.2330     0.2400     1.2270 H     1 <1>   0.0800 
 26 H       -1.0350    -5.1170    -1.3770 H     1 <1>   0.0800 
 27 H       -1.6930    -4.6070     0.1590 H     1 <1>   0.0800 
 28 H       -2.9020    -6.9070    -0.7590 H     1 <1>   0.0800 
 29 H       -2.9530    -6.3650     0.8940 H     1 <1>   0.0800 
 30 H        0.8030    -7.2170    -0.7180 H     1 <1>   0.0800 
 31 H       -0.5760    -7.4310    -1.7570 H     1 <1>   0.0800 
 32 H       -3.6100    -8.7490     0.6930 H     1 <1>   0.0800 
 33 H       -2.2220    -8.5060     1.7210 H     1 <1>   0.0800 
 34 H        0.1400    -9.0420     0.7040 H     1 <1>   0.0800 
 35 H        0.1920    -9.6080    -0.9440 H     1 <1>   0.0800 
 36 H       -2.1820    -9.4440    -1.0830 H     1 <1>   0.4500 
 37 H       -1.8140   -10.3580     0.2500 H     1 <1>   0.4500 
@<TRIPOS>BOND
  1   1   2  1   
  2   2   3  ar  
  3   2   4  ar  
  4   3   5  1   
  5   3   6  ar  
  6   4   7  ar  
  7   4  18  1   
  8   5   8  1   
  9   6   9  ar  
 10   6  19  1   
 11   7   9  ar  
 12   7  10  1   
 13   8  11  1   
 14   8  20  1   
 15   8  21  1   
 16   9  22  1   
 17  10  23  1   
 18  10  24  1   
 19  10  25  1   
 20  11  12  1   
 21  11  26  1   
 22  11  27  1   
 23  12  13  1   
 24  12  14  1   
 25  13  15  1   
 26  13  28  1   
 27  13  29  1   
 28  14  16  1   
 29  14  30  1   
 30  14  31  1   
 31  15  17  1   
 32  15  32  1   
 33  15  33  1   
 34  16  17  1   
 35  16  34  1   
 36  16  35  1   
 37  17  36  1   
 38  17  37  1   
@<TRIPOS>SUBSTRUCTURE
  1 ****   8 GROUP 4 **** **** 0

# MOE 2024.06 (io_trps.svl 2023.06)
