@<TRIPOS>MOLECULE
NONAME
46 47 1 0 0 
SMALL
USER_CHARGES


@<TRIPOS>ATOM
  1 BR       2.7930     2.1620    -2.4450 Br    1 <1>  -0.1110 
  2 C        1.6360     2.6860    -0.9920 C.ar  1 <1>   0.1110 
  3 C        1.9730     2.3460     0.3100 C.ar  1 <1>   0.0820 
  4 C        0.4980     3.4070    -1.2980 C.ar  1 <1>  -0.1500 
  5 O        3.1130     1.6450     0.5320 O.3   1 <1>  -0.3630 
  6 C        1.1220     2.7470     1.3330 C.ar  1 <1>  -0.1500 
  7 C       -0.3460     3.8110    -0.2720 C.ar  1 <1>  -0.1430 
  8 C        3.8300     1.8310     1.7440 C.3   1 <1>   0.1810 
  9 C       -0.0220     3.4730     1.0380 C.ar  1 <1>  -0.1500 
 10 C       -1.6060     4.6100    -0.5970 C.3   1 <1>   0.0640 
 11 C        5.2490     1.2760     1.6450 C.2   1 <1>   0.5690 
 12 C       -1.5590     5.9930     0.0600 C.3   1 <1>  -0.2400 
 13 C       -2.8630     3.8470    -0.1710 C.3   1 <1>  -0.2400 
 14 O        5.5500     0.4150     2.4420 O.2   1 <1>  -0.5700 
 15 N        6.1540     1.7490     0.7190 N.am  1 <1>  -0.6600 
 16 C        5.8460     2.7790    -0.3160 C.3   1 <1>   0.1400 
 17 C        7.5270     1.1770     0.6280 C.3   1 <1>   0.1400 
 18 C        6.8770     3.9080    -0.2530 C.3   1 <1>  -0.1600 
 19 C        8.5650     2.3000     0.7020 C.3   1 <1>  -0.1600 
 20 C        8.3160     3.3740    -0.3710 C.3   1 <1>  -0.0190 
 21 C        9.3410     4.5020    -0.2730 C.2   1 <1>   0.5690 
 22 O        9.3410     5.2510     0.6690 O.2   1 <1>  -0.5700 
 23 N       10.2540     4.6590    -1.2490 N.am  1 <1>  -0.8000 
 24 H        0.2830     3.6460    -2.3230 H     1 <1>   0.1500 
 25 H        1.3280     2.4950     2.3560 H     1 <1>   0.1500 
 26 H        3.3020     1.3190     2.5270 H     1 <1>   0.0800 
 27 H        3.8750     2.8820     1.9620 H     1 <1>   0.0800 
 28 H       -0.6690     3.7740     1.8430 H     1 <1>   0.1500 
 29 H       -1.6580     4.7560    -1.6630 H     1 <1>   0.0800 
 30 H       -1.5580     5.9100     1.1320 H     1 <1>   0.0800 
 31 H       -2.4120     6.5760    -0.2380 H     1 <1>   0.0800 
 32 H       -0.6680     6.5130    -0.2440 H     1 <1>   0.0800 
 33 H       -2.8920     3.7160     0.8960 H     1 <1>   0.0800 
 34 H       -2.8770     2.8770    -0.6360 H     1 <1>   0.0800 
 35 H       -3.7450     4.3830    -0.4740 H     1 <1>   0.0800 
 36 H        4.8680     3.2000    -0.1760 H     1 <1>   0.0800 
 37 H        5.8670     2.3130    -1.2870 H     1 <1>   0.0800 
 38 H        7.6210     0.6460    -0.3030 H     1 <1>   0.0800 
 39 H        7.7030     0.4770     1.4270 H     1 <1>   0.0800 
 40 H        6.7600     4.4330     0.6790 H     1 <1>   0.0800 
 41 H        6.6850     4.6080    -1.0460 H     1 <1>   0.0800 
 42 H        9.5480     1.8820     0.5780 H     1 <1>   0.0800 
 43 H        8.5230     2.7470     1.6810 H     1 <1>   0.0800 
 44 H        8.4190     2.9110    -1.3360 H     1 <1>   0.0800 
 45 H       10.9340     5.4160    -1.1680 H     1 <1>   0.3700 
 46 H       10.3270     4.0670    -2.0750 H     1 <1>   0.3700 
@<TRIPOS>BOND
  1   1   2  1   
  2   2   3  ar  
  3   2   4  ar  
  4   3   5  1   
  5   3   6  ar  
  6   4   7  ar  
  7   4  24  1   
  8   5   8  1   
  9   6   9  ar  
 10   6  25  1   
 11   7   9  ar  
 12   7  10  1   
 13   8  11  1   
 14   8  26  1   
 15   8  27  1   
 16   9  28  1   
 17  10  12  1   
 18  10  13  1   
 19  10  29  1   
 20  11  14  2   
 21  11  15  am  
 22  12  30  1   
 23  12  31  1   
 24  12  32  1   
 25  13  33  1   
 26  13  34  1   
 27  13  35  1   
 28  15  16  1   
 29  15  17  1   
 30  16  18  1   
 31  16  36  1   
 32  16  37  1   
 33  17  19  1   
 34  17  38  1   
 35  17  39  1   
 36  18  20  1   
 37  18  40  1   
 38  18  41  1   
 39  19  20  1   
 40  19  42  1   
 41  19  43  1   
 42  20  21  1   
 43  20  44  1   
 44  21  22  2   
 45  21  23  am  
 46  23  45  1   
 47  23  46  1   
@<TRIPOS>SUBSTRUCTURE
  1 ****   5 GROUP 4 **** **** 0

# MOE 2024.06 (io_trps.svl 2023.06)
