@<TRIPOS>MOLECULE
NONAME
47 49 1 0 0 
SMALL
USER_CHARGES


@<TRIPOS>ATOM
  1 F        0.5330     0.2150     0.1220 F     1 <1>  -0.1900 
  2 C        1.6520    -0.4450     0.0210 C.ar  1 <1>   0.1900 
  3 C        2.2230    -0.9730     1.1630 C.ar  1 <1>  -0.1500 
  4 C        2.2300    -0.5960    -1.2250 C.ar  1 <1>  -0.1500 
  5 C        3.4140    -1.6690     1.0470 C.ar  1 <1>  -0.1500 
  6 C        3.4210    -1.2950    -1.3220 C.ar  1 <1>  -0.1500 
  7 C        4.0400    -1.8380    -0.1920 C.ar  1 <1>   0.0860 
  8 C        5.2910    -2.5600    -0.3120 C.2   1 <1>   0.5440 
  9 O        5.3300    -3.5450    -1.0250 O.2   1 <1>  -0.5700 
 10 N        6.4360    -2.1610     0.3520 N.am  1 <1>  -0.6600 
 11 C        7.6740    -2.9900     0.3340 C.3   1 <1>   0.1400 
 12 C        6.5980    -0.8240     0.9870 C.3   1 <1>   0.1400 
 13 C        8.7940    -2.2310    -0.3830 C.3   1 <1>  -0.1600 
 14 C        7.7130    -0.0510     0.2790 C.3   1 <1>  -0.1600 
 15 C        9.0340    -0.8470     0.2490 C.3   1 <1>  -0.0190 
 16 C       10.1590    -0.1050    -0.4740 C.2   1 <1>   0.5690 
 17 O        9.8880     0.6540    -1.3730 O.2   1 <1>  -0.5700 
 18 N       11.4350    -0.3550    -0.0520 N.am  1 <1>  -0.5470 
 19 C       12.7010     0.1110    -0.4520 C.ar  1 <1>   0.1170 
 20 C       13.8220    -0.3860     0.2220 C.ar  1 <1>   0.0830 
 21 C       12.8900     1.0340    -1.4760 C.ar  1 <1>  -0.1500 
 22 O       13.5960    -1.2920     1.2230 O.3   1 <1>  -0.3620 
 23 C       15.0980     0.0430    -0.1340 C.ar  1 <1>  -0.1500 
 24 C       14.1600     1.4560    -1.8250 C.ar  1 <1>  -0.1500 
 25 C       14.6640    -1.8420     1.9650 C.3   1 <1>   0.0400 
 26 C       15.2640     0.9620    -1.1550 C.ar  1 <1>  -0.1500 
 27 H        1.7400    -0.8410     2.1150 H     1 <1>   0.1500 
 28 H        1.7560    -0.1770    -2.0940 H     1 <1>   0.1500 
 29 H        3.8720    -2.0970     1.9230 H     1 <1>   0.1500 
 30 H        3.8880    -1.4340    -2.2820 H     1 <1>   0.1500 
 31 H        7.5010    -3.9290    -0.1650 H     1 <1>   0.0800 
 32 H        7.9640    -3.2060     1.3470 H     1 <1>   0.0800 
 33 H        6.8450    -0.9570     2.0270 H     1 <1>   0.0800 
 34 H        5.6890    -0.2520     0.9300 H     1 <1>   0.0800 
 35 H        8.5250    -2.1150    -1.4190 H     1 <1>   0.0800 
 36 H        9.6960    -2.8140    -0.3440 H     1 <1>   0.0800 
 37 H        7.8700     0.8890     0.7790 H     1 <1>   0.0800 
 38 H        7.3960     0.1660    -0.7260 H     1 <1>   0.0800 
 39 H        9.3450    -0.9940     1.2680 H     1 <1>   0.0800 
 40 H       11.5240    -1.0290     0.7090 H     1 <1>   0.3700 
 41 H       12.0480     1.4320    -2.0110 H     1 <1>   0.1500 
 42 H       15.9740    -0.3220     0.3670 H     1 <1>   0.1500 
 43 H       14.2860     2.1710    -2.6200 H     1 <1>   0.1500 
 44 H       14.2540    -2.5190     2.6920 H     1 <1>   0.0800 
 45 H       15.1910    -1.0470     2.4630 H     1 <1>   0.0800 
 46 H       15.3160    -2.3760     1.2960 H     1 <1>   0.0800 
 47 H       16.2500     1.2920    -1.4290 H     1 <1>   0.1500 
@<TRIPOS>BOND
  1   1   2  1   
  2   2   3  ar  
  3   2   4  ar  
  4   3   5  ar  
  5   3  27  1   
  6   4   6  ar  
  7   4  28  1   
  8   5   7  ar  
  9   5  29  1   
 10   6   7  ar  
 11   6  30  1   
 12   7   8  1   
 13   8   9  2   
 14   8  10  am  
 15  10  11  1   
 16  10  12  1   
 17  11  13  1   
 18  11  31  1   
 19  11  32  1   
 20  12  14  1   
 21  12  33  1   
 22  12  34  1   
 23  13  15  1   
 24  13  35  1   
 25  13  36  1   
 26  14  15  1   
 27  14  37  1   
 28  14  38  1   
 29  15  16  1   
 30  15  39  1   
 31  16  17  2   
 32  16  18  am  
 33  18  19  1   
 34  18  40  1   
 35  19  20  ar  
 36  19  21  ar  
 37  20  22  1   
 38  20  23  ar  
 39  21  24  ar  
 40  21  41  1   
 41  22  25  1   
 42  23  26  ar  
 43  23  42  1   
 44  24  26  ar  
 45  24  43  1   
 46  25  44  1   
 47  25  45  1   
 48  25  46  1   
 49  26  47  1   
@<TRIPOS>SUBSTRUCTURE
  1 ****  15 GROUP 4 **** **** 0

# MOE 2024.06 (io_trps.svl 2023.06)
