@<TRIPOS>MOLECULE
NONAME
43 45 1 0 0 
SMALL
USER_CHARGES


@<TRIPOS>ATOM
  1 F       -1.5520    -1.7360    -0.7400 F     1 <1>  -0.3400 
  2 C       -1.8930    -0.4580    -0.6190 C.3   1 <1>   1.1640 
  3 F       -0.8510     0.1510    -0.0660 F     1 <1>  -0.3400 
  4 F       -1.9870     0.0170    -1.8560 F     1 <1>  -0.3400 
  5 C       -3.1720    -0.2750     0.2100 C.ar  1 <1>  -0.1440 
  6 C       -4.2200     0.5230    -0.2340 C.ar  1 <1>  -0.1500 
  7 C       -3.3000    -0.9130     1.4410 C.ar  1 <1>  -0.1500 
  8 C       -5.3740     0.6880     0.5170 C.ar  1 <1>   0.1000 
  9 C       -4.4460    -0.7570     2.2010 C.ar  1 <1>  -0.1500 
 10 N       -6.3930     1.4930     0.0290 N.pl3 1 <1>  -0.8380 
 11 C       -5.4770     0.0390     1.7410 C.ar  1 <1>  -0.1500 
 12 C       -6.6850     2.7360     0.8010 C.3   1 <1>   0.2090 
 13 C       -7.6420     0.7900    -0.3860 C.3   1 <1>   0.2090 
 14 C       -7.6600     3.6500     0.0340 C.3   1 <1>   0.1100 
 15 C       -8.5970     1.7470    -1.1250 C.3   1 <1>   0.1100 
 16 N       -8.9190     2.9530    -0.3180 N.3   1 <1>  -0.8100 
 17 C       -9.8330     3.8640    -1.0690 C.3   1 <1>   0.1710 
 18 C      -11.2720     3.3520    -1.1800 C.2   1 <1>   0.5690 
 19 O      -11.9670     3.7250    -2.0960 O.2   1 <1>  -0.5700 
 20 N      -11.7040     2.4880    -0.2260 N.am  1 <1>  -0.5790 
 21 C      -13.0260     1.8590    -0.1360 C.3   1 <1>   0.0490 
 22 C      -13.5670     1.5540     1.2210 C.3   1 <1>  -0.2000 
 23 C      -13.0960     0.4430     0.3310 C.3   1 <1>  -0.2000 
 24 H       -4.1680     1.0390    -1.1770 H     1 <1>   0.1500 
 25 H       -2.5040    -1.5370     1.8140 H     1 <1>   0.1500 
 26 H       -4.5340    -1.2560     3.1510 H     1 <1>   0.1500 
 27 H       -6.3680     0.1610     2.3280 H     1 <1>   0.1500 
 28 H       -5.7640     3.2640     0.9800 H     1 <1>   0.0800 
 29 H       -7.1160     2.4790     1.7530 H     1 <1>   0.0800 
 30 H       -8.1390     0.3930     0.4810 H     1 <1>   0.0800 
 31 H       -7.3870    -0.0310    -1.0330 H     1 <1>   0.0800 
 32 H       -7.1710     3.9980    -0.8600 H     1 <1>   0.0800 
 33 H       -7.8850     4.5050     0.6480 H     1 <1>   0.0800 
 34 H       -9.5010     1.2140    -1.3610 H     1 <1>   0.0800 
 35 H       -8.1340     2.0400    -2.0520 H     1 <1>   0.0800 
 36 H       -9.4500     4.0350    -2.0600 H     1 <1>   0.0800 
 37 H       -9.8790     4.8130    -0.5660 H     1 <1>   0.0800 
 38 H      -11.0050     2.2090     0.4690 H     1 <1>   0.3700 
 39 H      -13.7070     2.1880    -0.9060 H     1 <1>   0.1000 
 40 H      -14.6250     1.6600     1.3870 H     1 <1>   0.1000 
 41 H      -12.9820     1.8210     2.0830 H     1 <1>   0.1000 
 42 H      -12.1830    -0.0710     0.5730 H     1 <1>   0.1000 
 43 H      -13.8350    -0.2060    -0.1060 H     1 <1>   0.1000 
@<TRIPOS>BOND
  1   1   2  1   
  2   2   3  1   
  3   2   4  1   
  4   2   5  1   
  5   5   6  ar  
  6   5   7  ar  
  7   6   8  ar  
  8   6  24  1   
  9   7   9  ar  
 10   7  25  1   
 11   8  10  1   
 12   8  11  ar  
 13   9  11  ar  
 14   9  26  1   
 15  10  12  1   
 16  10  13  1   
 17  11  27  1   
 18  12  14  1   
 19  12  28  1   
 20  12  29  1   
 21  13  15  1   
 22  13  30  1   
 23  13  31  1   
 24  14  16  1   
 25  14  32  1   
 26  14  33  1   
 27  15  16  1   
 28  15  34  1   
 29  15  35  1   
 30  16  17  1   
 31  17  18  1   
 32  17  36  1   
 33  17  37  1   
 34  18  19  2   
 35  18  20  am  
 36  20  21  1   
 37  20  38  1   
 38  21  22  1   
 39  21  23  1   
 40  21  39  1   
 41  22  23  1   
 42  22  40  1   
 43  22  41  1   
 44  23  42  1   
 45  23  43  1   
@<TRIPOS>SUBSTRUCTURE
  1 ****  10 GROUP 4 **** **** 0

# MOE 2024.06 (io_trps.svl 2023.06)
