@<TRIPOS>MOLECULE
Structure495
29 30 1 0 0 
SMALL
USER_CHARGES


@<TRIPOS>ATOM
  1 N        0.1230    -0.1630     0.5290 N.ar  1 <1>  -0.6200 
  2 C       -0.5780    -1.0960    -0.1010 C.ar  1 <1>   0.4760 
  3 C        1.4220    -0.2050     0.3750 C.ar  1 <1>   0.1660 
  4 N       -0.0900    -2.0640    -0.8660 N.ar  1 <1>  -0.6200 
  5 C       -2.1020    -1.0410     0.0800 C.3   1 <1>   0.0630 
  6 C        2.0310    -1.1700    -0.3970 C.ar  1 <1>  -0.1440 
  7 C        2.2170     0.8570     1.1110 C.3   1 <1>  -0.0160 
  8 C        1.2120    -2.0910    -1.0070 C.ar  1 <1>   0.1600 
  9 C       -2.6440    -2.3080     0.7620 C.3   1 <1>  -0.2400 
 10 C       -2.8290    -0.8060    -1.2540 C.3   1 <1>  -0.2400 
 11 C        3.5310    -1.2260    -0.5860 C.3   1 <1>   0.4860 
 12 C        3.6740     0.9020     0.6540 C.3   1 <1>   0.3430 
 13 N        4.2140    -0.4820     0.5080 N.4   1 <1>  -0.9060 
 14 H       -2.3270    -0.2060     0.7220 H     1 <1>   0.0800 
 15 H        2.1690     0.6570     2.1660 H     1 <1>   0.0800 
 16 H        1.7650     1.8190     0.9450 H     1 <1>   0.0800 
 17 H        1.6170    -2.8730    -1.6290 H     1 <1>   0.1500 
 18 H       -2.4690    -3.1710     0.1440 H     1 <1>   0.0800 
 19 H       -3.7000    -2.2170     0.9380 H     1 <1>   0.0800 
 20 H       -2.1490    -2.4570     1.7050 H     1 <1>   0.0800 
 21 H       -2.6590    -1.6300    -1.9250 H     1 <1>   0.0800 
 22 H       -2.4630     0.0930    -1.7180 H     1 <1>   0.0800 
 23 H       -3.8870    -0.7030    -1.0930 H     1 <1>   0.0800 
 24 H        3.7800    -0.7870    -1.5390 H     1 <1>   0.0800 
 25 H        3.8570    -2.2540    -0.5920 H     1 <1>   0.0800 
 26 H        4.2560     1.4600     1.3720 H     1 <1>   0.0800 
 27 H        3.7310     1.4130    -0.2940 H     1 <1>   0.0800 
 28 H        5.2270    -0.4570     0.3350 H     1 <1>   0.4500 
 29 H        4.0660    -0.9940     1.3880 H     1 <1>   0.4500 
@<TRIPOS>BOND
  1   1   2  ar  
  2   1   3  ar  
  3   2   4  ar  
  4   2   5  1   
  5   3   6  ar  
  6   3   7  1   
  7   4   8  ar  
  8   5   9  1   
  9   5  10  1   
 10   5  14  1   
 11   6   8  ar  
 12   6  11  1   
 13   7  12  1   
 14   7  15  1   
 15   7  16  1   
 16   8  17  1   
 17   9  18  1   
 18   9  19  1   
 19   9  20  1   
 20  10  21  1   
 21  10  22  1   
 22  10  23  1   
 23  11  13  1   
 24  11  24  1   
 25  11  25  1   
 26  12  13  1   
 27  12  26  1   
 28  12  27  1   
 29  13  28  1   
 30  13  29  1   
@<TRIPOS>SUBSTRUCTURE
  1 ****   3 GROUP 4 **** **** 0

# MOE 2024.06 (io_trps.svl 2023.06)
