@<TRIPOS>MOLECULE
NONAME
35 37 1 0 0 
SMALL
USER_CHARGES


@<TRIPOS>ATOM
  1 F        5.5400    -2.0170    -2.2640 F     1 <1>  -0.1900 
  2 C        4.3740    -1.7490    -1.7430 C.ar  1 <1>   0.1900 
  3 C        3.5930    -2.7930    -1.2910 C.ar  1 <1>  -0.1500 
  4 C        3.9690    -0.4320    -1.6650 C.ar  1 <1>  -0.1500 
  5 C        2.3400    -2.5370    -0.7300 C.ar  1 <1>   0.0860 
  6 C        2.7310    -0.1600    -1.1110 C.ar  1 <1>  -0.1500 
  7 C        1.5080    -3.6280    -0.2540 C.2   1 <1>   0.6340 
  8 C        1.9350    -1.1980    -0.6520 C.ar  1 <1>  -0.1500 
  9 O        1.8610    -4.7870    -0.2550 O.2   1 <1>  -0.5700 
 10 O        0.2800    -3.3470     0.2040 O.3   1 <1>  -0.4300 
 11 C       -0.5810    -4.3590     0.6900 C.3   1 <1>   0.2000 
 12 C       -1.2400    -5.1030    -0.5530 C.3   1 <1>  -0.0800 
 13 C       -1.6810    -3.6560     1.5890 C.3   1 <1>   0.3430 
 14 C       -2.0580    -3.9890    -1.3480 C.3   1 <1>  -0.1600 
 15 C       -2.3620    -6.0440     0.0640 C.3   1 <1>  -0.1600 
 16 N       -2.9680    -3.8720     0.8640 N.4   1 <1>  -0.9590 
 17 C       -3.0810    -3.1870    -0.4400 C.3   1 <1>   0.3430 
 18 C       -3.4510    -5.2670     0.9120 C.3   1 <1>   0.3430 
 19 H        3.9600    -3.8010    -1.3750 H     1 <1>   0.1500 
 20 H        4.6080     0.3540    -2.0290 H     1 <1>   0.1500 
 21 H        2.3920     0.8600    -1.0370 H     1 <1>   0.1500 
 22 H        0.9790    -0.9550    -0.2230 H     1 <1>   0.1500 
 23 H        0.0010    -5.0360     1.2970 H     1 <1>   0.0800 
 24 H       -0.5280    -5.6430    -1.1580 H     1 <1>   0.0800 
 25 H       -1.4700    -2.6040     1.6990 H     1 <1>   0.0800 
 26 H       -1.7240    -4.1170     2.5630 H     1 <1>   0.0800 
 27 H       -2.6020    -4.4510    -2.1560 H     1 <1>   0.0800 
 28 H       -1.3810    -3.2900    -1.8100 H     1 <1>   0.0800 
 29 H       -1.9030    -6.7930     0.6890 H     1 <1>   0.0800 
 30 H       -2.8610    -6.5790    -0.7270 H     1 <1>   0.0800 
 31 H       -2.3580    -4.3300     0.3020 H     1 <1>   0.4500 
 32 H       -4.0870    -3.2520    -0.8250 H     1 <1>   0.0800 
 33 H       -2.7960    -2.1500    -0.3510 H     1 <1>   0.0800 
 34 H       -3.4920    -5.6260     1.9290 H     1 <1>   0.0800 
 35 H       -4.4290    -5.3470     0.4630 H     1 <1>   0.0800 
@<TRIPOS>BOND
  1   1   2  1   
  2   2   3  ar  
  3   2   4  ar  
  4   3   5  ar  
  5   3  19  1   
  6   4   6  ar  
  7   4  20  1   
  8   5   7  1   
  9   5   8  ar  
 10   6   8  ar  
 11   6  21  1   
 12   7   9  2   
 13   7  10  1   
 14   8  22  1   
 15  10  11  1   
 16  11  12  1   
 17  11  13  1   
 18  11  23  1   
 19  12  14  1   
 20  12  15  1   
 21  12  24  1   
 22  13  16  1   
 23  13  25  1   
 24  13  26  1   
 25  14  17  1   
 26  14  27  1   
 27  14  28  1   
 28  15  18  1   
 29  15  29  1   
 30  15  30  1   
 31  16  17  1   
 32  16  18  1   
 33  16  31  1   
 34  17  32  1   
 35  17  33  1   
 36  18  34  1   
 37  18  35  1   
@<TRIPOS>SUBSTRUCTURE
  1 ****  10 GROUP 4 **** **** 0

# MOE 2024.06 (io_trps.svl 2023.06)
