@<TRIPOS>MOLECULE
NONAME
33 34 1 0 0 
SMALL
USER_CHARGES


@<TRIPOS>ATOM
  1 O        5.1840    -3.5870     0.0060 O.2   1 <1>  -0.5700 
  2 C        3.9640    -3.6060    -0.0140 C.2   1 <1>   0.6900 
  3 N        3.3010    -4.8290    -0.0500 N.am  1 <1>  -0.4200 
  4 N        3.2500    -2.4210     0.0010 N.am  1 <1>  -0.4230 
  5 C        1.9200    -4.8810    -0.0360 C.2   1 <1>   0.7150 
  6 C        4.1030    -6.0870    -0.0700 C.3   1 <1>   0.0600 
  7 C        1.8610    -2.4720     0.0010 C.2   1 <1>   0.2900 
  8 C        3.9070    -1.0880     0.0310 C.3   1 <1>   0.0600 
  9 O        1.3210    -5.9450    -0.0400 O.2   1 <1>  -0.5700 
 10 C        1.2120    -3.6540    -0.0160 C.2   1 <1>  -0.2370 
 11 N        1.0160    -1.4340     0.0200 N.2   1 <1>  -0.5650 
 12 N       -0.1100    -3.3560    -0.0070 N.pl3 1 <1>   0.0480 
 13 C       -0.1490    -2.0030     0.0140 C.2   1 <1>   0.0360 
 14 C       -1.1990    -4.3630    -0.0180 C.3   1 <1>   0.0960 
 15 C       -2.6030    -3.7360    -0.0060 C.3   1 <1>  -0.1600 
 16 C       -3.6710    -4.8300    -0.0190 C.3   1 <1>   0.3430 
 17 N       -5.0150    -4.2060    -0.0060 N.4   1 <1>  -0.8530 
 18 H        4.9270    -5.9850    -0.7560 H     1 <1>   0.0800 
 19 H        3.5040    -6.9250    -0.3820 H     1 <1>   0.0800 
 20 H        4.4920    -6.2790     0.9150 H     1 <1>   0.0800 
 21 H        4.9770    -1.1810    -0.0200 H     1 <1>   0.0800 
 22 H        3.6420    -0.5800     0.9410 H     1 <1>   0.0800 
 23 H        3.5680    -0.5040    -0.8060 H     1 <1>   0.0800 
 24 H       -1.0690    -1.4460     0.0250 H     1 <1>   0.1500 
 25 H       -1.0690    -4.9960     0.8430 H     1 <1>   0.0800 
 26 H       -1.0730    -4.9720    -0.8980 H     1 <1>   0.0800 
 27 H       -2.7120    -3.1140    -0.8780 H     1 <1>   0.0800 
 28 H       -2.7080    -3.1390     0.8840 H     1 <1>   0.0800 
 29 H       -3.5520    -5.4650     0.8470 H     1 <1>   0.0800 
 30 H       -3.5570    -5.4390    -0.9030 H     1 <1>   0.0800 
 31 H       -5.1490    -3.6300     0.8330 H     1 <1>   0.4500 
 32 H       -5.7540    -4.9210    -0.0140 H     1 <1>   0.4500 
 33 H       -5.1540    -3.6060    -0.8280 H     1 <1>   0.4500 
@<TRIPOS>BOND
  1   1   2  2   
  2   2   3  am  
  3   2   4  am  
  4   3   5  am  
  5   3   6  1   
  6   4   7  1   
  7   4   8  1   
  8   5   9  2   
  9   5  10  1   
 10   6  18  1   
 11   6  19  1   
 12   6  20  1   
 13   7  10  2   
 14   7  11  1   
 15   8  21  1   
 16   8  22  1   
 17   8  23  1   
 18  10  12  1   
 19  11  13  2   
 20  12  13  1   
 21  12  14  1   
 22  13  24  1   
 23  14  15  1   
 24  14  25  1   
 25  14  26  1   
 26  15  16  1   
 27  15  27  1   
 28  15  28  1   
 29  16  17  1   
 30  16  29  1   
 31  16  30  1   
 32  17  31  1   
 33  17  32  1   
 34  17  33  1   
@<TRIPOS>SUBSTRUCTURE
  1 ****  10 GROUP 4 **** **** 0

# MOE 2024.06 (io_trps.svl 2023.06)
