@<TRIPOS>MOLECULE
NONAME
43 43 1 0 0 
SMALL
USER_CHARGES


@<TRIPOS>ATOM
  1 BR      -0.0270     0.2510    -0.2340 Br    1 <1>  -0.1110 
  2 C       -1.9380     0.0180    -0.2340 C.ar  1 <1>   0.1110 
  3 C       -2.7450     1.1360    -0.3180 C.ar  1 <1>  -0.1500 
  4 C       -2.4520    -1.2600    -0.1500 C.ar  1 <1>  -0.1500 
  5 C       -4.1210     0.9740    -0.3190 C.ar  1 <1>  -0.1440 
  6 C       -3.8270    -1.4220    -0.1510 C.ar  1 <1>  -0.1500 
  7 C       -4.6660    -0.3090    -0.2350 C.ar  1 <1>   0.0830 
  8 C       -5.0220     2.1970    -0.4110 C.3   1 <1>  -0.0960 
  9 O       -6.0230    -0.4110    -0.2390 O.3   1 <1>  -0.3630 
 10 C       -6.6750    -1.6540    -0.1580 C.3   1 <1>   0.1200 
 11 C       -8.1810    -1.3850    -0.1900 C.3   1 <1>  -0.1600 
 12 C       -8.9980    -2.6820    -0.1070 C.3   1 <1>  -0.1600 
 13 C      -10.4940    -2.3740    -0.1420 C.3   1 <1>   0.3430 
 14 N      -11.2560    -3.6470    -0.0600 N.4   1 <1>  -0.9060 
 15 C      -12.7170    -3.5450    -0.0800 C.3   1 <1>   0.5030 
 16 C      -13.2470    -4.9720     0.0150 C.3   1 <1>  -0.2400 
 17 C      -13.1960    -2.7320     1.1230 C.3   1 <1>  -0.2400 
 18 C      -13.1730    -2.9080    -1.3920 C.3   1 <1>  -0.2400 
 19 H       -2.2960     2.1110    -0.3820 H     1 <1>   0.1500 
 20 H       -1.7900    -2.1050    -0.0860 H     1 <1>   0.1500 
 21 H       -4.2190    -2.4180    -0.0850 H     1 <1>   0.1500 
 22 H       -4.4450     3.1020    -0.4680 H     1 <1>   0.0800 
 23 H       -5.6550     2.2490     0.4570 H     1 <1>   0.0800 
 24 H       -5.6410     2.1290    -1.2870 H     1 <1>   0.0800 
 25 H       -6.3850    -2.1280     0.7640 H     1 <1>   0.0800 
 26 H       -6.3700    -2.2500    -1.0010 H     1 <1>   0.0800 
 27 H       -8.4140    -0.8650    -1.1050 H     1 <1>   0.0800 
 28 H       -8.4290    -0.7440     0.6400 H     1 <1>   0.0800 
 29 H       -8.7520    -3.1910     0.8090 H     1 <1>   0.0800 
 30 H       -8.7370    -3.3120    -0.9400 H     1 <1>   0.0800 
 31 H      -10.7330    -1.8560    -1.0570 H     1 <1>   0.0800 
 32 H      -10.7480    -1.7340     0.6890 H     1 <1>   0.0800 
 33 H      -10.9970    -4.1390     0.8000 H     1 <1>   0.4500 
 34 H      -10.9820    -4.2530    -0.8390 H     1 <1>   0.4500 
 35 H      -12.9350    -5.4440     0.9300 H     1 <1>   0.0800 
 36 H      -12.9200    -5.5660    -0.8200 H     1 <1>   0.0800 
 37 H      -14.3240    -4.9640     0.0050 H     1 <1>   0.0800 
 38 H      -12.8340    -3.1520     2.0450 H     1 <1>   0.0800 
 39 H      -14.2710    -2.7410     1.1600 H     1 <1>   0.0800 
 40 H      -12.8900    -1.7040     1.0550 H     1 <1>   0.0800 
 41 H      -12.7960    -3.4510    -2.2400 H     1 <1>   0.0800 
 42 H      -12.8680    -1.8790    -1.4620 H     1 <1>   0.0800 
 43 H      -14.2480    -2.9220    -1.4460 H     1 <1>   0.0800 
@<TRIPOS>BOND
  1   1   2  1   
  2   2   3  ar  
  3   2   4  ar  
  4   3   5  ar  
  5   3  19  1   
  6   4   6  ar  
  7   4  20  1   
  8   5   7  ar  
  9   5   8  1   
 10   6   7  ar  
 11   6  21  1   
 12   7   9  1   
 13   8  22  1   
 14   8  23  1   
 15   8  24  1   
 16   9  10  1   
 17  10  11  1   
 18  10  25  1   
 19  10  26  1   
 20  11  12  1   
 21  11  27  1   
 22  11  28  1   
 23  12  13  1   
 24  12  29  1   
 25  12  30  1   
 26  13  14  1   
 27  13  31  1   
 28  13  32  1   
 29  14  15  1   
 30  14  33  1   
 31  14  34  1   
 32  15  16  1   
 33  15  17  1   
 34  15  18  1   
 35  16  35  1   
 36  16  36  1   
 37  16  37  1   
 38  17  38  1   
 39  17  39  1   
 40  17  40  1   
 41  18  41  1   
 42  18  42  1   
 43  18  43  1   
@<TRIPOS>SUBSTRUCTURE
  1 ****  10 GROUP 4 **** **** 0

# MOE 2024.06 (io_trps.svl 2023.06)
