@<TRIPOS>MOLECULE
NONAME
50 52 1 0 0 
SMALL
USER_CHARGES


@<TRIPOS>ATOM
  1 F       -3.5970     5.1230    -1.3570 F     1 <1>  -0.1900 
  2 C       -2.4410     4.6360    -0.9740 C.ar  1 <1>   0.1900 
  3 C       -2.4110     3.4080    -0.3120 C.ar  1 <1>   0.1170 
  4 C       -1.3070     5.3750    -1.2490 C.ar  1 <1>  -0.1500 
  5 N       -3.6070     2.7050    -0.0700 N.am  1 <1>  -0.5470 
  6 C       -1.1600     2.9350     0.0730 C.ar  1 <1>  -0.1500 
  7 C       -0.0770     4.8790    -0.8510 C.ar  1 <1>  -0.1500 
  8 C       -3.9280     1.6520     0.7360 C.2   1 <1>   0.5690 
  9 C       -0.0090     3.6620    -0.1920 C.ar  1 <1>  -0.1500 
 10 O       -3.1430     1.0730     1.4470 O.2   1 <1>  -0.5700 
 11 C       -5.3920     1.2040     0.7200 C.3   1 <1>   0.1710 
 12 N       -6.3320     2.2590     0.2390 N.3   1 <1>  -0.8100 
 13 C       -6.5450     3.3030     1.2750 C.3   1 <1>   0.1100 
 14 C       -7.6400     1.6740    -0.1390 C.3   1 <1>   0.1100 
 15 C       -7.5200     4.3980     0.8040 C.3   1 <1>   0.2090 
 16 C       -8.6340     2.7450    -0.6300 C.3   1 <1>   0.2090 
 17 N       -8.8270     3.8070     0.4000 N.pl3 1 <1>  -0.8380 
 18 C       -9.8420     4.7350     0.1240 C.ar  1 <1>   0.1000 
 19 C       -9.8440     5.6060    -0.9790 C.ar  1 <1>   0.0830 
 20 C      -10.9090     4.7960     1.0080 C.ar  1 <1>  -0.1500 
 21 O       -8.8150     5.5830    -1.8720 O.3   1 <1>  -0.3620 
 22 C      -10.8980     6.4870    -1.1750 C.ar  1 <1>  -0.1500 
 23 C      -11.9550     5.6820     0.8170 C.ar  1 <1>  -0.1500 
 24 C       -8.1190     6.7870    -2.0830 C.3   1 <1>   0.1200 
 25 C      -11.9510     6.5280    -0.2780 C.ar  1 <1>  -0.1500 
 26 C       -6.8310     6.4590    -2.8320 C.3   1 <1>  -0.2400 
 27 H       -1.3860     6.3160    -1.7620 H     1 <1>   0.1500 
 28 H       -4.4450     3.0920    -0.5220 H     1 <1>   0.3700 
 29 H       -1.0750     1.9930     0.5830 H     1 <1>   0.1500 
 30 H        0.8230     5.4350    -1.0520 H     1 <1>   0.1500 
 31 H        0.9470     3.2740     0.1180 H     1 <1>   0.1500 
 32 H       -5.6710     0.8820     1.7070 H     1 <1>   0.0800 
 33 H       -5.4500     0.3530     0.0660 H     1 <1>   0.0800 
 34 H       -5.6070     3.7660     1.5270 H     1 <1>   0.0800 
 35 H       -6.9450     2.8550     2.1690 H     1 <1>   0.0800 
 36 H       -8.0740     1.1670     0.7060 H     1 <1>   0.0800 
 37 H       -7.4960     0.9550    -0.9260 H     1 <1>   0.0800 
 38 H       -7.0850     4.9220    -0.0280 H     1 <1>   0.0800 
 39 H       -7.6820     5.1030     1.6000 H     1 <1>   0.0800 
 40 H       -9.5830     2.2860    -0.8450 H     1 <1>   0.0800 
 41 H       -8.2580     3.1790    -1.5400 H     1 <1>   0.0800 
 42 H      -10.9090     4.1340     1.8540 H     1 <1>   0.1500 
 43 H      -10.9060     7.1350    -2.0310 H     1 <1>   0.1500 
 44 H      -12.7700     5.7090     1.5180 H     1 <1>   0.1500 
 45 H       -7.9020     7.2280    -1.1250 H     1 <1>   0.0800 
 46 H       -8.7390     7.4490    -2.6610 H     1 <1>   0.0800 
 47 H      -12.7660     7.2140    -0.4320 H     1 <1>   0.1500 
 48 H       -6.2310     5.7790    -2.2550 H     1 <1>   0.0800 
 49 H       -6.2670     7.3580    -3.0010 H     1 <1>   0.0800 
 50 H       -7.0620     6.0130    -3.7830 H     1 <1>   0.0800 
@<TRIPOS>BOND
  1   1   2  1   
  2   2   3  ar  
  3   2   4  ar  
  4   3   5  1   
  5   3   6  ar  
  6   4   7  ar  
  7   4  27  1   
  8   5   8  am  
  9   5  28  1   
 10   6   9  ar  
 11   6  29  1   
 12   7   9  ar  
 13   7  30  1   
 14   8  10  2   
 15   8  11  1   
 16   9  31  1   
 17  11  12  1   
 18  11  32  1   
 19  11  33  1   
 20  12  13  1   
 21  12  14  1   
 22  13  15  1   
 23  13  34  1   
 24  13  35  1   
 25  14  16  1   
 26  14  36  1   
 27  14  37  1   
 28  15  17  1   
 29  15  38  1   
 30  15  39  1   
 31  16  17  1   
 32  16  40  1   
 33  16  41  1   
 34  17  18  1   
 35  18  19  ar  
 36  18  20  ar  
 37  19  21  1   
 38  19  22  ar  
 39  20  23  ar  
 40  20  42  1   
 41  21  24  1   
 42  22  25  ar  
 43  22  43  1   
 44  23  25  ar  
 45  23  44  1   
 46  24  26  1   
 47  24  45  1   
 48  24  46  1   
 49  25  47  1   
 50  26  48  1   
 51  26  49  1   
 52  26  50  1   
@<TRIPOS>SUBSTRUCTURE
  1 ****  15 GROUP 4 **** **** 0

# MOE 2024.06 (io_trps.svl 2023.06)
