@<TRIPOS>MOLECULE
NONAME
40 41 1 0 0 
SMALL
USER_CHARGES


@<TRIPOS>ATOM
  1 S       -0.1240    -0.2960    -0.5320 S.o2  1 <1>   1.4470 
  2 O        0.3390    -1.5040     0.1140 O.2   1 <1>  -0.6500 
  3 O        0.2370    -0.0150    -1.9020 O.2   1 <1>  -0.6500 
  4 N        0.4230     0.9360     0.4710 N.am  1 <1>  -0.9140 
  5 C       -1.9250    -0.1700    -0.3600 C.ar  1 <1>  -0.0090 
  6 C        1.7220     1.5200     0.2580 C.3   1 <1>   0.3560 
  7 C       -2.6880    -1.2480     0.0770 C.ar  1 <1>  -0.1500 
  8 C       -2.5920     1.0120    -0.6710 C.ar  1 <1>  -0.1500 
  9 C        1.6700     2.5300    -0.8890 C.3   1 <1>  -0.2400 
 10 C        2.8100     0.4650     0.0360 C.3   1 <1>  -0.2400 
 11 C        2.0300     2.2740     1.5500 C.3   1 <1>  -0.2400 
 12 C       -4.0580    -1.1250     0.1970 C.ar  1 <1>  -0.1430 
 13 C       -3.9670     1.1290    -0.5500 C.ar  1 <1>  -0.1500 
 14 C       -4.7180     0.0480    -0.1000 C.ar  1 <1>   0.1170 
 15 C       -5.0310    -2.1860     0.6410 C.3   1 <1>  -0.0170 
 16 N       -6.1010    -0.0840     0.1040 N.am  1 <1>  -0.4770 
 17 C       -6.3920    -1.4970     0.4790 C.3   1 <1>   0.1400 
 18 C       -7.1540     0.8040     0.0670 C.2   1 <1>   0.5690 
 19 O       -8.2930     0.4400     0.2340 O.2   1 <1>  -0.5700 
 20 C       -6.9410     2.2800    -0.1690 C.3   1 <1>  -0.1790 
 21 H        0.4890     0.4710     1.3710 H     1 <1>   0.4200 
 22 H       -2.2070    -2.1810     0.3200 H     1 <1>   0.1500 
 23 H       -2.0170     1.8550    -1.0190 H     1 <1>   0.1500 
 24 H        1.5540     2.0450    -1.8390 H     1 <1>   0.0800 
 25 H        2.5860     3.0910    -0.9270 H     1 <1>   0.0800 
 26 H        0.8570     3.2190    -0.7450 H     1 <1>   0.0800 
 27 H        2.7990    -0.2700     0.8210 H     1 <1>   0.0800 
 28 H        3.7770     0.9340     0.0290 H     1 <1>   0.0800 
 29 H        2.6900    -0.0280    -0.9120 H     1 <1>   0.0800 
 30 H        1.2750     3.0160     1.7420 H     1 <1>   0.0800 
 31 H        2.9780     2.7760     1.4720 H     1 <1>   0.0800 
 32 H        2.0810     1.5990     2.3860 H     1 <1>   0.0800 
 33 H       -4.4280     2.0580    -0.8140 H     1 <1>   0.1500 
 34 H       -4.8620    -2.4530     1.6690 H     1 <1>   0.0800 
 35 H       -4.9690    -3.0620     0.0220 H     1 <1>   0.0800 
 36 H       -6.9520    -1.5260     1.3980 H     1 <1>   0.0800 
 37 H       -6.9650    -1.9610    -0.3050 H     1 <1>   0.0800 
 38 H       -6.2050     2.6580     0.5140 H     1 <1>   0.0800 
 39 H       -7.8620     2.8080    -0.0030 H     1 <1>   0.0800 
 40 H       -6.6340     2.4440    -1.1840 H     1 <1>   0.0800 
@<TRIPOS>BOND
  1   1   2  2   
  2   1   3  2   
  3   1   4  am  
  4   1   5  1   
  5   4   6  1   
  6   4  21  1   
  7   5   7  ar  
  8   5   8  ar  
  9   6   9  1   
 10   6  10  1   
 11   6  11  1   
 12   7  12  ar  
 13   7  22  1   
 14   8  13  ar  
 15   8  23  1   
 16   9  24  1   
 17   9  25  1   
 18   9  26  1   
 19  10  27  1   
 20  10  28  1   
 21  10  29  1   
 22  11  30  1   
 23  11  31  1   
 24  11  32  1   
 25  12  14  ar  
 26  12  15  1   
 27  13  14  ar  
 28  13  33  1   
 29  14  16  1   
 30  15  17  1   
 31  15  34  1   
 32  15  35  1   
 33  16  17  1   
 34  16  18  am  
 35  17  36  1   
 36  17  37  1   
 37  18  19  2   
 38  18  20  1   
 39  20  38  1   
 40  20  39  1   
 41  20  40  1   
@<TRIPOS>SUBSTRUCTURE
  1 ****   5 GROUP 4 **** **** 0

# MOE 2024.06 (io_trps.svl 2023.06)
