@<TRIPOS>MOLECULE
NONAME
42 44 1 0 0 
SMALL
USER_CHARGES


@<TRIPOS>ATOM
  1 O       -0.1980    -1.0480     1.1600 O.3   1 <1>  -0.5600 
  2 C        0.5700    -1.3090     0.0190 C.3   1 <1>   0.5600 
  3 C       -1.1950    -0.0700     1.0950 C.3   1 <1>   0.1200 
  4 O       -0.2680    -1.4210    -1.0970 O.3   1 <1>  -0.5600 
  5 C        1.5510    -0.1420    -0.2500 C.3   1 <1>  -0.1600 
  6 C        1.3290    -2.6360     0.2600 C.3   1 <1>  -0.1600 
  7 C       -2.5330    -0.7440     0.7860 C.3   1 <1>  -0.1600 
  8 C       -1.4250    -2.2010    -0.9960 C.3   1 <1>   0.1200 
  9 C        2.9020    -0.3340     0.4630 C.3   1 <1>  -0.1600 
 10 C        2.6690    -2.6910    -0.4960 C.3   1 <1>  -0.1600 
 11 C       -2.6070    -1.2950    -0.6460 C.3   1 <1>  -0.1600 
 12 C        3.6560    -1.5930    -0.0310 C.3   1 <1>   0.5600 
 13 O        4.4770    -1.2760    -1.1190 O.3   1 <1>  -0.5600 
 14 O        4.4400    -2.0580     1.0310 O.3   1 <1>  -0.5600 
 15 C        5.6360    -0.5260    -0.8940 C.3   1 <1>   0.1200 
 16 C        5.4350    -3.0060     0.7710 C.3   1 <1>   0.1200 
 17 C        6.8220    -1.4790    -0.7360 C.3   1 <1>  -0.1600 
 18 C        6.7690    -2.2850     0.5710 C.3   1 <1>  -0.1600 
 19 H       -0.9610     0.6690     0.3500 H     1 <1>   0.0800 
 20 H       -1.2380     0.4040     2.0590 H     1 <1>   0.0800 
 21 H        1.1290     0.7980     0.0450 H     1 <1>   0.0800 
 22 H        1.7440    -0.0920    -1.3080 H     1 <1>   0.0800 
 23 H        0.7340    -3.4820    -0.0190 H     1 <1>   0.0800 
 24 H        1.5440    -2.7220     1.3110 H     1 <1>   0.0800 
 25 H       -3.3200    -0.0240     0.9180 H     1 <1>   0.0800 
 26 H       -2.6930    -1.5360     1.4960 H     1 <1>   0.0800 
 27 H       -1.3060    -2.9720    -0.2570 H     1 <1>   0.0800 
 28 H       -1.5850    -2.6560    -1.9580 H     1 <1>   0.0800 
 29 H        2.7040    -0.4430     1.5140 H     1 <1>   0.0800 
 30 H        3.4950     0.5500     0.3360 H     1 <1>   0.0800 
 31 H        2.4600    -2.5450    -1.5420 H     1 <1>   0.0800 
 32 H        3.0940    -3.6690    -0.3860 H     1 <1>   0.0800 
 33 H       -2.6420    -0.4850    -1.3540 H     1 <1>   0.0800 
 34 H       -3.5160    -1.8580    -0.7510 H     1 <1>   0.0800 
 35 H        5.5300     0.0960    -0.0230 H     1 <1>   0.0800 
 36 H        5.7830     0.1000    -1.7570 H     1 <1>   0.0800 
 37 H        5.1880    -3.5960    -0.0950 H     1 <1>   0.0800 
 38 H        5.4920    -3.6510     1.6300 H     1 <1>   0.0800 
 39 H        7.7310    -0.9050    -0.7480 H     1 <1>   0.0800 
 40 H        6.8450    -2.1450    -1.5810 H     1 <1>   0.0800 
 41 H        7.5570    -3.0160     0.5560 H     1 <1>   0.0800 
 42 H        6.9410    -1.6380     1.4130 H     1 <1>   0.0800 
@<TRIPOS>BOND
  1   1   2  1   
  2   1   3  1   
  3   2   4  1   
  4   2   5  1   
  5   2   6  1   
  6   3   7  1   
  7   3  19  1   
  8   3  20  1   
  9   4   8  1   
 10   5   9  1   
 11   5  21  1   
 12   5  22  1   
 13   6  10  1   
 14   6  23  1   
 15   6  24  1   
 16   7  11  1   
 17   7  25  1   
 18   7  26  1   
 19   8  11  1   
 20   8  27  1   
 21   8  28  1   
 22   9  12  1   
 23   9  29  1   
 24   9  30  1   
 25  10  12  1   
 26  10  31  1   
 27  10  32  1   
 28  11  33  1   
 29  11  34  1   
 30  12  13  1   
 31  12  14  1   
 32  13  15  1   
 33  14  16  1   
 34  15  17  1   
 35  15  35  1   
 36  15  36  1   
 37  16  18  1   
 38  16  37  1   
 39  16  38  1   
 40  17  18  1   
 41  17  39  1   
 42  17  40  1   
 43  18  41  1   
 44  18  42  1   
@<TRIPOS>SUBSTRUCTURE
  1 ****  10 GROUP 4 **** **** 0

# MOE 2024.06 (io_trps.svl 2023.06)
