@<TRIPOS>MOLECULE
NONAME
35 36 1 0 0 
SMALL
USER_CHARGES


@<TRIPOS>ATOM
  1 O       -0.1860     1.3860    -1.7760 O.2   1 <1>  -0.5700 
  2 C        0.0840     1.6780    -0.6320 C.2   1 <1>   0.5690 
  3 N       -0.7520     2.1210     0.3510 N.am  1 <1>  -0.4200 
  4 C        1.4940     1.6060    -0.0310 C.3   1 <1>   0.3070 
  5 C        0.0320     2.3150     1.4700 C.2   1 <1>   0.4500 
  6 C       -2.2200     2.3800     0.3390 C.3   1 <1>   0.3000 
  7 N        1.2630     2.0600     1.3530 N.2   1 <1>  -0.6960 
  8 C        2.0460     0.1670    -0.0140 C.3   1 <1>  -0.1600 
  9 C        2.4750     2.5670    -0.7300 C.3   1 <1>  -0.1600 
 10 C       -2.4630     3.8540     0.6820 C.3   1 <1>  -0.2400 
 11 C       -2.8650     2.0890    -1.0220 C.3   1 <1>  -0.2400 
 12 C       -2.8870     1.4830     1.3890 C.3   1 <1>  -0.2400 
 13 C        3.4730     0.0860     0.5530 C.3   1 <1>  -0.1600 
 14 C        3.9010     2.4780    -0.1600 C.3   1 <1>  -0.1600 
 15 C        4.4210     1.0340    -0.1940 C.3   1 <1>  -0.1600 
 16 H       -0.4190     2.6670     2.3820 H     1 <1>   0.0600 
 17 H        2.0550    -0.2040    -1.0240 H     1 <1>   0.0800 
 18 H        1.3890    -0.4640     0.5560 H     1 <1>   0.0800 
 19 H        2.1100     3.5760    -0.6480 H     1 <1>   0.0800 
 20 H        2.5050     2.3180    -1.7760 H     1 <1>   0.0800 
 21 H       -2.1070     4.0930     1.6680 H     1 <1>   0.0800 
 22 H       -3.5150     4.0740     0.6520 H     1 <1>   0.0800 
 23 H       -1.9690     4.4880    -0.0330 H     1 <1>   0.0800 
 24 H       -2.4360     2.7120    -1.7870 H     1 <1>   0.0800 
 25 H       -3.9210     2.2880    -0.9890 H     1 <1>   0.0800 
 26 H       -2.7310     1.0570    -1.2930 H     1 <1>   0.0800 
 27 H       -2.5330     1.7060     2.3790 H     1 <1>   0.0800 
 28 H       -2.6900     0.4480     1.1720 H     1 <1>   0.0800 
 29 H       -3.9520     1.6300     1.3810 H     1 <1>   0.0800 
 30 H        3.8360    -0.9240     0.4760 H     1 <1>   0.0800 
 31 H        3.4560     0.3520     1.5960 H     1 <1>   0.0800 
 32 H        3.8990     2.8300     0.8580 H     1 <1>   0.0800 
 33 H        4.5580     3.1130    -0.7280 H     1 <1>   0.0800 
 34 H        4.5180     0.7120    -1.2170 H     1 <1>   0.0800 
 35 H        5.3970     0.9950     0.2590 H     1 <1>   0.0800 
@<TRIPOS>BOND
  1   1   2  2   
  2   2   3  am  
  3   2   4  1   
  4   3   5  1   
  5   3   6  1   
  6   4   7  1   
  7   4   8  1   
  8   4   9  1   
  9   5   7  2   
 10   5  16  1   
 11   6  10  1   
 12   6  11  1   
 13   6  12  1   
 14   8  13  1   
 15   8  17  1   
 16   8  18  1   
 17   9  14  1   
 18   9  19  1   
 19   9  20  1   
 20  10  21  1   
 21  10  22  1   
 22  10  23  1   
 23  11  24  1   
 24  11  25  1   
 25  11  26  1   
 26  12  27  1   
 27  12  28  1   
 28  12  29  1   
 29  13  15  1   
 30  13  30  1   
 31  13  31  1   
 32  14  15  1   
 33  14  32  1   
 34  14  33  1   
 35  15  34  1   
 36  15  35  1   
@<TRIPOS>SUBSTRUCTURE
  1 ****   2 GROUP 4 **** **** 0

# MOE 2024.06 (io_trps.svl 2023.06)
