@<TRIPOS>MOLECULE
NONAME
35 36 1 0 0 
SMALL
USER_CHARGES


@<TRIPOS>ATOM
  1 F       -0.7030     1.1900     1.8560 F     1 <1>  -0.3400 
  2 C        0.1950     1.2090     0.8800 C.3   1 <1>   1.1640 
  3 F        1.2700     0.5870     1.3510 F     1 <1>  -0.3400 
  4 F       -0.2860     0.4340    -0.0850 F     1 <1>  -0.3400 
  5 C        0.4890     2.6380     0.3970 C.ar  1 <1>  -0.1440 
  6 C        1.6110     3.3330     0.8330 C.ar  1 <1>  -0.1500 
  7 C       -0.3780     3.2680    -0.4890 C.ar  1 <1>  -0.1500 
  8 C        1.8980     4.6270     0.4030 C.ar  1 <1>   0.0280 
  9 C       -0.1220     4.5560    -0.9220 C.ar  1 <1>  -0.1500 
 10 C        1.0000     5.2270    -0.4780 C.ar  1 <1>  -0.1500 
 11 C        3.0850     5.2820     0.8860 C.2   1 <1>  -0.1780 
 12 C        3.9520     6.1100     0.2440 C.2   1 <1>   0.0790 
 13 C        3.8230     6.5050    -1.1220 C.1   1 <1>   0.4920 
 14 C        5.0980     6.6830     0.8970 C.2   1 <1>   0.6160 
 15 N        3.7470     6.8010    -2.2210 N.1   1 <1>  -0.5570 
 16 O        4.9320     7.2670     1.9520 O.2   1 <1>  -0.5700 
 17 N        6.3790     6.5920     0.3930 N.am  1 <1>  -0.6600 
 18 C        7.4720     7.5000     0.8550 C.3   1 <1>   0.1400 
 19 C        6.8470     5.6300    -0.6530 C.3   1 <1>   0.1400 
 20 C        8.1740     8.1470    -0.3520 C.3   1 <1>   0.1200 
 21 C        7.5570     6.3890    -1.7870 C.3   1 <1>   0.1200 
 22 O        8.5940     7.1730    -1.2670 O.3   1 <1>  -0.5600 
 23 H        2.2930     2.8660     1.5240 H     1 <1>   0.1500 
 24 H       -1.2590     2.7600    -0.8470 H     1 <1>   0.1500 
 25 H       -0.8010     5.0380    -1.6050 H     1 <1>   0.1500 
 26 H        1.1640     6.2340    -0.8190 H     1 <1>   0.1500 
 27 H        3.2990     5.0520     1.9170 H     1 <1>   0.1500 
 28 H        7.0800     8.2740     1.4920 H     1 <1>   0.0800 
 29 H        8.1890     6.9340     1.4240 H     1 <1>   0.0800 
 30 H        7.5460     4.9420    -0.2100 H     1 <1>   0.0800 
 31 H        6.0340     5.0530    -1.0540 H     1 <1>   0.0800 
 32 H        9.0440     8.6900    -0.0280 H     1 <1>   0.0800 
 33 H        7.5090     8.8280    -0.8540 H     1 <1>   0.0800 
 34 H        6.8660     7.0270    -2.3120 H     1 <1>   0.0800 
 35 H        7.9880     5.6960    -2.4870 H     1 <1>   0.0800 
@<TRIPOS>BOND
  1   1   2  1   
  2   2   3  1   
  3   2   4  1   
  4   2   5  1   
  5   5   6  ar  
  6   5   7  ar  
  7   6   8  ar  
  8   6  23  1   
  9   7   9  ar  
 10   7  24  1   
 11   8  10  ar  
 12   8  11  1   
 13   9  10  ar  
 14   9  25  1   
 15  10  26  1   
 16  11  12  2   
 17  11  27  1   
 18  12  13  1   
 19  12  14  1   
 20  13  15  3   
 21  14  16  2   
 22  14  17  am  
 23  17  18  1   
 24  17  19  1   
 25  18  20  1   
 26  18  28  1   
 27  18  29  1   
 28  19  21  1   
 29  19  30  1   
 30  19  31  1   
 31  20  22  1   
 32  20  32  1   
 33  20  33  1   
 34  21  22  1   
 35  21  34  1   
 36  21  35  1   
@<TRIPOS>SUBSTRUCTURE
  1 ****  11 GROUP 4 **** **** 0

# MOE 2024.06 (io_trps.svl 2023.06)
