@<TRIPOS>MOLECULE
NONAME
48 50 1 0 0 
SMALL
USER_CHARGES


@<TRIPOS>ATOM
  1 O       -0.5030    -0.8050    -1.1480 O.2   1 <1>  -0.5700 
  2 C       -1.2770    -1.5810    -0.6560 C.2   1 <1>   0.6590 
  3 O       -0.9650    -2.4810     0.2600 O.3   1 <1>  -0.4300 
  4 C       -2.7610    -1.7440    -0.9630 C.3   1 <1>   0.0610 
  5 C       -2.1470    -3.2100     0.6020 C.3   1 <1>   0.3410 
  6 C       -3.2400    -2.1160     0.4540 C.3   1 <1>   0.0000 
  7 C       -2.8220    -3.0800    -1.7340 C.3   1 <1>  -0.1600 
  8 C       -3.4540    -0.5700    -1.6770 C.3   1 <1>  -0.2400 
  9 C       -2.0010    -3.8560     2.0130 C.2   1 <1>   0.5690 
 10 C       -2.3850    -4.0980    -0.6540 C.3   1 <1>  -0.1600 
 11 C       -3.1220    -0.9510     1.4750 C.3   1 <1>  -0.2400 
 12 C       -4.7080    -2.6130     0.5460 C.3   1 <1>  -0.2400 
 13 O       -1.5060    -3.2080     2.9040 O.2   1 <1>  -0.5700 
 14 N       -2.3950    -5.1230     2.3400 N.am  1 <1>  -0.5470 
 15 C       -3.0770    -6.1130     1.6380 C.ar  1 <1>   0.1170 
 16 C       -4.4580    -6.0750     1.5340 C.ar  1 <1>  -0.1500 
 17 C       -2.3810    -7.1480     1.0340 C.ar  1 <1>  -0.1500 
 18 C       -5.1740    -7.0320     0.8160 C.ar  1 <1>   0.0860 
 19 C       -3.0610    -8.1190     0.3250 C.ar  1 <1>  -0.1500 
 20 C       -6.6180    -6.9440     0.7010 C.2   1 <1>   0.6340 
 21 C       -4.4390    -8.0590     0.2170 C.ar  1 <1>  -0.1500 
 22 O       -7.2560    -5.9940     1.1050 O.2   1 <1>  -0.5700 
 23 O       -7.2640    -7.9550     0.1140 O.3   1 <1>  -0.4300 
 24 C       -8.6660    -7.9500    -0.0380 C.3   1 <1>   0.1200 
 25 C       -9.0690    -9.2410    -0.7430 C.3   1 <1>  -0.2400 
 26 H       -2.1450    -3.0780    -2.5720 H     1 <1>   0.0800 
 27 H       -3.8170    -3.2860    -2.0890 H     1 <1>   0.0800 
 28 H       -3.0130    -0.4210    -2.6460 H     1 <1>   0.0800 
 29 H       -3.3330     0.3370    -1.1120 H     1 <1>   0.0800 
 30 H       -4.5040    -0.7670    -1.8010 H     1 <1>   0.0800 
 31 H       -3.1760    -4.8060    -0.5190 H     1 <1>   0.0800 
 32 H       -1.4880    -4.6280    -0.9260 H     1 <1>   0.0800 
 33 H       -2.1290    -0.5430     1.5390 H     1 <1>   0.0800 
 34 H       -3.3860    -1.2910     2.4610 H     1 <1>   0.0800 
 35 H       -3.7930    -0.1510     1.2150 H     1 <1>   0.0800 
 36 H       -4.9350    -3.4370    -0.1030 H     1 <1>   0.0800 
 37 H       -5.3830    -1.8130     0.2970 H     1 <1>   0.0800 
 38 H       -4.9290    -2.9220     1.5520 H     1 <1>   0.0800 
 39 H       -2.1550    -5.3490     3.3070 H     1 <1>   0.3700 
 40 H       -4.9950    -5.2810     2.0230 H     1 <1>   0.1500 
 41 H       -1.3080    -7.1900     1.1180 H     1 <1>   0.1500 
 42 H       -2.5180    -8.9230    -0.1450 H     1 <1>   0.1500 
 43 H       -4.9530    -8.8230    -0.3420 H     1 <1>   0.1500 
 44 H       -8.9430    -7.0870    -0.6200 H     1 <1>   0.0800 
 45 H       -9.1150    -7.8860     0.9390 H     1 <1>   0.0800 
 46 H       -8.6060    -9.2940    -1.7120 H     1 <1>   0.0800 
 47 H      -10.1360    -9.2650    -0.8720 H     1 <1>   0.0800 
 48 H       -8.7760   -10.0920    -0.1550 H     1 <1>   0.0800 
@<TRIPOS>BOND
  1   1   2  2   
  2   2   3  1   
  3   2   4  1   
  4   3   5  1   
  5   4   6  1   
  6   4   7  1   
  7   4   8  1   
  8   5   6  1   
  9   5   9  1   
 10   5  10  1   
 11   6  11  1   
 12   6  12  1   
 13   7  10  1   
 14   7  26  1   
 15   7  27  1   
 16   8  28  1   
 17   8  29  1   
 18   8  30  1   
 19   9  13  2   
 20   9  14  am  
 21  10  31  1   
 22  10  32  1   
 23  11  33  1   
 24  11  34  1   
 25  11  35  1   
 26  12  36  1   
 27  12  37  1   
 28  12  38  1   
 29  14  15  1   
 30  14  39  1   
 31  15  16  ar  
 32  15  17  ar  
 33  16  18  ar  
 34  16  40  1   
 35  17  19  ar  
 36  17  41  1   
 37  18  20  1   
 38  18  21  ar  
 39  19  21  ar  
 40  19  42  1   
 41  20  22  2   
 42  20  23  1   
 43  21  43  1   
 44  23  24  1   
 45  24  25  1   
 46  24  44  1   
 47  24  45  1   
 48  25  46  1   
 49  25  47  1   
 50  25  48  1   
@<TRIPOS>SUBSTRUCTURE
  1 ****  10 GROUP 4 **** **** 0

# MOE 2024.06 (io_trps.svl 2023.06)
