@<TRIPOS>MOLECULE
NONAME
53 55 1 0 0 
SMALL
USER_CHARGES


@<TRIPOS>ATOM
  1 S       -0.2040     0.0710     1.7680 S.o2  1 <1>   1.4470 
  2 O        0.4410    -0.9910     2.5120 O.2   1 <1>  -0.6500 
  3 O       -0.9520     1.0800     2.4860 O.2   1 <1>  -0.6500 
  4 N        1.0330     0.8710     0.9250 N.am  1 <1>  -0.8490 
  5 C       -1.2360    -0.6190     0.4450 C.ar  1 <1>  -0.0090 
  6 C        1.9320    -0.0700     0.2500 C.3   1 <1>   0.1960 
  7 C        1.7630     1.7880     1.8020 C.3   1 <1>   0.1960 
  8 C       -1.6210    -1.9550     0.4520 C.ar  1 <1>  -0.1500 
  9 C       -1.6690     0.1740    -0.6110 C.ar  1 <1>  -0.1500 
 10 C        2.9430     0.6880    -0.6120 C.3   1 <1>  -0.1600 
 11 C        2.7810     2.6010     0.9970 C.3   1 <1>  -0.1600 
 12 C       -2.4030    -2.4810    -0.5620 C.ar  1 <1>  -0.1500 
 13 C       -2.4510    -0.3460    -1.6270 C.ar  1 <1>  -0.1500 
 14 C        3.7520     1.6890     0.2310 C.3   1 <1>  -0.0190 
 15 C       -2.8210    -1.6790    -1.6090 C.ar  1 <1>  -0.1440 
 16 C        4.7260     2.5000    -0.6240 C.2   1 <1>   0.5690 
 17 C       -3.6800    -2.2520    -2.7220 C.3   1 <1>  -0.0970 
 18 O        4.2950     3.1280    -1.5600 O.2   1 <1>  -0.5700 
 19 N        6.0510     2.4630    -0.2830 N.am  1 <1>  -0.5470 
 20 C        7.1700     3.1060    -0.8420 C.ar  1 <1>   0.1170 
 21 C        8.4410     2.5290    -0.7250 C.ar  1 <1>  -0.1440 
 22 C        7.0400     4.3310    -1.4920 C.ar  1 <1>  -0.1500 
 23 C        9.5380     3.1970    -1.2580 C.ar  1 <1>  -0.1500 
 24 C        8.5940     1.1750    -0.0170 C.3   1 <1>  -0.0170 
 25 C        8.1380     4.9800    -2.0210 C.ar  1 <1>  -0.1500 
 26 C        9.3900     4.4120    -1.9020 C.ar  1 <1>  -0.1500 
 27 C        9.9880     0.5370    -0.0740 C.3   1 <1>  -0.2400 
 28 H        1.3620    -0.7290    -0.3830 H     1 <1>   0.0800 
 29 H        2.4510    -0.6710     0.9800 H     1 <1>   0.0800 
 30 H        2.2600     1.2310     2.5800 H     1 <1>   0.0800 
 31 H        1.0730     2.4720     2.2690 H     1 <1>   0.0800 
 32 H       -1.3050    -2.5920     1.2610 H     1 <1>   0.1500 
 33 H       -1.3870     1.2140    -0.6350 H     1 <1>   0.1500 
 34 H        2.4120     1.2090    -1.3910 H     1 <1>   0.0800 
 35 H        3.6090    -0.0130    -1.0840 H     1 <1>   0.0800 
 36 H        3.3310     3.2430     1.6620 H     1 <1>   0.0800 
 37 H        2.2480     3.2300     0.3040 H     1 <1>   0.0800 
 38 H       -2.6870    -3.5190    -0.5290 H     1 <1>   0.1500 
 39 H       -2.7710     0.2940    -2.4320 H     1 <1>   0.1500 
 40 H        4.3180     1.1290     0.9520 H     1 <1>   0.0800 
 41 H       -3.4800    -1.7470    -3.6500 H     1 <1>   0.0800 
 42 H       -4.7200    -2.1310    -2.4770 H     1 <1>   0.0800 
 43 H       -3.4750    -3.2990    -2.8560 H     1 <1>   0.0800 
 44 H        6.2850     1.8360     0.4810 H     1 <1>   0.3700 
 45 H        6.0740     4.7900    -1.5860 H     1 <1>   0.1500 
 46 H       10.5300     2.7920    -1.1880 H     1 <1>   0.1500 
 47 H        7.9020     0.4810    -0.4610 H     1 <1>   0.0800 
 48 H        8.3240     1.2970     1.0170 H     1 <1>   0.0800 
 49 H        8.0160     5.9240    -2.5220 H     1 <1>   0.1500 
 50 H       10.2500     4.9140    -2.3110 H     1 <1>   0.1500 
 51 H       10.2940     0.3960    -1.0960 H     1 <1>   0.0800 
 52 H        9.9710    -0.4230     0.4090 H     1 <1>   0.0800 
 53 H       10.7080     1.1560     0.4310 H     1 <1>   0.0800 
@<TRIPOS>BOND
  1   1   2  2   
  2   1   3  2   
  3   1   4  am  
  4   1   5  1   
  5   4   6  1   
  6   4   7  1   
  7   5   8  ar  
  8   5   9  ar  
  9   6  10  1   
 10   6  28  1   
 11   6  29  1   
 12   7  11  1   
 13   7  30  1   
 14   7  31  1   
 15   8  12  ar  
 16   8  32  1   
 17   9  13  ar  
 18   9  33  1   
 19  10  14  1   
 20  10  34  1   
 21  10  35  1   
 22  11  14  1   
 23  11  36  1   
 24  11  37  1   
 25  12  15  ar  
 26  12  38  1   
 27  13  15  ar  
 28  13  39  1   
 29  14  16  1   
 30  14  40  1   
 31  15  17  1   
 32  16  18  2   
 33  16  19  am  
 34  17  41  1   
 35  17  42  1   
 36  17  43  1   
 37  19  20  1   
 38  19  44  1   
 39  20  21  ar  
 40  20  22  ar  
 41  21  23  ar  
 42  21  24  1   
 43  22  25  ar  
 44  22  45  1   
 45  23  26  ar  
 46  23  46  1   
 47  24  27  1   
 48  24  47  1   
 49  24  48  1   
 50  25  26  ar  
 51  25  49  1   
 52  26  50  1   
 53  27  51  1   
 54  27  52  1   
 55  27  53  1   
@<TRIPOS>SUBSTRUCTURE
  1 ****  10 GROUP 4 **** **** 0

# MOE 2024.06 (io_trps.svl 2023.06)
