@<TRIPOS>MOLECULE
NONAME
42 44 1 0 0 
SMALL
USER_CHARGES


@<TRIPOS>ATOM
  1 CL      -0.9110    -1.7780     2.3110 Cl    1 <1>  -0.1770 
  2 C        0.2590    -2.6930     1.3870 C.ar  1 <1>   0.1770 
  3 C       -0.0910    -3.3820     0.2210 C.ar  1 <1>   0.0860 
  4 C        1.5540    -2.6860     1.8720 C.ar  1 <1>  -0.1500 
  5 C       -1.4320    -3.4380    -0.3360 C.2   1 <1>   0.5440 
  6 C        0.9450    -4.0520    -0.4370 C.ar  1 <1>  -0.1500 
  7 C        2.5510    -3.3660     1.2000 C.ar  1 <1>  -0.1500 
  8 O       -1.5760    -3.5700    -1.5350 O.2   1 <1>  -0.5700 
  9 N       -2.5520    -3.3850     0.4450 N.am  1 <1>  -0.7300 
 10 C        2.2550    -4.0560     0.0300 C.ar  1 <1>  -0.0230 
 11 C       -3.9530    -3.4370    -0.0410 C.3   1 <1>   0.1400 
 12 N        3.2740    -4.7540    -0.6740 N.pl3 1 <1>   0.3260 
 13 C       -4.7490    -4.4650     0.7670 C.3   1 <1>  -0.0220 
 14 C        3.2480    -5.9810    -1.2110 C.2   1 <1>   0.0360 
 15 C        4.5240    -4.3650    -0.9600 C.2   1 <1>   0.0360 
 16 C       -6.2280    -4.5500     0.3870 C.2   1 <1>  -0.2760 
 17 N        4.3670    -6.3040    -1.7600 N.2   1 <1>  -0.3380 
 18 N        5.1880    -5.2650    -1.5990 N.2   1 <1>  -0.3380 
 19 C       -6.8240    -3.8480    -0.5850 C.2   1 <1>  -0.2880 
 20 C       -6.9950    -5.5460     1.2540 C.3   1 <1>  -0.0220 
 21 C       -8.3040    -3.9300    -0.9250 C.3   1 <1>  -0.0220 
 22 C       -8.3680    -5.8940     0.6610 C.3   1 <1>  -0.1600 
 23 C       -9.0980    -4.6340     0.1830 C.3   1 <1>  -0.1600 
 24 H        1.7780    -2.1450     2.7760 H     1 <1>   0.1500 
 25 H        0.7100    -4.5790    -1.3480 H     1 <1>   0.1500 
 26 H        3.5560    -3.3580     1.5910 H     1 <1>   0.1500 
 27 H       -2.4480    -3.1430     1.4340 H     1 <1>   0.3700 
 28 H       -3.9750    -3.7070    -1.0840 H     1 <1>   0.0800 
 29 H       -4.3990    -2.4630     0.0680 H     1 <1>   0.0800 
 30 H       -4.6810    -4.2090     1.8090 H     1 <1>   0.0800 
 31 H       -4.2990    -5.4310     0.6220 H     1 <1>   0.0800 
 32 H        2.3800    -6.6110    -1.1710 H     1 <1>   0.1500 
 33 H        4.9080    -3.4030    -0.6800 H     1 <1>   0.1500 
 34 H       -6.3090    -3.1550    -1.2280 H     1 <1>   0.1500 
 35 H       -7.1250    -5.1220     2.2340 H     1 <1>   0.0800 
 36 H       -6.4300    -6.4550     1.3570 H     1 <1>   0.0800 
 37 H       -8.4150    -4.4670    -1.8510 H     1 <1>   0.0800 
 38 H       -8.6980    -2.9380    -1.0640 H     1 <1>   0.0800 
 39 H       -8.9600    -6.4060     1.3990 H     1 <1>   0.0800 
 40 H       -8.2310    -6.5580    -0.1750 H     1 <1>   0.0800 
 41 H      -10.0780    -4.8890    -0.1820 H     1 <1>   0.0800 
 42 H       -9.2150    -3.9600     1.0140 H     1 <1>   0.0800 
@<TRIPOS>BOND
  1   1   2  1   
  2   2   3  ar  
  3   2   4  ar  
  4   3   5  1   
  5   3   6  ar  
  6   4   7  ar  
  7   4  24  1   
  8   5   8  2   
  9   5   9  am  
 10   6  10  ar  
 11   6  25  1   
 12   7  10  ar  
 13   7  26  1   
 14   9  11  1   
 15   9  27  1   
 16  10  12  1   
 17  11  13  1   
 18  11  28  1   
 19  11  29  1   
 20  12  14  1   
 21  12  15  1   
 22  13  16  1   
 23  13  30  1   
 24  13  31  1   
 25  14  17  2   
 26  14  32  1   
 27  15  18  2   
 28  15  33  1   
 29  16  19  2   
 30  16  20  1   
 31  17  18  1   
 32  19  21  1   
 33  19  34  1   
 34  20  22  1   
 35  20  35  1   
 36  20  36  1   
 37  21  23  1   
 38  21  37  1   
 39  21  38  1   
 40  22  23  1   
 41  22  39  1   
 42  22  40  1   
 43  23  41  1   
 44  23  42  1   
@<TRIPOS>SUBSTRUCTURE
  1 ****   5 GROUP 4 **** **** 0

# MOE 2024.06 (io_trps.svl 2023.06)
