@<TRIPOS>MOLECULE
NONAME
38 39 1 0 0 
SMALL
USER_CHARGES


@<TRIPOS>ATOM
  1 O        0.7030     0.0860    -1.1880 O.3   1 <1>  -0.6800 
  2 C        1.8610     0.7250    -0.7670 C.3   1 <1>   0.1200 
  3 C        1.6030     2.2500    -0.6530 C.3   1 <1>   0.4230 
  4 N        2.8430     3.0290    -0.3050 N.4   1 <1>  -0.9590 
  5 C        0.5220     2.5340     0.4070 C.3   1 <1>  -0.1600 
  6 C        2.5820     4.4990    -0.2170 C.3   1 <1>   0.3430 
  7 C        3.9950     2.7740    -1.2190 C.3   1 <1>   0.4860 
  8 C        0.2350     4.0290     0.5790 C.3   1 <1>  -0.1600 
  9 C        1.5360     4.7870     0.8560 C.3   1 <1>  -0.1600 
 10 C        5.2410     3.3920    -0.6140 C.ar  1 <1>  -0.1430 
 11 C        5.8850     2.8260     0.4850 C.ar  1 <1>  -0.1430 
 12 C        5.7390     4.5600    -1.1780 C.ar  1 <1>  -0.1500 
 13 C        7.0030     3.4560     1.0110 C.ar  1 <1>  -0.1500 
 14 C        5.4240     1.5290     1.1390 C.3   1 <1>  -0.0970 
 15 C        6.8560     5.1750    -0.6460 C.ar  1 <1>  -0.1500 
 16 C        7.4860     4.6240     0.4520 C.ar  1 <1>  -0.1500 
 17 H        0.8160    -0.8880    -1.2360 H     1 <1>   0.4000 
 18 H        2.6170     0.5050    -1.4980 H     1 <1>   0.0800 
 19 H        2.1380     0.3120     0.1880 H     1 <1>   0.0800 
 20 H        1.2420     2.5920    -1.6090 H     1 <1>   0.0800 
 21 H        3.1510     2.7440     0.6300 H     1 <1>   0.4500 
 22 H        0.8200     2.1110     1.3500 H     1 <1>   0.0800 
 23 H       -0.3940     2.0460     0.1190 H     1 <1>   0.0800 
 24 H        2.2320     4.8660    -1.1690 H     1 <1>   0.0800 
 25 H        3.4910     5.0240     0.0340 H     1 <1>   0.0800 
 26 H        3.8030     3.2020    -2.1900 H     1 <1>   0.0800 
 27 H        4.1630     1.7190    -1.3400 H     1 <1>   0.0800 
 28 H       -0.4570     4.1780     1.3920 H     1 <1>   0.0800 
 29 H       -0.2250     4.4130    -0.3170 H     1 <1>   0.0800 
 30 H        1.3340     5.8440     0.8750 H     1 <1>   0.0800 
 31 H        1.9260     4.5160     1.8220 H     1 <1>   0.0800 
 32 H        5.2690     5.0070    -2.0380 H     1 <1>   0.1500 
 33 H        7.5150     3.0410     1.8630 H     1 <1>   0.1500 
 34 H        5.1480     0.7980     0.4010 H     1 <1>   0.0800 
 35 H        4.5930     1.7130     1.7960 H     1 <1>   0.0800 
 36 H        6.2190     1.1040     1.7270 H     1 <1>   0.0800 
 37 H        7.2400     6.0810    -1.0850 H     1 <1>   0.1500 
 38 H        8.3570     5.1020     0.8710 H     1 <1>   0.1500 
@<TRIPOS>BOND
  1   1   2  1   
  2   1  17  1   
  3   2   3  1   
  4   2  18  1   
  5   2  19  1   
  6   3   4  1   
  7   3   5  1   
  8   3  20  1   
  9   4   6  1   
 10   4   7  1   
 11   4  21  1   
 12   5   8  1   
 13   5  22  1   
 14   5  23  1   
 15   6   9  1   
 16   6  24  1   
 17   6  25  1   
 18   7  10  1   
 19   7  26  1   
 20   7  27  1   
 21   8   9  1   
 22   8  28  1   
 23   8  29  1   
 24   9  30  1   
 25   9  31  1   
 26  10  11  ar  
 27  10  12  ar  
 28  11  13  ar  
 29  11  14  1   
 30  12  15  ar  
 31  12  32  1   
 32  13  16  ar  
 33  13  33  1   
 34  14  34  1   
 35  14  35  1   
 36  14  36  1   
 37  15  16  ar  
 38  15  37  1   
 39  16  38  1   
@<TRIPOS>SUBSTRUCTURE
  1 ****   4 GROUP 4 **** **** 0

# MOE 2024.06 (io_trps.svl 2023.06)
