@<TRIPOS>MOLECULE
NONAME
42 42 1 0 0 
SMALL
USER_CHARGES


@<TRIPOS>ATOM
  1 O       -1.1990    -0.8150     0.7080 O.2   1 <1>  -0.5700 
  2 C       -0.8250    -1.9030     0.3270 C.2   1 <1>   0.7800 
  3 O        0.2960    -2.3990     0.8370 O.3   1 <1>  -0.4300 
  4 N       -1.5580    -2.6540    -0.5600 N.am  1 <1>  -0.6600 
  5 C        1.3580    -2.7450    -0.0210 C.3   1 <1>   0.1200 
  6 C       -1.6930    -4.1180    -0.4010 C.3   1 <1>   0.1400 
  7 C       -2.6230    -2.0160    -1.3650 C.3   1 <1>   0.1400 
  8 C        2.4460    -3.4030     0.8210 C.3   1 <1>  -0.2400 
  9 C       -3.0090    -4.3910     0.3310 C.3   1 <1>  -0.1600 
 10 C       -3.9590    -2.2390    -0.6550 C.3   1 <1>  -0.1600 
 11 C       -4.1990    -3.7280    -0.3740 C.3   1 <1>   0.4230 
 12 N       -5.3860    -3.9000     0.4930 N.4   1 <1>  -0.9060 
 13 C       -6.6770    -3.5510    -0.1480 C.3   1 <1>   0.4230 
 14 C       -7.2320    -2.2100     0.3730 C.3   1 <1>   0.1200 
 15 C       -7.6370    -4.7040     0.1300 C.3   1 <1>  -0.2400 
 16 O       -8.3150    -1.8530    -0.4210 O.3   1 <1>  -0.5600 
 17 C       -8.9480    -0.6710    -0.0390 C.3   1 <1>   0.0400 
 18 H        1.7240    -1.8430    -0.4820 H     1 <1>   0.0800 
 19 H        1.0020    -3.4200    -0.7800 H     1 <1>   0.0800 
 20 H       -0.8710    -4.5160     0.1720 H     1 <1>   0.0800 
 21 H       -1.6850    -4.5870    -1.3710 H     1 <1>   0.0800 
 22 H       -2.6340    -2.4500    -2.3510 H     1 <1>   0.0800 
 23 H       -2.4290    -0.9600    -1.4670 H     1 <1>   0.0800 
 24 H        2.7900    -2.7200     1.5780 H     1 <1>   0.0800 
 25 H        3.2800    -3.6690     0.1960 H     1 <1>   0.0800 
 26 H        2.0690    -4.2950     1.2880 H     1 <1>   0.0800 
 27 H       -2.9110    -4.0120     1.3340 H     1 <1>   0.0800 
 28 H       -3.1560    -5.4550     0.3820 H     1 <1>   0.0800 
 29 H       -4.7360    -1.8420    -1.2830 H     1 <1>   0.0800 
 30 H       -3.9390    -1.6790     0.2650 H     1 <1>   0.0800 
 31 H       -4.3600    -4.2340    -1.3140 H     1 <1>   0.0800 
 32 H       -5.2580    -3.3520     1.3510 H     1 <1>   0.4500 
 33 H       -5.4420    -4.8830     0.7800 H     1 <1>   0.4500 
 34 H       -6.5360    -3.4630    -1.2130 H     1 <1>   0.0800 
 35 H       -6.4980    -1.4280     0.2960 H     1 <1>   0.0800 
 36 H       -7.5720    -2.3030     1.3910 H     1 <1>   0.0800 
 37 H       -7.8170    -4.8200     1.1840 H     1 <1>   0.0800 
 38 H       -7.2630    -5.6250    -0.2820 H     1 <1>   0.0800 
 39 H       -8.5830    -4.5000    -0.3440 H     1 <1>   0.0800 
 40 H       -8.2470     0.1450    -0.0870 H     1 <1>   0.0800 
 41 H       -9.3400    -0.7780     0.9580 H     1 <1>   0.0800 
 42 H       -9.7580    -0.4880    -0.7250 H     1 <1>   0.0800 
@<TRIPOS>BOND
  1   1   2  2   
  2   2   3  1   
  3   2   4  am  
  4   3   5  1   
  5   4   6  1   
  6   4   7  1   
  7   5   8  1   
  8   5  18  1   
  9   5  19  1   
 10   6   9  1   
 11   6  20  1   
 12   6  21  1   
 13   7  10  1   
 14   7  22  1   
 15   7  23  1   
 16   8  24  1   
 17   8  25  1   
 18   8  26  1   
 19   9  11  1   
 20   9  27  1   
 21   9  28  1   
 22  10  11  1   
 23  10  29  1   
 24  10  30  1   
 25  11  12  1   
 26  11  31  1   
 27  12  13  1   
 28  12  32  1   
 29  12  33  1   
 30  13  14  1   
 31  13  15  1   
 32  13  34  1   
 33  14  16  1   
 34  14  35  1   
 35  14  36  1   
 36  15  37  1   
 37  15  38  1   
 38  15  39  1   
 39  16  17  1   
 40  17  40  1   
 41  17  41  1   
 42  17  42  1   
@<TRIPOS>SUBSTRUCTURE
  1 ****  10 GROUP 4 **** **** 0

# MOE 2024.06 (io_trps.svl 2023.06)
