@<TRIPOS>MOLECULE
NONAME
33 33 1 0 0 
SMALL
USER_CHARGES


@<TRIPOS>ATOM
  1 S        0.0680    -0.2590    -0.7870 S.o2  1 <1>   1.4470 
  2 O        0.5190    -0.1750    -2.1580 O.2   1 <1>  -0.6500 
  3 O       -0.0600    -1.5450    -0.1420 O.2   1 <1>  -0.6500 
  4 N        1.2000     0.5410     0.1560 N.am  1 <1>  -0.9140 
  5 C       -1.4390     0.7220    -0.5560 C.ar  1 <1>  -0.0090 
  6 C        2.5640     0.2130    -0.2090 C.3   1 <1>   0.1960 
  7 C       -1.4470     2.0870    -0.8160 C.ar  1 <1>  -0.1500 
  8 C       -2.6210     0.1380    -0.1180 C.ar  1 <1>  -0.1500 
  9 C        3.5100     0.8730     0.7930 C.3   1 <1>  -0.1600 
 10 C       -2.5870     2.8560    -0.6450 C.ar  1 <1>  -0.1430 
 11 C       -3.7700     0.8890     0.0590 C.ar  1 <1>  -0.1500 
 12 C        4.9760     0.5750     0.4570 C.3   1 <1>  -0.2400 
 13 C       -3.7610     2.2550    -0.2030 C.ar  1 <1>   0.0830 
 14 C       -2.5440     4.3480    -0.9420 C.3   1 <1>  -0.0970 
 15 O       -4.8550     3.0440    -0.0460 O.3   1 <1>  -0.3630 
 16 C       -6.0930     2.5240     0.3850 C.3   1 <1>   0.0400 
 17 H        1.0440     0.1580     1.0850 H     1 <1>   0.4200 
 18 H        2.7720     0.5780    -1.2020 H     1 <1>   0.0800 
 19 H        2.7020    -0.8570    -0.2000 H     1 <1>   0.0800 
 20 H       -0.5360     2.5490    -1.1590 H     1 <1>   0.1500 
 21 H       -2.6440    -0.9190     0.0870 H     1 <1>   0.1500 
 22 H        3.2970     0.5110     1.7840 H     1 <1>   0.0800 
 23 H        3.3550     1.9380     0.7750 H     1 <1>   0.0800 
 24 H       -4.6590     0.3920     0.3990 H     1 <1>   0.1500 
 25 H        5.1620    -0.4850     0.4840 H     1 <1>   0.0800 
 26 H        5.6210     1.0530     1.1730 H     1 <1>   0.0800 
 27 H        5.2210     0.9450    -0.5230 H     1 <1>   0.0800 
 28 H       -1.5690     4.6530    -1.2770 H     1 <1>   0.0800 
 29 H       -2.7910     4.9030    -0.0550 H     1 <1>   0.0800 
 30 H       -3.2600     4.5860    -1.7070 H     1 <1>   0.0800 
 31 H       -6.7990     3.3340     0.4250 H     1 <1>   0.0800 
 32 H       -5.9700     2.0970     1.3640 H     1 <1>   0.0800 
 33 H       -6.4260     1.7850    -0.3220 H     1 <1>   0.0800 
@<TRIPOS>BOND
  1   1   2  2   
  2   1   3  2   
  3   1   4  am  
  4   1   5  1   
  5   4   6  1   
  6   4  17  1   
  7   5   7  ar  
  8   5   8  ar  
  9   6   9  1   
 10   6  18  1   
 11   6  19  1   
 12   7  10  ar  
 13   7  20  1   
 14   8  11  ar  
 15   8  21  1   
 16   9  12  1   
 17   9  22  1   
 18   9  23  1   
 19  10  13  ar  
 20  10  14  1   
 21  11  13  ar  
 22  11  24  1   
 23  12  25  1   
 24  12  26  1   
 25  12  27  1   
 26  13  15  1   
 27  14  28  1   
 28  14  29  1   
 29  14  30  1   
 30  15  16  1   
 31  16  31  1   
 32  16  32  1   
 33  16  33  1   
@<TRIPOS>SUBSTRUCTURE
  1 ****   5 GROUP 4 **** **** 0

# MOE 2024.06 (io_trps.svl 2023.06)
