@<TRIPOS>MOLECULE
NONAME
60 63 1 0 0 
SMALL
USER_CHARGES


@<TRIPOS>ATOM
  1 N      -15.4460     3.5710     0.2000 N.pl3 1 <1>  -0.7030 
  2 C      -14.4790     4.4960     0.1650 C.cat 1 <1>   1.0690 
  3 C      -16.5870     4.2030     0.6720 C.ar  1 <1>   0.3040 
  4 N      -14.9160     5.6740     0.5810 N.pl3 1 <1>  -0.6320 
  5 N      -13.1850     4.5320    -0.1950 N.pl3 1 <1>  -0.5710 
  6 C      -16.2590     5.5290     0.9150 C.ar  1 <1>   0.3040 
  7 C      -17.8750     3.7380     0.9080 C.ar  1 <1>  -0.1150 
  8 C      -13.8600     6.5490     0.4710 C.2   1 <1>   0.2240 
  9 C      -12.7880     5.8740    -0.0070 C.2   1 <1>   0.1590 
 10 C      -12.4590     3.3670    -0.7760 C.3   1 <1>   0.1620 
 11 C      -17.2030     6.4240     1.3980 C.ar  1 <1>  -0.1150 
 12 C      -18.8180     4.6270     1.3900 C.ar  1 <1>  -0.1560 
 13 C      -11.4050     6.5300    -0.2580 C.3   1 <1>   0.1320 
 14 C      -11.5310     2.7170     0.2610 C.3   1 <1>  -0.1660 
 15 C      -18.4850     5.9610     1.6330 C.ar  1 <1>  -0.1560 
 16 C      -10.5900     5.8840    -1.3910 C.3   1 <1>  -0.2450 
 17 C      -11.5920     8.0100    -0.6470 C.3   1 <1>  -0.2450 
 18 C      -10.5790     6.4960     1.0370 C.3   1 <1>  -0.2450 
 19 C      -10.6600     1.6340    -0.3810 C.3   1 <1>   0.3380 
 20 N       -9.7290     1.0800     0.6320 N.4   1 <1>  -0.9080 
 21 C       -8.8410     0.0260     0.1050 C.3   1 <1>   0.4190 
 22 C       -8.1850    -0.6770     1.2960 C.3   1 <1>  -0.1660 
 23 C       -7.7860     0.6430    -0.8240 C.3   1 <1>  -0.1660 
 24 C       -7.1850    -1.7430     0.8250 C.3   1 <1>  -0.1660 
 25 C       -6.7820    -0.4170    -1.2970 C.3   1 <1>  -0.1660 
 26 C       -6.1320    -1.1370    -0.1090 C.3   1 <1>  -0.1660 
 27 H      -15.3840     2.6010    -0.0970 H     1 <1>   0.4460 
 28 H      -18.1310     2.7090     0.7200 H     1 <1>   0.1440 
 29 H      -13.9600     7.5870     0.7460 H     1 <1>   0.1440 
 30 H      -11.9110     3.6800    -1.6460 H     1 <1>   0.0740 
 31 H      -13.1740     2.6360    -1.1150 H     1 <1>   0.0740 
 32 H      -16.9390     7.4500     1.5830 H     1 <1>   0.1440 
 33 H      -19.8260     4.2940     1.5830 H     1 <1>   0.1440 
 34 H      -12.1260     2.2840     1.0460 H     1 <1>   0.0740 
 35 H      -10.8880     3.4660     0.6800 H     1 <1>   0.0740 
 36 H      -19.2410     6.6330     2.0090 H     1 <1>   0.1440 
 37 H      -11.1850     5.7970    -2.2830 H     1 <1>   0.0740 
 38 H      -10.2160     4.9210    -1.1070 H     1 <1>   0.0740 
 39 H       -9.7320     6.4890    -1.6280 H     1 <1>   0.0740 
 40 H      -10.6440     8.4680    -0.8700 H     1 <1>   0.0740 
 41 H      -12.0340     8.5800     0.1500 H     1 <1>   0.0740 
 42 H      -12.2140     8.0970    -1.5220 H     1 <1>   0.0740 
 43 H       -9.6280     6.9780     0.8880 H     1 <1>   0.0740 
 44 H      -10.3950     5.4920     1.3630 H     1 <1>   0.0740 
 45 H      -11.0920     7.0150     1.8280 H     1 <1>   0.0740 
 46 H      -10.0960     2.0620    -1.1950 H     1 <1>   0.0740 
 47 H      -11.2810     0.8460    -0.7760 H     1 <1>   0.0740 
 48 H      -10.2500     0.6790     1.4200 H     1 <1>   0.4460 
 49 H       -9.1270     1.8170     1.0180 H     1 <1>   0.4460 
 50 H       -9.4180    -0.7000    -0.4470 H     1 <1>   0.0740 
 51 H       -8.9340    -1.1570     1.9010 H     1 <1>   0.0740 
 52 H       -7.6560     0.0380     1.9030 H     1 <1>   0.0740 
 53 H       -7.2450     1.4150    -0.3040 H     1 <1>   0.0740 
 54 H       -8.2510     1.0720    -1.6930 H     1 <1>   0.0740 
 55 H       -7.7090    -2.5300     0.3080 H     1 <1>   0.0740 
 56 H       -6.6950    -2.1840     1.6780 H     1 <1>   0.0740 
 57 H       -6.0160     0.0500    -1.8940 H     1 <1>   0.0740 
 58 H       -7.2830    -1.1410    -1.9190 H     1 <1>   0.0740 
 59 H       -5.4840    -1.9170    -0.4740 H     1 <1>   0.0740 
 60 H       -5.5210    -0.4410     0.4410 H     1 <1>   0.0740 
@<TRIPOS>BOND
  1   1   2  ar  
  2   1   3  1   
  3   1  27  1   
  4   2   4  ar  
  5   2   5  ar  
  6   3   6  ar  
  7   3   7  ar  
  8   4   6  1   
  9   4   8  1   
 10   5   9  1   
 11   5  10  1   
 12   6  11  ar  
 13   7  12  ar  
 14   7  28  1   
 15   8   9  2   
 16   8  29  1   
 17   9  13  1   
 18  10  14  1   
 19  10  30  1   
 20  10  31  1   
 21  11  15  ar  
 22  11  32  1   
 23  12  15  ar  
 24  12  33  1   
 25  13  16  1   
 26  13  17  1   
 27  13  18  1   
 28  14  19  1   
 29  14  34  1   
 30  14  35  1   
 31  15  36  1   
 32  16  37  1   
 33  16  38  1   
 34  16  39  1   
 35  17  40  1   
 36  17  41  1   
 37  17  42  1   
 38  18  43  1   
 39  18  44  1   
 40  18  45  1   
 41  19  20  1   
 42  19  46  1   
 43  19  47  1   
 44  20  21  1   
 45  20  48  1   
 46  20  49  1   
 47  21  22  1   
 48  21  23  1   
 49  21  50  1   
 50  22  24  1   
 51  22  51  1   
 52  22  52  1   
 53  23  25  1   
 54  23  53  1   
 55  23  54  1   
 56  24  26  1   
 57  24  55  1   
 58  24  56  1   
 59  25  26  1   
 60  25  57  1   
 61  25  58  1   
 62  26  59  1   
 63  26  60  1   
@<TRIPOS>SUBSTRUCTURE
  1 ****  10 GROUP 4 **** **** 0

# MOE 2024.06 (io_trps.svl 2023.06)
