@<TRIPOS>MOLECULE
NONAME
51 53 1 0 0 
SMALL
USER_CHARGES


@<TRIPOS>ATOM
  1 S       -0.4070     0.0730     1.0340 S.3   1 <1>  -0.3320 
  2 C       -1.8200    -0.7550     0.2890 C.ar  1 <1>   0.1020 
  3 C       -0.0700    -0.7720     2.6420 C.3   1 <1>  -0.0100 
  4 C       -2.5000    -1.7790     0.9270 C.ar  1 <1>  -0.1500 
  5 C       -2.2060    -0.3250    -0.9660 C.ar  1 <1>  -0.1500 
  6 C       -3.5850    -2.3680     0.3000 C.ar  1 <1>  -0.1500 
  7 C       -3.2890    -0.9160    -1.5910 C.ar  1 <1>  -0.1500 
  8 C       -3.9910    -1.9320    -0.9560 C.ar  1 <1>  -0.1430 
  9 C       -5.2010    -2.5520    -1.6260 C.3   1 <1>   0.4860 
 10 N       -6.4270    -2.0230    -0.9480 N.4   1 <1>  -0.9590 
 11 C       -7.6410    -2.7680    -1.3840 C.3   1 <1>   0.3430 
 12 C       -6.5370    -0.5420    -1.1240 C.3   1 <1>   0.3430 
 13 C       -8.8670    -2.2550    -0.6260 C.3   1 <1>  -0.1600 
 14 C       -7.7530    -0.0130    -0.3630 C.3   1 <1>  -0.1600 
 15 C       -9.0270    -0.7430    -0.8090 C.3   1 <1>   0.4230 
 16 N      -10.2480    -0.2560    -0.0970 N.4   1 <1>  -0.9590 
 17 C      -10.6570     1.1090    -0.5620 C.3   1 <1>   0.3430 
 18 C      -10.1950    -0.3090     1.4030 C.3   1 <1>   0.3430 
 19 C      -12.0500     1.4420    -0.0280 C.3   1 <1>  -0.1600 
 20 C      -11.5790    -0.0070     1.9790 C.3   1 <1>  -0.1600 
 21 C      -12.1110     1.3490     1.5010 C.3   1 <1>  -0.1600 
 22 H        0.7940    -0.3030     3.0780 H     1 <1>   0.0800 
 23 H        0.1230    -1.8100     2.4380 H     1 <1>   0.0800 
 24 H       -0.9300    -0.6450     3.2730 H     1 <1>   0.0800 
 25 H       -2.1960    -2.1210     1.8980 H     1 <1>   0.1500 
 26 H       -1.6530     0.4660    -1.4450 H     1 <1>   0.1500 
 27 H       -4.0960    -3.1700     0.8060 H     1 <1>   0.1500 
 28 H       -3.5660    -0.5700    -2.5730 H     1 <1>   0.1500 
 29 H       -5.1490    -3.6240    -1.5270 H     1 <1>   0.0800 
 30 H       -5.2100    -2.3050    -2.6750 H     1 <1>   0.0800 
 31 H       -6.2560    -2.2010     0.0520 H     1 <1>   0.4500 
 32 H       -7.5150    -3.8230    -1.1930 H     1 <1>   0.0800 
 33 H       -7.7880    -2.6370    -2.4460 H     1 <1>   0.0800 
 34 H       -6.6280    -0.3040    -2.1720 H     1 <1>   0.0800 
 35 H       -5.6470    -0.0590    -0.7490 H     1 <1>   0.0800 
 36 H       -8.7600    -2.5140     0.4120 H     1 <1>   0.0800 
 37 H       -9.7360    -2.7600    -1.0110 H     1 <1>   0.0800 
 38 H       -7.8390     1.0390    -0.5650 H     1 <1>   0.0800 
 39 H       -7.5750    -0.1410     0.6890 H     1 <1>   0.0800 
 40 H       -9.1630    -0.5570    -1.8640 H     1 <1>   0.0800 
 41 H      -11.0320    -0.8680    -0.3630 H     1 <1>   0.4500 
 42 H      -10.6740     1.1470    -1.6400 H     1 <1>   0.0800 
 43 H       -9.9540     1.8460    -0.2060 H     1 <1>   0.0800 
 44 H       -9.4920     0.4200     1.7730 H     1 <1>   0.0800 
 45 H       -9.8830    -1.2850     1.7360 H     1 <1>   0.0800 
 46 H      -12.7740     0.7760    -0.4660 H     1 <1>   0.0800 
 47 H      -12.3140     2.4410    -0.3320 H     1 <1>   0.0800 
 48 H      -11.5200    -0.0030     3.0540 H     1 <1>   0.0800 
 49 H      -12.2650    -0.7890     1.7010 H     1 <1>   0.0800 
 50 H      -13.1260     1.4840     1.8360 H     1 <1>   0.0800 
 51 H      -11.5190     2.1400     1.9330 H     1 <1>   0.0800 
@<TRIPOS>BOND
  1   1   2  1   
  2   1   3  1   
  3   2   4  ar  
  4   2   5  ar  
  5   3  22  1   
  6   3  23  1   
  7   3  24  1   
  8   4   6  ar  
  9   4  25  1   
 10   5   7  ar  
 11   5  26  1   
 12   6   8  ar  
 13   6  27  1   
 14   7   8  ar  
 15   7  28  1   
 16   8   9  1   
 17   9  10  1   
 18   9  29  1   
 19   9  30  1   
 20  10  11  1   
 21  10  12  1   
 22  10  31  1   
 23  11  13  1   
 24  11  32  1   
 25  11  33  1   
 26  12  14  1   
 27  12  34  1   
 28  12  35  1   
 29  13  15  1   
 30  13  36  1   
 31  13  37  1   
 32  14  15  1   
 33  14  38  1   
 34  14  39  1   
 35  15  16  1   
 36  15  40  1   
 37  16  17  1   
 38  16  18  1   
 39  16  41  1   
 40  17  19  1   
 41  17  42  1   
 42  17  43  1   
 43  18  20  1   
 44  18  44  1   
 45  18  45  1   
 46  19  21  1   
 47  19  46  1   
 48  19  47  1   
 49  20  21  1   
 50  20  48  1   
 51  20  49  1   
 52  21  50  1   
 53  21  51  1   
@<TRIPOS>SUBSTRUCTURE
  1 ****  12 GROUP 4 **** **** 0

# MOE 2024.06 (io_trps.svl 2023.06)
