@<TRIPOS>MOLECULE
NONAME
37 38 1 0 0 
SMALL
USER_CHARGES


@<TRIPOS>ATOM
  1 S        0.5460    -0.3500    -1.5980 S.3   1 <1>  -0.4600 
  2 C        2.2270     0.3260    -1.5520 C.3   1 <1>   0.0700 
  3 C        0.7770    -2.0270    -0.9530 C.3   1 <1>   0.0700 
  4 C        2.8010     0.1420    -0.1410 C.3   1 <1>   0.3430 
  5 C        1.5110    -1.9480     0.3920 C.3   1 <1>   0.3430 
  6 N        2.8650    -1.3060     0.2740 N.4   1 <1>  -0.9590 
  7 C        3.6390    -1.4630     1.5370 C.3   1 <1>   0.4860 
  8 C        5.0720    -1.0440     1.2730 C.ar  1 <1>  -0.1430 
  9 C        5.8590    -1.7820     0.4010 C.ar  1 <1>  -0.1500 
 10 C        5.6080     0.0780     1.8850 C.ar  1 <1>  -0.1500 
 11 C        7.1610    -1.4110     0.1110 C.ar  1 <1>   0.0820 
 12 C        6.9110     0.4610     1.6140 C.ar  1 <1>  -0.1500 
 13 O        7.7830    -2.2360    -0.7790 O.3   1 <1>  -0.3630 
 14 C        7.6920    -0.2680     0.7310 C.ar  1 <1>   0.0820 
 15 C        9.1520    -2.1390    -1.0920 C.3   1 <1>   0.1200 
 16 O        8.9460     0.1800     0.5120 O.3   1 <1>  -0.5320 
 17 C        9.5080    -3.2990    -2.0170 C.3   1 <1>  -0.2400 
 18 H        2.1540     1.3680    -1.8080 H     1 <1>   0.0800 
 19 H        2.8130    -0.1860    -2.2950 H     1 <1>   0.0800 
 20 H        1.3310    -2.5890    -1.6840 H     1 <1>   0.0800 
 21 H       -0.2040    -2.4550    -0.8370 H     1 <1>   0.0800 
 22 H        2.1930     0.6950     0.5560 H     1 <1>   0.0800 
 23 H        3.7920     0.5670    -0.1250 H     1 <1>   0.0800 
 24 H        1.6180    -2.9490     0.7790 H     1 <1>   0.0800 
 25 H        0.9020    -1.3890     1.0850 H     1 <1>   0.0800 
 26 H        3.4030    -1.7990    -0.4500 H     1 <1>   0.4500 
 27 H        3.6280    -2.4930     1.8560 H     1 <1>   0.0800 
 28 H        3.2120    -0.8560     2.3190 H     1 <1>   0.0800 
 29 H        5.4830    -2.6710    -0.0740 H     1 <1>   0.1500 
 30 H        5.0280     0.6660     2.5770 H     1 <1>   0.1500 
 31 H        7.3150     1.3330     2.0980 H     1 <1>   0.1500 
 32 H        9.7180    -2.1930    -0.1780 H     1 <1>   0.0800 
 33 H        9.3250    -1.1960    -1.5820 H     1 <1>   0.0800 
 34 H        9.1780     0.9650     1.0410 H     1 <1>   0.4500 
 35 H        9.3210    -4.2360    -1.5240 H     1 <1>   0.0800 
 36 H       10.5500    -3.2490    -2.2750 H     1 <1>   0.0800 
 37 H        8.9270    -3.2430    -2.9210 H     1 <1>   0.0800 
@<TRIPOS>BOND
  1   1   2  1   
  2   1   3  1   
  3   2   4  1   
  4   2  18  1   
  5   2  19  1   
  6   3   5  1   
  7   3  20  1   
  8   3  21  1   
  9   4   6  1   
 10   4  22  1   
 11   4  23  1   
 12   5   6  1   
 13   5  24  1   
 14   5  25  1   
 15   6   7  1   
 16   6  26  1   
 17   7   8  1   
 18   7  27  1   
 19   7  28  1   
 20   8   9  ar  
 21   8  10  ar  
 22   9  11  ar  
 23   9  29  1   
 24  10  12  ar  
 25  10  30  1   
 26  11  13  1   
 27  11  14  ar  
 28  12  14  ar  
 29  12  31  1   
 30  13  15  1   
 31  14  16  1   
 32  15  17  1   
 33  15  32  1   
 34  15  33  1   
 35  16  34  1   
 36  17  35  1   
 37  17  36  1   
 38  17  37  1   
@<TRIPOS>SUBSTRUCTURE
  1 ****   9 GROUP 4 **** **** 0

# MOE 2024.06 (io_trps.svl 2023.06)
