@<TRIPOS>MOLECULE
NONAME
42 42 1 0 0 
SMALL
USER_CHARGES


@<TRIPOS>ATOM
  1 O        0.1160    -0.7720     1.1260 O.2   1 <1>  -0.5700 
  2 C       -0.0460    -1.7110     0.3710 C.2   1 <1>   0.5440 
  3 N        1.0130    -2.1740    -0.3630 N.am  1 <1>  -0.7300 
  4 C       -1.3540    -2.3270     0.2350 C.ar  1 <1>   0.0860 
  5 C        2.4080    -1.6880    -0.4410 C.3   1 <1>   0.3000 
  6 C       -1.5060    -3.6760    -0.1010 C.ar  1 <1>  -0.1500 
  7 C       -2.5200    -1.5860     0.4350 C.ar  1 <1>  -0.1500 
  8 C        3.1240    -1.7120     0.9390 C.3   1 <1>   0.1200 
  9 C        2.4120    -0.2960    -1.0850 C.3   1 <1>  -0.2400 
 10 C        3.1270    -2.6610    -1.3770 C.3   1 <1>  -0.2400 
 11 C       -2.7570    -4.2450    -0.2430 C.ar  1 <1>  -0.1500 
 12 C       -3.7760    -2.1480     0.2960 C.ar  1 <1>  -0.1500 
 13 O        2.6700    -0.7200     1.7960 O.3   1 <1>  -0.6800 
 14 C       -3.9020    -3.4900    -0.0500 C.ar  1 <1>   0.0830 
 15 O       -5.0850    -4.1220    -0.2100 O.3   1 <1>  -0.3620 
 16 C       -6.3160    -3.4620    -0.0010 C.3   1 <1>   0.1200 
 17 C       -7.4700    -4.4540    -0.2190 C.3   1 <1>  -0.0800 
 18 C       -8.8180    -3.7350    -0.0790 C.3   1 <1>  -0.2400 
 19 C       -7.4050    -5.6280     0.7700 C.3   1 <1>  -0.2400 
 20 H        0.8030    -2.8640    -1.0820 H     1 <1>   0.3700 
 21 H       -0.6360    -4.2910    -0.2430 H     1 <1>   0.1500 
 22 H       -2.4310    -0.5470     0.7060 H     1 <1>   0.1500 
 23 H        4.1810    -1.5570     0.8140 H     1 <1>   0.0800 
 24 H        2.9680    -2.6620     1.4180 H     1 <1>   0.0800 
 25 H        3.4220     0.0570    -1.1940 H     1 <1>   0.0800 
 26 H        1.8830     0.4090    -0.4700 H     1 <1>   0.0800 
 27 H        1.9510    -0.3230    -2.0550 H     1 <1>   0.0800 
 28 H        4.1510    -2.3600    -1.5060 H     1 <1>   0.0800 
 29 H        2.6610    -2.6760    -2.3470 H     1 <1>   0.0800 
 30 H        3.1210    -3.6550    -0.9660 H     1 <1>   0.0800 
 31 H       -2.8600    -5.2840    -0.5030 H     1 <1>   0.1500 
 32 H       -4.6390    -1.5320     0.4590 H     1 <1>   0.1500 
 33 H        1.6810    -0.6430     1.6900 H     1 <1>   0.4000 
 34 H       -6.3830    -2.6500    -0.7040 H     1 <1>   0.0800 
 35 H       -6.3310    -3.0830     1.0050 H     1 <1>   0.0800 
 36 H       -7.3970    -4.8380    -1.2220 H     1 <1>   0.0800 
 37 H       -8.9350    -3.3330     0.9120 H     1 <1>   0.0800 
 38 H       -9.6260    -4.4210    -0.2670 H     1 <1>   0.0800 
 39 H       -8.8890    -2.9300    -0.7890 H     1 <1>   0.0800 
 40 H       -7.4620    -5.2740     1.7840 H     1 <1>   0.0800 
 41 H       -6.4820    -6.1680     0.6480 H     1 <1>   0.0800 
 42 H       -8.2180    -6.3100     0.5950 H     1 <1>   0.0800 
@<TRIPOS>BOND
  1   1   2  2   
  2   2   3  am  
  3   2   4  1   
  4   3   5  1   
  5   3  20  1   
  6   4   6  ar  
  7   4   7  ar  
  8   5   8  1   
  9   5   9  1   
 10   5  10  1   
 11   6  11  ar  
 12   6  21  1   
 13   7  12  ar  
 14   7  22  1   
 15   8  13  1   
 16   8  23  1   
 17   8  24  1   
 18   9  25  1   
 19   9  26  1   
 20   9  27  1   
 21  10  28  1   
 22  10  29  1   
 23  10  30  1   
 24  11  14  ar  
 25  11  31  1   
 26  12  14  ar  
 27  12  32  1   
 28  13  33  1   
 29  14  15  1   
 30  15  16  1   
 31  16  17  1   
 32  16  34  1   
 33  16  35  1   
 34  17  18  1   
 35  17  19  1   
 36  17  36  1   
 37  18  37  1   
 38  18  38  1   
 39  18  39  1   
 40  19  40  1   
 41  19  41  1   
 42  19  42  1   
@<TRIPOS>SUBSTRUCTURE
  1 ****   4 GROUP 4 **** **** 0

# MOE 2024.06 (io_trps.svl 2023.06)
