@<TRIPOS>MOLECULE
NONAME
50 54 1 0 0 
SMALL
USER_CHARGES


@<TRIPOS>ATOM
  1 S        0.0950    -0.5160     0.4600 S.3   1 <1>  -0.0800 
  2 C        1.1590    -1.2970    -0.6600 C.2   1 <1>   0.4420 
  3 C       -1.2320    -1.1110    -0.4890 C.2   1 <1>   0.1980 
  4 N        0.5220    -1.8870    -1.6040 N.2   1 <1>  -0.3380 
  5 N        2.5090    -1.1750    -0.4360 N.am  1 <1>  -0.4940 
  6 N       -0.8360    -1.7810    -1.4980 N.2   1 <1>  -0.3380 
  7 C       -2.6630    -0.7870    -0.0390 C.3   1 <1>   0.1800 
  8 C        3.5380    -1.8600    -0.9950 C.2   1 <1>   0.6900 
  9 C       -3.6920    -1.4030    -1.0190 C.3   1 <1>  -0.1600 
 10 C       -2.8910     0.7430     0.0010 C.3   1 <1>  -0.1600 
 11 C       -2.9330    -1.3670     1.3700 C.3   1 <1>  -0.1600 
 12 O        4.5860    -1.2780    -1.1570 O.2   1 <1>  -0.5700 
 13 N        3.4720    -3.1780    -1.3190 N.am  1 <1>  -0.5470 
 14 C       -5.1330    -1.0880    -0.5780 C.3   1 <1>  -0.0800 
 15 C       -4.3280     1.0700     0.4510 C.3   1 <1>  -0.0800 
 16 C       -4.3700    -1.0490     1.8260 C.3   1 <1>  -0.0800 
 17 C        2.7120    -4.1790    -0.7030 C.ar  1 <1>   0.1170 
 18 C       -5.3250     0.4390    -0.5380 C.3   1 <1>  -0.1600 
 19 C       -5.3670    -1.6670     0.8290 C.3   1 <1>  -0.1600 
 20 C       -4.5650     0.4790     1.8540 C.3   1 <1>  -0.1600 
 21 C        2.9520    -4.5830     0.6120 C.ar  1 <1>  -0.1430 
 22 C        1.6990    -4.7960    -1.4260 C.ar  1 <1>  -0.1500 
 23 C        2.1720    -5.5820     1.1750 C.ar  1 <1>  -0.1500 
 24 C        4.0600    -3.9560     1.4500 C.3   1 <1>  -0.0970 
 25 C        0.9260    -5.7910    -0.8590 C.ar  1 <1>  -0.1500 
 26 C        1.1620    -6.1850     0.4450 C.ar  1 <1>  -0.1500 
 27 H        2.8140    -0.3410     0.0520 H     1 <1>   0.3700 
 28 H       -3.5550    -2.4700    -1.0640 H     1 <1>   0.0800 
 29 H       -3.5260    -1.0150    -2.0090 H     1 <1>   0.0800 
 30 H       -2.7140     1.1580    -0.9760 H     1 <1>   0.0800 
 31 H       -2.1990     1.2050     0.6810 H     1 <1>   0.0800 
 32 H       -2.7860    -2.4330     1.3550 H     1 <1>   0.0800 
 33 H       -2.2410    -0.9540     2.0820 H     1 <1>   0.0800 
 34 H        4.2970    -3.4930    -1.8230 H     1 <1>   0.3700 
 35 H       -5.8300    -1.5250    -1.2730 H     1 <1>   0.0800 
 36 H       -4.4690     2.1370     0.4760 H     1 <1>   0.0800 
 37 H       -4.5400    -1.4550     2.8090 H     1 <1>   0.0800 
 38 H       -6.3320     0.6710    -0.2380 H     1 <1>   0.0800 
 39 H       -5.1760     0.8510    -1.5210 H     1 <1>   0.0800 
 40 H       -5.2470    -2.7370     0.8080 H     1 <1>   0.0800 
 41 H       -6.3750    -1.4600     1.1450 H     1 <1>   0.0800 
 42 H       -5.5630     0.7120     2.1810 H     1 <1>   0.0800 
 43 H       -3.8810     0.9220     2.5570 H     1 <1>   0.0800 
 44 H        1.5090    -4.4800    -2.4360 H     1 <1>   0.1500 
 45 H        2.3440    -5.9000     2.1880 H     1 <1>   0.1500 
 46 H        3.7780    -2.9610     1.7420 H     1 <1>   0.0800 
 47 H        4.9740    -3.9070     0.8850 H     1 <1>   0.0800 
 48 H        4.2460    -4.5330     2.3370 H     1 <1>   0.0800 
 49 H        0.1400    -6.2510    -1.4310 H     1 <1>   0.1500 
 50 H        0.5610    -6.9580     0.8910 H     1 <1>   0.1500 
@<TRIPOS>BOND
  1   1   2  1   
  2   1   3  1   
  3   2   4  2   
  4   2   5  1   
  5   3   6  2   
  6   3   7  1   
  7   4   6  1   
  8   5   8  am  
  9   5  27  1   
 10   7   9  1   
 11   7  10  1   
 12   7  11  1   
 13   8  12  2   
 14   8  13  am  
 15   9  14  1   
 16   9  28  1   
 17   9  29  1   
 18  10  15  1   
 19  10  30  1   
 20  10  31  1   
 21  11  16  1   
 22  11  32  1   
 23  11  33  1   
 24  13  17  1   
 25  13  34  1   
 26  14  18  1   
 27  14  19  1   
 28  14  35  1   
 29  15  18  1   
 30  15  20  1   
 31  15  36  1   
 32  16  19  1   
 33  16  20  1   
 34  16  37  1   
 35  17  21  ar  
 36  17  22  ar  
 37  18  38  1   
 38  18  39  1   
 39  19  40  1   
 40  19  41  1   
 41  20  42  1   
 42  20  43  1   
 43  21  23  ar  
 44  21  24  1   
 45  22  25  ar  
 46  22  44  1   
 47  23  26  ar  
 48  23  45  1   
 49  24  46  1   
 50  24  47  1   
 51  24  48  1   
 52  25  26  ar  
 53  25  49  1   
 54  26  50  1   
@<TRIPOS>SUBSTRUCTURE
  1 ****   3 GROUP 4 **** **** 0

# MOE 2024.06 (io_trps.svl 2023.06)
