@<TRIPOS>MOLECULE
NONAME
47 49 1 0 0 
SMALL
USER_CHARGES


@<TRIPOS>ATOM
  1 O       -1.0570     0.6710    -2.2730 O.2   1 <1>  -0.5700 
  2 C       -1.4720     1.2540    -1.2870 C.2   1 <1>   0.5440 
  3 N       -1.9710     0.5220    -0.2270 N.am  1 <1>  -0.6600 
  4 C       -1.4090     2.6960    -1.2400 C.ar  1 <1>   0.0860 
  5 C       -2.4270     1.1380     1.0530 C.3   1 <1>   0.1400 
  6 C       -2.0270    -0.9670    -0.2430 C.3   1 <1>   0.1400 
  7 C       -0.3290     3.3400    -0.6200 C.ar  1 <1>   0.1170 
  8 C       -2.4350     3.4700    -1.7790 C.ar  1 <1>  -0.1500 
  9 C       -1.5900     0.5950     2.2150 C.3   1 <1>  -0.1600 
 10 C       -1.1970    -1.5300     0.9180 C.3   1 <1>  -0.1600 
 11 N        0.7330     2.5760    -0.1240 N.am  1 <1>  -0.5470 
 12 C       -0.3240     4.7280    -0.5320 C.ar  1 <1>  -0.1500 
 13 C       -2.4140     4.8480    -1.6920 C.ar  1 <1>  -0.1500 
 14 C       -1.6250    -0.9380     2.2670 C.3   1 <1>  -0.1600 
 15 C        1.5170     2.6980     0.9960 C.2   1 <1>   0.5440 
 16 C       -1.3550     5.4790    -1.0610 C.ar  1 <1>  -0.1500 
 17 O        1.3040     3.6310     1.7470 O.2   1 <1>  -0.5700 
 18 C        2.5700     1.7310     1.2950 C.ar  1 <1>   0.0860 
 19 C        2.7390     0.5000     0.6270 C.ar  1 <1>   0.0820 
 20 C        3.4870     2.0280     2.3090 C.ar  1 <1>  -0.1500 
 21 O        1.8700     0.1590    -0.3580 O.3   1 <1>  -0.3630 
 22 C        3.7810    -0.3580     0.9750 C.ar  1 <1>  -0.1500 
 23 C        4.5160     1.1740     2.6510 C.ar  1 <1>  -0.1500 
 24 C        2.0210    -0.9630    -1.2010 C.3   1 <1>   0.0400 
 25 C        4.6660    -0.0250     1.9810 C.ar  1 <1>  -0.1500 
 26 H       -3.4630     0.8910     1.2060 H     1 <1>   0.0800 
 27 H       -2.3430     2.2100     1.0260 H     1 <1>   0.0800 
 28 H       -1.6520    -1.3540    -1.1750 H     1 <1>   0.0800 
 29 H       -3.0520    -1.2770    -0.1430 H     1 <1>   0.0800 
 30 H       -3.2560     2.9740    -2.2680 H     1 <1>   0.1500 
 31 H       -1.9620     0.9980     3.1390 H     1 <1>   0.0800 
 32 H       -0.5740     0.9320     2.0990 H     1 <1>   0.0800 
 33 H       -0.1610    -1.3050     0.7420 H     1 <1>   0.0800 
 34 H       -1.3010    -2.6000     0.9410 H     1 <1>   0.0800 
 35 H        0.8620     1.6690    -0.5910 H     1 <1>   0.3700 
 36 H        0.5000     5.2210    -0.0470 H     1 <1>   0.1500 
 37 H       -3.2150     5.4320    -2.1120 H     1 <1>   0.1500 
 38 H       -2.6240    -1.2650     2.5010 H     1 <1>   0.0800 
 39 H       -0.9680    -1.2900     3.0440 H     1 <1>   0.0800 
 40 H       -1.3340     6.5530    -0.9840 H     1 <1>   0.1500 
 41 H        3.3910     2.9570     2.8460 H     1 <1>   0.1500 
 42 H        3.9200    -1.2970     0.4750 H     1 <1>   0.1500 
 43 H        5.2020     1.4400     3.4380 H     1 <1>   0.1500 
 44 H        1.2190    -0.9480    -1.9190 H     1 <1>   0.0800 
 45 H        1.9610    -1.8580    -0.6080 H     1 <1>   0.0800 
 46 H        2.9670    -0.8960    -1.7080 H     1 <1>   0.0800 
 47 H        5.4680    -0.6930     2.2440 H     1 <1>   0.1500 
@<TRIPOS>BOND
  1   1   2  2   
  2   2   3  am  
  3   2   4  1   
  4   3   5  1   
  5   3   6  1   
  6   4   7  ar  
  7   4   8  ar  
  8   5   9  1   
  9   5  26  1   
 10   5  27  1   
 11   6  10  1   
 12   6  28  1   
 13   6  29  1   
 14   7  11  1   
 15   7  12  ar  
 16   8  13  ar  
 17   8  30  1   
 18   9  14  1   
 19   9  31  1   
 20   9  32  1   
 21  10  14  1   
 22  10  33  1   
 23  10  34  1   
 24  11  15  am  
 25  11  35  1   
 26  12  16  ar  
 27  12  36  1   
 28  13  16  ar  
 29  13  37  1   
 30  14  38  1   
 31  14  39  1   
 32  15  17  2   
 33  15  18  1   
 34  16  40  1   
 35  18  19  ar  
 36  18  20  ar  
 37  19  21  1   
 38  19  22  ar  
 39  20  23  ar  
 40  20  41  1   
 41  21  24  1   
 42  22  25  ar  
 43  22  42  1   
 44  23  25  ar  
 45  23  43  1   
 46  24  44  1   
 47  24  45  1   
 48  24  46  1   
 49  25  47  1   
@<TRIPOS>SUBSTRUCTURE
  1 ****  11 GROUP 4 **** **** 0

# MOE 2024.06 (io_trps.svl 2023.06)
