@<TRIPOS>MOLECULE
NONAME
35 36 1 0 0 
SMALL
USER_CHARGES


@<TRIPOS>ATOM
  1 CL      -0.8930     1.0210    -1.3260 Cl    1 <1>  -0.1770 
  2 C        0.3350     2.0570    -0.6330 C.ar  1 <1>   0.1770 
  3 C        0.0120     3.0620     0.2930 C.ar  1 <1>   0.0860 
  4 C        1.6330     1.8190    -1.0430 C.ar  1 <1>  -0.1500 
  5 C       -1.3370     3.3510     0.7450 C.2   1 <1>   0.5440 
  6 C        1.0780     3.8170     0.8010 C.ar  1 <1>  -0.1500 
  7 C        2.6410     2.5980    -0.5150 C.ar  1 <1>   0.1900 
  8 O       -1.5280     3.7740     1.8690 O.2   1 <1>  -0.5700 
  9 N       -2.4310     3.2040    -0.0620 N.am  1 <1>  -0.7300 
 10 C        2.3850     3.5960     0.4050 C.ar  1 <1>  -0.1500 
 11 F        3.8690     2.3860    -0.8930 F     1 <1>  -0.1900 
 12 C       -3.8170     3.3820     0.3890 C.3   1 <1>   0.2200 
 13 C       -4.7320     2.4310    -0.3770 C.3   1 <1>  -0.1600 
 14 C       -4.2320     4.8340     0.1690 C.3   1 <1>  -0.1600 
 15 C       -6.1870     2.6630     0.0250 C.3   1 <1>   0.3430 
 16 C       -5.6900     5.0320     0.5680 C.3   1 <1>   0.3430 
 17 N       -6.5590     4.0930    -0.2040 N.4   1 <1>  -0.9590 
 18 C       -8.0000     4.3240     0.1170 C.3   1 <1>   0.2630 
 19 H        1.8590     1.0450    -1.7540 H     1 <1>   0.1500 
 20 H        0.8710     4.5910     1.5230 H     1 <1>   0.1500 
 21 H       -2.2990     2.7830    -0.9860 H     1 <1>   0.3700 
 22 H        3.1960     4.1830     0.8020 H     1 <1>   0.1500 
 23 H       -3.8740     3.1530     1.4420 H     1 <1>   0.0800 
 24 H       -4.4640     1.4150    -0.1440 H     1 <1>   0.0800 
 25 H       -4.6260     2.5740    -1.4380 H     1 <1>   0.0800 
 26 H       -4.0930     5.1170    -0.8590 H     1 <1>   0.0800 
 27 H       -3.6160     5.4710     0.7790 H     1 <1>   0.0800 
 28 H       -6.3130     2.4170     1.0680 H     1 <1>   0.0800 
 29 H       -6.8270     2.0170    -0.5540 H     1 <1>   0.0800 
 30 H       -5.9790     6.0530     0.3720 H     1 <1>   0.0800 
 31 H       -5.7990     4.8480     1.6250 H     1 <1>   0.0800 
 32 H       -6.4130     4.2940    -1.2040 H     1 <1>   0.4500 
 33 H       -8.1890     4.1250     1.1600 H     1 <1>   0.0800 
 34 H       -8.6250     3.6760    -0.4760 H     1 <1>   0.0800 
 35 H       -8.2720     5.3460    -0.0930 H     1 <1>   0.0800 
@<TRIPOS>BOND
  1   1   2  1   
  2   2   3  ar  
  3   2   4  ar  
  4   3   5  1   
  5   3   6  ar  
  6   4   7  ar  
  7   4  19  1   
  8   5   8  2   
  9   5   9  am  
 10   6  10  ar  
 11   6  20  1   
 12   7  10  ar  
 13   7  11  1   
 14   9  12  1   
 15   9  21  1   
 16  10  22  1   
 17  12  13  1   
 18  12  14  1   
 19  12  23  1   
 20  13  15  1   
 21  13  24  1   
 22  13  25  1   
 23  14  16  1   
 24  14  26  1   
 25  14  27  1   
 26  15  17  1   
 27  15  28  1   
 28  15  29  1   
 29  16  17  1   
 30  16  30  1   
 31  16  31  1   
 32  17  18  1   
 33  17  32  1   
 34  18  33  1   
 35  18  34  1   
 36  18  35  1   
@<TRIPOS>SUBSTRUCTURE
  1 ****   9 GROUP 4 **** **** 0

# MOE 2024.06 (io_trps.svl 2023.06)
