@<TRIPOS>MOLECULE
NONAME
31 33 1 0 0 
SMALL
USER_CHARGES


@<TRIPOS>ATOM
  1 O        0.1080     0.2740     0.5660 O.2   1 <1>  -0.5700 
  2 C       -0.0600     1.4570     0.3410 C.2   1 <1>   0.6900 
  3 N        1.0110     2.3110     0.3220 N.am  1 <1>  -0.6600 
  4 N       -1.3060     1.9720     0.1230 N.am  1 <1>  -0.5470 
  5 C        0.9960     3.7190    -0.1290 C.3   1 <1>   0.1400 
  6 C        2.3960     1.8300     0.5150 C.3   1 <1>   0.1400 
  7 C       -2.5610     1.3550     0.0090 C.ar  1 <1>   0.1170 
  8 C        2.4420     4.1870     0.0010 C.3   1 <1>  -0.1600 
  9 C        3.2740     2.9120    -0.1020 C.3   1 <1>  -0.1600 
 10 C       -3.6970     2.1070     0.3030 C.ar  1 <1>  -0.1500 
 11 C       -2.7130     0.0260    -0.4060 C.ar  1 <1>  -0.1500 
 12 C       -4.9350     1.5120     0.1780 C.ar  1 <1>   0.0820 
 13 C       -3.9670    -0.5580    -0.5250 C.ar  1 <1>  -0.1500 
 14 O       -6.1390     2.0490     0.4080 O.3   1 <1>  -0.3630 
 15 C       -5.0690     0.2160    -0.2240 C.ar  1 <1>   0.0820 
 16 C       -7.0980     1.0270     0.1420 C.3   1 <1>   0.4000 
 17 O       -6.3640    -0.1250    -0.2650 O.3   1 <1>  -0.3630 
 18 H       -1.3160     2.9830     0.1410 H     1 <1>   0.3700 
 19 H        0.3400     4.3150     0.4820 H     1 <1>   0.0800 
 20 H        0.6820     3.7570    -1.1590 H     1 <1>   0.0800 
 21 H        2.5460     0.8750     0.0370 H     1 <1>   0.0800 
 22 H        2.5890     1.7380     1.5700 H     1 <1>   0.0800 
 23 H        2.5800     4.6330     0.9700 H     1 <1>   0.0800 
 24 H        2.7000     4.9070    -0.7560 H     1 <1>   0.0800 
 25 H        3.4480     2.6700    -1.1360 H     1 <1>   0.0800 
 26 H        4.2200     2.9940     0.4030 H     1 <1>   0.0800 
 27 H       -3.6270     3.1280     0.6240 H     1 <1>   0.1500 
 28 H       -1.8430    -0.5600    -0.6400 H     1 <1>   0.1500 
 29 H       -4.0860    -1.5790    -0.8400 H     1 <1>   0.1500 
 30 H       -7.7480     1.3410    -0.6550 H     1 <1>   0.0800 
 31 H       -7.6470     0.8060     1.0400 H     1 <1>   0.0800 
@<TRIPOS>BOND
  1   1   2  2   
  2   2   3  am  
  3   2   4  am  
  4   3   5  1   
  5   3   6  1   
  6   4   7  1   
  7   4  18  1   
  8   5   8  1   
  9   5  19  1   
 10   5  20  1   
 11   6   9  1   
 12   6  21  1   
 13   6  22  1   
 14   7  10  ar  
 15   7  11  ar  
 16   8   9  1   
 17   8  23  1   
 18   8  24  1   
 19   9  25  1   
 20   9  26  1   
 21  10  12  ar  
 22  10  27  1   
 23  11  13  ar  
 24  11  28  1   
 25  12  14  1   
 26  12  15  ar  
 27  13  15  ar  
 28  13  29  1   
 29  14  16  1   
 30  15  17  1   
 31  16  17  1   
 32  16  30  1   
 33  16  31  1   
@<TRIPOS>SUBSTRUCTURE
  1 ****   7 GROUP 4 **** **** 0

# MOE 2024.06 (io_trps.svl 2023.06)
