@<TRIPOS>MOLECULE
NONAME
43 45 1 0 0 
SMALL
USER_CHARGES


@<TRIPOS>ATOM
  1 O       -0.9370     2.2390     1.6640 O.2   1 <1>  -0.5700 
  2 C       -0.1320     2.0760     0.7790 C.2   1 <1>   0.5690 
  3 N       -0.4320     1.5030    -0.4180 N.am  1 <1>  -0.7300 
  4 C        1.3160     2.5260     0.9970 C.3   1 <1>   0.1710 
  5 C       -1.7080     0.9370    -0.9040 C.3   1 <1>   0.2200 
  6 N        2.3220     1.7810     0.1790 N.3   1 <1>  -0.8100 
  7 C       -2.8750     1.9230    -0.7740 C.3   1 <1>  -0.1600 
  8 C       -2.0960    -0.3130    -0.1050 C.3   1 <1>  -0.1600 
  9 C        3.6090     2.4940     0.1790 C.3   1 <1>   0.1100 
 10 C        2.4850     0.4070     0.6890 C.3   1 <1>   0.1100 
 11 C       -3.8390     1.3100     0.2440 C.3   1 <1>  -0.1600 
 12 C       -3.5980    -0.1920     0.1440 C.3   1 <1>  -0.1600 
 13 C        4.5870     1.7940    -0.7640 C.3   1 <1>  -0.1600 
 14 C        3.4140    -0.3790    -0.2350 C.3   1 <1>  -0.1600 
 15 C        4.7600     0.3360    -0.3640 C.3   1 <1>   0.5600 
 16 O        5.4610     0.2710     0.8370 O.3   1 <1>  -0.5600 
 17 O        5.5670    -0.3020    -1.2940 O.3   1 <1>  -0.5600 
 18 C        6.3190    -0.8130     0.8070 C.3   1 <1>   0.1200 
 19 C        6.3400    -1.2450    -0.6470 C.3   1 <1>   0.1200 
 20 H        0.3820     1.3590    -1.0240 H     1 <1>   0.3700 
 21 H        1.5530     2.4340     2.0420 H     1 <1>   0.0800 
 22 H        1.3550     3.5700     0.7420 H     1 <1>   0.0800 
 23 H       -1.5950     0.6760    -1.9430 H     1 <1>   0.0800 
 24 H       -3.3730     1.9950    -1.7240 H     1 <1>   0.0800 
 25 H       -2.5570     2.9050    -0.4720 H     1 <1>   0.0800 
 26 H       -1.5900    -0.3200     0.8450 H     1 <1>   0.0800 
 27 H       -1.8590    -1.2140    -0.6410 H     1 <1>   0.0800 
 28 H        4.0180     2.5200     1.1760 H     1 <1>   0.0800 
 29 H        3.4640     3.5070    -0.1580 H     1 <1>   0.0800 
 30 H        1.5300    -0.0890     0.7290 H     1 <1>   0.0800 
 31 H        2.8960     0.4310     1.6850 H     1 <1>   0.0800 
 32 H       -4.8630     1.5750     0.0470 H     1 <1>   0.0800 
 33 H       -3.5700     1.6470     1.2310 H     1 <1>   0.0800 
 34 H       -3.9020    -0.7080     1.0380 H     1 <1>   0.0800 
 35 H       -4.1400    -0.5880    -0.6980 H     1 <1>   0.0800 
 36 H        5.5400     2.2870    -0.7420 H     1 <1>   0.0800 
 37 H        4.1970     1.8440    -1.7640 H     1 <1>   0.0800 
 38 H        2.9580    -0.4450    -1.2050 H     1 <1>   0.0800 
 39 H        3.5530    -1.3720     0.1470 H     1 <1>   0.0800 
 40 H        5.9340    -1.5860     1.4470 H     1 <1>   0.0800 
 41 H        7.2890    -0.4960     1.1450 H     1 <1>   0.0800 
 42 H        7.3320    -1.2330    -1.0610 H     1 <1>   0.0800 
 43 H        5.8920    -2.2140    -0.7770 H     1 <1>   0.0800 
@<TRIPOS>BOND
  1   1   2  2   
  2   2   3  am  
  3   2   4  1   
  4   3   5  1   
  5   3  20  1   
  6   4   6  1   
  7   4  21  1   
  8   4  22  1   
  9   5   7  1   
 10   5   8  1   
 11   5  23  1   
 12   6   9  1   
 13   6  10  1   
 14   7  11  1   
 15   7  24  1   
 16   7  25  1   
 17   8  12  1   
 18   8  26  1   
 19   8  27  1   
 20   9  13  1   
 21   9  28  1   
 22   9  29  1   
 23  10  14  1   
 24  10  30  1   
 25  10  31  1   
 26  11  12  1   
 27  11  32  1   
 28  11  33  1   
 29  12  34  1   
 30  12  35  1   
 31  13  15  1   
 32  13  36  1   
 33  13  37  1   
 34  14  15  1   
 35  14  38  1   
 36  14  39  1   
 37  15  16  1   
 38  15  17  1   
 39  16  18  1   
 40  17  19  1   
 41  18  19  1   
 42  18  40  1   
 43  18  41  1   
 44  19  42  1   
 45  19  43  1   
@<TRIPOS>SUBSTRUCTURE
  1 ****   6 GROUP 4 **** **** 0

# MOE 2024.06 (io_trps.svl 2023.06)
