@<TRIPOS>MOLECULE
NONAME
41 43 1 0 0 
SMALL
USER_CHARGES


@<TRIPOS>ATOM
  1 F        0.4670     0.2310    -0.9680 F     1 <1>  -0.1900 
  2 C       -0.6800    -0.3300    -0.6700 C.ar  1 <1>   0.1900 
  3 C       -1.7890     0.4870    -0.4300 C.ar  1 <1>   0.1170 
  4 C       -0.7250    -1.7080    -0.6070 C.ar  1 <1>  -0.1500 
  5 N       -1.6600     1.8860    -0.5170 N.am  1 <1>  -0.5470 
  6 C       -2.9930    -0.1440    -0.1170 C.ar  1 <1>  -0.1500 
  7 C       -1.9400    -2.2810    -0.2900 C.ar  1 <1>   0.1900 
  8 C       -2.4320     2.9270    -0.0870 C.2   1 <1>   0.5690 
  9 C       -3.0730    -1.5270    -0.0450 C.ar  1 <1>  -0.1500 
 10 F       -2.0210    -3.5840    -0.2200 F     1 <1>  -0.1900 
 11 O       -3.4950     2.7990     0.4720 O.2   1 <1>  -0.5700 
 12 C       -1.8790     4.3310    -0.3400 C.3   1 <1>   0.1710 
 13 N       -0.4080     4.3550    -0.6020 N.3   1 <1>  -0.8100 
 14 C        0.3640     4.1770     0.6550 C.3   1 <1>   0.1100 
 15 C       -0.0040     5.6310    -1.2360 C.3   1 <1>   0.1100 
 16 C        1.8850     4.1740     0.4130 C.3   1 <1>   0.2090 
 17 C        1.5050     5.6810    -1.5430 C.3   1 <1>   0.2090 
 18 N        2.3170     5.4080    -0.3150 N.pl3 1 <1>  -0.8380 
 19 C        3.4710     6.1000    -0.0060 C.ar  1 <1>   0.7200 
 20 N        3.7890     7.1340    -0.7860 N.ar  1 <1>  -0.6200 
 21 N        4.1730     5.6760     1.0450 N.ar  1 <1>  -0.6200 
 22 C        4.8880     7.7800    -0.4820 C.ar  1 <1>   0.1600 
 23 C        5.2670     6.3400     1.3250 C.ar  1 <1>   0.1600 
 24 C        5.6770     7.4180     0.5810 C.ar  1 <1>  -0.1500 
 25 H        0.1450    -2.3090    -0.7950 H     1 <1>   0.1500 
 26 H       -0.7680     2.2260    -0.8990 H     1 <1>   0.3700 
 27 H       -3.8760     0.4410     0.0700 H     1 <1>   0.1500 
 28 H       -4.0010    -2.0140     0.1980 H     1 <1>   0.1500 
 29 H       -2.1160     4.9590     0.5010 H     1 <1>   0.0800 
 30 H       -2.3990     4.7200    -1.1970 H     1 <1>   0.0800 
 31 H        0.0920     3.2470     1.1230 H     1 <1>   0.0800 
 32 H        0.1320     4.9720     1.3430 H     1 <1>   0.0800 
 33 H       -0.2490     6.4570    -0.5900 H     1 <1>   0.0800 
 34 H       -0.5430     5.7580    -2.1590 H     1 <1>   0.0800 
 35 H        2.1500     3.3100    -0.1720 H     1 <1>   0.0800 
 36 H        2.3780     4.0910     1.3650 H     1 <1>   0.0800 
 37 H        1.7340     6.6470    -1.9560 H     1 <1>   0.0800 
 38 H        1.7390     4.9410    -2.2880 H     1 <1>   0.0800 
 39 H        5.1660     8.6190    -1.0970 H     1 <1>   0.1500 
 40 H        5.8520     6.0160     2.1690 H     1 <1>   0.1500 
 41 H        6.5760     7.9550     0.8200 H     1 <1>   0.1500 
@<TRIPOS>BOND
  1   1   2  1   
  2   2   3  ar  
  3   2   4  ar  
  4   3   5  1   
  5   3   6  ar  
  6   4   7  ar  
  7   4  25  1   
  8   5   8  am  
  9   5  26  1   
 10   6   9  ar  
 11   6  27  1   
 12   7   9  ar  
 13   7  10  1   
 14   8  11  2   
 15   8  12  1   
 16   9  28  1   
 17  12  13  1   
 18  12  29  1   
 19  12  30  1   
 20  13  14  1   
 21  13  15  1   
 22  14  16  1   
 23  14  31  1   
 24  14  32  1   
 25  15  17  1   
 26  15  33  1   
 27  15  34  1   
 28  16  18  1   
 29  16  35  1   
 30  16  36  1   
 31  17  18  1   
 32  17  37  1   
 33  17  38  1   
 34  18  19  1   
 35  19  20  ar  
 36  19  21  ar  
 37  20  22  ar  
 38  21  23  ar  
 39  22  24  ar  
 40  22  39  1   
 41  23  24  ar  
 42  23  40  1   
 43  24  41  1   
@<TRIPOS>SUBSTRUCTURE
  1 ****  14 GROUP 4 **** **** 0

# MOE 2024.06 (io_trps.svl 2023.06)
