@<TRIPOS>MOLECULE
NONAME
32 33 1 0 0 
SMALL
USER_CHARGES


@<TRIPOS>ATOM
  1 O       -0.1400     0.3720     0.2480 O.3   1 <1>  -0.3630 
  2 C       -0.0410     1.7130     0.3380 C.ar  1 <1>   0.3920 
  3 C       -1.3590    -0.3370     0.3030 C.3   1 <1>   0.2000 
  4 N       -1.1200     2.4160     0.5180 N.ar  1 <1>  -0.6200 
  5 C        1.2460     2.2870     0.2290 C.ar  1 <1>   0.3100 
  6 C       -1.0350    -1.7530     0.7730 C.3   1 <1>  -0.2400 
  7 C       -1.9840    -0.3450    -1.0930 C.3   1 <1>  -0.2400 
  8 C       -0.9540     3.7330     0.6050 C.ar  1 <1>   0.7200 
  9 N        2.3850     1.5610     0.0420 N.ar  1 <1>  -0.6200 
 10 C        1.2540     3.6920     0.3280 C.ar  1 <1>   0.6200 
 11 N        0.1420     4.4090     0.5140 N.ar  1 <1>  -0.6200 
 12 N       -2.0750     4.4250     0.7930 N.pl3 1 <1>  -0.9000 
 13 C        3.4670     2.2760    -0.0380 C.ar  1 <1>   0.1670 
 14 N        2.3990     4.4000     0.2370 N.ar  1 <1>  -0.6200 
 15 C        3.4720     3.6900     0.0590 C.ar  1 <1>   0.1670 
 16 C        4.7590     1.5040    -0.2460 C.3   1 <1>  -0.0970 
 17 C        4.7730     4.4690    -0.0440 C.3   1 <1>  -0.0970 
 18 H       -2.0120     0.1380     1.0170 H     1 <1>   0.0800 
 19 H       -0.3590    -2.2300     0.0860 H     1 <1>   0.0800 
 20 H       -1.9360    -2.3360     0.8340 H     1 <1>   0.0800 
 21 H       -0.5850    -1.7190     1.7490 H     1 <1>   0.0800 
 22 H       -1.3090    -0.7910    -1.8020 H     1 <1>   0.0800 
 23 H       -2.2150     0.6580    -1.4020 H     1 <1>   0.0800 
 24 H       -2.8970    -0.9120    -1.0820 H     1 <1>   0.0800 
 25 H       -2.0340     5.4300     0.6410 H     1 <1>   0.4000 
 26 H       -2.9580     3.9510     0.6230 H     1 <1>   0.4000 
 27 H        4.5600     0.4480    -0.2950 H     1 <1>   0.0800 
 28 H        5.4330     1.6810     0.5720 H     1 <1>   0.0800 
 29 H        5.2250     1.8020    -1.1670 H     1 <1>   0.0800 
 30 H        5.4450     4.1740     0.7400 H     1 <1>   0.0800 
 31 H        4.5860     5.5240     0.0520 H     1 <1>   0.0800 
 32 H        5.2350     4.2950    -0.9980 H     1 <1>   0.0800 
@<TRIPOS>BOND
  1   1   2  1   
  2   1   3  1   
  3   2   4  ar  
  4   2   5  ar  
  5   3   6  1   
  6   3   7  1   
  7   3  18  1   
  8   4   8  ar  
  9   5   9  ar  
 10   5  10  ar  
 11   6  19  1   
 12   6  20  1   
 13   6  21  1   
 14   7  22  1   
 15   7  23  1   
 16   7  24  1   
 17   8  11  ar  
 18   8  12  1   
 19   9  13  ar  
 20  10  11  ar  
 21  10  14  ar  
 22  12  25  1   
 23  12  26  1   
 24  13  15  ar  
 25  13  16  1   
 26  14  15  ar  
 27  15  17  1   
 28  16  27  1   
 29  16  28  1   
 30  16  29  1   
 31  17  30  1   
 32  17  31  1   
 33  17  32  1   
@<TRIPOS>SUBSTRUCTURE
  1 ****   5 GROUP 4 **** **** 0

# MOE 2024.06 (io_trps.svl 2023.06)
