@<TRIPOS>MOLECULE
NONAME
46 47 1 0 0 
SMALL
USER_CHARGES


@<TRIPOS>ATOM
  1 O       -1.1600     0.7920    -1.2080 O.2   1 <1>  -0.5700 
  2 C       -1.3920     1.9510    -1.4940 C.2   1 <1>   0.5440 
  3 N       -2.6990     2.2830    -1.7740 N.am  1 <1>  -0.6600 
  4 C       -0.3470     2.9580    -1.4470 C.ar  1 <1>   0.0860 
  5 C       -3.6480     1.2020    -2.1680 C.3   1 <1>   0.1400 
  6 C       -3.3540     3.3690    -0.9940 C.3   1 <1>   0.1400 
  7 C        0.6490     2.9090    -0.4770 C.ar  1 <1>  -0.1500 
  8 C       -0.3120     4.0170    -2.3560 C.ar  1 <1>  -0.1500 
  9 C       -4.2630     0.5780    -0.9030 C.3   1 <1>   0.3430 
 10 C       -3.9990     2.7730     0.2770 C.3   1 <1>   0.3430 
 11 C        1.6290     3.8820    -0.3890 C.ar  1 <1>   0.0830 
 12 C        0.6650     4.9930    -2.2850 C.ar  1 <1>  -0.1500 
 13 N       -4.9210     1.6140    -0.0240 N.4   1 <1>  -0.9590 
 14 O        2.5350     3.7410     0.6070 O.3   1 <1>  -0.3620 
 15 C        1.6360     4.9320    -1.3010 C.ar  1 <1>  -0.1500 
 16 C       -5.4380     0.9900     1.2130 C.3   1 <1>   0.4810 
 17 C        3.6240     4.6260     0.7420 C.3   1 <1>   0.1200 
 18 C       -6.4340     1.9540     1.8150 C.2   1 <1>  -0.2880 
 19 C        4.4720     4.1640     1.9270 C.3   1 <1>  -0.1600 
 20 C       -7.7630     1.8210     1.7610 C.2   1 <1>  -0.3000 
 21 C        5.6820     5.0800     2.1390 C.3   1 <1>  -0.2400 
 22 H       -3.1240     0.4430    -2.7260 H     1 <1>   0.0800 
 23 H       -4.4180     1.6040    -2.8040 H     1 <1>   0.0800 
 24 H       -4.1020     3.8500    -1.6000 H     1 <1>   0.0800 
 25 H       -2.6320     4.1150    -0.7090 H     1 <1>   0.0800 
 26 H        0.6660     2.0960     0.2270 H     1 <1>   0.1500 
 27 H       -1.0580     4.0710    -3.1300 H     1 <1>   0.1500 
 28 H       -3.4690     0.0890    -0.3590 H     1 <1>   0.0800 
 29 H       -4.9790    -0.1730    -1.1910 H     1 <1>   0.0800 
 30 H       -4.5410     3.5500     0.7910 H     1 <1>   0.0800 
 31 H       -3.2060     2.4400     0.9270 H     1 <1>   0.0800 
 32 H        0.6740     5.8010    -2.9970 H     1 <1>   0.1500 
 33 H       -5.7430     1.9850    -0.5170 H     1 <1>   0.4500 
 34 H        2.3820     5.7030    -1.2630 H     1 <1>   0.1500 
 35 H       -4.6390     0.7740     1.9050 H     1 <1>   0.0800 
 36 H       -5.9440     0.0690     0.9710 H     1 <1>   0.0800 
 37 H        3.2380     5.6160     0.9140 H     1 <1>   0.0800 
 38 H        4.1970     4.6010    -0.1690 H     1 <1>   0.0800 
 39 H       -5.9680     2.7830     2.3210 H     1 <1>   0.1500 
 40 H        4.8140     3.1600     1.7450 H     1 <1>   0.0800 
 41 H        3.8660     4.1640     2.8160 H     1 <1>   0.0800 
 42 H       -8.4540     2.5200     2.2060 H     1 <1>   0.1500 
 43 H       -8.2880     1.0120     1.2800 H     1 <1>   0.1500 
 44 H        6.3120     5.0820     1.2660 H     1 <1>   0.0800 
 45 H        6.2620     4.7330     2.9770 H     1 <1>   0.0800 
 46 H        5.3620     6.0880     2.3400 H     1 <1>   0.0800 
@<TRIPOS>BOND
  1   1   2  2   
  2   2   3  am  
  3   2   4  1   
  4   3   5  1   
  5   3   6  1   
  6   4   7  ar  
  7   4   8  ar  
  8   5   9  1   
  9   5  22  1   
 10   5  23  1   
 11   6  10  1   
 12   6  24  1   
 13   6  25  1   
 14   7  11  ar  
 15   7  26  1   
 16   8  12  ar  
 17   8  27  1   
 18   9  13  1   
 19   9  28  1   
 20   9  29  1   
 21  10  13  1   
 22  10  30  1   
 23  10  31  1   
 24  11  14  1   
 25  11  15  ar  
 26  12  15  ar  
 27  12  32  1   
 28  13  16  1   
 29  13  33  1   
 30  14  17  1   
 31  15  34  1   
 32  16  18  1   
 33  16  35  1   
 34  16  36  1   
 35  17  19  1   
 36  17  37  1   
 37  17  38  1   
 38  18  20  2   
 39  18  39  1   
 40  19  21  1   
 41  19  40  1   
 42  19  41  1   
 43  20  42  1   
 44  20  43  1   
 45  21  44  1   
 46  21  45  1   
 47  21  46  1   
@<TRIPOS>SUBSTRUCTURE
  1 ****   4 GROUP 4 **** **** 0

# MOE 2024.06 (io_trps.svl 2023.06)
