@<TRIPOS>MOLECULE
NONAME
41 41 1 0 0 
SMALL
USER_CHARGES


@<TRIPOS>ATOM
  1 O        0.6400    -1.4920    -0.2350 O.3   1 <1>  -0.3630 
  2 C       -0.6720    -1.4850     0.1280 C.ar  1 <1>   0.0820 
  3 C        1.6130    -0.7540     0.4620 C.3   1 <1>   0.1200 
  4 C       -1.5570    -2.2870    -0.5960 C.ar  1 <1>  -0.1440 
  5 C       -1.1420    -0.7150     1.1890 C.ar  1 <1>  -0.1500 
  6 C        2.9610    -1.0320    -0.2060 C.3   1 <1>  -0.1600 
  7 C       -2.9020    -2.3250    -0.2340 C.ar  1 <1>  -0.1440 
  8 C       -1.0350    -3.1200    -1.7680 C.3   1 <1>  -0.0960 
  9 C       -2.4780    -0.7500     1.5330 C.ar  1 <1>  -0.1500 
 10 C        4.1070    -0.2760     0.4800 C.3   1 <1>  -0.1600 
 11 C       -3.3520    -1.5520     0.8260 C.ar  1 <1>  -0.1500 
 12 C       -3.9150    -3.1980    -0.9640 C.3   1 <1>  -0.0970 
 13 C        5.4350    -0.5800    -0.2110 C.3   1 <1>   0.3430 
 14 N        6.5200     0.1620     0.4720 N.4   1 <1>  -0.9060 
 15 C        7.8480    -0.0970    -0.1600 C.3   1 <1>   0.3430 
 16 C        8.9760     0.6690     0.5430 C.3   1 <1>   0.1200 
 17 O       10.1520     0.3630    -0.1130 O.3   1 <1>  -0.6800 
 18 H        1.6130    -1.0810     1.4880 H     1 <1>   0.0800 
 19 H        1.3550     0.2890     0.3970 H     1 <1>   0.0800 
 20 H       -0.4910    -0.0840     1.7610 H     1 <1>   0.1500 
 21 H        2.8950    -0.7360    -1.2400 H     1 <1>   0.0800 
 22 H        3.1470    -2.0930    -0.1650 H     1 <1>   0.0800 
 23 H       -0.2000    -2.6400    -2.2420 H     1 <1>   0.0800 
 24 H       -1.7870    -3.2550    -2.5220 H     1 <1>   0.0800 
 25 H       -0.7200    -4.0830    -1.4110 H     1 <1>   0.0800 
 26 H       -2.8420    -0.1540     2.3530 H     1 <1>   0.1500 
 27 H        4.1540    -0.5790     1.5120 H     1 <1>   0.0800 
 28 H        3.9030     0.7800     0.4330 H     1 <1>   0.0800 
 29 H       -4.3890    -1.5710     1.1090 H     1 <1>   0.1500 
 30 H       -3.5480    -4.2060    -1.0400 H     1 <1>   0.0800 
 31 H       -4.0890    -2.8090    -1.9510 H     1 <1>   0.0800 
 32 H       -4.8520    -3.2240    -0.4400 H     1 <1>   0.0800 
 33 H        5.3780    -0.2850    -1.2470 H     1 <1>   0.0800 
 34 H        5.6280    -1.6410    -0.1700 H     1 <1>   0.0800 
 35 H        6.5470    -0.1160     1.4620 H     1 <1>   0.4500 
 36 H        6.3110     1.1680     0.4420 H     1 <1>   0.4500 
 37 H        7.8230     0.2050    -1.1950 H     1 <1>   0.0800 
 38 H        8.0720    -1.1510    -0.1180 H     1 <1>   0.0800 
 39 H        9.0790     0.3610     1.5690 H     1 <1>   0.0800 
 40 H        8.8270     1.7330     0.4790 H     1 <1>   0.0800 
 41 H       10.9250     0.8210     0.2840 H     1 <1>   0.4000 
@<TRIPOS>BOND
  1   1   2  1   
  2   1   3  1   
  3   2   4  ar  
  4   2   5  ar  
  5   3   6  1   
  6   3  18  1   
  7   3  19  1   
  8   4   7  ar  
  9   4   8  1   
 10   5   9  ar  
 11   5  20  1   
 12   6  10  1   
 13   6  21  1   
 14   6  22  1   
 15   7  11  ar  
 16   7  12  1   
 17   8  23  1   
 18   8  24  1   
 19   8  25  1   
 20   9  11  ar  
 21   9  26  1   
 22  10  13  1   
 23  10  27  1   
 24  10  28  1   
 25  11  29  1   
 26  12  30  1   
 27  12  31  1   
 28  12  32  1   
 29  13  14  1   
 30  13  33  1   
 31  13  34  1   
 32  14  15  1   
 33  14  35  1   
 34  14  36  1   
 35  15  16  1   
 36  15  37  1   
 37  15  38  1   
 38  16  17  1   
 39  16  39  1   
 40  16  40  1   
 41  17  41  1   
@<TRIPOS>SUBSTRUCTURE
  1 ****   3 GROUP 4 **** **** 0

# MOE 2024.06 (io_trps.svl 2023.06)
