@<TRIPOS>MOLECULE
NONAME
49 51 1 0 0 
SMALL
USER_CHARGES


@<TRIPOS>ATOM
  1 F        0.8810    -0.8130     1.6630 F     1 <1>  -0.1900 
  2 C       -0.0040    -1.4010     0.8910 C.ar  1 <1>   0.1900 
  3 C        0.4150    -2.3500    -0.0490 C.ar  1 <1>   0.1000 
  4 C       -1.3280    -1.0420     1.0540 C.ar  1 <1>  -0.1500 
  5 N        1.7440    -2.7460    -0.2520 N.pl3 1 <1>  -0.8380 
  6 C       -0.5730    -2.9330    -0.8320 C.ar  1 <1>  -0.1500 
  7 C       -2.2880    -1.6430     0.2570 C.ar  1 <1>  -0.1500 
  8 C        2.3640    -3.5280     0.8620 C.3   1 <1>   0.2090 
  9 C        2.6640    -1.6940    -0.7770 C.3   1 <1>   0.2090 
 10 C       -1.9070    -2.5870    -0.6840 C.ar  1 <1>  -0.1500 
 11 C        3.7060    -4.1470     0.4340 C.3   1 <1>   0.1400 
 12 C        4.0040    -2.3050    -1.2270 C.3   1 <1>   0.1400 
 13 N        4.6310    -3.1120    -0.1310 N.am  1 <1>  -0.6600 
 14 C        5.9520    -3.0660     0.2360 C.2   1 <1>   0.6900 
 15 O        6.4380    -3.9750     0.8810 O.2   1 <1>  -0.5700 
 16 N        6.6970    -1.9700    -0.1010 N.am  1 <1>  -0.5470 
 17 C        8.0700    -1.7260    -0.0210 C.ar  1 <1>   0.1170 
 18 C        9.0240    -2.7380     0.0130 C.ar  1 <1>  -0.1500 
 19 C        8.5230    -0.4120     0.0070 C.ar  1 <1>  -0.1500 
 20 C       10.3720    -2.4460     0.0780 C.ar  1 <1>  -0.1500 
 21 C        9.8730    -0.1220     0.0720 C.ar  1 <1>  -0.1500 
 22 C       10.8410    -1.1300     0.1100 C.ar  1 <1>   0.0860 
 23 C       12.2600    -0.8390     0.1770 C.2   1 <1>   0.6340 
 24 O       13.1190    -1.6980     0.1980 O.2   1 <1>  -0.5700 
 25 O       12.6370     0.4440     0.2170 O.3   1 <1>  -0.4300 
 26 C       13.9960     0.8120     0.2830 C.3   1 <1>   0.1200 
 27 C       14.0730     2.3350     0.3140 C.3   1 <1>  -0.2400 
 28 H       -1.6000    -0.3080     1.7910 H     1 <1>   0.1500 
 29 H       -0.2810    -3.6660    -1.5620 H     1 <1>   0.1500 
 30 H       -3.3250    -1.3780     0.3670 H     1 <1>   0.1500 
 31 H        1.6910    -4.3110     1.1640 H     1 <1>   0.0800 
 32 H        2.5280    -2.8840     1.7090 H     1 <1>   0.0800 
 33 H        2.8470    -0.9590    -0.0130 H     1 <1>   0.0800 
 34 H        2.1970    -1.2010    -1.6120 H     1 <1>   0.0800 
 35 H       -2.6520    -3.0550    -1.3050 H     1 <1>   0.1500 
 36 H        3.5240    -4.9000    -0.3130 H     1 <1>   0.0800 
 37 H        4.1540    -4.6280     1.2860 H     1 <1>   0.0800 
 38 H        4.6600    -1.5210    -1.5560 H     1 <1>   0.0800 
 39 H        3.8190    -2.9500    -2.0670 H     1 <1>   0.0800 
 40 H        6.1200    -1.1750    -0.3440 H     1 <1>   0.3700 
 41 H        8.7090    -3.7670    -0.0130 H     1 <1>   0.1500 
 42 H        7.8120     0.3940    -0.0170 H     1 <1>   0.1500 
 43 H       11.0850    -3.2540     0.1060 H     1 <1>   0.1500 
 44 H       10.1860     0.9080     0.0950 H     1 <1>   0.1500 
 45 H       14.5000     0.4160    -0.5830 H     1 <1>   0.0800 
 46 H       14.4220     0.3840     1.1750 H     1 <1>   0.0800 
 47 H       13.6350     2.7460    -0.5770 H     1 <1>   0.0800 
 48 H       15.1010     2.6450     0.3650 H     1 <1>   0.0800 
 49 H       13.5580     2.7140     1.1790 H     1 <1>   0.0800 
@<TRIPOS>BOND
  1   1   2  1   
  2   2   3  ar  
  3   2   4  ar  
  4   3   5  1   
  5   3   6  ar  
  6   4   7  ar  
  7   4  28  1   
  8   5   8  1   
  9   5   9  1   
 10   6  10  ar  
 11   6  29  1   
 12   7  10  ar  
 13   7  30  1   
 14   8  11  1   
 15   8  31  1   
 16   8  32  1   
 17   9  12  1   
 18   9  33  1   
 19   9  34  1   
 20  10  35  1   
 21  11  13  1   
 22  11  36  1   
 23  11  37  1   
 24  12  13  1   
 25  12  38  1   
 26  12  39  1   
 27  13  14  am  
 28  14  15  2   
 29  14  16  am  
 30  16  17  1   
 31  16  40  1   
 32  17  18  ar  
 33  17  19  ar  
 34  18  20  ar  
 35  18  41  1   
 36  19  21  ar  
 37  19  42  1   
 38  20  22  ar  
 39  20  43  1   
 40  21  22  ar  
 41  21  44  1   
 42  22  23  1   
 43  23  24  2   
 44  23  25  1   
 45  25  26  1   
 46  26  27  1   
 47  26  45  1   
 48  26  46  1   
 49  27  47  1   
 50  27  48  1   
 51  27  49  1   
@<TRIPOS>SUBSTRUCTURE
  1 ****  16 GROUP 4 **** **** 0

# MOE 2024.06 (io_trps.svl 2023.06)
