@<TRIPOS>MOLECULE
NONAME
34 35 1 0 0 
SMALL
USER_CHARGES


@<TRIPOS>ATOM
  1 I       -0.5960     0.4770    -0.5190 I     1 <1>  -0.0810 
  2 C        1.4050     1.1590    -0.2630 C.ar  1 <1>   0.0810 
  3 C        2.4340     0.4160    -0.8120 C.ar  1 <1>  -0.1500 
  4 C        1.6220     2.3260     0.4450 C.ar  1 <1>  -0.1500 
  5 C        3.7350     0.8620    -0.6430 C.ar  1 <1>  -0.1500 
  6 C        2.9270     2.7600     0.6060 C.ar  1 <1>  -0.1500 
  7 C        3.9840     2.0370     0.0680 C.ar  1 <1>   0.0830 
  8 O        5.2270     2.5390     0.2790 O.3   1 <1>  -0.3630 
  9 C        6.3780     1.8600    -0.1720 C.3   1 <1>   0.1200 
 10 C        7.6000     2.6920     0.2240 C.3   1 <1>   0.1100 
 11 N        8.8650     2.0450    -0.1920 N.3   1 <1>  -0.8100 
 12 C        9.2390     0.9260     0.7010 C.3   1 <1>   0.1100 
 13 C        9.9500     3.0420    -0.2930 C.3   1 <1>   0.1100 
 14 C       10.5460     0.2500     0.2380 C.3   1 <1>   0.3430 
 15 C       11.2650     2.3970    -0.7740 C.3   1 <1>   0.3430 
 16 N       11.6620     1.2430     0.0990 N.4   1 <1>  -0.9060 
 17 H        2.2250    -0.4870    -1.3580 H     1 <1>   0.1500 
 18 H        0.8000     2.8810     0.8590 H     1 <1>   0.1500 
 19 H        4.5320     0.2860    -1.0720 H     1 <1>   0.1500 
 20 H        3.1340     3.6640     1.1510 H     1 <1>   0.1500 
 21 H        6.3200     1.7690    -1.2420 H     1 <1>   0.0800 
 22 H        6.3950     0.8930     0.2960 H     1 <1>   0.0800 
 23 H        7.5980     2.8570     1.2880 H     1 <1>   0.0800 
 24 H        7.5070     3.6470    -0.2680 H     1 <1>   0.0800 
 25 H        8.4570     0.1860     0.6990 H     1 <1>   0.0800 
 26 H        9.3520     1.2810     1.7120 H     1 <1>   0.0800 
 27 H       10.1040     3.5200     0.6610 H     1 <1>   0.0800 
 28 H        9.6650     3.8040    -1.0000 H     1 <1>   0.0800 
 29 H       10.3610    -0.2220    -0.7140 H     1 <1>   0.0800 
 30 H       10.8200    -0.5190     0.9410 H     1 <1>   0.0800 
 31 H       12.0460     3.1400    -0.7840 H     1 <1>   0.0800 
 32 H       11.1200     2.0530    -1.7850 H     1 <1>   0.0800 
 33 H       12.4970     0.7830    -0.2850 H     1 <1>   0.4500 
 34 H       11.9050     1.6010     1.0300 H     1 <1>   0.4500 
@<TRIPOS>BOND
  1   1   2  1   
  2   2   3  ar  
  3   2   4  ar  
  4   3   5  ar  
  5   3  17  1   
  6   4   6  ar  
  7   4  18  1   
  8   5   7  ar  
  9   5  19  1   
 10   6   7  ar  
 11   6  20  1   
 12   7   8  1   
 13   8   9  1   
 14   9  10  1   
 15   9  21  1   
 16   9  22  1   
 17  10  11  1   
 18  10  23  1   
 19  10  24  1   
 20  11  12  1   
 21  11  13  1   
 22  12  14  1   
 23  12  25  1   
 24  12  26  1   
 25  13  15  1   
 26  13  27  1   
 27  13  28  1   
 28  14  16  1   
 29  14  29  1   
 30  14  30  1   
 31  15  16  1   
 32  15  31  1   
 33  15  32  1   
 34  16  33  1   
 35  16  34  1   
@<TRIPOS>SUBSTRUCTURE
  1 ****   9 GROUP 4 **** **** 0

# MOE 2024.06 (io_trps.svl 2023.06)
