@<TRIPOS>MOLECULE
NONAME
42 43 1 0 0 
SMALL
USER_CHARGES


@<TRIPOS>ATOM
  1 O        0.5740    -0.0170    -1.4180 O.2   1 <1>  -0.5700 
  2 C        0.7160     1.0760    -0.9290 C.2   1 <1>   0.6590 
  3 O        0.4330     2.1920    -1.5920 O.3   1 <1>  -0.4300 
  4 C        1.2380     1.2480     0.5030 C.3   1 <1>   0.1710 
  5 C       -0.0570     2.1640    -2.9180 C.3   1 <1>   0.0400 
  6 N        2.7280     1.2270     0.6540 N.3   1 <1>  -0.8100 
  7 C        3.1390     1.4870     2.0520 C.3   1 <1>   0.1100 
  8 C        3.3080    -0.0540     0.1630 C.3   1 <1>   0.1100 
  9 C        4.6800     1.5610     2.2010 C.3   1 <1>   0.3430 
 10 C        4.8230    -0.1810     0.4480 C.3   1 <1>   0.3430 
 11 N        5.3780     1.1190     0.9500 N.4   1 <1>  -0.9590 
 12 C        6.8620     1.1550     1.0340 C.3   1 <1>   0.4860 
 13 C        7.4410     0.7900    -0.3210 C.ar  1 <1>  -0.1440 
 14 C        8.1070    -0.4160    -0.5310 C.ar  1 <1>  -0.1440 
 15 C        7.2900     1.6830    -1.3740 C.ar  1 <1>  -0.1500 
 16 C        8.5950    -0.7110    -1.7950 C.ar  1 <1>  -0.1500 
 17 C        8.3310    -1.4270     0.5870 C.3   1 <1>  -0.0970 
 18 C        7.7800     1.3780    -2.6300 C.ar  1 <1>  -0.1500 
 19 C        8.4310     0.1790    -2.8410 C.ar  1 <1>  -0.1500 
 20 H        0.8070     0.4660     1.1020 H     1 <1>   0.0800 
 21 H        0.8620     2.1860     0.8710 H     1 <1>   0.0800 
 22 H       -0.2150     3.1760    -3.2450 H     1 <1>   0.0800 
 23 H       -0.9850     1.6190    -2.9350 H     1 <1>   0.0800 
 24 H        0.6700     1.6790    -3.5470 H     1 <1>   0.0800 
 25 H        2.7600     0.7080     2.6920 H     1 <1>   0.0800 
 26 H        2.7140     2.4180     2.3870 H     1 <1>   0.0800 
 27 H        3.1600    -0.1250    -0.9020 H     1 <1>   0.0800 
 28 H        2.7960    -0.8900     0.6100 H     1 <1>   0.0800 
 29 H        4.9820     0.9480     3.0330 H     1 <1>   0.0800 
 30 H        4.9560     2.5790     2.4270 H     1 <1>   0.0800 
 31 H        5.3230    -0.4770    -0.4610 H     1 <1>   0.0800 
 32 H        4.9850    -0.9570     1.1770 H     1 <1>   0.0800 
 33 H        5.0770     1.7880     0.2270 H     1 <1>   0.4500 
 34 H        7.2070     0.4650     1.7840 H     1 <1>   0.0800 
 35 H        7.1930     2.1440     1.3050 H     1 <1>   0.0800 
 36 H        6.7910     2.6270    -1.2350 H     1 <1>   0.1500 
 37 H        9.1120    -1.6370    -1.9800 H     1 <1>   0.1500 
 38 H        8.9400    -0.9960     1.3620 H     1 <1>   0.0800 
 39 H        8.8420    -2.2990     0.2170 H     1 <1>   0.0800 
 40 H        7.3950    -1.7480     1.0050 H     1 <1>   0.0800 
 41 H        7.6600     2.0720    -3.4450 H     1 <1>   0.1500 
 42 H        8.8150    -0.0620    -3.8170 H     1 <1>   0.1500 
@<TRIPOS>BOND
  1   1   2  2   
  2   2   3  1   
  3   2   4  1   
  4   3   5  1   
  5   4   6  1   
  6   4  20  1   
  7   4  21  1   
  8   5  22  1   
  9   5  23  1   
 10   5  24  1   
 11   6   7  1   
 12   6   8  1   
 13   7   9  1   
 14   7  25  1   
 15   7  26  1   
 16   8  10  1   
 17   8  27  1   
 18   8  28  1   
 19   9  11  1   
 20   9  29  1   
 21   9  30  1   
 22  10  11  1   
 23  10  31  1   
 24  10  32  1   
 25  11  12  1   
 26  11  33  1   
 27  12  13  1   
 28  12  34  1   
 29  12  35  1   
 30  13  14  ar  
 31  13  15  ar  
 32  14  16  ar  
 33  14  17  1   
 34  15  18  ar  
 35  15  36  1   
 36  16  19  ar  
 37  16  37  1   
 38  17  38  1   
 39  17  39  1   
 40  17  40  1   
 41  18  19  ar  
 42  18  41  1   
 43  19  42  1   
@<TRIPOS>SUBSTRUCTURE
  1 ****  10 GROUP 4 **** **** 0

# MOE 2024.06 (io_trps.svl 2023.06)
