@<TRIPOS>MOLECULE
NONAME
40 41 1 0 0 
SMALL
USER_CHARGES


@<TRIPOS>ATOM
  1 F        0.7340    -0.5420    -1.3460 F     1 <1>  -0.1900 
  2 C        0.6730    -1.7180    -0.7650 C.ar  1 <1>   0.1900 
  3 C        1.5190    -2.0120     0.3120 C.ar  1 <1>   0.1000 
  4 C       -0.2510    -2.6180    -1.2590 C.ar  1 <1>  -0.1500 
  5 N        2.4710    -1.1340     0.8460 N.pl3 1 <1>  -0.8690 
  6 C        1.3820    -3.2700     0.8890 C.ar  1 <1>  -0.1500 
  7 C       -0.3570    -3.8650    -0.6660 C.ar  1 <1>  -0.1500 
  8 C        3.4840    -0.5420    -0.0410 C.3   1 <1>   0.2890 
  9 C        0.4600    -4.1850     0.4070 C.ar  1 <1>  -0.1500 
 10 C        4.8270    -1.2160     0.2610 C.3   1 <1>  -0.1600 
 11 C        3.4920     0.9600     0.2270 C.3   1 <1>  -0.2400 
 12 C        5.9410    -0.7990    -0.7090 C.3   1 <1>  -0.0170 
 13 C        7.2160    -1.5710    -0.4080 C.ar  1 <1>  -0.1430 
 14 C        8.1370    -1.0720     0.5000 C.ar  1 <1>  -0.1500 
 15 C        7.4690    -2.7810    -1.0360 C.ar  1 <1>  -0.1500 
 16 C        9.2970    -1.7740     0.7740 C.ar  1 <1>  -0.1500 
 17 C        8.6290    -3.4860    -0.7640 C.ar  1 <1>  -0.1500 
 18 C        9.5530    -2.9820     0.1470 C.ar  1 <1>   0.0830 
 19 O       10.7140    -3.6060     0.4710 O.3   1 <1>  -0.3620 
 20 C       11.0790    -4.8290    -0.1270 C.3   1 <1>   0.0400 
 21 H       -0.8770    -2.3440    -2.0890 H     1 <1>   0.1500 
 22 H        2.8960    -1.4490     1.7220 H     1 <1>   0.4000 
 23 H        2.0050    -3.5350     1.7230 H     1 <1>   0.1500 
 24 H       -1.0710    -4.5810    -1.0360 H     1 <1>   0.1500 
 25 H        3.2180    -0.7230    -1.0700 H     1 <1>   0.0800 
 26 H        0.3760    -5.1530     0.8700 H     1 <1>   0.1500 
 27 H        4.6980    -2.2810     0.1820 H     1 <1>   0.0800 
 28 H        5.1310    -0.9870     1.2660 H     1 <1>   0.0800 
 29 H        3.8000     1.1620     1.2360 H     1 <1>   0.0800 
 30 H        2.5040     1.3550     0.0750 H     1 <1>   0.0800 
 31 H        4.1580     1.4620    -0.4500 H     1 <1>   0.0800 
 32 H        6.1400     0.2540    -0.6230 H     1 <1>   0.0800 
 33 H        5.6350    -0.9940    -1.7230 H     1 <1>   0.0800 
 34 H        7.9550    -0.1360     0.9980 H     1 <1>   0.1500 
 35 H        6.7610    -3.1800    -1.7410 H     1 <1>   0.1500 
 36 H       10.0130    -1.3900     1.4770 H     1 <1>   0.1500 
 37 H        8.7940    -4.4190    -1.2670 H     1 <1>   0.1500 
 38 H       12.0320    -5.1250     0.2740 H     1 <1>   0.0800 
 39 H       11.1580    -4.6880    -1.1910 H     1 <1>   0.0800 
 40 H       10.3370    -5.5700     0.1110 H     1 <1>   0.0800 
@<TRIPOS>BOND
  1   1   2  1   
  2   2   3  ar  
  3   2   4  ar  
  4   3   5  1   
  5   3   6  ar  
  6   4   7  ar  
  7   4  21  1   
  8   5   8  1   
  9   5  22  1   
 10   6   9  ar  
 11   6  23  1   
 12   7   9  ar  
 13   7  24  1   
 14   8  10  1   
 15   8  11  1   
 16   8  25  1   
 17   9  26  1   
 18  10  12  1   
 19  10  27  1   
 20  10  28  1   
 21  11  29  1   
 22  11  30  1   
 23  11  31  1   
 24  12  13  1   
 25  12  32  1   
 26  12  33  1   
 27  13  14  ar  
 28  13  15  ar  
 29  14  16  ar  
 30  14  34  1   
 31  15  17  ar  
 32  15  35  1   
 33  16  18  ar  
 34  16  36  1   
 35  17  18  ar  
 36  17  37  1   
 37  18  19  1   
 38  19  20  1   
 39  20  38  1   
 40  20  39  1   
 41  20  40  1   
@<TRIPOS>SUBSTRUCTURE
  1 ****  10 GROUP 4 **** **** 0

# MOE 2024.06 (io_trps.svl 2023.06)
