@<TRIPOS>MOLECULE
NONAME
41 44 1 0 0 
SMALL
USER_CHARGES


@<TRIPOS>ATOM
  1 S       -0.3200     1.1100    -1.3110 S.o2  1 <1>   1.4470 
  2 O       -0.9870     2.1650    -2.0440 O.2   1 <1>  -0.6500 
  3 O       -0.1630    -0.1900    -1.9240 O.2   1 <1>  -0.6500 
  4 N       -1.1980     0.8740     0.1190 N.am  1 <1>  -0.8490 
  5 C        1.2950     1.6880    -0.7190 C.ar  1 <1>  -0.0090 
  6 C       -2.4050     0.0680    -0.1230 C.3   1 <1>   0.1960 
  7 C       -1.5850     2.1400     0.7660 C.3   1 <1>   0.1960 
  8 C        1.8440     2.8810    -1.1800 C.ar  1 <1>  -0.1500 
  9 C        2.0120     0.9280     0.2140 C.ar  1 <1>  -0.1500 
 10 C       -3.2090    -0.1370     1.1740 C.3   1 <1>   0.1200 
 11 C       -2.3990     1.8790     2.0470 C.3   1 <1>   0.1200 
 12 C        3.0870     3.3520    -0.7420 C.ar  1 <1>   0.0280 
 13 C        3.2370     1.3690     0.6610 C.ar  1 <1>  -0.1440 
 14 O       -3.5220     1.0940     1.7630 O.3   1 <1>  -0.5600 
 15 C        3.7670     4.5590    -1.1370 C.2   1 <1>  -0.1670 
 16 C        3.7470     2.5510     0.1870 C.ar  1 <1>   0.1170 
 17 C        4.2290     0.7750     1.6450 C.3   1 <1>  -0.0170 
 18 C        4.9860     4.8470    -0.5990 C.2   1 <1>  -0.1360 
 19 C        3.1090     5.4850    -2.1480 C.3   1 <1>  -0.1020 
 20 N        4.9690     2.8560     0.7190 N.am  1 <1>  -0.4770 
 21 C        5.3940     1.7970     1.6600 C.3   1 <1>   0.1400 
 22 C        5.6370     3.9980     0.3540 C.2   1 <1>   0.6160 
 23 O        6.7290     4.2570     0.8320 O.2   1 <1>  -0.5700 
 24 H       -2.1240    -0.8970    -0.5110 H     1 <1>   0.0800 
 25 H       -3.0320     0.5500    -0.8550 H     1 <1>   0.0800 
 26 H       -2.1810     2.7370     0.0950 H     1 <1>   0.0800 
 27 H       -0.7030     2.7020     1.0190 H     1 <1>   0.0800 
 28 H        1.2950     3.4600    -1.9000 H     1 <1>   0.1500 
 29 H        1.5990     0.0010     0.5740 H     1 <1>   0.1500 
 30 H       -2.6430    -0.7220     1.8790 H     1 <1>   0.0800 
 31 H       -4.1330    -0.6450     0.9640 H     1 <1>   0.0800 
 32 H       -2.7460     2.8080     2.4640 H     1 <1>   0.0800 
 33 H       -1.7980     1.3710     2.7800 H     1 <1>   0.0800 
 34 H        4.5740    -0.1870     1.3100 H     1 <1>   0.0800 
 35 H        3.7930     0.6830     2.6230 H     1 <1>   0.0800 
 36 H        5.5340     5.7320    -0.8600 H     1 <1>   0.1500 
 37 H        2.1630     5.8320    -1.7720 H     1 <1>   0.0800 
 38 H        2.9470     4.9630    -3.0750 H     1 <1>   0.0800 
 39 H        3.7300     6.3400    -2.3450 H     1 <1>   0.0800 
 40 H        6.3120     1.3540     1.3140 H     1 <1>   0.0800 
 41 H        5.5370     2.2190     2.6390 H     1 <1>   0.0800 
@<TRIPOS>BOND
  1   1   2  2   
  2   1   3  2   
  3   1   4  am  
  4   1   5  1   
  5   4   6  1   
  6   4   7  1   
  7   5   8  ar  
  8   5   9  ar  
  9   6  10  1   
 10   6  24  1   
 11   6  25  1   
 12   7  11  1   
 13   7  26  1   
 14   7  27  1   
 15   8  12  ar  
 16   8  28  1   
 17   9  13  ar  
 18   9  29  1   
 19  10  14  1   
 20  10  30  1   
 21  10  31  1   
 22  11  14  1   
 23  11  32  1   
 24  11  33  1   
 25  12  15  1   
 26  12  16  ar  
 27  13  16  ar  
 28  13  17  1   
 29  15  18  2   
 30  15  19  1   
 31  16  20  1   
 32  17  21  1   
 33  17  34  1   
 34  17  35  1   
 35  18  22  1   
 36  18  36  1   
 37  19  37  1   
 38  19  38  1   
 39  19  39  1   
 40  20  21  1   
 41  20  22  am  
 42  21  40  1   
 43  21  41  1   
 44  22  23  2   
@<TRIPOS>SUBSTRUCTURE
  1 ****   5 GROUP 4 **** **** 0

# MOE 2024.06 (io_trps.svl 2023.06)
