@<TRIPOS>MOLECULE
NONAME
46 47 1 0 0 
SMALL
USER_CHARGES


@<TRIPOS>ATOM
  1 O       -0.5680     0.7810    -2.2760 O.2   1 <1>  -0.5700 
  2 C       -0.9790     1.5850    -1.4570 C.2   1 <1>   0.5440 
  3 N       -0.1150     2.5910    -1.0070 N.am  1 <1>  -0.0580 
  4 C       -2.3020     1.4970    -0.9080 C.ar  1 <1>   0.0860 
  5 N        1.0850     2.7840    -1.6060 N.2   1 <1>   0.0560 
  6 C       -0.6120     3.5090    -0.0670 C.2   1 <1>   0.4490 
  7 C       -2.6610     2.4410     0.0560 C.ar  1 <1>   0.1790 
  8 C       -3.2330     0.5210    -1.2760 C.ar  1 <1>  -0.1500 
  9 N        2.0390     1.9170    -1.4080 N.2   1 <1>   0.3760 
 10 N       -1.7800     3.4320     0.4390 N.2   1 <1>  -0.6290 
 11 C        0.3190     4.6520     0.3660 C.3   1 <1>  -0.0990 
 12 C       -3.9220     2.3910     0.6330 C.ar  1 <1>  -0.1500 
 13 C       -4.4850     0.4820    -0.6960 C.ar  1 <1>  -0.1500 
 14 N        3.2600     2.0820    -2.1030 N.pl3 1 <1>  -0.6090 
 15 C        1.9870     0.7230    -0.4910 C.3   1 <1>   0.1860 
 16 C       -0.2290     5.5600     1.4810 C.3   1 <1>  -0.2400 
 17 C       -4.8310     1.4200     0.2640 C.ar  1 <1>  -0.1500 
 18 C        4.4140     2.6570    -1.3670 C.3   1 <1>   0.2090 
 19 C        2.2010     1.1100     0.9830 C.3   1 <1>  -0.1600 
 20 C        5.4520     1.5660    -1.0930 C.3   1 <1>  -0.1600 
 21 C        2.1800    -0.1290     1.8840 C.3   1 <1>  -0.2400 
 22 C        6.6550     2.1290    -0.3270 C.3   1 <1>  -0.2400 
 23 H       -2.9680    -0.2090    -2.0220 H     1 <1>   0.1500 
 24 H        1.2490     4.2390     0.7110 H     1 <1>   0.0800 
 25 H        0.5250     5.2690    -0.4920 H     1 <1>   0.0800 
 26 H       -4.1830     3.1260     1.3750 H     1 <1>   0.1500 
 27 H       -5.1950    -0.2740    -0.9860 H     1 <1>   0.1500 
 28 H        3.5050     1.2970    -2.7220 H     1 <1>   0.4000 
 29 H        1.0500     0.2100    -0.5910 H     1 <1>   0.0800 
 30 H        2.7490     0.0260    -0.7910 H     1 <1>   0.0800 
 31 H       -0.4340     4.9870     2.3690 H     1 <1>   0.0800 
 32 H       -1.1420     6.0350     1.1640 H     1 <1>   0.0800 
 33 H        0.4860     6.3270     1.7250 H     1 <1>   0.0800 
 34 H       -5.8080     1.3900     0.7180 H     1 <1>   0.1500 
 35 H        4.8590     3.4310    -1.9710 H     1 <1>   0.0800 
 36 H        4.0880     3.1060    -0.4430 H     1 <1>   0.0800 
 37 H        3.1500     1.6030     1.1070 H     1 <1>   0.0800 
 38 H        1.4230     1.7770     1.3110 H     1 <1>   0.0800 
 39 H        5.0200     0.7730    -0.5090 H     1 <1>   0.0800 
 40 H        5.8030     1.1560    -2.0250 H     1 <1>   0.0800 
 41 H        2.9640    -0.8160     1.6140 H     1 <1>   0.0800 
 42 H        1.2340    -0.6390     1.8160 H     1 <1>   0.0800 
 43 H        2.3290     0.1600     2.9110 H     1 <1>   0.0800 
 44 H        6.3530     2.5280     0.6260 H     1 <1>   0.0800 
 45 H        7.1360     2.9090    -0.8920 H     1 <1>   0.0800 
 46 H        7.3770     1.3500    -0.1520 H     1 <1>   0.0800 
@<TRIPOS>BOND
  1   1   2  2   
  2   2   3  am  
  3   2   4  1   
  4   3   5  1   
  5   3   6  1   
  6   4   7  ar  
  7   4   8  ar  
  8   5   9  2   
  9   6  10  2   
 10   6  11  1   
 11   7  10  1   
 12   7  12  ar  
 13   8  13  ar  
 14   8  23  1   
 15   9  14  1   
 16   9  15  1   
 17  11  16  1   
 18  11  24  1   
 19  11  25  1   
 20  12  17  ar  
 21  12  26  1   
 22  13  17  ar  
 23  13  27  1   
 24  14  18  1   
 25  14  28  1   
 26  15  19  1   
 27  15  29  1   
 28  15  30  1   
 29  16  31  1   
 30  16  32  1   
 31  16  33  1   
 32  17  34  1   
 33  18  20  1   
 34  18  35  1   
 35  18  36  1   
 36  19  21  1   
 37  19  37  1   
 38  19  38  1   
 39  20  22  1   
 40  20  39  1   
 41  20  40  1   
 42  21  41  1   
 43  21  42  1   
 44  21  43  1   
 45  22  44  1   
 46  22  45  1   
 47  22  46  1   
@<TRIPOS>SUBSTRUCTURE
  1 ****   3 GROUP 4 **** **** 0

# MOE 2024.06 (io_trps.svl 2023.06)
