@<TRIPOS>MOLECULE
NONAME
44 44 1 0 0 
SMALL
USER_CHARGES


@<TRIPOS>ATOM
  1 O       -1.9180     0.5510     0.3050 O.3   1 <1>  -0.3630 
  2 C       -1.0080     1.5180    -0.0310 C.ar  1 <1>   0.0830 
  3 C       -1.4840    -0.7870     0.4780 C.3   1 <1>   0.0400 
  4 C        0.2850     1.6030     0.5100 C.ar  1 <1>   0.0830 
  5 C       -1.4330     2.4670    -0.9580 C.ar  1 <1>  -0.1440 
  6 O        0.6650     0.7210     1.4780 O.3   1 <1>  -0.3620 
  7 C        1.1400     2.6080     0.0650 C.ar  1 <1>  -0.1500 
  8 C       -0.5660     3.4610    -1.3860 C.ar  1 <1>  -0.1500 
  9 C       -2.8480     2.4210    -1.4950 C.3   1 <1>   0.4860 
 10 C        1.9540     0.7420     2.0540 C.3   1 <1>   0.0400 
 11 C        0.7170     3.5250    -0.8790 C.ar  1 <1>  -0.1500 
 12 N       -3.7710     2.5490    -0.3270 N.4   1 <1>  -0.9590 
 13 C       -5.1520     2.0480    -0.6450 C.3   1 <1>   0.3430 
 14 C       -3.7050     3.9380     0.2400 C.3   1 <1>   0.2630 
 15 C       -6.0420     1.8320     0.6130 C.3   1 <1>   0.3430 
 16 N       -7.4180     1.2720     0.3260 N.4   1 <1>  -0.9590 
 17 C       -8.2510     1.2850     1.5770 C.3   1 <1>   0.2630 
 18 C       -7.3880    -0.1280    -0.2200 C.3   1 <1>   0.2630 
 19 H       -1.1520    -0.9200     1.4930 H     1 <1>   0.0800 
 20 H       -0.6790    -0.9930    -0.2070 H     1 <1>   0.0800 
 21 H       -2.3090    -1.4460     0.2800 H     1 <1>   0.0800 
 22 H        2.1420     2.7000     0.4400 H     1 <1>   0.1500 
 23 H       -0.8710     4.1940    -2.1150 H     1 <1>   0.1500 
 24 H       -2.9950     1.4740    -1.9890 H     1 <1>   0.0800 
 25 H       -3.0120     3.2150    -2.2050 H     1 <1>   0.0800 
 26 H        2.1070     1.6880     2.5420 H     1 <1>   0.0800 
 27 H        2.6860     0.5830     1.2810 H     1 <1>   0.0800 
 28 H        2.0110    -0.0530     2.7760 H     1 <1>   0.0800 
 29 H        1.3940     4.2940    -1.2160 H     1 <1>   0.1500 
 30 H       -3.3040     1.9090     0.3500 H     1 <1>   0.4500 
 31 H       -5.0630     1.1060    -1.1600 H     1 <1>   0.0800 
 32 H       -5.6360     2.7490    -1.3060 H     1 <1>   0.0800 
 33 H       -4.0960     4.6550    -0.4640 H     1 <1>   0.0800 
 34 H       -2.6810     4.2010     0.4580 H     1 <1>   0.0800 
 35 H       -4.2680     4.0050     1.1560 H     1 <1>   0.0800 
 36 H       -6.1550     2.7810     1.1120 H     1 <1>   0.0800 
 37 H       -5.5300     1.1630     1.2850 H     1 <1>   0.0800 
 38 H       -7.9120     1.8740    -0.3560 H     1 <1>   0.4500 
 39 H       -7.8050     0.6600     2.3350 H     1 <1>   0.0800 
 40 H       -9.2430     0.9140     1.3700 H     1 <1>   0.0800 
 41 H       -8.3390     2.2870     1.9650 H     1 <1>   0.0800 
 42 H       -6.9030    -0.7940     0.4760 H     1 <1>   0.0800 
 43 H       -6.8600    -0.1630    -1.1590 H     1 <1>   0.0800 
 44 H       -8.3930    -0.4840    -0.3860 H     1 <1>   0.0800 
@<TRIPOS>BOND
  1   1   2  1   
  2   1   3  1   
  3   2   4  ar  
  4   2   5  ar  
  5   3  19  1   
  6   3  20  1   
  7   3  21  1   
  8   4   6  1   
  9   4   7  ar  
 10   5   8  ar  
 11   5   9  1   
 12   6  10  1   
 13   7  11  ar  
 14   7  22  1   
 15   8  11  ar  
 16   8  23  1   
 17   9  12  1   
 18   9  24  1   
 19   9  25  1   
 20  10  26  1   
 21  10  27  1   
 22  10  28  1   
 23  11  29  1   
 24  12  13  1   
 25  12  14  1   
 26  12  30  1   
 27  13  15  1   
 28  13  31  1   
 29  13  32  1   
 30  14  33  1   
 31  14  34  1   
 32  14  35  1   
 33  15  16  1   
 34  15  36  1   
 35  15  37  1   
 36  16  17  1   
 37  16  18  1   
 38  16  38  1   
 39  17  39  1   
 40  17  40  1   
 41  17  41  1   
 42  18  42  1   
 43  18  43  1   
 44  18  44  1   
@<TRIPOS>SUBSTRUCTURE
  1 ****   1 GROUP 4 **** **** 0

# MOE 2024.06 (io_trps.svl 2023.06)
