@<TRIPOS>MOLECULE
NONAME
72 74 1 0 0 
SMALL
USER_CHARGES


@<TRIPOS>ATOM
  1 O        0.5510     1.4920    -1.3600 O.3   1 <1>  -0.5600 
  2 C        0.0610     0.1950    -1.5510 C.3   1 <1>   0.1200 
  3 C        1.9270     1.5450    -1.1190 C.3   1 <1>   0.1200 
  4 C       -1.4120     0.2440    -1.9830 C.3   1 <1>   0.1200 
  5 C        2.3940     3.0040    -1.2150 C.3   1 <1>   0.3430 
  6 O       -2.2120     0.8420    -1.0010 O.3   1 <1>  -0.5600 
  7 N        1.4260     3.9260    -0.5480 N.4   1 <1>  -0.9590 
  8 C       -2.7980    -0.0450    -0.0860 C.3   1 <1>   0.1200 
  9 C        1.5350     5.3120    -1.1000 C.3   1 <1>   0.3430 
 10 C        1.4750     3.8650     0.9460 C.3   1 <1>   0.4860 
 11 C       -3.6590     0.7530     0.9110 C.3   1 <1>   0.3430 
 12 C        0.4490     6.2630    -0.5610 C.3   1 <1>   0.1200 
 13 C        2.8850     4.1160     1.4640 C.ar  1 <1>  -0.1430 
 14 N       -4.2360     1.9580     0.2500 N.4   1 <1>  -0.9590 
 15 O       -0.7730     5.5960    -0.3920 O.3   1 <1>  -0.5600 
 16 C        3.7110     3.0430     1.7720 C.ar  1 <1>  -0.1500 
 17 C        3.3630     5.4070     1.6470 C.ar  1 <1>  -0.1500 
 18 C       -4.6080     3.0310     1.2130 C.3   1 <1>   0.3430 
 19 C       -5.2860     1.6560    -0.7670 C.3   1 <1>   0.4860 
 20 C       -1.6710     5.6660    -1.4670 C.3   1 <1>   0.1200 
 21 C        5.0000     3.2560     2.2260 C.ar  1 <1>  -0.1500 
 22 C        4.6520     5.6210     2.1010 C.ar  1 <1>  -0.1500 
 23 C       -4.4870     4.4010     0.5290 C.3   1 <1>   0.1200 
 24 C       -6.5370     1.0980    -0.1060 C.ar  1 <1>  -0.1430 
 25 C       -3.1100     5.6080    -0.9390 C.3   1 <1>   0.1200 
 26 C        5.4730     4.5450     2.3870 C.ar  1 <1>  -0.1500 
 27 O       -3.3400     4.3980    -0.2760 O.3   1 <1>  -0.5600 
 28 C       -6.6770    -0.2680     0.0990 C.ar  1 <1>  -0.1500 
 29 C       -7.5620     1.9500     0.2850 C.ar  1 <1>  -0.1500 
 30 C       -7.8120    -0.7710     0.7090 C.ar  1 <1>  -0.1500 
 31 C       -8.6970     1.4460     0.8950 C.ar  1 <1>  -0.1500 
 32 C       -8.8200     0.0860     1.1110 C.ar  1 <1>  -0.1500 
 33 H        0.1710    -0.3630    -0.6380 H     1 <1>   0.0800 
 34 H        0.6370    -0.2790    -2.3280 H     1 <1>   0.0800 
 35 H        2.4450     0.9530    -1.8560 H     1 <1>   0.0800 
 36 H        2.1210     1.1410    -0.1410 H     1 <1>   0.0800 
 37 H       -1.7790    -0.7450    -2.2000 H     1 <1>   0.0800 
 38 H       -1.4950     0.8360    -2.8780 H     1 <1>   0.0800 
 39 H        2.4600     3.2560    -2.2610 H     1 <1>   0.0800 
 40 H        3.3790     3.1120    -0.7920 H     1 <1>   0.0800 
 41 H        0.4840     3.5750    -0.8040 H     1 <1>   0.4500 
 42 H       -2.0270    -0.5860     0.4340 H     1 <1>   0.0800 
 43 H       -3.4150    -0.7410    -0.6290 H     1 <1>   0.0800 
 44 H        1.4410     5.2710    -2.1720 H     1 <1>   0.0800 
 45 H        2.5070     5.7210    -0.8770 H     1 <1>   0.0800 
 46 H        1.1510     2.8910     1.2730 H     1 <1>   0.0800 
 47 H        0.7960     4.5890     1.3670 H     1 <1>   0.0800 
 48 H       -3.0210     1.0660     1.7200 H     1 <1>   0.0800 
 49 H       -4.4350     0.1320     1.3260 H     1 <1>   0.0800 
 50 H        0.3290     7.1180    -1.2030 H     1 <1>   0.0800 
 51 H        0.7400     6.6280     0.4070 H     1 <1>   0.0800 
 52 H       -3.4400     2.3590    -0.2900 H     1 <1>   0.4500 
 53 H        3.3650     2.0290     1.6710 H     1 <1>   0.1500 
 54 H        2.7430     6.2630     1.4500 H     1 <1>   0.1500 
 55 H       -3.9240     3.0180     2.0450 H     1 <1>   0.0800 
 56 H       -5.6020     2.8800     1.6000 H     1 <1>   0.0800 
 57 H       -4.9060     0.9430    -1.4800 H     1 <1>   0.0800 
 58 H       -5.5370     2.5540    -1.3050 H     1 <1>   0.0800 
 59 H       -1.4790     4.8470    -2.1380 H     1 <1>   0.0800 
 60 H       -1.5380     6.5960    -1.9930 H     1 <1>   0.0800 
 61 H        5.6380     2.4210     2.4630 H     1 <1>   0.1500 
 62 H        5.0200     6.6230     2.2400 H     1 <1>   0.1500 
 63 H       -4.4000     5.1780     1.2700 H     1 <1>   0.0800 
 64 H       -5.3460     4.5920    -0.0900 H     1 <1>   0.0800 
 65 H       -3.8090     5.6850    -1.7540 H     1 <1>   0.0800 
 66 H       -3.2690     6.4270    -0.2580 H     1 <1>   0.0800 
 67 H        6.4760     4.7120     2.7420 H     1 <1>   0.1500 
 68 H       -5.9140    -0.9570    -0.2170 H     1 <1>   0.1500 
 69 H       -7.4950     3.0110     0.1160 H     1 <1>   0.1500 
 70 H       -7.9190    -1.8310     0.8700 H     1 <1>   0.1500 
 71 H       -9.4900     2.1080     1.1990 H     1 <1>   0.1500 
 72 H       -9.7040    -0.3070     1.5850 H     1 <1>   0.1500 
@<TRIPOS>BOND
  1   1   2  1   
  2   1   3  1   
  3   2   4  1   
  4   2  33  1   
  5   2  34  1   
  6   3   5  1   
  7   3  35  1   
  8   3  36  1   
  9   4   6  1   
 10   4  37  1   
 11   4  38  1   
 12   5   7  1   
 13   5  39  1   
 14   5  40  1   
 15   6   8  1   
 16   7   9  1   
 17   7  10  1   
 18   7  41  1   
 19   8  11  1   
 20   8  42  1   
 21   8  43  1   
 22   9  12  1   
 23   9  44  1   
 24   9  45  1   
 25  10  13  1   
 26  10  46  1   
 27  10  47  1   
 28  11  14  1   
 29  11  48  1   
 30  11  49  1   
 31  12  15  1   
 32  12  50  1   
 33  12  51  1   
 34  13  16  ar  
 35  13  17  ar  
 36  14  18  1   
 37  14  19  1   
 38  14  52  1   
 39  15  20  1   
 40  16  21  ar  
 41  16  53  1   
 42  17  22  ar  
 43  17  54  1   
 44  18  23  1   
 45  18  55  1   
 46  18  56  1   
 47  19  24  1   
 48  19  57  1   
 49  19  58  1   
 50  20  25  1   
 51  20  59  1   
 52  20  60  1   
 53  21  26  ar  
 54  21  61  1   
 55  22  26  ar  
 56  22  62  1   
 57  23  27  1   
 58  23  63  1   
 59  23  64  1   
 60  24  28  ar  
 61  24  29  ar  
 62  25  27  1   
 63  25  65  1   
 64  25  66  1   
 65  26  67  1   
 66  28  30  ar  
 67  28  68  1   
 68  29  31  ar  
 69  29  69  1   
 70  30  32  ar  
 71  30  70  1   
 72  31  32  ar  
 73  31  71  1   
 74  32  72  1   
@<TRIPOS>SUBSTRUCTURE
  1 ****   6 GROUP 4 **** **** 0

# MOE 2024.06 (io_trps.svl 2023.06)
