@<TRIPOS>MOLECULE
NONAME
37 37 1 0 0 
SMALL
USER_CHARGES


@<TRIPOS>ATOM
  1 F       -1.3880     0.1980     1.3410 F     1 <1>  -0.3400 
  2 C       -1.9760     0.2170     0.1480 C.3   1 <1>   1.1640 
  3 F       -2.4260    -1.0230    -0.0310 F     1 <1>  -0.3400 
  4 F       -0.9950     0.3630    -0.7380 F     1 <1>  -0.3400 
  5 C       -3.0700     1.3160     0.0190 C.ar  1 <1>   0.1660 
  6 N       -4.2670     0.9420    -0.4360 N.ar  1 <1>  -0.6200 
  7 C       -2.7670     2.6370     0.3760 C.ar  1 <1>   0.0860 
  8 C       -5.2250     1.8610    -0.5450 C.ar  1 <1>   0.1660 
  9 C       -3.7730     3.5970     0.2680 C.ar  1 <1>  -0.1440 
 10 C       -1.4430     2.9950     0.8350 C.2   1 <1>   0.6340 
 11 C       -5.0260     3.1970    -0.1960 C.ar  1 <1>  -0.1790 
 12 C       -6.6140     1.4010    -1.0740 C.3   1 <1>   0.7430 
 13 C       -3.5360     5.0710     0.6370 C.3   1 <1>  -0.0160 
 14 O       -1.1680     3.1800     2.0000 O.2   1 <1>  -0.5700 
 15 O       -0.4850     3.1030    -0.0870 O.3   1 <1>  -0.4300 
 16 C       -6.1390     4.1050    -0.3400 C.2   1 <1>   0.9790 
 17 F       -7.1540     0.5120    -0.2380 F     1 <1>  -0.3400 
 18 F       -6.4840     0.7290    -2.2200 F     1 <1>  -0.3400 
 19 C       -3.3730     5.9830    -0.5960 C.3   1 <1>  -0.0800 
 20 C        0.8470     3.4230     0.2560 C.3   1 <1>   0.0400 
 21 O       -6.6040     4.3180    -1.4680 O.co2 1 <1>  -0.9000 
 22 O       -6.6970     4.5910     0.6510 O.co2 1 <1>  -0.9000 
 23 C       -2.1600     5.5960    -1.4520 C.3   1 <1>  -0.2400 
 24 C       -3.2480     7.4460    -0.1570 C.3   1 <1>  -0.2400 
 25 H       -7.3420     2.1720    -1.2330 H     1 <1>   0.0800 
 26 H       -2.6800     5.1860     1.2750 H     1 <1>   0.0800 
 27 H       -4.3730     5.4200     1.2180 H     1 <1>   0.0800 
 28 H       -4.2580     5.8960    -1.2070 H     1 <1>   0.0800 
 29 H        0.8600     4.3840     0.7420 H     1 <1>   0.0800 
 30 H        1.4330     3.4540    -0.6450 H     1 <1>   0.0800 
 31 H        1.2260     2.6660     0.9200 H     1 <1>   0.0800 
 32 H       -1.2540     5.6580    -0.8770 H     1 <1>   0.0800 
 33 H       -2.0790     6.2570    -2.2970 H     1 <1>   0.0800 
 34 H       -2.2690     4.5940    -1.8270 H     1 <1>   0.0800 
 35 H       -2.3780     7.5880     0.4580 H     1 <1>   0.0800 
 36 H       -4.1200     7.7360     0.4040 H     1 <1>   0.0800 
 37 H       -3.1760     8.0880    -1.0170 H     1 <1>   0.0800 
@<TRIPOS>BOND
  1   1   2  1   
  2   2   3  1   
  3   2   4  1   
  4   2   5  1   
  5   5   6  ar  
  6   5   7  ar  
  7   6   8  ar  
  8   7   9  ar  
  9   7  10  1   
 10   8  11  ar  
 11   8  12  1   
 12   9  11  ar  
 13   9  13  1   
 14  10  14  2   
 15  10  15  1   
 16  11  16  1   
 17  12  17  1   
 18  12  18  1   
 19  12  25  1   
 20  13  19  1   
 21  13  26  1   
 22  13  27  1   
 23  15  20  1   
 24  16  21  ar  
 25  16  22  ar  
 26  19  23  1   
 27  19  24  1   
 28  19  28  1   
 29  20  29  1   
 30  20  30  1   
 31  20  31  1   
 32  23  32  1   
 33  23  33  1   
 34  23  34  1   
 35  24  35  1   
 36  24  36  1   
 37  24  37  1   
@<TRIPOS>SUBSTRUCTURE
  1 ****   7 GROUP 4 **** **** 0

# MOE 2024.06 (io_trps.svl 2023.06)
