@<TRIPOS>MOLECULE
NONAME
44 47 1 0 0 
SMALL
USER_CHARGES


@<TRIPOS>ATOM
  1 O       -0.3920    -0.2170    -0.3230 O.2   1 <1>  -0.5700 
  2 C       -0.3020     0.9720    -0.1230 C.2   1 <1>   0.5690 
  3 N        0.9070     1.6180    -0.0700 N.am  1 <1>  -0.5470 
  4 C       -1.6000     1.7890     0.0680 C.3   1 <1>   0.0610 
  5 C        2.2240     1.1450    -0.1890 C.ar  1 <1>   0.1170 
  6 C       -2.4980     1.6500    -1.1880 C.3   1 <1>  -0.1600 
  7 C       -2.3850     1.2460     1.2890 C.3   1 <1>  -0.1600 
  8 C       -1.3420     3.3060     0.3030 C.3   1 <1>  -0.1600 
  9 C        2.5820    -0.1810     0.0380 C.ar  1 <1>  -0.1500 
 10 C        3.2240     2.0470    -0.5330 C.ar  1 <1>  -0.1500 
 11 C       -3.8260     2.4090    -1.0090 C.3   1 <1>  -0.0800 
 12 C       -3.7120     2.0040     1.4790 C.3   1 <1>  -0.0800 
 13 C       -2.6650     4.0720     0.4880 C.3   1 <1>  -0.0800 
 14 C        3.8970    -0.5960    -0.0810 C.ar  1 <1>  -0.1500 
 15 C        4.5400     1.6380    -0.6520 C.ar  1 <1>  -0.1500 
 16 C       -4.5720     1.8410     0.2120 C.3   1 <1>  -0.1600 
 17 C       -3.5300     3.9010    -0.7730 C.3   1 <1>  -0.1600 
 18 C       -3.4160     3.4980     1.7030 C.3   1 <1>  -0.1600 
 19 C        4.8880     0.3170    -0.4290 C.ar  1 <1>   0.0830 
 20 O        6.2010    -0.0030    -0.5680 O.3   1 <1>  -0.3630 
 21 C        6.6450    -1.3300    -0.3910 C.3   1 <1>   0.0400 
 22 H        0.8330     2.6250     0.0420 H     1 <1>   0.3700 
 23 H       -1.9770     2.0260    -2.0510 H     1 <1>   0.0800 
 24 H       -2.7060     0.6090    -1.3680 H     1 <1>   0.0800 
 25 H       -1.7840     1.3380     2.1770 H     1 <1>   0.0800 
 26 H       -2.5910     0.1990     1.1480 H     1 <1>   0.0800 
 27 H       -0.8160     3.7240    -0.5380 H     1 <1>   0.0800 
 28 H       -0.7360     3.4430     1.1820 H     1 <1>   0.0800 
 29 H        1.8330    -0.8990     0.3130 H     1 <1>   0.1500 
 30 H        2.9770     3.0770    -0.7150 H     1 <1>   0.1500 
 31 H       -4.4320     2.2930    -1.8920 H     1 <1>   0.0800 
 32 H       -4.2390     1.6050     2.3290 H     1 <1>   0.0800 
 33 H       -2.4620     5.1180     0.6500 H     1 <1>   0.0800 
 34 H        4.1260    -1.6290     0.1010 H     1 <1>   0.1500 
 35 H        5.3090     2.3400    -0.9200 H     1 <1>   0.1500 
 36 H       -4.7910     0.7990     0.0520 H     1 <1>   0.0800 
 37 H       -5.5080     2.3550     0.3390 H     1 <1>   0.0800 
 38 H       -4.4540     4.4400    -0.6570 H     1 <1>   0.0800 
 39 H       -3.0190     4.3110    -1.6270 H     1 <1>   0.0800 
 40 H       -4.3390     4.0330     1.8460 H     1 <1>   0.0800 
 41 H       -2.8250     3.6230     2.5930 H     1 <1>   0.0800 
 42 H        7.7070    -1.3520    -0.5600 H     1 <1>   0.0800 
 43 H        6.1480    -1.9620    -1.1040 H     1 <1>   0.0800 
 44 H        6.4300    -1.6390     0.6170 H     1 <1>   0.0800 
@<TRIPOS>BOND
  1   1   2  2   
  2   2   3  am  
  3   2   4  1   
  4   3   5  1   
  5   3  22  1   
  6   4   6  1   
  7   4   7  1   
  8   4   8  1   
  9   5   9  ar  
 10   5  10  ar  
 11   6  11  1   
 12   6  23  1   
 13   6  24  1   
 14   7  12  1   
 15   7  25  1   
 16   7  26  1   
 17   8  13  1   
 18   8  27  1   
 19   8  28  1   
 20   9  14  ar  
 21   9  29  1   
 22  10  15  ar  
 23  10  30  1   
 24  11  16  1   
 25  11  17  1   
 26  11  31  1   
 27  12  16  1   
 28  12  18  1   
 29  12  32  1   
 30  13  17  1   
 31  13  18  1   
 32  13  33  1   
 33  14  19  ar  
 34  14  34  1   
 35  15  19  ar  
 36  15  35  1   
 37  16  36  1   
 38  16  37  1   
 39  17  38  1   
 40  17  39  1   
 41  18  40  1   
 42  18  41  1   
 43  19  20  1   
 44  20  21  1   
 45  21  42  1   
 46  21  43  1   
 47  21  44  1   
@<TRIPOS>SUBSTRUCTURE
  1 ****   3 GROUP 4 **** **** 0

# MOE 2024.06 (io_trps.svl 2023.06)
