@<TRIPOS>MOLECULE
NONAME
42 44 1 0 0 
SMALL
USER_CHARGES


@<TRIPOS>ATOM
  1 BR      -0.0490     1.5270    -1.0740 Br    1 <1>  -0.1110 
  2 C        1.3890     0.3190    -0.6530 C.ar  1 <1>   0.1110 
  3 C        2.6900     0.7830    -0.7390 C.ar  1 <1>  -0.1500 
  4 C        1.0790    -0.9790    -0.2750 C.ar  1 <1>  -0.1500 
  5 C        3.7070    -0.1030    -0.4280 C.ar  1 <1>  -0.1440 
  6 C        2.1100    -1.8550     0.0270 C.ar  1 <1>  -0.1500 
  7 C        3.4240    -1.4080    -0.0560 C.ar  1 <1>   0.1170 
  8 C        5.2130     0.1150    -0.4110 C.3   1 <1>   0.4850 
  9 N        4.6020    -2.1150     0.1760 N.am  1 <1>  -0.4770 
 10 O        5.5940     0.5180    -1.6880 O.3   1 <1>  -0.6800 
 11 C        5.6870    -1.3180    -0.0670 C.2   1 <1>   0.5690 
 12 C        5.5920     1.2050     0.5920 C.3   1 <1>  -0.0990 
 13 C        4.6900    -3.5450     0.5450 C.3   1 <1>   0.1400 
 14 O        6.8360    -1.6970    -0.0900 O.2   1 <1>  -0.5700 
 15 C        7.0570     1.1660     0.9690 C.2   1 <1>   0.5940 
 16 C        4.5350    -4.4150    -0.7080 C.3   1 <1>  -0.1600 
 17 O        7.3090     0.6240     2.0180 O.2   1 <1>  -0.5700 
 18 C        8.0380     1.8140     0.1350 C.2   1 <1>   0.0550 
 19 C        4.6590    -5.9170    -0.4080 C.3   1 <1>  -0.1600 
 20 O        9.3230     1.8140     0.4820 O.3   1 <1>  -0.2800 
 21 C        7.9250     2.5030    -1.0400 C.2   1 <1>  -0.1500 
 22 C        3.5180    -6.4450     0.4690 C.3   1 <1>  -0.2400 
 23 C       10.0170     2.4640    -0.4210 C.2   1 <1>  -0.0100 
 24 C        9.2060     2.9210    -1.3970 C.2   1 <1>  -0.1500 
 25 H        2.8930     1.7960    -1.0390 H     1 <1>   0.1500 
 26 H        0.0510    -1.2920    -0.2210 H     1 <1>   0.1500 
 27 H        1.8970    -2.8670     0.3190 H     1 <1>   0.1500 
 28 H        5.4850    -0.2370    -2.2990 H     1 <1>   0.4000 
 29 H        5.0230     1.0510     1.4910 H     1 <1>   0.0800 
 30 H        5.3300     2.1720     0.2080 H     1 <1>   0.0800 
 31 H        3.9230    -3.7690     1.2640 H     1 <1>   0.0800 
 32 H        5.6460    -3.7340     1.0020 H     1 <1>   0.0800 
 33 H        5.3090    -4.1460    -1.4060 H     1 <1>   0.0800 
 34 H        3.5840    -4.2220    -1.1720 H     1 <1>   0.0800 
 35 H        5.6040    -6.1150     0.0690 H     1 <1>   0.0800 
 36 H        4.6510    -6.4540    -1.3420 H     1 <1>   0.0800 
 37 H        7.0360     2.7020    -1.6120 H     1 <1>   0.1500 
 38 H        3.5510    -6.0120     1.4520 H     1 <1>   0.0800 
 39 H        3.6060    -7.5130     0.5730 H     1 <1>   0.0800 
 40 H        2.5640    -6.2270     0.0210 H     1 <1>   0.0800 
 41 H       11.0820     2.5560    -0.2950 H     1 <1>   0.1500 
 42 H        9.4650     3.4870    -2.2740 H     1 <1>   0.1500 
@<TRIPOS>BOND
  1   1   2  1   
  2   2   3  ar  
  3   2   4  ar  
  4   3   5  ar  
  5   3  25  1   
  6   4   6  ar  
  7   4  26  1   
  8   5   7  ar  
  9   5   8  1   
 10   6   7  ar  
 11   6  27  1   
 12   7   9  1   
 13   8  10  1   
 14   8  11  1   
 15   8  12  1   
 16   9  11  am  
 17   9  13  1   
 18  10  28  1   
 19  11  14  2   
 20  12  15  1   
 21  12  29  1   
 22  12  30  1   
 23  13  16  1   
 24  13  31  1   
 25  13  32  1   
 26  15  17  2   
 27  15  18  1   
 28  16  19  1   
 29  16  33  1   
 30  16  34  1   
 31  18  20  1   
 32  18  21  2   
 33  19  22  1   
 34  19  35  1   
 35  19  36  1   
 36  20  23  1   
 37  21  24  1   
 38  21  37  1   
 39  22  38  1   
 40  22  39  1   
 41  22  40  1   
 42  23  24  2   
 43  23  41  1   
 44  24  42  1   
@<TRIPOS>SUBSTRUCTURE
  1 ****   8 GROUP 4 **** **** 0

# MOE 2024.06 (io_trps.svl 2023.06)
