@<TRIPOS>MOLECULE
NONAME
43 45 1 0 0 
SMALL
USER_CHARGES


@<TRIPOS>ATOM
  1 CL       0.1830    -0.0190     0.5850 Cl    1 <1>  -0.1770 
  2 C        1.6740    -0.8980     0.3410 C.ar  1 <1>   0.1770 
  3 C        1.9440    -1.4450    -0.9000 C.ar  1 <1>  -0.1500 
  4 C        2.5610    -1.0340     1.3930 C.ar  1 <1>  -0.1500 
  5 C        3.1260    -2.1400    -1.0870 C.ar  1 <1>  -0.1500 
  6 C        3.7400    -1.7310     1.1970 C.ar  1 <1>  -0.1500 
  7 C        4.0340    -2.2910    -0.0450 C.ar  1 <1>   0.1000 
  8 N        5.2110    -2.9950    -0.2620 N.pl3 1 <1>  -0.8380 
  9 C        5.3090    -4.3350     0.3850 C.3   1 <1>   0.2090 
 10 C        6.4760    -2.2020    -0.2350 C.3   1 <1>   0.2090 
 11 C        6.4860    -5.1420    -0.2040 C.3   1 <1>   0.3430 
 12 C        7.6470    -3.0210    -0.8160 C.3   1 <1>   0.3430 
 13 N        7.7880    -4.3810    -0.1670 N.4   1 <1>  -0.9590 
 14 C        8.9040    -5.1580    -0.7690 C.3   1 <1>   0.4860 
 15 C       10.1960    -4.4110    -0.5120 C.ar  1 <1>  -0.1430 
 16 C       10.7660    -4.4070     0.7540 C.ar  1 <1>  -0.1500 
 17 C       10.8170    -3.7140    -1.5390 C.ar  1 <1>  -0.1500 
 18 C       11.9330    -3.7030     0.9890 C.ar  1 <1>  -0.1500 
 19 C       11.9840    -3.0120    -1.2990 C.ar  1 <1>  -0.1500 
 20 C       12.5470    -3.0010    -0.0340 C.ar  1 <1>  -0.1430 
 21 C       13.8290    -2.2300     0.2270 C.3   1 <1>  -0.0970 
 22 H        1.2380    -1.3240    -1.7020 H     1 <1>   0.1500 
 23 H        2.3240    -0.5980     2.3470 H     1 <1>   0.1500 
 24 H        3.3530    -2.5710    -2.0450 H     1 <1>   0.1500 
 25 H        4.4340    -1.8410     2.0090 H     1 <1>   0.1500 
 26 H        4.3890    -4.8730     0.2220 H     1 <1>   0.0800 
 27 H        5.4380    -4.2170     1.4470 H     1 <1>   0.0800 
 28 H        6.7000    -1.9090     0.7760 H     1 <1>   0.0800 
 29 H        6.3430    -1.3060    -0.8170 H     1 <1>   0.0800 
 30 H        6.2410    -5.3840    -1.2250 H     1 <1>   0.0800 
 31 H        6.5830    -6.0670     0.3400 H     1 <1>   0.0800 
 32 H        8.5590    -2.4590    -0.6940 H     1 <1>   0.0800 
 33 H        7.4750    -3.1430    -1.8730 H     1 <1>   0.0800 
 34 H        8.0440    -4.2110     0.8130 H     1 <1>   0.4500 
 35 H        8.7510    -5.2770    -1.8290 H     1 <1>   0.0800 
 36 H        8.9650    -6.1360    -0.3180 H     1 <1>   0.0800 
 37 H       10.3200    -4.9510     1.5690 H     1 <1>   0.1500 
 38 H       10.4070    -3.7090    -2.5350 H     1 <1>   0.1500 
 39 H       12.3700    -3.7040     1.9740 H     1 <1>   0.1500 
 40 H       12.4590    -2.4730    -2.1010 H     1 <1>   0.1500 
 41 H       14.4020    -2.7030     1.0050 H     1 <1>   0.0800 
 42 H       13.5960    -1.2250     0.5300 H     1 <1>   0.0800 
 43 H       14.4350    -2.1930    -0.6600 H     1 <1>   0.0800 
@<TRIPOS>BOND
  1   1   2  1   
  2   2   3  ar  
  3   2   4  ar  
  4   3   5  ar  
  5   3  22  1   
  6   4   6  ar  
  7   4  23  1   
  8   5   7  ar  
  9   5  24  1   
 10   6   7  ar  
 11   6  25  1   
 12   7   8  1   
 13   8   9  1   
 14   8  10  1   
 15   9  11  1   
 16   9  26  1   
 17   9  27  1   
 18  10  12  1   
 19  10  28  1   
 20  10  29  1   
 21  11  13  1   
 22  11  30  1   
 23  11  31  1   
 24  12  13  1   
 25  12  32  1   
 26  12  33  1   
 27  13  14  1   
 28  13  34  1   
 29  14  15  1   
 30  14  35  1   
 31  14  36  1   
 32  15  16  ar  
 33  15  17  ar  
 34  16  18  ar  
 35  16  37  1   
 36  17  19  ar  
 37  17  38  1   
 38  18  20  ar  
 39  18  39  1   
 40  19  20  ar  
 41  19  40  1   
 42  20  21  1   
 43  21  41  1   
 44  21  42  1   
 45  21  43  1   
@<TRIPOS>SUBSTRUCTURE
  1 ****  10 GROUP 4 **** **** 0

# MOE 2024.06 (io_trps.svl 2023.06)
