@<TRIPOS>MOLECULE
NONAME
48 51 1 0 0 
SMALL
USER_CHARGES


@<TRIPOS>ATOM
  1 O        0.9820    -0.0570     1.2020 O.3   1 <1>  -0.3630 
  2 C        1.7920     0.8270     0.5490 C.ar  1 <1>   0.0830 
  3 C       -0.3720     0.1970     1.5050 C.3   1 <1>   0.0400 
  4 C        1.4690     2.1300     0.1290 C.ar  1 <1>   0.0830 
  5 C        3.0600     0.3300     0.2980 C.ar  1 <1>  -0.1500 
  6 O        0.2280     2.6440     0.3670 O.3   1 <1>  -0.3630 
  7 C        2.4420     2.8810    -0.5270 C.ar  1 <1>  -0.1500 
  8 C        4.0210     1.0830    -0.3550 C.ar  1 <1>  -0.1430 
  9 C       -0.1600     3.9380    -0.0430 C.3   1 <1>   0.0400 
 10 C        3.7070     2.3700    -0.7700 C.ar  1 <1>  -0.1430 
 11 C        5.3860     0.4670    -0.6040 C.3   1 <1>   0.4860 
 12 C        4.7400     3.2390    -1.4750 C.3   1 <1>  -0.0160 
 13 N        6.4040     1.5410    -0.7700 N.4   1 <1>  -0.9590 
 14 C        5.9940     2.4560    -1.8770 C.3   1 <1>   0.3430 
 15 C        7.7680     0.9650    -0.9440 C.3   1 <1>   0.3430 
 16 C        8.8540     2.0250    -0.6940 C.3   1 <1>  -0.0800 
 17 C       10.3480     1.3330    -0.7710 C.3   1 <1>   0.0580 
 18 C        8.7400     2.7770     0.8210 C.3   1 <1>  -0.1600 
 19 C       11.6430     1.0660     0.1690 C.2   1 <1>  -0.2880 
 20 C       10.2340     1.9660     0.3940 C.3   1 <1>  -0.1600 
 21 C       10.1750     2.5380     1.5920 C.3   1 <1>   0.0580 
 22 C       11.5520     1.6990     1.4110 C.2   1 <1>  -0.2880 
 23 H       -0.7780    -0.6760     1.9820 H     1 <1>   0.0800 
 24 H       -0.9030     0.3960     0.5910 H     1 <1>   0.0800 
 25 H       -0.4270     1.0380     2.1730 H     1 <1>   0.0800 
 26 H        3.2750    -0.6710     0.6300 H     1 <1>   0.1500 
 27 H        2.2280     3.8800    -0.8570 H     1 <1>   0.1500 
 28 H       -1.1810     4.0910     0.2580 H     1 <1>   0.0800 
 29 H       -0.0840     4.0040    -1.1140 H     1 <1>   0.0800 
 30 H        0.4730     4.6630     0.4380 H     1 <1>   0.0800 
 31 H        5.3420    -0.1440    -1.4920 H     1 <1>   0.0800 
 32 H        5.6480    -0.1640     0.2300 H     1 <1>   0.0800 
 33 H        5.0230     4.0450    -0.8210 H     1 <1>   0.0800 
 34 H        4.3060     3.6770    -2.3570 H     1 <1>   0.0800 
 35 H        6.3830     2.0810     0.1050 H     1 <1>   0.4500 
 36 H        6.7840     3.1520    -2.1080 H     1 <1>   0.0800 
 37 H        5.7830     1.8780    -2.7620 H     1 <1>   0.0800 
 38 H        7.8770     0.5570    -1.9360 H     1 <1>   0.0800 
 39 H        7.9120     0.1630    -0.2370 H     1 <1>   0.0800 
 40 H        8.7870     2.7720    -1.4710 H     1 <1>   0.0800 
 41 H       10.7980     1.8210    -1.6260 H     1 <1>   0.0800 
 42 H        7.9460     2.3580     1.4200 H     1 <1>   0.0800 
 43 H        8.5440     3.8330     0.7090 H     1 <1>   0.0800 
 44 H       12.4440     0.4520    -0.2130 H     1 <1>   0.1500 
 45 H       10.6750     2.9480    -0.0710 H     1 <1>   0.0800 
 46 H        9.7210     0.9690     0.8650 H     1 <1>   0.0800 
 47 H       10.5420     3.5450     1.7480 H     1 <1>   0.0800 
 48 H       12.2630     1.6940     2.2220 H     1 <1>   0.1500 
@<TRIPOS>BOND
  1   1   2  1   
  2   1   3  1   
  3   2   4  ar  
  4   2   5  ar  
  5   3  23  1   
  6   3  24  1   
  7   3  25  1   
  8   4   6  1   
  9   4   7  ar  
 10   5   8  ar  
 11   5  26  1   
 12   6   9  1   
 13   7  10  ar  
 14   7  27  1   
 15   8  10  ar  
 16   8  11  1   
 17   9  28  1   
 18   9  29  1   
 19   9  30  1   
 20  10  12  1   
 21  11  13  1   
 22  11  31  1   
 23  11  32  1   
 24  12  14  1   
 25  12  33  1   
 26  12  34  1   
 27  13  14  1   
 28  13  15  1   
 29  13  35  1   
 30  14  36  1   
 31  14  37  1   
 32  15  16  1   
 33  15  38  1   
 34  15  39  1   
 35  16  17  1   
 36  16  18  1   
 37  16  40  1   
 38  17  19  1   
 39  17  20  1   
 40  17  41  1   
 41  18  21  1   
 42  18  42  1   
 43  18  43  1   
 44  19  22  2   
 45  19  44  1   
 46  20  21  1   
 47  20  45  1   
 48  20  46  1   
 49  21  22  1   
 50  21  47  1   
 51  22  48  1   
@<TRIPOS>SUBSTRUCTURE
  1 ****  13 GROUP 4 **** **** 0

# MOE 2024.06 (io_trps.svl 2023.06)
