@<TRIPOS>MOLECULE
NONAME
48 49 1 0 0 
SMALL
USER_CHARGES


@<TRIPOS>ATOM
  1 O        1.3540    -1.1140     3.2510 O.2   1 <1>  -0.5700 
  2 C        1.9620    -1.9120     2.5700 C.2   1 <1>   0.7800 
  3 O        3.0230    -2.5300     3.1020 O.3   1 <1>  -0.2330 
  4 N        1.6140    -2.1850     1.2820 N.am  1 <1>  -0.7300 
  5 C        4.0400    -3.0390     2.3540 C.ar  1 <1>   0.0830 
  6 C        0.7060    -1.3800     0.4460 C.3   1 <1>   0.1400 
  7 C        4.5860    -2.3280     1.3050 C.ar  1 <1>  -0.1500 
  8 C        4.5200    -4.3110     2.6780 C.ar  1 <1>  -0.1500 
  9 C        1.4340    -1.0240    -0.8530 C.3   1 <1>  -0.1600 
 10 C        5.6010    -2.8960     0.5250 C.ar  1 <1>   0.0000 
 11 C        5.5270    -4.8780     1.9340 C.ar  1 <1>  -0.1500 
 12 C        0.5800    -0.1780    -1.8080 C.3   1 <1>  -0.1600 
 13 C        6.3290    -2.4620    -0.6230 C.2   1 <1>  -0.0860 
 14 C        6.0590    -4.1670     0.8530 C.ar  1 <1>  -0.1520 
 15 C        0.2850     1.2230    -1.2590 C.3   1 <1>  -0.2400 
 16 C        7.2020    -3.4870    -0.9150 C.2   1 <1>  -0.3320 
 17 C        6.1180    -1.2010    -1.2990 C.2   1 <1>   0.8060 
 18 N        7.0430    -4.5160    -0.0390 N.pl3 1 <1>   0.0480 
 19 C        8.2370    -3.5440    -2.0340 C.3   1 <1>  -0.0600 
 20 O        6.4780    -0.9720    -2.4390 O.2   1 <1>  -0.5700 
 21 O        5.4800    -0.2260    -0.6410 O.3   1 <1>  -0.4300 
 22 C        7.7710    -5.8000    -0.0020 C.3   1 <1>   0.0160 
 23 C        5.2140     1.0260    -1.2310 C.3   1 <1>   0.1200 
 24 C        4.5330     1.9040    -0.1850 C.3   1 <1>  -0.2400 
 25 H        2.1730    -2.8860     0.7930 H     1 <1>   0.3700 
 26 H        0.4220    -0.4880     0.9790 H     1 <1>   0.0800 
 27 H       -0.1820    -1.9500     0.2340 H     1 <1>   0.0800 
 28 H        4.2320    -1.3390     1.0870 H     1 <1>   0.1500 
 29 H        4.0880    -4.8330     3.5140 H     1 <1>   0.1500 
 30 H        1.7040    -1.9350    -1.3590 H     1 <1>   0.0800 
 31 H        2.3390    -0.4910    -0.6220 H     1 <1>   0.0800 
 32 H        5.9040    -5.8550     2.1770 H     1 <1>   0.1500 
 33 H       -0.3470    -0.6860    -2.0170 H     1 <1>   0.0800 
 34 H        1.1090    -0.0750    -2.7400 H     1 <1>   0.0800 
 35 H       -0.3240     1.1730    -0.3740 H     1 <1>   0.0800 
 36 H       -0.2450     1.8000    -1.9960 H     1 <1>   0.0800 
 37 H        1.2000     1.7360    -1.0220 H     1 <1>   0.0800 
 38 H        8.3200    -2.6050    -2.5480 H     1 <1>   0.0800 
 39 H        7.9620    -4.2960    -2.7520 H     1 <1>   0.0800 
 40 H        9.2060    -3.7800    -1.6320 H     1 <1>   0.0800 
 41 H        7.0670    -6.6020     0.1150 H     1 <1>   0.0800 
 42 H        8.4520    -5.7930     0.8280 H     1 <1>   0.0800 
 43 H        8.3180    -5.9460    -0.9140 H     1 <1>   0.0800 
 44 H        4.5750     0.8720    -2.0840 H     1 <1>   0.0800 
 45 H        6.1470     1.4610    -1.5500 H     1 <1>   0.0800 
 46 H        3.6150     1.4530     0.1440 H     1 <1>   0.0800 
 47 H        4.3090     2.8660    -0.6090 H     1 <1>   0.0800 
 48 H        5.1850     2.0460     0.6590 H     1 <1>   0.0800 
@<TRIPOS>BOND
  1   1   2  2   
  2   2   3  1   
  3   2   4  am  
  4   3   5  1   
  5   4   6  1   
  6   4  25  1   
  7   5   7  ar  
  8   5   8  ar  
  9   6   9  1   
 10   6  26  1   
 11   6  27  1   
 12   7  10  ar  
 13   7  28  1   
 14   8  11  ar  
 15   8  29  1   
 16   9  12  1   
 17   9  30  1   
 18   9  31  1   
 19  10  13  1   
 20  10  14  ar  
 21  11  14  ar  
 22  11  32  1   
 23  12  15  1   
 24  12  33  1   
 25  12  34  1   
 26  13  16  2   
 27  13  17  1   
 28  14  18  1   
 29  15  35  1   
 30  15  36  1   
 31  15  37  1   
 32  16  18  1   
 33  16  19  1   
 34  17  20  2   
 35  17  21  1   
 36  18  22  1   
 37  19  38  1   
 38  19  39  1   
 39  19  40  1   
 40  21  23  1   
 41  22  41  1   
 42  22  42  1   
 43  22  43  1   
 44  23  24  1   
 45  23  44  1   
 46  23  45  1   
 47  24  46  1   
 48  24  47  1   
 49  24  48  1   
@<TRIPOS>SUBSTRUCTURE
  1 ****   7 GROUP 4 **** **** 0

# MOE 2024.06 (io_trps.svl 2023.06)
