@<TRIPOS>MOLECULE
NONAME
54 57 1 0 0 
SMALL
USER_CHARGES


@<TRIPOS>ATOM
  1 N        0.3940    -0.0940    -0.4110 N.4   1 <1>  -0.9590 
  2 C       -0.3450     1.0850    -0.9460 C.3   1 <1>   0.3430 
  3 C       -0.3390    -0.7900     0.6900 C.3   1 <1>   0.3430 
  4 C        1.7590     0.3320     0.0300 C.3   1 <1>   0.3430 
  5 C       -1.7240     0.6550    -1.4510 C.3   1 <1>  -0.1600 
  6 C       -1.7220    -1.2330     0.2060 C.3   1 <1>  -0.1600 
  7 C        2.6770    -0.8830     0.1870 C.3   1 <1>  -0.1600 
  8 C       -2.5180    -0.0490    -0.3500 C.3   1 <1>   0.4230 
  9 C        4.1060    -0.4430     0.5210 C.3   1 <1>  -0.2400 
 10 N       -3.8100    -0.5050    -0.9130 N.4   1 <1>  -0.9060 
 11 C       -4.8140    -1.0170     0.0590 C.3   1 <1>   0.4230 
 12 C       -6.0170    -1.5890    -0.7220 C.3   1 <1>  -0.0800 
 13 C       -5.3020     0.1080     1.0030 C.3   1 <1>  -0.0800 
 14 C       -7.0130    -2.1920     0.2890 C.3   1 <1>  -0.1600 
 15 C       -6.7400    -0.4770    -1.5190 C.3   1 <1>  -0.1600 
 16 C       -6.3020    -0.5010     2.0080 C.3   1 <1>  -0.1600 
 17 C       -6.0230     1.2220     0.2080 C.3   1 <1>  -0.1600 
 18 C       -7.5060    -1.1020     1.2590 C.3   1 <1>  -0.0800 
 19 C       -7.2210     0.6290    -0.5600 C.3   1 <1>  -0.0800 
 20 C       -8.2020     0.0110     0.4530 C.3   1 <1>  -0.1600 
 21 H        0.5500    -0.7620    -1.1810 H     1 <1>   0.4500 
 22 H        0.2120     1.5310    -1.7570 H     1 <1>   0.0800 
 23 H       -0.4550     1.8290    -0.1710 H     1 <1>   0.0800 
 24 H       -0.4420    -0.1250     1.5330 H     1 <1>   0.0800 
 25 H        0.2180    -1.6540     1.0160 H     1 <1>   0.0800 
 26 H        1.7040     0.8730     0.9620 H     1 <1>   0.0800 
 27 H        2.1910     0.9880    -0.7100 H     1 <1>   0.0800 
 28 H       -1.5960     0.0100    -2.3030 H     1 <1>   0.0800 
 29 H       -2.2520     1.5360    -1.7720 H     1 <1>   0.0800 
 30 H       -2.2380    -1.6640     1.0450 H     1 <1>   0.0800 
 31 H       -1.5990    -1.9970    -0.5420 H     1 <1>   0.0800 
 32 H        2.7020    -1.4470    -0.7290 H     1 <1>   0.0800 
 33 H        2.3320    -1.5210     0.9810 H     1 <1>   0.0800 
 34 H       -2.7020     0.6580     0.4450 H     1 <1>   0.0800 
 35 H        4.5120     0.1760    -0.2620 H     1 <1>   0.0800 
 36 H        4.7420    -1.3060     0.6260 H     1 <1>   0.0800 
 37 H        4.1350     0.1070     1.4460 H     1 <1>   0.0800 
 38 H       -3.6690    -1.2280    -1.6270 H     1 <1>   0.4500 
 39 H       -4.2840     0.2730    -1.3880 H     1 <1>   0.4500 
 40 H       -4.3820    -1.8100     0.6480 H     1 <1>   0.0800 
 41 H       -5.6930    -2.3720    -1.3860 H     1 <1>   0.0800 
 42 H       -4.4840     0.5220     1.5640 H     1 <1>   0.0800 
 43 H       -6.5490    -2.9900     0.8440 H     1 <1>   0.0800 
 44 H       -7.8560    -2.6150    -0.2340 H     1 <1>   0.0800 
 45 H       -7.5930    -0.8980    -2.0270 H     1 <1>   0.0800 
 46 H       -6.1060    -0.0580    -2.2790 H     1 <1>   0.0800 
 47 H       -5.8250    -1.2650     2.5980 H     1 <1>   0.0800 
 48 H       -6.6490     0.2590     2.6890 H     1 <1>   0.0800 
 49 H       -5.3550     1.7150    -0.4750 H     1 <1>   0.0800 
 50 H       -6.3830     1.9750     0.8900 H     1 <1>   0.0800 
 51 H       -8.2020    -1.5270     1.9640 H     1 <1>   0.0800 
 52 H       -7.7230     1.4040    -1.1150 H     1 <1>   0.0800 
 53 H       -8.5660     0.7720     1.1230 H     1 <1>   0.0800 
 54 H       -9.0560    -0.3930    -0.0630 H     1 <1>   0.0800 
@<TRIPOS>BOND
  1   1   2  1   
  2   1   3  1   
  3   1   4  1   
  4   1  21  1   
  5   2   5  1   
  6   2  22  1   
  7   2  23  1   
  8   3   6  1   
  9   3  24  1   
 10   3  25  1   
 11   4   7  1   
 12   4  26  1   
 13   4  27  1   
 14   5   8  1   
 15   5  28  1   
 16   5  29  1   
 17   6   8  1   
 18   6  30  1   
 19   6  31  1   
 20   7   9  1   
 21   7  32  1   
 22   7  33  1   
 23   8  10  1   
 24   8  34  1   
 25   9  35  1   
 26   9  36  1   
 27   9  37  1   
 28  10  11  1   
 29  10  38  1   
 30  10  39  1   
 31  11  12  1   
 32  11  13  1   
 33  11  40  1   
 34  12  14  1   
 35  12  15  1   
 36  12  41  1   
 37  13  16  1   
 38  13  17  1   
 39  13  42  1   
 40  14  18  1   
 41  14  43  1   
 42  14  44  1   
 43  15  19  1   
 44  15  45  1   
 45  15  46  1   
 46  16  18  1   
 47  16  47  1   
 48  16  48  1   
 49  17  19  1   
 50  17  49  1   
 51  17  50  1   
 52  18  20  1   
 53  18  51  1   
 54  19  20  1   
 55  19  52  1   
 56  20  53  1   
 57  20  54  1   
@<TRIPOS>SUBSTRUCTURE
  1 ****   8 GROUP 4 **** **** 0

# MOE 2024.06 (io_trps.svl 2023.06)
