@<TRIPOS>MOLECULE
NONAME
46 48 1 0 0 
SMALL
USER_CHARGES


@<TRIPOS>ATOM
  1 O       -6.1740     0.8550     0.0380 O.3   1 <1>  -0.3630 
  2 C       -7.5270     0.7770     0.1120 C.ar  1 <1>   0.0830 
  3 C       -5.5320     2.0440    -0.3680 C.3   1 <1>   0.1200 
  4 C       -8.3780     1.8510    -0.1510 C.ar  1 <1>  -0.1500 
  5 C       -8.0620    -0.4540     0.4720 C.ar  1 <1>  -0.1500 
  6 C       -4.0180     1.8010    -0.3650 C.3   1 <1>   0.2000 
  7 C       -9.7430     1.6640    -0.0470 C.ar  1 <1>  -0.1440 
  8 C       -9.4320    -0.6280     0.5730 C.ar  1 <1>  -0.1500 
  9 O       -3.6450     1.2740     0.8730 O.3   1 <1>  -0.6800 
 10 C       -3.2090     3.0900    -0.6260 C.3   1 <1>   0.3430 
 11 C      -10.2630     0.4450     0.3090 C.ar  1 <1>  -0.1440 
 12 C      -10.8380     2.6750    -0.2850 C.3   1 <1>  -0.0170 
 13 N       -1.8210     2.9530    -0.0860 N.4   1 <1>  -0.9590 
 14 C      -11.7700     0.4810     0.3570 C.3   1 <1>  -0.0170 
 15 C      -12.0920     1.9840     0.2780 C.3   1 <1>  -0.1600 
 16 C       -1.2210     4.2600     0.3010 C.3   1 <1>   0.3430 
 17 C       -0.9340     2.1430    -0.9690 C.3   1 <1>   0.3430 
 18 C        0.1030     4.0220     1.0300 C.3   1 <1>  -0.1600 
 19 C        0.3930     1.8750    -0.2570 C.3   1 <1>  -0.1600 
 20 C        1.0720     3.1750     0.1940 C.3   1 <1>  -0.1600 
 21 H       -5.7950     2.8240     0.3260 H     1 <1>   0.0800 
 22 H       -5.8780     2.2960    -1.3550 H     1 <1>   0.0800 
 23 H       -8.0120     2.8190    -0.4310 H     1 <1>   0.1500 
 24 H       -7.4010    -1.2770     0.6730 H     1 <1>   0.1500 
 25 H       -3.7830     1.0680    -1.1180 H     1 <1>   0.0800 
 26 H       -9.8450    -1.5820     0.8510 H     1 <1>   0.1500 
 27 H       -4.3230     0.6100     1.1430 H     1 <1>   0.4000 
 28 H       -3.7060     3.9000    -0.1190 H     1 <1>   0.0800 
 29 H       -3.1920     3.3180    -1.6790 H     1 <1>   0.0800 
 30 H      -10.9430     2.8480    -1.3410 H     1 <1>   0.0800 
 31 H      -10.6390     3.6030     0.2220 H     1 <1>   0.0800 
 32 H       -1.9600     2.3900     0.7760 H     1 <1>   0.4500 
 33 H      -12.1480     0.0420     1.2630 H     1 <1>   0.0800 
 34 H      -12.1670    -0.0390    -0.4970 H     1 <1>   0.0800 
 35 H      -12.9610     2.1750    -0.3270 H     1 <1>   0.0800 
 36 H      -12.2710     2.3500     1.2740 H     1 <1>   0.0800 
 37 H       -1.8930     4.7990     0.9480 H     1 <1>   0.0800 
 38 H       -1.0430     4.8540    -0.5810 H     1 <1>   0.0800 
 39 H       -0.7480     2.6760    -1.8880 H     1 <1>   0.0800 
 40 H       -1.4070     1.2040    -1.2060 H     1 <1>   0.0800 
 41 H       -0.0920     3.5340     1.9690 H     1 <1>   0.0800 
 42 H        0.5590     4.9720     1.2500 H     1 <1>   0.0800 
 43 H        1.0490     1.3430    -0.9240 H     1 <1>   0.0800 
 44 H        0.2160     1.2390     0.5930 H     1 <1>   0.0800 
 45 H        1.9510     2.9460     0.7740 H     1 <1>   0.0800 
 46 H        1.3870     3.7360    -0.6710 H     1 <1>   0.0800 
@<TRIPOS>BOND
  1   1   2  1   
  2   1   3  1   
  3   2   4  ar  
  4   2   5  ar  
  5   3   6  1   
  6   3  21  1   
  7   3  22  1   
  8   4   7  ar  
  9   4  23  1   
 10   5   8  ar  
 11   5  24  1   
 12   6   9  1   
 13   6  10  1   
 14   6  25  1   
 15   7  11  ar  
 16   7  12  1   
 17   8  11  ar  
 18   8  26  1   
 19   9  27  1   
 20  10  13  1   
 21  10  28  1   
 22  10  29  1   
 23  11  14  1   
 24  12  15  1   
 25  12  30  1   
 26  12  31  1   
 27  13  16  1   
 28  13  17  1   
 29  13  32  1   
 30  14  15  1   
 31  14  33  1   
 32  14  34  1   
 33  15  35  1   
 34  15  36  1   
 35  16  18  1   
 36  16  37  1   
 37  16  38  1   
 38  17  19  1   
 39  17  39  1   
 40  17  40  1   
 41  18  20  1   
 42  18  41  1   
 43  18  42  1   
 44  19  20  1   
 45  19  43  1   
 46  19  44  1   
 47  20  45  1   
 48  20  46  1   
@<TRIPOS>SUBSTRUCTURE
  1 ****   3 GROUP 4 **** **** 0

# MOE 2024.06 (io_trps.svl 2023.06)
