@<TRIPOS>MOLECULE
NONAME
47 47 1 0 0 
SMALL
USER_CHARGES


@<TRIPOS>ATOM
  1 O        0.0600    -0.4920     0.0850 O.2   1 <1>  -0.5700 
  2 C        0.0390    -1.7120     0.0170 C.2   1 <1>   0.5410 
  3 C       -1.2470    -2.3710    -0.0110 C.2   1 <1>  -0.1240 
  4 C        1.3040    -2.4140    -0.0330 C.2   1 <1>  -0.1240 
  5 C       -2.4340    -1.6980     0.0260 C.2   1 <1>  -0.1500 
  6 C       -1.2500    -3.8970    -0.0960 C.3   1 <1>  -0.0220 
  7 C        2.5110    -1.7810     0.0050 C.2   1 <1>  -0.1500 
  8 C        1.2480    -3.9370    -0.1420 C.3   1 <1>  -0.0220 
  9 C       -3.7730    -2.1840    -0.0300 C.2   1 <1>  -0.1500 
 10 C        0.0020    -4.5060     0.5300 C.3   1 <1>  -0.1600 
 11 C        3.8360    -2.3090    -0.0710 C.2   1 <1>  -0.1500 
 12 C       -4.8880    -1.4190     0.0650 C.2   1 <1>  -0.0500 
 13 C        4.9770    -1.5860     0.0330 C.2   1 <1>  -0.1500 
 14 N       -6.1990    -1.8500     0.0140 N.pl3 1 <1>  -0.8380 
 15 C        6.3030    -2.0950    -0.0440 C.2   1 <1>  -0.1500 
 16 C       -7.3210    -0.8760     0.0370 C.3   1 <1>   0.1290 
 17 C       -6.5880    -3.2810    -0.0980 C.3   1 <1>   0.1290 
 18 C        7.4400    -1.3670     0.0650 C.2   1 <1>  -0.0500 
 19 N        8.7380    -1.8370    -0.0090 N.pl3 1 <1>  -0.8380 
 20 C        9.0750    -3.2590    -0.2870 C.3   1 <1>   0.1290 
 21 C        9.8920    -0.9310     0.2270 C.3   1 <1>   0.1290 
 22 H       -2.3860    -0.6240     0.1030 H     1 <1>   0.1500 
 23 H       -2.1030    -4.3020     0.4190 H     1 <1>   0.0800 
 24 H       -1.3160    -4.1870    -1.1300 H     1 <1>   0.0800 
 25 H        2.4980    -0.7070     0.0990 H     1 <1>   0.1500 
 26 H        1.2560    -4.2120    -1.1830 H     1 <1>   0.0800 
 27 H        2.1050    -4.3840     0.3270 H     1 <1>   0.0800 
 28 H       -3.8950    -3.2390    -0.1690 H     1 <1>   0.1500 
 29 H        0.0250    -4.2830     1.5830 H     1 <1>   0.0800 
 30 H       -0.0180    -5.5760     0.4140 H     1 <1>   0.0800 
 31 H        3.9270    -3.3680    -0.2290 H     1 <1>   0.1500 
 32 H       -4.7610    -0.3560     0.1930 H     1 <1>   0.1500 
 33 H        4.9070    -0.5230     0.1890 H     1 <1>   0.1500 
 34 H        6.3740    -3.1550    -0.2000 H     1 <1>   0.1500 
 35 H       -7.9210    -0.9910    -0.8490 H     1 <1>   0.0800 
 36 H       -6.9430     0.1310     0.0700 H     1 <1>   0.0800 
 37 H       -7.9320    -1.0450     0.9060 H     1 <1>   0.0800 
 38 H       -7.5970    -3.4220     0.2480 H     1 <1>   0.0800 
 39 H       -5.9350    -3.8890     0.5030 H     1 <1>   0.0800 
 40 H       -6.5210    -3.5930    -1.1260 H     1 <1>   0.0800 
 41 H        7.3480    -0.3050     0.2290 H     1 <1>   0.1500 
 42 H       10.0820    -3.3390    -0.6570 H     1 <1>   0.0800 
 43 H        8.4080    -3.6570    -1.0310 H     1 <1>   0.0800 
 44 H        8.9850    -3.8340     0.6180 H     1 <1>   0.0800 
 45 H       10.4830    -1.3010     1.0470 H     1 <1>   0.0800 
 46 H        9.5480     0.0600     0.4670 H     1 <1>   0.0800 
 47 H       10.5030    -0.8810    -0.6570 H     1 <1>   0.0800 
@<TRIPOS>BOND
  1   1   2  2   
  2   2   3  1   
  3   2   4  1   
  4   3   5  2   
  5   3   6  1   
  6   4   7  2   
  7   4   8  1   
  8   5   9  1   
  9   5  22  1   
 10   6  10  1   
 11   6  23  1   
 12   6  24  1   
 13   7  11  1   
 14   7  25  1   
 15   8  10  1   
 16   8  26  1   
 17   8  27  1   
 18   9  12  2   
 19   9  28  1   
 20  10  29  1   
 21  10  30  1   
 22  11  13  2   
 23  11  31  1   
 24  12  14  1   
 25  12  32  1   
 26  13  15  1   
 27  13  33  1   
 28  14  16  1   
 29  14  17  1   
 30  15  18  2   
 31  15  34  1   
 32  16  35  1   
 33  16  36  1   
 34  16  37  1   
 35  17  38  1   
 36  17  39  1   
 37  17  40  1   
 38  18  19  1   
 39  18  41  1   
 40  19  20  1   
 41  19  21  1   
 42  20  42  1   
 43  20  43  1   
 44  20  44  1   
 45  21  45  1   
 46  21  46  1   
 47  21  47  1   
@<TRIPOS>SUBSTRUCTURE
  1 ****   4 GROUP 4 **** **** 0

# MOE 2024.06 (io_trps.svl 2023.06)
