@<TRIPOS>MOLECULE
NONAME
37 37 1 0 0 
SMALL
USER_CHARGES


@<TRIPOS>ATOM
  1 CL       1.5380     0.8780    -0.7960 Cl    1 <1>  -0.1770 
  2 C        1.2500    -0.8370    -0.5870 C.ar  1 <1>   0.1770 
  3 C        2.3200    -1.7020    -0.3850 C.ar  1 <1>   0.0820 
  4 C       -0.0510    -1.2980    -0.6280 C.ar  1 <1>  -0.1500 
  5 O        3.5720    -1.1710    -0.3580 O.3   1 <1>  -0.3630 
  6 C        2.0570    -3.0610    -0.2210 C.ar  1 <1>  -0.1500 
  7 C       -0.2970    -2.6500    -0.4640 C.ar  1 <1>  -0.1500 
  8 C        4.7160    -1.9620    -0.1670 C.3   1 <1>   0.1200 
  9 C        0.7530    -3.5320    -0.2590 C.ar  1 <1>  -0.1440 
 10 C        5.9140    -1.0120    -0.2040 C.3   1 <1>   0.3430 
 11 C        0.4670    -5.0140    -0.0820 C.3   1 <1>  -0.0960 
 12 N        7.2120    -1.7380    -0.0100 N.4   1 <1>  -0.9060 
 13 C        8.4230    -0.9120    -0.0290 C.3   1 <1>   0.5030 
 14 C        8.5590    -0.2220    -1.3860 C.3   1 <1>  -0.2400 
 15 C        9.5920    -1.8670     0.1850 C.3   1 <1>  -0.2400 
 16 C        8.3720     0.1100     1.1060 C.3   1 <1>  -0.2400 
 17 H       -0.8590    -0.6060    -0.7860 H     1 <1>   0.1500 
 18 H        2.8490    -3.7670    -0.0640 H     1 <1>   0.1500 
 19 H       -1.3110    -3.0120    -0.4970 H     1 <1>   0.1500 
 20 H        4.7630    -2.6800    -0.9660 H     1 <1>   0.0800 
 21 H        4.6300    -2.4460     0.7910 H     1 <1>   0.0800 
 22 H        5.7890    -0.2750     0.5740 H     1 <1>   0.0800 
 23 H        5.9180    -0.5050    -1.1550 H     1 <1>   0.0800 
 24 H        1.2210    -5.4780     0.5280 H     1 <1>   0.0800 
 25 H        0.4490    -5.4990    -1.0420 H     1 <1>   0.0800 
 26 H       -0.4860    -5.1580     0.3950 H     1 <1>   0.0800 
 27 H        7.3230    -2.4460    -0.7420 H     1 <1>   0.4500 
 28 H        7.2010    -2.2290     0.8890 H     1 <1>   0.4500 
 29 H        8.5420    -0.9360    -2.1900 H     1 <1>   0.0800 
 30 H        9.4980     0.3010    -1.4330 H     1 <1>   0.0800 
 31 H        7.7840     0.5070    -1.5410 H     1 <1>   0.0800 
 32 H        9.5180    -2.3690     1.1340 H     1 <1>   0.0800 
 33 H       10.5180    -1.3170     0.1810 H     1 <1>   0.0800 
 34 H        9.6480    -2.6000    -0.6010 H     1 <1>   0.0800 
 35 H        8.2250    -0.3710     2.0570 H     1 <1>   0.0800 
 36 H        7.5980     0.8390     0.9510 H     1 <1>   0.0800 
 37 H        9.3050     0.6450     1.1520 H     1 <1>   0.0800 
@<TRIPOS>BOND
  1   1   2  1   
  2   2   3  ar  
  3   2   4  ar  
  4   3   5  1   
  5   3   6  ar  
  6   4   7  ar  
  7   4  17  1   
  8   5   8  1   
  9   6   9  ar  
 10   6  18  1   
 11   7   9  ar  
 12   7  19  1   
 13   8  10  1   
 14   8  20  1   
 15   8  21  1   
 16   9  11  1   
 17  10  12  1   
 18  10  22  1   
 19  10  23  1   
 20  11  24  1   
 21  11  25  1   
 22  11  26  1   
 23  12  13  1   
 24  12  27  1   
 25  12  28  1   
 26  13  14  1   
 27  13  15  1   
 28  13  16  1   
 29  14  29  1   
 30  14  30  1   
 31  14  31  1   
 32  15  32  1   
 33  15  33  1   
 34  15  34  1   
 35  16  35  1   
 36  16  36  1   
 37  16  37  1   
@<TRIPOS>SUBSTRUCTURE
  1 ****   5 GROUP 4 **** **** 0

# MOE 2024.06 (io_trps.svl 2023.06)
