@<TRIPOS>MOLECULE
NONAME
40 42 1 0 0 
SMALL
USER_CHARGES


@<TRIPOS>ATOM
  1 F       -3.3830    -1.2460    -2.3470 F     1 <1>  -0.1900 
  2 C       -3.5450    -0.2930    -1.4690 C.ar  1 <1>   0.1900 
  3 C       -4.7950    -0.1060    -0.9150 C.ar  1 <1>  -0.1500 
  4 C       -2.4580     0.4890    -1.1310 C.ar  1 <1>  -0.1500 
  5 C       -4.9820     0.9050     0.0180 C.ar  1 <1>   0.1170 
  6 C       -2.6390     1.4960    -0.1980 C.ar  1 <1>  -0.1500 
  7 N       -6.2620     1.0680     0.5660 N.am  1 <1>  -0.5470 
  8 C       -3.8880     1.6970     0.3690 C.ar  1 <1>  -0.1500 
  9 C       -6.8410     2.1030     1.2430 C.2   1 <1>   0.5690 
 10 O       -6.2910     3.1470     1.4850 O.2   1 <1>  -0.5700 
 11 C       -8.2760     1.9380     1.6900 C.3   1 <1>  -0.0990 
 12 C       -9.2380     2.0500     0.5000 C.3   1 <1>   0.1400 
 13 N      -10.0170     0.8000     0.3120 N.am  1 <1>  -0.4200 
 14 C      -11.3670     0.7050     0.4990 C.2   1 <1>   0.5690 
 15 C       -9.5080    -0.3890    -0.1300 C.2   1 <1>   0.5690 
 16 O      -12.1160     1.6100     0.7580 O.2   1 <1>  -0.5700 
 17 C      -11.7840    -0.7420     0.3710 C.3   1 <1>  -0.0190 
 18 O       -8.3390    -0.6610    -0.2480 O.2   1 <1>  -0.5700 
 19 C      -10.6470    -1.3190    -0.4740 C.3   1 <1>  -0.0190 
 20 C      -13.1320    -1.1540    -0.2280 C.3   1 <1>  -0.0220 
 21 C      -10.5610    -2.8330    -0.2590 C.3   1 <1>  -0.0220 
 22 C      -13.0910    -2.6670    -0.4550 C.2   1 <1>  -0.2880 
 23 C      -11.9690    -3.4050    -0.4480 C.2   1 <1>  -0.2880 
 24 H       -5.6100    -0.7400    -1.2110 H     1 <1>   0.1500 
 25 H       -1.5000     0.3120    -1.5860 H     1 <1>   0.1500 
 26 H       -1.8130     2.1230     0.0880 H     1 <1>   0.1500 
 27 H       -6.9060     0.2970     0.3410 H     1 <1>   0.3700 
 28 H       -4.0050     2.4810     1.0950 H     1 <1>   0.1500 
 29 H       -8.5000     2.7210     2.3920 H     1 <1>   0.0800 
 30 H       -8.3840     0.9990     2.2030 H     1 <1>   0.0800 
 31 H       -8.6960     2.2620    -0.4060 H     1 <1>   0.0800 
 32 H       -9.9170     2.8700     0.6690 H     1 <1>   0.0800 
 33 H      -11.7290    -1.1550     1.3640 H     1 <1>   0.0800 
 34 H      -10.8640    -1.1490    -1.5150 H     1 <1>   0.0800 
 35 H      -13.3130    -0.6450    -1.1590 H     1 <1>   0.0800 
 36 H      -13.9200    -0.9000     0.4600 H     1 <1>   0.0800 
 37 H      -10.1990    -3.0640     0.7280 H     1 <1>   0.0800 
 38 H       -9.8860    -3.2590    -0.9800 H     1 <1>   0.0800 
 39 H      -14.0680    -3.0950    -0.6180 H     1 <1>   0.1500 
 40 H      -11.9760    -4.4750    -0.5840 H     1 <1>   0.1500 
@<TRIPOS>BOND
  1   1   2  1   
  2   2   3  ar  
  3   2   4  ar  
  4   3   5  ar  
  5   3  24  1   
  6   4   6  ar  
  7   4  25  1   
  8   5   7  1   
  9   5   8  ar  
 10   6   8  ar  
 11   6  26  1   
 12   7   9  am  
 13   7  27  1   
 14   8  28  1   
 15   9  10  2   
 16   9  11  1   
 17  11  12  1   
 18  11  29  1   
 19  11  30  1   
 20  12  13  1   
 21  12  31  1   
 22  12  32  1   
 23  13  14  am  
 24  13  15  am  
 25  14  16  2   
 26  14  17  1   
 27  15  18  2   
 28  15  19  1   
 29  17  19  1   
 30  17  20  1   
 31  17  33  1   
 32  19  21  1   
 33  19  34  1   
 34  20  22  1   
 35  20  35  1   
 36  20  36  1   
 37  21  23  1   
 38  21  37  1   
 39  21  38  1   
 40  22  23  2   
 41  22  39  1   
 42  23  40  1   
@<TRIPOS>SUBSTRUCTURE
  1 ****  18 GROUP 4 **** **** 0

# MOE 2024.06 (io_trps.svl 2023.06)
