@<TRIPOS>MOLECULE
NONAME
27 28 1 0 0 
SMALL
USER_CHARGES


@<TRIPOS>ATOM
  1 CL       1.8700    -1.5670    -1.9300 Cl    1 <1>  -0.1770 
  2 C        0.8380    -2.3880    -0.7840 C.ar  1 <1>   0.1770 
  3 C        1.1980    -2.4520     0.5640 C.ar  1 <1>   0.0860 
  4 C       -0.3230    -2.9620    -1.2650 C.ar  1 <1>  -0.1500 
  5 C        2.4120    -1.8500     1.0620 C.2   1 <1>   0.5440 
  6 C        0.3290    -3.1150     1.4360 C.ar  1 <1>  -0.1500 
  7 C       -1.1450    -3.6130    -0.3670 C.ar  1 <1>   0.1900 
  8 O        2.3250    -0.8630     1.7650 O.2   1 <1>  -0.5700 
  9 N        3.6580    -2.3780     0.7970 N.am  1 <1>  -0.6600 
 10 C       -0.8400    -3.6990     0.9790 C.ar  1 <1>  -0.1500 
 11 F       -2.2420    -4.1630    -0.8020 F     1 <1>  -0.1900 
 12 C        4.9160    -1.6870     1.2160 C.3   1 <1>   0.1400 
 13 C        3.9130    -3.6470     0.0510 C.3   1 <1>   0.1400 
 14 C        5.8920    -1.5780     0.0330 C.3   1 <1>   0.1200 
 15 C        4.9450    -3.4200    -1.0670 C.3   1 <1>   0.1200 
 16 O        6.1060    -2.8320    -0.5520 O.3   1 <1>  -0.5600 
 17 H       -0.5830    -2.9040    -2.3060 H     1 <1>   0.1500 
 18 H        0.5810    -3.1620     2.4830 H     1 <1>   0.1500 
 19 H       -1.5090    -4.2100     1.6500 H     1 <1>   0.1500 
 20 H        5.3790    -2.2460     2.0100 H     1 <1>   0.0800 
 21 H        4.7030    -0.7000     1.5870 H     1 <1>   0.0800 
 22 H        3.0070    -4.0350    -0.3770 H     1 <1>   0.0800 
 23 H        4.2970    -4.3850     0.7340 H     1 <1>   0.0800 
 24 H        6.8430    -1.2050     0.3700 H     1 <1>   0.0800 
 25 H        5.5030    -0.9090    -0.7150 H     1 <1>   0.0800 
 26 H        4.5440    -2.7780    -1.8310 H     1 <1>   0.0800 
 27 H        5.2230    -4.3580    -1.5130 H     1 <1>   0.0800 
@<TRIPOS>BOND
  1   1   2  1   
  2   2   3  ar  
  3   2   4  ar  
  4   3   5  1   
  5   3   6  ar  
  6   4   7  ar  
  7   4  17  1   
  8   5   8  2   
  9   5   9  am  
 10   6  10  ar  
 11   6  18  1   
 12   7  10  ar  
 13   7  11  1   
 14   9  12  1   
 15   9  13  1   
 16  10  19  1   
 17  12  14  1   
 18  12  20  1   
 19  12  21  1   
 20  13  15  1   
 21  13  22  1   
 22  13  23  1   
 23  14  16  1   
 24  14  24  1   
 25  14  25  1   
 26  15  16  1   
 27  15  26  1   
 28  15  27  1   
@<TRIPOS>SUBSTRUCTURE
  1 ****   3 GROUP 4 **** **** 0

# MOE 2024.06 (io_trps.svl 2023.06)
