@<TRIPOS>MOLECULE
NONAME
34 35 1 0 0 
SMALL
USER_CHARGES


@<TRIPOS>ATOM
  1 CL      -1.9200    -1.4550    -2.1080 Cl    1 <1>  -0.1770 
  2 C       -0.8260    -2.2650    -1.0120 C.ar  1 <1>   0.1770 
  3 C       -1.1530    -2.4540     0.3260 C.ar  1 <1>  -0.0090 
  4 C        0.3750    -2.7070    -1.5460 C.ar  1 <1>  -0.1500 
  5 S       -2.7220    -1.8760     1.0100 S.o2  1 <1>   1.4470 
  6 C       -0.2230    -3.1100     1.1280 C.ar  1 <1>  -0.1500 
  7 C        1.2870    -3.3590    -0.7350 C.ar  1 <1>  -0.1500 
  8 O       -2.8610    -0.4600     0.7550 O.2   1 <1>  -0.6500 
  9 O       -2.8470    -2.3530     2.3700 O.2   1 <1>  -0.6500 
 10 N       -3.8880    -2.7050     0.0970 N.am  1 <1>  -0.8490 
 11 C        0.9740    -3.5530     0.5970 C.ar  1 <1>   0.1770 
 12 C       -5.1860    -2.0140     0.1070 C.3   1 <1>   0.1960 
 13 C       -4.0380    -4.1040     0.5100 C.3   1 <1>   0.1960 
 14 CL       2.1130    -4.3740     1.6290 Cl    1 <1>  -0.1770 
 15 C       -6.1450    -2.6670    -0.8960 C.3   1 <1>  -0.0190 
 16 C       -4.9430    -4.8450    -0.4800 C.3   1 <1>  -0.1600 
 17 C       -7.4780    -1.9370    -0.8800 C.2   1 <1>   0.5690 
 18 C       -6.3160    -4.1680    -0.5940 C.3   1 <1>  -0.1600 
 19 O       -8.0840    -1.8050     0.1520 O.2   1 <1>  -0.5700 
 20 N       -7.9840    -1.4380    -2.0220 N.am  1 <1>  -0.8000 
 21 H        0.5880    -2.5390    -2.5880 H     1 <1>   0.1500 
 22 H       -0.4270    -3.2780     2.1720 H     1 <1>   0.1500 
 23 H        2.2250    -3.7130    -1.1250 H     1 <1>   0.1500 
 24 H       -5.0560    -0.9820    -0.1730 H     1 <1>   0.0800 
 25 H       -5.6090    -2.0390     1.1000 H     1 <1>   0.0800 
 26 H       -4.4620    -4.1520     1.5010 H     1 <1>   0.0800 
 27 H       -3.0740    -4.5840     0.5320 H     1 <1>   0.0800 
 28 H       -5.7120    -2.5580    -1.8740 H     1 <1>   0.0800 
 29 H       -5.0690    -5.8620    -0.1530 H     1 <1>   0.0800 
 30 H       -4.4630    -4.8650    -1.4420 H     1 <1>   0.0800 
 31 H       -6.8960    -4.6370    -1.3700 H     1 <1>   0.0800 
 32 H       -6.8480    -4.2840     0.3360 H     1 <1>   0.0800 
 33 H       -8.8790    -0.9470    -1.9950 H     1 <1>   0.3700 
 34 H       -7.5260    -1.5010    -2.9310 H     1 <1>   0.3700 
@<TRIPOS>BOND
  1   1   2  1   
  2   2   3  ar  
  3   2   4  ar  
  4   3   5  1   
  5   3   6  ar  
  6   4   7  ar  
  7   4  21  1   
  8   5   8  2   
  9   5   9  2   
 10   5  10  am  
 11   6  11  ar  
 12   6  22  1   
 13   7  11  ar  
 14   7  23  1   
 15  10  12  1   
 16  10  13  1   
 17  11  14  1   
 18  12  15  1   
 19  12  24  1   
 20  12  25  1   
 21  13  16  1   
 22  13  26  1   
 23  13  27  1   
 24  15  17  1   
 25  15  18  1   
 26  15  28  1   
 27  16  18  1   
 28  16  29  1   
 29  16  30  1   
 30  17  19  2   
 31  17  20  am  
 32  18  31  1   
 33  18  32  1   
 34  20  33  1   
 35  20  34  1   
@<TRIPOS>SUBSTRUCTURE
  1 ****  10 GROUP 4 **** **** 0

# MOE 2024.06 (io_trps.svl 2023.06)
