@<TRIPOS>MOLECULE
NONAME
32 31 1 0 0 
SMALL
USER_CHARGES


@<TRIPOS>ATOM
  1 O       -2.0780     0.6820     1.4440 O.co2 1 <1>  -0.9000 
  2 C       -1.6090    -0.3350     0.9260 C.2   1 <1>   0.9060 
  3 O       -0.4090    -0.4830     0.6860 O.co2 1 <1>  -0.9000 
  4 C       -2.5670    -1.4370     0.5640 C.3   1 <1>  -0.2660 
  5 C       -3.3350    -1.1020    -0.7310 C.3   1 <1>  -0.0990 
  6 C       -4.5980    -1.9210    -0.8960 C.2   1 <1>   0.5690 
  7 O       -4.6940    -2.7130    -1.8030 O.2   1 <1>  -0.5700 
  8 N       -5.5960    -1.7100    -0.0030 N.am  1 <1>  -0.7300 
  9 C       -6.9030    -2.3920     0.0090 C.3   1 <1>   0.1400 
 10 C       -8.0100    -1.3430     0.0950 C.3   1 <1>  -0.1600 
 11 C       -9.3980    -1.9990     0.1100 C.3   1 <1>  -0.1600 
 12 C      -10.5070    -0.9440     0.1970 C.3   1 <1>  -0.1600 
 13 C      -11.8930    -1.5980     0.2080 C.3   1 <1>  -0.1600 
 14 C      -12.9990    -0.5440     0.2950 C.3   1 <1>  -0.2400 
 15 H       -3.2410    -1.5480     1.3900 H     1 <1>   0.0800 
 16 H       -2.0190    -2.3520     0.4460 H     1 <1>   0.0800 
 17 H       -2.6890    -1.2540    -1.5770 H     1 <1>   0.0800 
 18 H       -3.6140    -0.0630    -0.7190 H     1 <1>   0.0800 
 19 H       -5.4180    -1.0440     0.7530 H     1 <1>   0.3700 
 20 H       -6.9470    -3.0550     0.8570 H     1 <1>   0.0800 
 21 H       -7.0160    -2.9770    -0.8890 H     1 <1>   0.0800 
 22 H       -7.9350    -0.6870    -0.7550 H     1 <1>   0.0800 
 23 H       -7.8810    -0.7630     0.9920 H     1 <1>   0.0800 
 24 H       -9.4710    -2.6650     0.9530 H     1 <1>   0.0800 
 25 H       -9.5270    -2.5800    -0.7880 H     1 <1>   0.0800 
 26 H      -10.4340    -0.2780    -0.6470 H     1 <1>   0.0800 
 27 H      -10.3790    -0.3620     1.0940 H     1 <1>   0.0800 
 28 H      -11.9720    -2.2640     1.0510 H     1 <1>   0.0800 
 29 H      -12.0270    -2.1780    -0.6890 H     1 <1>   0.0800 
 30 H      -12.8990     0.0340     1.1970 H     1 <1>   0.0800 
 31 H      -13.9630    -1.0220     0.3020 H     1 <1>   0.0800 
 32 H      -12.9530     0.1210    -0.5500 H     1 <1>   0.0800 
@<TRIPOS>BOND
  1   1   2  ar  
  2   2   3  ar  
  3   2   4  1   
  4   4   5  1   
  5   4  15  1   
  6   4  16  1   
  7   5   6  1   
  8   5  17  1   
  9   5  18  1   
 10   6   7  2   
 11   6   8  am  
 12   8   9  1   
 13   8  19  1   
 14   9  10  1   
 15   9  20  1   
 16   9  21  1   
 17  10  11  1   
 18  10  22  1   
 19  10  23  1   
 20  11  12  1   
 21  11  24  1   
 22  11  25  1   
 23  12  13  1   
 24  12  26  1   
 25  12  27  1   
 26  13  14  1   
 27  13  28  1   
 28  13  29  1   
 29  14  30  1   
 30  14  31  1   
 31  14  32  1   
@<TRIPOS>SUBSTRUCTURE
  1 ****   8 GROUP 4 **** **** 0

# MOE 2024.06 (io_trps.svl 2023.06)
