@<TRIPOS>MOLECULE
NONAME
36 37 1 0 0 
SMALL
USER_CHARGES


@<TRIPOS>ATOM
  1 CL       0.9180    -4.1100     1.1070 Cl    1 <1>  -0.1770 
  2 C        2.2570    -3.1110     0.6000 C.ar  1 <1>   0.1770 
  3 C        2.9080    -3.4010    -0.5850 C.ar  1 <1>  -0.1500 
  4 C        2.6460    -2.0470     1.3910 C.ar  1 <1>  -0.1500 
  5 C        3.9710    -2.6100    -0.9890 C.ar  1 <1>  -0.1500 
  6 C        3.7090    -1.2590     0.9850 C.ar  1 <1>  -0.1500 
  7 C        4.3770    -1.5330    -0.2000 C.ar  1 <1>   0.0830 
  8 O        5.4090    -0.7070    -0.5100 O.3   1 <1>  -0.3630 
  9 C        6.2100    -0.8880    -1.6740 C.3   1 <1>   0.2610 
 10 C        7.0700    -2.1670    -1.6200 C.2   1 <1>   0.5690 
 11 C        7.0630     0.3780    -1.8810 C.3   1 <1>  -0.1600 
 12 O        7.0570    -2.8690    -2.6070 O.2   1 <1>  -0.5700 
 13 N        7.8380    -2.5130    -0.5330 N.am  1 <1>  -0.6600 
 14 C        6.2240     1.6550    -2.0380 C.3   1 <1>  -0.2400 
 15 C        7.9050    -1.8200     0.7760 C.3   1 <1>   0.1400 
 16 C        8.6920    -3.7200    -0.5320 C.3   1 <1>   0.1400 
 17 C        8.7050    -2.7550     1.6760 C.3   1 <1>  -0.1600 
 18 C        9.5510    -3.5890     0.7190 C.3   1 <1>  -0.1600 
 19 H        2.5860    -4.2350    -1.1810 H     1 <1>   0.1500 
 20 H        2.1230    -1.8410     2.3070 H     1 <1>   0.1500 
 21 H        4.4630    -2.8530    -1.9130 H     1 <1>   0.1500 
 22 H        4.0270    -0.4250     1.5850 H     1 <1>   0.1500 
 23 H        5.5380    -0.9710    -2.5090 H     1 <1>   0.0800 
 24 H        7.6550     0.2420    -2.7700 H     1 <1>   0.0800 
 25 H        7.7440     0.4920    -1.0580 H     1 <1>   0.0800 
 26 H        5.5440     1.5590    -2.8660 H     1 <1>   0.0800 
 27 H        6.8670     2.4990    -2.2190 H     1 <1>   0.0800 
 28 H        5.6560     1.8470    -1.1450 H     1 <1>   0.0800 
 29 H        6.9230    -1.6510     1.1820 H     1 <1>   0.0800 
 30 H        8.4210    -0.8840     0.6590 H     1 <1>   0.0800 
 31 H        9.2910    -3.7680    -1.4270 H     1 <1>   0.0800 
 32 H        8.0630    -4.5920    -0.4720 H     1 <1>   0.0800 
 33 H        8.0210    -3.3940     2.2080 H     1 <1>   0.0800 
 34 H        9.3020    -2.2130     2.3870 H     1 <1>   0.0800 
 35 H       10.4530    -3.0580     0.4680 H     1 <1>   0.0800 
 36 H        9.8100    -4.5490     1.1270 H     1 <1>   0.0800 
@<TRIPOS>BOND
  1   1   2  1   
  2   2   3  ar  
  3   2   4  ar  
  4   3   5  ar  
  5   3  19  1   
  6   4   6  ar  
  7   4  20  1   
  8   5   7  ar  
  9   5  21  1   
 10   6   7  ar  
 11   6  22  1   
 12   7   8  1   
 13   8   9  1   
 14   9  10  1   
 15   9  11  1   
 16   9  23  1   
 17  10  12  2   
 18  10  13  am  
 19  11  14  1   
 20  11  24  1   
 21  11  25  1   
 22  13  15  1   
 23  13  16  1   
 24  14  26  1   
 25  14  27  1   
 26  14  28  1   
 27  15  17  1   
 28  15  29  1   
 29  15  30  1   
 30  16  18  1   
 31  16  31  1   
 32  16  32  1   
 33  17  18  1   
 34  17  33  1   
 35  17  34  1   
 36  18  35  1   
 37  18  36  1   
@<TRIPOS>SUBSTRUCTURE
  1 ****   8 GROUP 4 **** **** 0

# MOE 2024.06 (io_trps.svl 2023.06)
