@<TRIPOS>MOLECULE
NONAME
42 42 1 0 0 
SMALL
USER_CHARGES


@<TRIPOS>ATOM
  1 O        0.2550     3.1630    -1.5640 O.2   1 <1>  -0.5700 
  2 C        0.0300     2.5480    -0.5450 C.2   1 <1>   0.6900 
  3 N        0.9970     1.8980     0.1590 N.am  1 <1>  -0.5470 
  4 N       -1.2340     2.5310    -0.0880 N.am  1 <1>  -0.7300 
  5 C        2.3320     1.6040    -0.1520 C.ar  1 <1>   0.1170 
  6 C       -2.0230     1.3440     0.2560 C.3   1 <1>   0.5000 
  7 C        3.2140     1.3170     0.8840 C.ar  1 <1>  -0.1500 
  8 C        2.8100     1.5630    -1.4580 C.ar  1 <1>  -0.1500 
  9 C       -3.4350     1.8310     0.2040 C.1   1 <1>  -0.2000 
 10 C       -1.6260     0.8890     1.6850 C.3   1 <1>  -0.1600 
 11 C       -1.8010     0.2620    -0.8330 C.3   1 <1>  -0.1600 
 12 C        4.5370     0.9990     0.6300 C.ar  1 <1>  -0.1500 
 13 C        4.1310     1.2470    -1.7180 C.ar  1 <1>  -0.1500 
 14 C       -4.5570     2.2270     0.1520 C.1   1 <1>  -0.1770 
 15 C       -2.7060     0.1780     2.5280 C.3   1 <1>  -0.2400 
 16 C       -2.6190    -1.0340    -0.6960 C.3   1 <1>  -0.2400 
 17 C        5.0030     0.9630    -0.6810 C.ar  1 <1>   0.0830 
 18 O        6.2830     0.6610    -1.0240 O.3   1 <1>  -0.3630 
 19 C        7.2540     0.3930    -0.0390 C.3   1 <1>   0.1200 
 20 C        8.5770     0.1140    -0.7450 C.3   1 <1>  -0.2400 
 21 H        0.7070     1.6770     1.1050 H     1 <1>   0.3700 
 22 H       -1.8230     3.1930    -0.5900 H     1 <1>   0.3700 
 23 H        2.8650     1.3440     1.8990 H     1 <1>   0.1500 
 24 H        2.1510     1.7780    -2.2800 H     1 <1>   0.1500 
 25 H       -1.3270     1.7570     2.2470 H     1 <1>   0.0800 
 26 H       -0.7750     0.2360     1.6140 H     1 <1>   0.0800 
 27 H       -0.7630    -0.0150    -0.8570 H     1 <1>   0.0800 
 28 H       -2.0390     0.6990    -1.7880 H     1 <1>   0.0800 
 29 H        5.1840     0.7850     1.4590 H     1 <1>   0.1500 
 30 H        4.4940     1.2200    -2.7290 H     1 <1>   0.1500 
 31 H       -5.5710     2.5840     0.1060 H     1 <1>   0.1770 
 32 H       -3.5140     0.8510     2.7550 H     1 <1>   0.0800 
 33 H       -2.2810    -0.1530     3.4590 H     1 <1>   0.0800 
 34 H       -3.1100    -0.6780     2.0210 H     1 <1>   0.0800 
 35 H       -2.2860    -1.6080     0.1500 H     1 <1>   0.0800 
 36 H       -2.4860    -1.6390    -1.5750 H     1 <1>   0.0800 
 37 H       -3.6690    -0.8230    -0.5900 H     1 <1>   0.0800 
 38 H        6.9360    -0.4650     0.5280 H     1 <1>   0.0800 
 39 H        7.3380     1.2560     0.5990 H     1 <1>   0.0800 
 40 H        8.4770    -0.7390    -1.3920 H     1 <1>   0.0800 
 41 H        9.3410    -0.0940    -0.0180 H     1 <1>   0.0800 
 42 H        8.8750     0.9700    -1.3220 H     1 <1>   0.0800 
@<TRIPOS>BOND
  1   1   2  2   
  2   2   3  am  
  3   2   4  am  
  4   3   5  1   
  5   3  21  1   
  6   4   6  1   
  7   4  22  1   
  8   5   7  ar  
  9   5   8  ar  
 10   6   9  1   
 11   6  10  1   
 12   6  11  1   
 13   7  12  ar  
 14   7  23  1   
 15   8  13  ar  
 16   8  24  1   
 17   9  14  3   
 18  10  15  1   
 19  10  25  1   
 20  10  26  1   
 21  11  16  1   
 22  11  27  1   
 23  11  28  1   
 24  12  17  ar  
 25  12  29  1   
 26  13  17  ar  
 27  13  30  1   
 28  14  31  1   
 29  15  32  1   
 30  15  33  1   
 31  15  34  1   
 32  16  35  1   
 33  16  36  1   
 34  16  37  1   
 35  17  18  1   
 36  18  19  1   
 37  19  20  1   
 38  19  38  1   
 39  19  39  1   
 40  20  40  1   
 41  20  41  1   
 42  20  42  1   
@<TRIPOS>SUBSTRUCTURE
  1 ****   3 GROUP 4 **** **** 0

# MOE 2024.06 (io_trps.svl 2023.06)
