@<TRIPOS>MOLECULE
NONAME
40 41 1 0 0 
SMALL
USER_CHARGES


@<TRIPOS>ATOM
  1 F       -0.8290     1.0040     1.6400 F     1 <1>  -0.1900 
  2 C       -0.4340     1.8610     0.7290 C.ar  1 <1>   0.1900 
  3 C       -1.3920     2.6360     0.0750 C.ar  1 <1>   0.1170 
  4 C        0.9200     1.9500     0.4700 C.ar  1 <1>  -0.1500 
  5 N       -2.7540     2.4860     0.4030 N.am  1 <1>  -0.5470 
  6 C       -0.9210     3.5400    -0.8730 C.ar  1 <1>  -0.1500 
  7 C        1.3560     2.8550    -0.4830 C.ar  1 <1>  -0.1500 
  8 C       -3.8970     2.8780    -0.2260 C.2   1 <1>   0.6900 
  9 C        0.4340     3.6460    -1.1500 C.ar  1 <1>  -0.1500 
 10 O       -3.8850     3.4240    -1.3110 O.2   1 <1>  -0.5700 
 11 N       -5.0690     2.6230     0.4040 N.am  1 <1>  -0.7300 
 12 C       -6.4070     2.9560    -0.1180 C.3   1 <1>   0.2200 
 13 C       -7.0390     3.9800     0.8370 C.3   1 <1>  -0.1600 
 14 C       -7.1760     1.6350    -0.2480 C.3   1 <1>  -0.1600 
 15 C       -8.1050     4.8770     0.1770 C.3   1 <1>  -0.1600 
 16 C       -8.5690     1.7480    -0.8890 C.3   1 <1>  -0.1600 
 17 C       -9.5370     4.6160     0.6670 C.3   1 <1>  -0.1600 
 18 C       -9.6960     2.0920     0.1030 C.3   1 <1>  -0.1600 
 19 C      -10.2820     3.4990    -0.0780 C.3   1 <1>  -0.1600 
 20 H        1.6160     1.3270     1.0020 H     1 <1>   0.1500 
 21 H       -2.9140     1.8800     1.2020 H     1 <1>   0.3700 
 22 H       -1.6090     4.1730    -1.4040 H     1 <1>   0.1500 
 23 H        2.4060     2.9440    -0.7060 H     1 <1>   0.1500 
 24 H        0.7700     4.3510    -1.8910 H     1 <1>   0.1500 
 25 H       -5.0620     2.2430     1.3450 H     1 <1>   0.3700 
 26 H       -6.3000     3.3990    -1.0950 H     1 <1>   0.0800 
 27 H       -6.2550     4.6370     1.1730 H     1 <1>   0.0800 
 28 H       -7.4320     3.4830     1.7050 H     1 <1>   0.0800 
 29 H       -7.2530     1.1530     0.7110 H     1 <1>   0.0800 
 30 H       -6.5890     0.9940    -0.8830 H     1 <1>   0.0800 
 31 H       -8.0610     4.8170    -0.8970 H     1 <1>   0.0800 
 32 H       -7.8660     5.8950     0.4330 H     1 <1>   0.0800 
 33 H       -8.8000     0.7830    -1.3090 H     1 <1>   0.0800 
 34 H       -8.5440     2.4390    -1.7130 H     1 <1>   0.0800 
 35 H      -10.1000     5.5220     0.5200 H     1 <1>   0.0800 
 36 H       -9.5400     4.4190     1.7250 H     1 <1>   0.0800 
 37 H       -9.3850     1.9460     1.1230 H     1 <1>   0.0800 
 38 H      -10.4960     1.3940    -0.0730 H     1 <1>   0.0800 
 39 H      -10.3560     3.7400    -1.1240 H     1 <1>   0.0800 
 40 H      -11.2880     3.4830     0.3050 H     1 <1>   0.0800 
@<TRIPOS>BOND
  1   1   2  1   
  2   2   3  ar  
  3   2   4  ar  
  4   3   5  1   
  5   3   6  ar  
  6   4   7  ar  
  7   4  20  1   
  8   5   8  am  
  9   5  21  1   
 10   6   9  ar  
 11   6  22  1   
 12   7   9  ar  
 13   7  23  1   
 14   8  10  2   
 15   8  11  am  
 16   9  24  1   
 17  11  12  1   
 18  11  25  1   
 19  12  13  1   
 20  12  14  1   
 21  12  26  1   
 22  13  15  1   
 23  13  27  1   
 24  13  28  1   
 25  14  16  1   
 26  14  29  1   
 27  14  30  1   
 28  15  17  1   
 29  15  31  1   
 30  15  32  1   
 31  16  18  1   
 32  16  33  1   
 33  16  34  1   
 34  17  19  1   
 35  17  35  1   
 36  17  36  1   
 37  18  19  1   
 38  18  37  1   
 39  18  38  1   
 40  19  39  1   
 41  19  40  1   
@<TRIPOS>SUBSTRUCTURE
  1 ****   8 GROUP 4 **** **** 0

# MOE 2024.06 (io_trps.svl 2023.06)
