@<TRIPOS>MOLECULE
NONAME
37 38 1 0 0 
SMALL
USER_CHARGES


@<TRIPOS>ATOM
  1 F       -0.5470     0.2470     0.3100 F     1 <1>  -0.3400 
  2 C       -0.5720    -1.0740     0.1380 C.3   1 <1>   1.0810 
  3 F       -0.5870    -1.2560    -1.1820 F     1 <1>  -0.3400 
  4 F       -1.7710    -1.4680     0.5670 F     1 <1>  -0.3400 
  5 C        0.5900    -1.8320     0.8360 C.2   1 <1>   0.4950 
  6 O        1.2350    -1.2420     1.6920 O.2   1 <1>  -0.5700 
  7 C        0.8620    -3.1970     0.4940 C.2   1 <1>  -0.1240 
  8 C        1.9950    -3.9410     0.6520 C.2   1 <1>  -0.0380 
  9 C       -0.2210    -4.0720    -0.1290 C.3   1 <1>  -0.0220 
 10 N        3.2350    -3.5960     1.0890 N.pl3 1 <1>  -0.5200 
 11 C        1.8040    -5.3830     0.2460 C.3   1 <1>  -0.0220 
 12 C        0.2980    -5.5060     0.0130 C.3   1 <1>  -0.1600 
 13 N        3.7490    -2.2350     1.1200 N.am  1 <1>  -0.4100 
 14 C        4.6190    -1.6590     0.2490 C.2   1 <1>   0.5690 
 15 O        4.9030    -0.4850     0.3420 O.2   1 <1>  -0.5700 
 16 C        5.2550    -2.4710    -0.8720 C.3   1 <1>   0.0440 
 17 C        5.8450    -3.8020    -0.4080 C.ar  1 <1>  -0.1440 
 18 C        5.4580    -4.9900    -1.0090 C.ar  1 <1>  -0.1500 
 19 C        6.7630    -3.8340     0.6310 C.ar  1 <1>  -0.1500 
 20 C        5.9740    -6.1980    -0.5700 C.ar  1 <1>  -0.1500 
 21 C        7.2780    -5.0410     1.0720 C.ar  1 <1>  -0.1500 
 22 C        6.8830    -6.2230     0.4720 C.ar  1 <1>  -0.1500 
 23 H       -0.3390    -3.8320    -1.1720 H     1 <1>   0.0800 
 24 H       -1.1670    -3.9760     0.3760 H     1 <1>   0.0800 
 25 H        3.9500    -4.3230     1.2700 H     1 <1>   0.4000 
 26 H        2.1320    -6.0560     1.0190 H     1 <1>   0.0800 
 27 H        2.3490    -5.5780    -0.6600 H     1 <1>   0.0800 
 28 H        0.0730    -6.1050    -0.8530 H     1 <1>   0.0800 
 29 H       -0.1530    -5.9600     0.8790 H     1 <1>   0.0800 
 30 H        3.2960    -1.6050     1.8010 H     1 <1>   0.3700 
 31 H        6.0350    -1.8850    -1.3220 H     1 <1>   0.0800 
 32 H        4.5030    -2.6400    -1.6190 H     1 <1>   0.0800 
 33 H        4.7510    -4.9830    -1.8210 H     1 <1>   0.1500 
 34 H        7.0780    -2.9190     1.1050 H     1 <1>   0.1500 
 35 H        5.6710    -7.1170    -1.0410 H     1 <1>   0.1500 
 36 H        7.9880    -5.0580     1.8800 H     1 <1>   0.1500 
 37 H        7.2850    -7.1610     0.8140 H     1 <1>   0.1500 
@<TRIPOS>BOND
  1   1   2  1   
  2   2   3  1   
  3   2   4  1   
  4   2   5  1   
  5   5   6  2   
  6   5   7  1   
  7   7   8  2   
  8   7   9  1   
  9   8  10  1   
 10   8  11  1   
 11   9  12  1   
 12   9  23  1   
 13   9  24  1   
 14  10  13  1   
 15  10  25  1   
 16  11  12  1   
 17  11  26  1   
 18  11  27  1   
 19  12  28  1   
 20  12  29  1   
 21  13  14  am  
 22  13  30  1   
 23  14  15  2   
 24  14  16  1   
 25  16  17  1   
 26  16  31  1   
 27  16  32  1   
 28  17  18  ar  
 29  17  19  ar  
 30  18  20  ar  
 31  18  33  1   
 32  19  21  ar  
 33  19  34  1   
 34  20  22  ar  
 35  20  35  1   
 36  21  22  ar  
 37  21  36  1   
 38  22  37  1   
@<TRIPOS>SUBSTRUCTURE
  1 ****  10 GROUP 4 **** **** 0

# MOE 2024.06 (io_trps.svl 2023.06)
