@<TRIPOS>MOLECULE
NONAME
43 44 1 0 0 
SMALL
USER_CHARGES


@<TRIPOS>ATOM
  1 O       -2.0860     1.3760    -2.0300 O.2   1 <1>  -0.5700 
  2 C       -1.8640     1.7580    -0.9060 C.2   1 <1>   0.6590 
  3 O       -1.7990     0.9080     0.1150 O.3   1 <1>  -0.4300 
  4 C       -1.6330     3.2550    -0.6030 C.3   1 <1>   0.2510 
  5 C       -1.9630    -0.4780    -0.0630 C.3   1 <1>   0.1200 
  6 N       -0.2330     3.6140    -0.2040 N.3   1 <1>  -0.8100 
  7 C       -2.6160     3.7340     0.4820 C.3   1 <1>  -0.1600 
  8 C       -1.8150    -1.1490     1.2990 C.3   1 <1>  -0.2400 
  9 C       -0.0810     5.0690    -0.0160 C.3   1 <1>   0.1100 
 10 C        0.7540     3.1050    -1.1810 C.3   1 <1>   0.2530 
 11 C       -2.4830     5.2360     0.7550 C.3   1 <1>  -0.1600 
 12 C       -1.0250     5.5700     1.0790 C.3   1 <1>  -0.1600 
 13 C        2.1850     3.3250    -0.7050 C.ar  1 <1>  -0.1430 
 14 C        3.1090     3.9660    -1.5170 C.ar  1 <1>  -0.1500 
 15 C        2.5790     2.8810     0.5480 C.ar  1 <1>  -0.1500 
 16 C        4.4080     4.1570    -1.0790 C.ar  1 <1>  -0.1500 
 17 C        3.8770     3.0700     0.9900 C.ar  1 <1>  -0.1500 
 18 C        4.8020     3.7130     0.1720 C.ar  1 <1>   0.0830 
 19 O        6.0930     3.9410     0.5240 O.3   1 <1>  -0.3630 
 20 C        6.5890     3.5360     1.7800 C.3   1 <1>   0.0400 
 21 H       -1.8630     3.7850    -1.5110 H     1 <1>   0.0800 
 22 H       -1.2090    -0.8240    -0.7490 H     1 <1>   0.0800 
 23 H       -2.9410    -0.6550    -0.4790 H     1 <1>   0.0800 
 24 H       -2.4260     3.1880     1.3900 H     1 <1>   0.0800 
 25 H       -3.6230     3.5160     0.1730 H     1 <1>   0.0800 
 26 H       -0.8390    -0.9490     1.7040 H     1 <1>   0.0800 
 27 H       -1.9320    -2.2120     1.1940 H     1 <1>   0.0800 
 28 H       -2.5670    -0.7840     1.9750 H     1 <1>   0.0800 
 29 H       -0.2850     5.5820    -0.9410 H     1 <1>   0.0800 
 30 H        0.9290     5.2990     0.2800 H     1 <1>   0.0800 
 31 H        0.6020     3.5840    -2.1330 H     1 <1>   0.0800 
 32 H        0.6250     2.0460    -1.3170 H     1 <1>   0.0800 
 33 H       -3.1160     5.5180     1.5790 H     1 <1>   0.0800 
 34 H       -2.7940     5.7910    -0.1140 H     1 <1>   0.0800 
 35 H       -0.9110     6.6340     1.1870 H     1 <1>   0.0800 
 36 H       -0.7420     5.1130     2.0120 H     1 <1>   0.0800 
 37 H        2.8240     4.3180    -2.4930 H     1 <1>   0.1500 
 38 H        1.8600     2.3900     1.1820 H     1 <1>   0.1500 
 39 H        5.1270     4.6530    -1.7060 H     1 <1>   0.1500 
 40 H        4.1440     2.7140     1.9650 H     1 <1>   0.1500 
 41 H        7.6230     3.8220     1.8380 H     1 <1>   0.0800 
 42 H        6.4990     2.4670     1.8630 H     1 <1>   0.0800 
 43 H        6.0280     4.0320     2.5530 H     1 <1>   0.0800 
@<TRIPOS>BOND
  1   1   2  2   
  2   2   3  1   
  3   2   4  1   
  4   3   5  1   
  5   4   6  1   
  6   4   7  1   
  7   4  21  1   
  8   5   8  1   
  9   5  22  1   
 10   5  23  1   
 11   6   9  1   
 12   6  10  1   
 13   7  11  1   
 14   7  24  1   
 15   7  25  1   
 16   8  26  1   
 17   8  27  1   
 18   8  28  1   
 19   9  12  1   
 20   9  29  1   
 21   9  30  1   
 22  10  13  1   
 23  10  31  1   
 24  10  32  1   
 25  11  12  1   
 26  11  33  1   
 27  11  34  1   
 28  12  35  1   
 29  12  36  1   
 30  13  14  ar  
 31  13  15  ar  
 32  14  16  ar  
 33  14  37  1   
 34  15  17  ar  
 35  15  38  1   
 36  16  18  ar  
 37  16  39  1   
 38  17  18  ar  
 39  17  40  1   
 40  18  19  1   
 41  19  20  1   
 42  20  41  1   
 43  20  42  1   
 44  20  43  1   
@<TRIPOS>SUBSTRUCTURE
  1 ****  10 GROUP 4 **** **** 0

# MOE 2024.06 (io_trps.svl 2023.06)
