@<TRIPOS>MOLECULE
NONAME
28 29 1 0 0 
SMALL
USER_CHARGES


@<TRIPOS>ATOM
  1 CL       0.0390     0.2780    -0.0680 Cl    1 <1>  -0.1900 
  2 C        1.5100    -0.6570    -0.1250 C.ar  1 <1>   0.1640 
  3 C        2.6320    -0.1840     0.5200 C.ar  1 <1>  -0.1230 
  4 C        1.5120    -1.8630    -0.8250 C.ar  1 <1>  -0.1640 
  5 C        3.7830    -0.9570     0.4510 C.ar  1 <1>   0.2970 
  6 C        2.6650    -2.6240    -0.8880 C.ar  1 <1>  -0.1230 
  7 N        5.0490    -0.7800     0.9750 N.pl3 1 <1>  -0.7070 
  8 C        3.8060    -2.1570    -0.2420 C.ar  1 <1>   0.2970 
  9 C        5.7920    -1.8140     0.6220 C.cat 1 <1>   1.0670 
 10 N        5.0940    -2.6720    -0.1170 N.pl3 1 <1>  -0.7710 
 11 N        7.0500    -1.9590     0.9710 N.pl3 1 <1>  -0.8420 
 12 C        5.5260    -3.9520    -0.7240 C.3   1 <1>   0.3430 
 13 C        5.0970    -5.1110     0.1730 C.3   1 <1>  -0.1740 
 14 C        5.4600    -6.4480    -0.4690 C.3   1 <1>   0.1060 
 15 O        4.9100    -7.4500     0.2970 O.3   1 <1>  -0.6880 
 16 H        2.6110     0.7480     1.0560 H     1 <1>   0.1360 
 17 H        0.6070    -2.1880    -1.3110 H     1 <1>   0.1360 
 18 H        2.6790    -3.5580    -1.4220 H     1 <1>   0.1360 
 19 H        5.3440     0.0120     1.5410 H     1 <1>   0.4400 
 20 H        7.5940    -2.7740     0.7000 H     1 <1>   0.4400 
 21 H        7.5510    -1.2790     1.5400 H     1 <1>   0.4400 
 22 H        6.5950    -3.9610    -0.8530 H     1 <1>   0.0650 
 23 H        5.0740    -4.0540    -1.6970 H     1 <1>   0.0650 
 24 H        4.0300    -5.0750     0.3090 H     1 <1>   0.0650 
 25 H        5.5830    -5.0300     1.1290 H     1 <1>   0.0650 
 26 H        6.5250    -6.6000    -0.5180 H     1 <1>   0.0650 
 27 H        5.0380    -6.5310    -1.4570 H     1 <1>   0.0650 
 28 H        5.3520    -7.5250     1.1660 H     1 <1>   0.3890 
@<TRIPOS>BOND
  1   1   2  1   
  2   2   3  ar  
  3   2   4  ar  
  4   3   5  ar  
  5   3  16  1   
  6   4   6  ar  
  7   4  17  1   
  8   5   7  1   
  9   5   8  ar  
 10   6   8  ar  
 11   6  18  1   
 12   7   9  ar  
 13   7  19  1   
 14   8  10  1   
 15   9  10  ar  
 16   9  11  ar  
 17  10  12  1   
 18  11  20  1   
 19  11  21  1   
 20  12  13  1   
 21  12  22  1   
 22  12  23  1   
 23  13  14  1   
 24  13  24  1   
 25  13  25  1   
 26  14  15  1   
 27  14  26  1   
 28  14  27  1   
 29  15  28  1   
@<TRIPOS>SUBSTRUCTURE
  1 ****   8 GROUP 4 **** **** 0

# MOE 2024.06 (io_trps.svl 2023.06)
