@<TRIPOS>MOLECULE
NONAME
49 51 1 0 0 
SMALL
USER_CHARGES


@<TRIPOS>ATOM
  1 S        0.1720     0.1640     0.4150 S.o2  1 <1>   1.4470 
  2 O       -0.1930    -0.0470     1.8010 O.2   1 <1>  -0.6500 
  3 O        0.0270    -0.9470    -0.5020 O.2   1 <1>  -0.6500 
  4 N       -0.7650     1.4620    -0.1710 N.am  1 <1>  -0.8490 
  5 C        1.8920     0.7340     0.2900 C.ar  1 <1>  -0.0090 
  6 C       -1.0870     2.4990     0.8440 C.3   1 <1>   0.2760 
  7 C       -1.9780     0.9330    -0.8180 C.3   1 <1>   0.1960 
  8 C        2.8160     0.4600     1.2920 C.ar  1 <1>  -0.1500 
  9 C        2.3370     1.4460    -0.8170 C.ar  1 <1>  -0.1500 
 10 C       -1.9370     3.6210     0.2060 C.3   1 <1>  -0.1600 
 11 C        0.1920     3.1180     1.4630 C.3   1 <1>  -0.1600 
 12 C       -2.7850     2.0340    -1.5030 C.3   1 <1>  -0.1600 
 13 C        4.1260     0.8940     1.2000 C.ar  1 <1>  -0.1500 
 14 C        3.6460     1.8820    -0.9140 C.ar  1 <1>  -0.1500 
 15 C       -3.1920     3.1030    -0.4960 C.3   1 <1>  -0.1600 
 16 C       -0.0470     4.2710     2.4520 C.3   1 <1>  -0.2400 
 17 C        4.5620     1.6170     0.0970 C.ar  1 <1>   0.1170 
 18 N        5.9010     2.0280     0.0370 N.am  1 <1>  -0.5470 
 19 C        6.4780     3.0980    -0.6090 C.2   1 <1>   0.5440 
 20 O        5.7810     3.9510    -1.1190 O.2   1 <1>  -0.5700 
 21 C        7.9220     3.2210    -0.6460 C.ar  1 <1>   0.0860 
 22 C        8.5510     4.4570    -0.6910 C.ar  1 <1>  -0.1500 
 23 C        8.7840     2.1310    -0.6440 C.ar  1 <1>  -0.1500 
 24 C        9.9300     4.5430    -0.7120 C.ar  1 <1>   0.1600 
 25 C       10.1520     2.3220    -0.6680 C.ar  1 <1>   0.1600 
 26 N       10.7450     3.5020    -0.6960 N.ar  1 <1>  -0.6200 
 27 H       -1.6650     2.0460     1.6330 H     1 <1>   0.0800 
 28 H       -2.5890     0.4290    -0.0860 H     1 <1>   0.0800 
 29 H       -1.7100     0.2180    -1.5780 H     1 <1>   0.0800 
 30 H        2.4990    -0.0970     2.1580 H     1 <1>   0.1500 
 31 H        1.6440     1.6660    -1.6130 H     1 <1>   0.1500 
 32 H       -1.3280     4.1590    -0.5000 H     1 <1>   0.0800 
 33 H       -2.2540     4.3150     0.9610 H     1 <1>   0.0800 
 34 H        0.8350     3.4710     0.6750 H     1 <1>   0.0800 
 35 H        0.7180     2.3680     2.0220 H     1 <1>   0.0800 
 36 H       -3.6640     1.6050    -1.9520 H     1 <1>   0.0800 
 37 H       -2.1900     2.4690    -2.2870 H     1 <1>   0.0800 
 38 H        4.8120     0.6700     1.9970 H     1 <1>   0.1500 
 39 H        3.9550     2.4320    -1.7850 H     1 <1>   0.1500 
 40 H       -3.6950     3.9110    -0.9980 H     1 <1>   0.0800 
 41 H       -3.8660     2.6820     0.2300 H     1 <1>   0.0800 
 42 H       -0.3950     5.1540     1.9470 H     1 <1>   0.0800 
 43 H        0.8770     4.5200     2.9450 H     1 <1>   0.0800 
 44 H       -0.7630     3.9840     3.2010 H     1 <1>   0.0800 
 45 H        6.5320     1.5070     0.6410 H     1 <1>   0.3700 
 46 H        7.9570     5.3540    -0.7090 H     1 <1>   0.1500 
 47 H        8.3960     1.1290    -0.6360 H     1 <1>   0.1500 
 48 H       10.3870     5.5180    -0.7440 H     1 <1>   0.1500 
 49 H       10.7980     1.4590    -0.6660 H     1 <1>   0.1500 
@<TRIPOS>BOND
  1   1   2  2   
  2   1   3  2   
  3   1   4  am  
  4   1   5  1   
  5   4   6  1   
  6   4   7  1   
  7   5   8  ar  
  8   5   9  ar  
  9   6  10  1   
 10   6  11  1   
 11   6  27  1   
 12   7  12  1   
 13   7  28  1   
 14   7  29  1   
 15   8  13  ar  
 16   8  30  1   
 17   9  14  ar  
 18   9  31  1   
 19  10  15  1   
 20  10  32  1   
 21  10  33  1   
 22  11  16  1   
 23  11  34  1   
 24  11  35  1   
 25  12  15  1   
 26  12  36  1   
 27  12  37  1   
 28  13  17  ar  
 29  13  38  1   
 30  14  17  ar  
 31  14  39  1   
 32  15  40  1   
 33  15  41  1   
 34  16  42  1   
 35  16  43  1   
 36  16  44  1   
 37  17  18  1   
 38  18  19  am  
 39  18  45  1   
 40  19  20  2   
 41  19  21  1   
 42  21  22  ar  
 43  21  23  ar  
 44  22  24  ar  
 45  22  46  1   
 46  23  25  ar  
 47  23  47  1   
 48  24  26  ar  
 49  24  48  1   
 50  25  26  ar  
 51  25  49  1   
@<TRIPOS>SUBSTRUCTURE
  1 ****  14 GROUP 4 **** **** 0

# MOE 2024.06 (io_trps.svl 2023.06)
