@<TRIPOS>MOLECULE
NONAME
48 51 1 0 0 
SMALL
USER_CHARGES


@<TRIPOS>ATOM
  1 O       -0.6070    -0.0540    -0.9550 O.2   1 <1>  -0.5700 
  2 C       -1.7020     0.2630    -0.5630 C.2   1 <1>   0.5690 
  3 N       -2.0550     1.4410     0.0350 N.am  1 <1>  -0.4770 
  4 C       -2.8900    -0.6460    -0.7150 C.3   1 <1>  -0.0990 
  5 C       -1.2500     2.5650     0.3030 C.ar  1 <1>   0.1170 
  6 C       -3.5000     1.4490     0.3390 C.3   1 <1>   0.1400 
  7 C       -4.0760     0.3140    -0.5100 C.3   1 <1>  -0.0190 
  8 C       -1.4430     3.3230     1.4550 C.ar  1 <1>  -0.1500 
  9 C       -0.2490     2.9580    -0.5810 C.ar  1 <1>  -0.1500 
 10 C       -5.3180    -0.2890     0.1390 C.2   1 <1>   0.5690 
 11 C       -0.6700     4.4420     1.7100 C.ar  1 <1>  -0.1500 
 12 C        0.5260     4.0760    -0.3300 C.ar  1 <1>  -0.1500 
 13 O       -5.1500    -1.1630     0.9550 O.2   1 <1>  -0.5700 
 14 N       -6.5800     0.1610    -0.1690 N.am  1 <1>  -0.6600 
 15 C        0.3150     4.8220     0.8160 C.ar  1 <1>  -0.1500 
 16 C       -7.7930    -0.5520     0.3490 C.3   1 <1>   0.1400 
 17 C       -6.9250     1.3790    -0.9710 C.3   1 <1>   0.1400 
 18 C       -8.6750     0.3970     1.1690 C.3   1 <1>   0.1400 
 19 C       -7.8460     2.3340    -0.1880 C.3   1 <1>   0.1400 
 20 N       -9.0280     1.6170     0.3780 N.am  1 <1>  -0.6600 
 21 C      -10.3420     1.9380     0.0880 C.2   1 <1>   0.7150 
 22 O      -11.1730     1.0490     0.1610 O.2   1 <1>  -0.5700 
 23 C      -10.7750     3.2650    -0.3090 C.2   1 <1>   0.0550 
 24 O      -10.0520     4.3600    -0.0750 O.3   1 <1>  -0.2800 
 25 C      -11.9280     3.6450    -0.9280 C.2   1 <1>  -0.1500 
 26 C      -10.7050     5.4080    -0.5250 C.2   1 <1>  -0.0100 
 27 C      -11.8800     5.0320    -1.0700 C.2   1 <1>  -0.1500 
 28 H       -2.8350    -1.4010     0.0470 H     1 <1>   0.0800 
 29 H       -2.9060    -1.1060    -1.6860 H     1 <1>   0.0800 
 30 H       -3.9400     2.3980     0.0870 H     1 <1>   0.0800 
 31 H       -3.6380     1.2450     1.3880 H     1 <1>   0.0800 
 32 H       -4.3260     0.7040    -1.4780 H     1 <1>   0.0800 
 33 H       -2.1940     3.0350     2.1650 H     1 <1>   0.1500 
 34 H       -0.0740     2.3840    -1.4730 H     1 <1>   0.1500 
 35 H       -0.8320     5.0170     2.6060 H     1 <1>   0.1500 
 36 H        1.2950     4.3620    -1.0260 H     1 <1>   0.1500 
 37 H        0.9190     5.6910     1.0130 H     1 <1>   0.1500 
 38 H       -7.5150    -1.3900     0.9630 H     1 <1>   0.0800 
 39 H       -8.3630    -0.9320    -0.4810 H     1 <1>   0.0800 
 40 H       -7.4290     1.0700    -1.8710 H     1 <1>   0.0800 
 41 H       -6.0450     1.9230    -1.2570 H     1 <1>   0.0800 
 42 H       -8.1440     0.6930     2.0570 H     1 <1>   0.0800 
 43 H       -9.5630    -0.1260     1.4820 H     1 <1>   0.0800 
 44 H       -8.1590     3.1140    -0.8580 H     1 <1>   0.0800 
 45 H       -7.2940     2.7880     0.6160 H     1 <1>   0.0800 
 46 H      -12.7340     3.0060    -1.2450 H     1 <1>   0.1500 
 47 H      -10.2680     6.3860    -0.4180 H     1 <1>   0.1500 
 48 H      -12.6400     5.6450    -1.5220 H     1 <1>   0.1500 
@<TRIPOS>BOND
  1   1   2  2   
  2   2   3  am  
  3   2   4  1   
  4   3   5  1   
  5   3   6  1   
  6   4   7  1   
  7   4  28  1   
  8   4  29  1   
  9   5   8  ar  
 10   5   9  ar  
 11   6   7  1   
 12   6  30  1   
 13   6  31  1   
 14   7  10  1   
 15   7  32  1   
 16   8  11  ar  
 17   8  33  1   
 18   9  12  ar  
 19   9  34  1   
 20  10  13  2   
 21  10  14  am  
 22  11  15  ar  
 23  11  35  1   
 24  12  15  ar  
 25  12  36  1   
 26  14  16  1   
 27  14  17  1   
 28  15  37  1   
 29  16  18  1   
 30  16  38  1   
 31  16  39  1   
 32  17  19  1   
 33  17  40  1   
 34  17  41  1   
 35  18  20  1   
 36  18  42  1   
 37  18  43  1   
 38  19  20  1   
 39  19  44  1   
 40  19  45  1   
 41  20  21  am  
 42  21  22  2   
 43  21  23  1   
 44  23  24  1   
 45  23  25  2   
 46  24  26  1   
 47  25  27  1   
 48  25  46  1   
 49  26  27  2   
 50  26  47  1   
 51  27  48  1   
@<TRIPOS>SUBSTRUCTURE
  1 ****  17 GROUP 4 **** **** 0

# MOE 2024.06 (io_trps.svl 2023.06)
