@<TRIPOS>MOLECULE
NONAME
54 54 1 0 0 
SMALL
USER_CHARGES


@<TRIPOS>ATOM
  1 N        0.1720    -0.1310    -0.5370 N.4   1 <1>  -0.9590 
  2 C       -1.0410     0.7020    -0.7760 C.3   1 <1>   0.3430 
  3 C        0.0620    -0.9900     0.6800 C.3   1 <1>   0.3430 
  4 C        1.3780     0.7540    -0.4670 C.3   1 <1>   0.3430 
  5 C       -2.2820    -0.1880    -0.8910 C.3   1 <1>  -0.1600 
  6 C       -1.1670    -1.8960     0.5730 C.3   1 <1>  -0.1600 
  7 C        2.6580    -0.0650    -0.6470 C.3   1 <1>  -0.1600 
  8 C       -2.4400    -1.0790     0.3450 C.3   1 <1>   0.4230 
  9 C        3.8850     0.8510    -0.6990 C.3   1 <1>  -0.2400 
 10 N       -3.5840    -2.0140     0.1780 N.4   1 <1>  -0.9060 
 11 C       -4.9440    -1.3830     0.2370 C.3   1 <1>   0.3430 
 12 C       -6.0930    -2.4220     0.1110 C.3   1 <1>   0.0000 
 13 C       -7.4380    -1.6450     0.2230 C.3   1 <1>   0.3430 
 14 C       -5.9930    -3.4620     1.2510 C.3   1 <1>  -0.2400 
 15 C       -5.9920    -3.1590    -1.2440 C.3   1 <1>  -0.2400 
 16 N       -8.6520    -2.5210     0.1120 N.4   1 <1>  -0.9590 
 17 C       -9.2860    -2.4490    -1.2460 C.3   1 <1>   0.2630 
 18 C       -9.6730    -2.1680     1.1520 C.3   1 <1>   0.2630 
 19 H        0.3270    -0.7360    -1.3590 H     1 <1>   0.4500 
 20 H       -0.9200     1.2720    -1.6850 H     1 <1>   0.0800 
 21 H       -1.1660     1.4000     0.0380 H     1 <1>   0.0800 
 22 H       -0.0160    -0.3670     1.5580 H     1 <1>   0.0800 
 23 H        0.9460    -1.6000     0.7850 H     1 <1>   0.0800 
 24 H        1.4070     1.2780     0.4750 H     1 <1>   0.0800 
 25 H        1.3340     1.4890    -1.2560 H     1 <1>   0.0800 
 26 H       -2.1960    -0.7840    -1.7840 H     1 <1>   0.0800 
 27 H       -3.1360     0.4560    -0.9970 H     1 <1>   0.0800 
 28 H       -1.2500    -2.4520     1.4910 H     1 <1>   0.0800 
 29 H       -1.0100    -2.5950    -0.2300 H     1 <1>   0.0800 
 30 H        2.6130    -0.6230    -1.5670 H     1 <1>   0.0800 
 31 H        2.7890    -0.7520     0.1700 H     1 <1>   0.0800 
 32 H       -2.6090    -0.4560     1.2120 H     1 <1>   0.0800 
 33 H        3.8180     1.5400    -1.5240 H     1 <1>   0.0800 
 34 H        4.7780     0.2630    -0.8280 H     1 <1>   0.0800 
 35 H        3.9850     1.4130     0.2140 H     1 <1>   0.0800 
 36 H       -3.5350    -2.7300     0.9170 H     1 <1>   0.4500 
 37 H       -3.4870    -2.5290    -0.7080 H     1 <1>   0.4500 
 38 H       -5.0390    -0.6610    -0.5590 H     1 <1>   0.0800 
 39 H       -5.0500    -0.8570     1.1740 H     1 <1>   0.0800 
 40 H       -7.4830    -0.8820    -0.5390 H     1 <1>   0.0800 
 41 H       -7.4590    -1.1440     1.1780 H     1 <1>   0.0800 
 42 H       -6.0360    -2.9850     2.2160 H     1 <1>   0.0800 
 43 H       -5.0810    -4.0300     1.1960 H     1 <1>   0.0800 
 44 H       -6.7970    -4.1760     1.2030 H     1 <1>   0.0800 
 45 H       -6.0700    -2.4690    -2.0680 H     1 <1>   0.0800 
 46 H       -6.7750    -3.8900    -1.3470 H     1 <1>   0.0800 
 47 H       -5.0640    -3.6940    -1.3390 H     1 <1>   0.0800 
 48 H       -8.3690    -3.5000     0.2790 H     1 <1>   0.4500 
 49 H       -9.6270    -1.4460    -1.4500 H     1 <1>   0.0800 
 50 H      -10.1340    -3.1130    -1.2980 H     1 <1>   0.0800 
 51 H       -8.5840    -2.7360    -2.0110 H     1 <1>   0.0800 
 52 H      -10.0130    -1.1540     1.0180 H     1 <1>   0.0800 
 53 H       -9.2530    -2.2640     2.1410 H     1 <1>   0.0800 
 54 H      -10.5240    -2.8260     1.0800 H     1 <1>   0.0800 
@<TRIPOS>BOND
  1   1   2  1   
  2   1   3  1   
  3   1   4  1   
  4   1  19  1   
  5   2   5  1   
  6   2  20  1   
  7   2  21  1   
  8   3   6  1   
  9   3  22  1   
 10   3  23  1   
 11   4   7  1   
 12   4  24  1   
 13   4  25  1   
 14   5   8  1   
 15   5  26  1   
 16   5  27  1   
 17   6   8  1   
 18   6  28  1   
 19   6  29  1   
 20   7   9  1   
 21   7  30  1   
 22   7  31  1   
 23   8  10  1   
 24   8  32  1   
 25   9  33  1   
 26   9  34  1   
 27   9  35  1   
 28  10  11  1   
 29  10  36  1   
 30  10  37  1   
 31  11  12  1   
 32  11  38  1   
 33  11  39  1   
 34  12  13  1   
 35  12  14  1   
 36  12  15  1   
 37  13  16  1   
 38  13  40  1   
 39  13  41  1   
 40  14  42  1   
 41  14  43  1   
 42  14  44  1   
 43  15  45  1   
 44  15  46  1   
 45  15  47  1   
 46  16  17  1   
 47  16  18  1   
 48  16  48  1   
 49  17  49  1   
 50  17  50  1   
 51  17  51  1   
 52  18  52  1   
 53  18  53  1   
 54  18  54  1   
@<TRIPOS>SUBSTRUCTURE
  1 ****  10 GROUP 4 **** **** 0

# MOE 2024.06 (io_trps.svl 2023.06)
