@<TRIPOS>MOLECULE
NONAME
31 33 1 0 0 
SMALL
USER_CHARGES


@<TRIPOS>ATOM
  1 BR      -0.4060    -0.0080    -0.4480 Br    1 <1>  -0.1110 
  2 C        1.3020    -0.7490     0.0420 C.ar  1 <1>   0.1110 
  3 C        2.4500    -0.1110    -0.3970 C.ar  1 <1>  -0.1500 
  4 C        1.3300    -1.8970     0.8210 C.ar  1 <1>  -0.1500 
  5 C        3.6680    -0.6600    -0.0290 C.ar  1 <1>  -0.1440 
  6 C        2.5560    -2.4350     1.1800 C.ar  1 <1>  -0.1500 
  7 C        3.7170    -1.8070     0.7500 C.ar  1 <1>   0.1170 
  8 C        5.0900    -0.2000    -0.3440 C.3   1 <1>   0.7550 
  9 N        5.0310    -2.1750     0.9990 N.am  1 <1>  -0.5470 
 10 O        5.2230    -0.2180    -1.7050 O.3   1 <1>  -0.6800 
 11 N        5.3050     1.2270    -0.0060 N.3   1 <1>  -0.8100 
 12 C        5.9000    -1.3170     0.4030 C.2   1 <1>   0.5690 
 13 C        6.7180     1.6410    -0.2130 C.3   1 <1>   0.1100 
 14 C        4.9340     1.5410     1.3950 C.3   1 <1>   0.1100 
 15 O        7.1040    -1.4340     0.4880 O.2   1 <1>  -0.5700 
 16 C        6.9180     3.1230     0.1460 C.3   1 <1>   0.1200 
 17 C        5.1830     3.0260     1.7120 C.3   1 <1>   0.1200 
 18 O        6.5160     3.3640     1.4630 O.3   1 <1>  -0.5600 
 19 H        2.3930     0.7780    -1.0000 H     1 <1>   0.1500 
 20 H        0.4100    -2.3550     1.1350 H     1 <1>   0.1500 
 21 H        2.6120    -3.3240     1.7820 H     1 <1>   0.1500 
 22 H        5.3500    -3.0000     1.5070 H     1 <1>   0.3700 
 23 H        4.9250     0.6670    -1.9720 H     1 <1>   0.4000 
 24 H        7.0050     1.4920    -1.2400 H     1 <1>   0.0800 
 25 H        7.3790     1.0540     0.4020 H     1 <1>   0.0800 
 26 H        5.5090     0.9390     2.0790 H     1 <1>   0.0800 
 27 H        3.8910     1.3350     1.5600 H     1 <1>   0.0800 
 28 H        6.3460     3.7540    -0.5120 H     1 <1>   0.0800 
 29 H        7.9570     3.3890     0.0670 H     1 <1>   0.0800 
 30 H        4.9830     3.2240     2.7500 H     1 <1>   0.0800 
 31 H        4.5490     3.6530     1.1100 H     1 <1>   0.0800 
@<TRIPOS>BOND
  1   1   2  1   
  2   2   3  ar  
  3   2   4  ar  
  4   3   5  ar  
  5   3  19  1   
  6   4   6  ar  
  7   4  20  1   
  8   5   7  ar  
  9   5   8  1   
 10   6   7  ar  
 11   6  21  1   
 12   7   9  1   
 13   8  10  1   
 14   8  11  1   
 15   8  12  1   
 16   9  12  am  
 17   9  22  1   
 18  10  23  1   
 19  11  13  1   
 20  11  14  1   
 21  12  15  2   
 22  13  16  1   
 23  13  24  1   
 24  13  25  1   
 25  14  17  1   
 26  14  26  1   
 27  14  27  1   
 28  16  18  1   
 29  16  28  1   
 30  16  29  1   
 31  17  18  1   
 32  17  30  1   
 33  17  31  1   
@<TRIPOS>SUBSTRUCTURE
  1 ****   8 GROUP 4 **** **** 0

# MOE 2024.06 (io_trps.svl 2023.06)
