@<TRIPOS>MOLECULE
NONAME
47 49 1 0 0 
SMALL
USER_CHARGES


@<TRIPOS>ATOM
  1 O       -2.7930     3.2840     1.9290 O.2   1 <1>  -0.5700 
  2 C       -2.6130     2.9670     0.7720 C.2   1 <1>   0.5690 
  3 N       -3.3140     1.9140     0.2260 N.am  1 <1>  -0.6600 
  4 C       -1.6010     3.7830    -0.0760 C.3   1 <1>   0.2610 
  5 C       -3.1530     1.4060    -1.1740 C.3   1 <1>   0.1400 
  6 C       -4.2890     1.1180     1.0320 C.3   1 <1>   0.1400 
  7 O       -0.5570     2.9720    -0.5470 O.3   1 <1>  -0.5600 
  8 C       -0.8560     4.8960     0.6640 C.3   1 <1>  -0.1600 
  9 C       -4.5110     1.3110    -1.8870 C.3   1 <1>   0.1400 
 10 C       -5.6490     1.0190     0.3240 C.3   1 <1>   0.1400 
 11 C        0.4480     2.8920     0.4140 C.3   1 <1>   0.1200 
 12 C        0.3730     4.1890     1.2160 C.3   1 <1>  -0.1600 
 13 N       -5.4990     0.5260    -1.0830 N.am  1 <1>  -0.6600 
 14 C       -6.2460    -0.4760    -1.6580 C.2   1 <1>   0.5690 
 15 O       -6.0750    -0.8020    -2.8100 O.2   1 <1>  -0.5700 
 16 C       -7.3180    -1.2320    -0.8800 C.3   1 <1>   0.0440 
 17 C       -8.4550    -0.3470    -0.3720 C.ar  1 <1>  -0.1440 
 18 C       -9.0120     0.6240    -1.1910 C.ar  1 <1>  -0.1500 
 19 C       -8.9430    -0.5040     0.9160 C.ar  1 <1>  -0.1500 
 20 C      -10.0310     1.4350    -0.7230 C.ar  1 <1>  -0.1500 
 21 C       -9.9630     0.3070     1.3830 C.ar  1 <1>  -0.1500 
 22 C      -10.5100     1.2840     0.5670 C.ar  1 <1>  -0.1440 
 23 C      -11.6280     2.1730     1.0800 C.3   1 <1>  -0.0970 
 24 H       -2.1180     4.1880    -0.9250 H     1 <1>   0.0800 
 25 H       -2.7030     0.4300    -1.1430 H     1 <1>   0.0800 
 26 H       -2.5080     2.0430    -1.7500 H     1 <1>   0.0800 
 27 H       -4.4330     1.5610     2.0010 H     1 <1>   0.0800 
 28 H       -3.8940     0.1290     1.1810 H     1 <1>   0.0800 
 29 H       -1.4500     5.3610     1.4310 H     1 <1>   0.0800 
 30 H       -0.5600     5.6450    -0.0470 H     1 <1>   0.0800 
 31 H       -4.3640     0.8600    -2.8530 H     1 <1>   0.0800 
 32 H       -4.8980     2.3020    -2.0440 H     1 <1>   0.0800 
 33 H       -6.1110     1.9910     0.3080 H     1 <1>   0.0800 
 34 H       -6.2800     0.3680     0.8980 H     1 <1>   0.0800 
 35 H        1.3940     2.7730    -0.0860 H     1 <1>   0.0800 
 36 H        0.2490     2.0370     1.0380 H     1 <1>   0.0800 
 37 H        0.2490     3.9600     2.2600 H     1 <1>   0.0800 
 38 H        1.2630     4.7800     1.0880 H     1 <1>   0.0800 
 39 H       -6.8430    -1.7390    -0.0630 H     1 <1>   0.0800 
 40 H       -7.7390    -1.9840    -1.5220 H     1 <1>   0.0800 
 41 H       -8.6540     0.7560    -2.1980 H     1 <1>   0.1500 
 42 H       -8.5360    -1.2580     1.5660 H     1 <1>   0.1500 
 43 H      -10.4510     2.1830    -1.3720 H     1 <1>   0.1500 
 44 H      -10.3310     0.1740     2.3850 H     1 <1>   0.1500 
 45 H      -12.5780     1.7020     0.9000 H     1 <1>   0.0800 
 46 H      -11.6110     3.1250     0.5810 H     1 <1>   0.0800 
 47 H      -11.5180     2.3420     2.1360 H     1 <1>   0.0800 
@<TRIPOS>BOND
  1   1   2  2   
  2   2   3  am  
  3   2   4  1   
  4   3   5  1   
  5   3   6  1   
  6   4   7  1   
  7   4   8  1   
  8   4  24  1   
  9   5   9  1   
 10   5  25  1   
 11   5  26  1   
 12   6  10  1   
 13   6  27  1   
 14   6  28  1   
 15   7  11  1   
 16   8  12  1   
 17   8  29  1   
 18   8  30  1   
 19   9  13  1   
 20   9  31  1   
 21   9  32  1   
 22  10  13  1   
 23  10  33  1   
 24  10  34  1   
 25  11  12  1   
 26  11  35  1   
 27  11  36  1   
 28  12  37  1   
 29  12  38  1   
 30  13  14  am  
 31  14  15  2   
 32  14  16  1   
 33  16  17  1   
 34  16  39  1   
 35  16  40  1   
 36  17  18  ar  
 37  17  19  ar  
 38  18  20  ar  
 39  18  41  1   
 40  19  21  ar  
 41  19  42  1   
 42  20  22  ar  
 43  20  43  1   
 44  21  22  ar  
 45  21  44  1   
 46  22  23  1   
 47  23  45  1   
 48  23  46  1   
 49  23  47  1   
@<TRIPOS>SUBSTRUCTURE
  1 ****  10 GROUP 4 **** **** 0

# MOE 2024.06 (io_trps.svl 2023.06)
