@<TRIPOS>MOLECULE
NONAME
49 51 1 0 0 
SMALL
USER_CHARGES


@<TRIPOS>ATOM
  1 O       -0.0590    -4.4170    -2.0230 O.2   1 <1>  -0.5700 
  2 C       -0.5640    -3.7690    -1.1250 C.2   1 <1>   0.5440 
  3 N        0.2280    -3.3400    -0.0770 N.am  1 <1>  -0.6600 
  4 C       -1.9790    -3.4670    -1.1890 C.ar  1 <1>   0.0860 
  5 C       -0.1670    -2.2570     0.8680 C.3   1 <1>   0.1400 
  6 C        1.6320    -3.8120     0.0880 C.3   1 <1>   0.1400 
  7 C       -2.5260    -2.8010    -2.2840 C.ar  1 <1>  -0.1500 
  8 C       -2.8530    -3.8360    -0.1650 C.ar  1 <1>  -0.1500 
  9 C        0.7880    -1.0680     0.7210 C.3   1 <1>  -0.1600 
 10 C        2.5980    -2.6330    -0.0720 C.3   1 <1>  -0.1600 
 11 C       -3.8730    -2.4990    -2.3470 C.ar  1 <1>  -0.1500 
 12 C       -4.2000    -3.5360    -0.2260 C.ar  1 <1>  -0.1500 
 13 C        2.2550    -1.4880     0.8920 C.3   1 <1>  -0.1600 
 14 C       -4.7350    -2.8570    -1.3150 C.ar  1 <1>   0.1170 
 15 N       -6.1060    -2.5850    -1.3200 N.am  1 <1>  -0.5470 
 16 C       -6.8920    -1.7730    -2.0950 C.2   1 <1>   0.5690 
 17 O       -6.4690    -1.0750    -2.9820 O.2   1 <1>  -0.5700 
 18 C       -8.3870    -1.7460    -1.8140 C.3   1 <1>   0.0440 
 19 C       -8.7660    -2.5830    -0.5950 C.ar  1 <1>  -0.1430 
 20 C       -9.0900    -3.9220    -0.7390 C.ar  1 <1>  -0.1500 
 21 C       -8.7580    -2.0180     0.6710 C.ar  1 <1>  -0.1500 
 22 C       -9.3950    -4.6900     0.3720 C.ar  1 <1>  -0.1500 
 23 C       -9.0630    -2.7870     1.7800 C.ar  1 <1>  -0.1500 
 24 C       -9.3800    -4.1270     1.6370 C.ar  1 <1>  -0.1430 
 25 C       -9.7170    -4.9700     2.8540 C.3   1 <1>  -0.0970 
 26 H       -0.1230    -2.6390     1.8740 H     1 <1>   0.0800 
 27 H       -1.1710    -1.9240     0.6790 H     1 <1>   0.0800 
 28 H        1.8680    -4.5730    -0.6370 H     1 <1>   0.0800 
 29 H        1.7420    -4.2450     1.0670 H     1 <1>   0.0800 
 30 H       -1.8750    -2.5220    -3.0950 H     1 <1>   0.1500 
 31 H       -2.4580    -4.3670     0.6830 H     1 <1>   0.1500 
 32 H        0.5400    -0.3190     1.4520 H     1 <1>   0.0800 
 33 H        0.6490    -0.6320    -0.2530 H     1 <1>   0.0800 
 34 H        2.5460    -2.2840    -1.0880 H     1 <1>   0.0800 
 35 H        3.6030    -2.9710     0.1080 H     1 <1>   0.0800 
 36 H       -4.2510    -1.9850    -3.2120 H     1 <1>   0.1500 
 37 H       -4.8450    -3.8330     0.5810 H     1 <1>   0.1500 
 38 H        2.4190    -1.8130     1.9050 H     1 <1>   0.0800 
 39 H        2.9000    -0.6480     0.7020 H     1 <1>   0.0800 
 40 H       -6.6400    -3.0630    -0.5890 H     1 <1>   0.3700 
 41 H       -8.9020    -2.1090    -2.6830 H     1 <1>   0.0800 
 42 H       -8.6860    -0.7250    -1.6630 H     1 <1>   0.0800 
 43 H       -9.1060    -4.3790    -1.7140 H     1 <1>   0.1500 
 44 H       -8.5130    -0.9780     0.8020 H     1 <1>   0.1500 
 45 H       -9.6470    -5.7290     0.2460 H     1 <1>   0.1500 
 46 H       -9.0550    -2.3350     2.7570 H     1 <1>   0.1500 
 47 H       -9.4210    -5.9920     2.6980 H     1 <1>   0.0800 
 48 H      -10.7770    -4.9390     3.0340 H     1 <1>   0.0800 
 49 H       -9.2070    -4.5980     3.7240 H     1 <1>   0.0800 
@<TRIPOS>BOND
  1   1   2  2   
  2   2   3  am  
  3   2   4  1   
  4   3   5  1   
  5   3   6  1   
  6   4   7  ar  
  7   4   8  ar  
  8   5   9  1   
  9   5  26  1   
 10   5  27  1   
 11   6  10  1   
 12   6  28  1   
 13   6  29  1   
 14   7  11  ar  
 15   7  30  1   
 16   8  12  ar  
 17   8  31  1   
 18   9  13  1   
 19   9  32  1   
 20   9  33  1   
 21  10  13  1   
 22  10  34  1   
 23  10  35  1   
 24  11  14  ar  
 25  11  36  1   
 26  12  14  ar  
 27  12  37  1   
 28  13  38  1   
 29  13  39  1   
 30  14  15  1   
 31  15  16  am  
 32  15  40  1   
 33  16  17  2   
 34  16  18  1   
 35  18  19  1   
 36  18  41  1   
 37  18  42  1   
 38  19  20  ar  
 39  19  21  ar  
 40  20  22  ar  
 41  20  43  1   
 42  21  23  ar  
 43  21  44  1   
 44  22  24  ar  
 45  22  45  1   
 46  23  24  ar  
 47  23  46  1   
 48  24  25  1   
 49  25  47  1   
 50  25  48  1   
 51  25  49  1   
@<TRIPOS>SUBSTRUCTURE
  1 ****  12 GROUP 4 **** **** 0

# MOE 2024.06 (io_trps.svl 2023.06)
