@<TRIPOS>MOLECULE
NONAME
47 48 1 0 0 
SMALL
USER_CHARGES


@<TRIPOS>ATOM
  1 S        0.2320     0.0540    -0.4140 S.3   1 <1>  -0.2860 
  2 C       -1.5190     0.4440    -0.5360 C.2   1 <1>   0.2420 
  3 C        1.0380     1.5360    -1.2010 C.3   1 <1>   0.1310 
  4 N       -1.9480     1.5490    -1.0310 N.2   1 <1>  -0.3380 
  5 N       -2.4890    -0.3750    -0.1180 N.pl3 1 <1>   0.0480 
  6 C        2.5550     1.4510    -1.1400 C.2   1 <1>   0.5690 
  7 N       -3.2770     1.4910    -0.9460 N.2   1 <1>  -0.3380 
  8 C       -3.5840     0.3570    -0.4070 C.2   1 <1>   0.0060 
  9 C       -2.3060    -1.7160     0.5120 C.3   1 <1>   0.1760 
 10 O        3.1910     2.0880    -1.9450 O.2   1 <1>  -0.5700 
 11 N        3.1420     0.6770    -0.1840 N.am  1 <1>  -0.7300 
 12 C       -5.0240    -0.0460    -0.1530 C.3   1 <1>  -0.0600 
 13 C       -3.1730    -2.7930    -0.1510 C.3   1 <1>  -0.2400 
 14 C       -2.5580    -1.6430     2.0220 C.3   1 <1>  -0.2400 
 15 C        4.5840     0.4500     0.0550 C.3   1 <1>   0.2200 
 16 C        5.2830     1.7860     0.3560 C.3   1 <1>  -0.1600 
 17 C        5.1700    -0.3490    -1.1170 C.3   1 <1>  -0.1600 
 18 C        6.6510     1.5920     1.0290 C.3   1 <1>  -0.1600 
 19 C        6.6680    -0.6730    -0.9900 C.3   1 <1>  -0.1600 
 20 C        7.8270     1.3930     0.0600 C.3   1 <1>  -0.1600 
 21 C        7.5530     0.5630    -1.2040 C.3   1 <1>  -0.1600 
 22 H        0.6920     2.4070    -0.6750 H     1 <1>   0.0800 
 23 H        0.7050     1.5730    -2.2220 H     1 <1>   0.0800 
 24 H       -1.2810    -2.0080     0.3660 H     1 <1>   0.0800 
 25 H        2.5220     0.1280     0.4130 H     1 <1>   0.3700 
 26 H       -5.1530    -0.3910     0.8550 H     1 <1>   0.0800 
 27 H       -5.3190    -0.8140    -0.8420 H     1 <1>   0.0800 
 28 H       -5.6680     0.8040    -0.3020 H     1 <1>   0.0800 
 29 H       -4.2110    -2.6700     0.0940 H     1 <1>   0.0800 
 30 H       -2.8690    -3.7640     0.1990 H     1 <1>   0.0800 
 31 H       -3.0490    -2.7680    -1.2190 H     1 <1>   0.0800 
 32 H       -3.5810    -1.3930     2.2350 H     1 <1>   0.0800 
 33 H       -1.9150    -0.9050     2.4690 H     1 <1>   0.0800 
 34 H       -2.3420    -2.5940     2.4750 H     1 <1>   0.0800 
 35 H        4.6610    -0.1630     0.9370 H     1 <1>   0.0800 
 36 H        4.6600     2.3370     1.0380 H     1 <1>   0.0800 
 37 H        5.3860     2.3720    -0.5400 H     1 <1>   0.0800 
 38 H        5.0070     0.1890    -2.0340 H     1 <1>   0.0800 
 39 H        4.6320    -1.2770    -1.1860 H     1 <1>   0.0800 
 40 H        6.6030     0.7570     1.7070 H     1 <1>   0.0800 
 41 H        6.8650     2.4610     1.6270 H     1 <1>   0.0800 
 42 H        6.9090    -1.3870    -1.7590 H     1 <1>   0.0800 
 43 H        6.8840    -1.1390    -0.0440 H     1 <1>   0.0800 
 44 H        8.6330     0.9350     0.6070 H     1 <1>   0.0800 
 45 H        8.1770     2.3610    -0.2570 H     1 <1>   0.0800 
 46 H        7.1090     1.1940    -1.9550 H     1 <1>   0.0800 
 47 H        8.5020     0.2420    -1.5970 H     1 <1>   0.0800 
@<TRIPOS>BOND
  1   1   2  1   
  2   1   3  1   
  3   2   4  2   
  4   2   5  1   
  5   3   6  1   
  6   3  22  1   
  7   3  23  1   
  8   4   7  1   
  9   5   8  1   
 10   5   9  1   
 11   6  10  2   
 12   6  11  am  
 13   7   8  2   
 14   8  12  1   
 15   9  13  1   
 16   9  14  1   
 17   9  24  1   
 18  11  15  1   
 19  11  25  1   
 20  12  26  1   
 21  12  27  1   
 22  12  28  1   
 23  13  29  1   
 24  13  30  1   
 25  13  31  1   
 26  14  32  1   
 27  14  33  1   
 28  14  34  1   
 29  15  16  1   
 30  15  17  1   
 31  15  35  1   
 32  16  18  1   
 33  16  36  1   
 34  16  37  1   
 35  17  19  1   
 36  17  38  1   
 37  17  39  1   
 38  18  20  1   
 39  18  40  1   
 40  18  41  1   
 41  19  21  1   
 42  19  42  1   
 43  19  43  1   
 44  20  21  1   
 45  20  44  1   
 46  20  45  1   
 47  21  46  1   
 48  21  47  1   
@<TRIPOS>SUBSTRUCTURE
  1 ****   1 GROUP 4 **** **** 0

# MOE 2024.06 (io_trps.svl 2023.06)
