@<TRIPOS>MOLECULE
NONAME
54 56 1 0 0 
SMALL
USER_CHARGES


@<TRIPOS>ATOM
  1 O       -0.6370    -0.1490    -0.3980 O.2   1 <1>  -0.5700 
  2 C       -0.7630    -1.3360    -0.2110 C.2   1 <1>   0.5690 
  3 N        0.2820    -2.2170    -0.2600 N.am  1 <1>  -0.5470 
  4 C       -2.1470    -1.8980     0.1150 C.3   1 <1>  -0.0190 
  5 C        1.6450    -2.0080    -0.5360 C.ar  1 <1>   0.1170 
  6 C       -3.1770    -1.5430    -0.9760 C.3   1 <1>  -0.1600 
  7 C       -2.6330    -1.4130     1.4950 C.3   1 <1>  -0.1600 
  8 C        2.6060    -2.8550     0.0210 C.ar  1 <1>  -0.1430 
  9 C        2.0660    -0.9820    -1.3770 C.ar  1 <1>  -0.1500 
 10 C       -4.5680    -2.1000    -0.6410 C.3   1 <1>  -0.1600 
 11 C       -4.0250    -1.9690     1.8310 C.3   1 <1>  -0.1600 
 12 C        3.9480    -2.6520    -0.2580 C.ar  1 <1>  -0.1500 
 13 C        2.2120    -4.0040     0.9430 C.3   1 <1>  -0.0970 
 14 C        3.4050    -0.7820    -1.6520 C.ar  1 <1>  -0.1500 
 15 C       -5.0400    -1.6170     0.7360 C.3   1 <1>  -0.1600 
 16 C        4.3580    -1.6170    -1.0820 C.ar  1 <1>   0.0830 
 17 O        5.6950    -1.4810    -1.2750 O.3   1 <1>  -0.3630 
 18 C        6.2220    -0.2970    -1.8600 C.3   1 <1>   0.1810 
 19 C        7.7380    -0.2090    -1.6890 C.2   1 <1>   0.5690 
 20 O        8.3980    -0.0790    -2.6950 O.2   1 <1>  -0.5700 
 21 N        8.3270    -0.2370    -0.4460 N.am  1 <1>  -0.6600 
 22 C        7.5990    -0.3770     0.8520 C.3   1 <1>   0.1400 
 23 C        9.8110    -0.1960    -0.2830 C.3   1 <1>   0.1400 
 24 C        8.1320     0.6250     1.8900 C.3   1 <1>   0.1200 
 25 C       10.2110     0.8010     0.8170 C.3   1 <1>   0.1200 
 26 O        9.5230     0.5310     2.0060 O.3   1 <1>  -0.5600 
 27 H        0.0560    -3.1720     0.0060 H     1 <1>   0.3700 
 28 H       -2.0740    -2.9700     0.1520 H     1 <1>   0.0800 
 29 H       -2.8490    -1.9350    -1.9230 H     1 <1>   0.0800 
 30 H       -3.2390    -0.4710    -1.0700 H     1 <1>   0.0800 
 31 H       -2.6720    -0.3370     1.4960 H     1 <1>   0.0800 
 32 H       -1.9320    -1.7150     2.2530 H     1 <1>   0.0800 
 33 H        1.3380    -0.3310    -1.8270 H     1 <1>   0.1500 
 34 H       -4.5360    -3.1760    -0.6510 H     1 <1>   0.0800 
 35 H       -5.2710    -1.7850    -1.3930 H     1 <1>   0.0800 
 36 H       -4.3560    -1.5630     2.7710 H     1 <1>   0.0800 
 37 H       -3.9690    -3.0390     1.9350 H     1 <1>   0.0800 
 38 H        4.7000    -3.2940     0.1640 H     1 <1>   0.1500 
 39 H        1.6320    -3.6320     1.7690 H     1 <1>   0.0800 
 40 H        3.0830    -4.4930     1.3410 H     1 <1>   0.0800 
 41 H        1.6360    -4.7320     0.4010 H     1 <1>   0.0800 
 42 H        3.6790     0.0200    -2.3110 H     1 <1>   0.1500 
 43 H       -5.9920    -2.0640     0.9690 H     1 <1>   0.0800 
 44 H       -5.1770    -0.5490     0.7090 H     1 <1>   0.0800 
 45 H        5.7680     0.5530    -1.3870 H     1 <1>   0.0800 
 46 H        5.9780    -0.3060    -2.9060 H     1 <1>   0.0800 
 47 H        7.7350    -1.3780     1.2250 H     1 <1>   0.0800 
 48 H        6.5450    -0.2130     0.7260 H     1 <1>   0.0800 
 49 H       10.2870     0.0880    -1.2050 H     1 <1>   0.0800 
 50 H       10.1640    -1.1760    -0.0170 H     1 <1>   0.0800 
 51 H        7.7070     0.4190     2.8560 H     1 <1>   0.0800 
 52 H        7.8770     1.6320     1.6090 H     1 <1>   0.0800 
 53 H        9.9910     1.8090     0.5110 H     1 <1>   0.0800 
 54 H       11.2640     0.7240     1.0220 H     1 <1>   0.0800 
@<TRIPOS>BOND
  1   1   2  2   
  2   2   3  am  
  3   2   4  1   
  4   3   5  1   
  5   3  27  1   
  6   4   6  1   
  7   4   7  1   
  8   4  28  1   
  9   5   8  ar  
 10   5   9  ar  
 11   6  10  1   
 12   6  29  1   
 13   6  30  1   
 14   7  11  1   
 15   7  31  1   
 16   7  32  1   
 17   8  12  ar  
 18   8  13  1   
 19   9  14  ar  
 20   9  33  1   
 21  10  15  1   
 22  10  34  1   
 23  10  35  1   
 24  11  15  1   
 25  11  36  1   
 26  11  37  1   
 27  12  16  ar  
 28  12  38  1   
 29  13  39  1   
 30  13  40  1   
 31  13  41  1   
 32  14  16  ar  
 33  14  42  1   
 34  15  43  1   
 35  15  44  1   
 36  16  17  1   
 37  17  18  1   
 38  18  19  1   
 39  18  45  1   
 40  18  46  1   
 41  19  20  2   
 42  19  21  am  
 43  21  22  1   
 44  21  23  1   
 45  22  24  1   
 46  22  47  1   
 47  22  48  1   
 48  23  25  1   
 49  23  49  1   
 50  23  50  1   
 51  24  26  1   
 52  24  51  1   
 53  24  52  1   
 54  25  26  1   
 55  25  53  1   
 56  25  54  1   
@<TRIPOS>SUBSTRUCTURE
  1 ****   9 GROUP 4 **** **** 0

# MOE 2024.06 (io_trps.svl 2023.06)
