@<TRIPOS>MOLECULE
NONAME
40 41 1 0 0 
SMALL
USER_CHARGES


@<TRIPOS>ATOM
  1 CL      -2.0650     0.6670     1.9410 Cl    1 <1>  -0.1770 
  2 C       -1.0870     1.9550     1.2660 C.ar  1 <1>   0.1770 
  3 C        0.0470     2.3900     1.9340 C.ar  1 <1>   0.1770 
  4 C       -1.4710     2.5370     0.0660 C.ar  1 <1>  -0.1440 
  5 CL       0.5180     1.6620     3.4500 Cl    1 <1>  -0.1770 
  6 C        0.8160     3.4120     1.4110 C.ar  1 <1>  -0.1500 
  7 C       -0.6910     3.5620    -0.4580 C.ar  1 <1>  -0.1500 
  8 C       -2.7110     2.0520    -0.6620 C.3   1 <1>   0.4870 
  9 C        0.4430     3.9960     0.2120 C.ar  1 <1>  -0.1500 
 10 N       -3.9330     2.3960     0.1410 N.4   1 <1>  -0.9590 
 11 C       -5.1800     1.6810    -0.2980 C.3   1 <1>   0.4230 
 12 C       -4.0720     3.8960     0.1950 C.3   1 <1>   0.2630 
 13 C       -6.3670     2.0820     0.5950 C.3   1 <1>  -0.1600 
 14 C       -4.9820     0.1570    -0.2300 C.3   1 <1>  -0.1600 
 15 C       -7.6330     1.2880     0.2690 C.3   1 <1>   0.3430 
 16 C       -6.2680    -0.6100    -0.5430 C.3   1 <1>   0.3430 
 17 N       -7.3580    -0.1710     0.3700 N.4   1 <1>  -0.9590 
 18 C       -8.6090    -0.9550     0.1010 C.3   1 <1>   0.2630 
 19 H        1.6960     3.7430     1.9370 H     1 <1>   0.1500 
 20 H       -0.9470     4.0340    -1.3940 H     1 <1>   0.1500 
 21 H       -2.6250     0.9860    -0.7870 H     1 <1>   0.0800 
 22 H       -2.7660     2.5040    -1.6390 H     1 <1>   0.0800 
 23 H        1.0440     4.7910    -0.2020 H     1 <1>   0.1500 
 24 H       -3.7100     2.0790     1.0990 H     1 <1>   0.4500 
 25 H       -5.4060     1.9580    -1.3170 H     1 <1>   0.0800 
 26 H       -4.3210     4.2880    -0.7780 H     1 <1>   0.0800 
 27 H       -3.1480     4.3490     0.5200 H     1 <1>   0.0800 
 28 H       -4.8410     4.1840     0.8930 H     1 <1>   0.0800 
 29 H       -6.6080     3.1200     0.4500 H     1 <1>   0.0800 
 30 H       -6.1240     1.9350     1.6330 H     1 <1>   0.0800 
 31 H       -4.6390    -0.1370     0.7470 H     1 <1>   0.0800 
 32 H       -4.2530    -0.1610    -0.9520 H     1 <1>   0.0800 
 33 H       -7.9680     1.5270    -0.7290 H     1 <1>   0.0800 
 34 H       -8.4180     1.5620     0.9580 H     1 <1>   0.0800 
 35 H       -6.0940    -1.6690    -0.4240 H     1 <1>   0.0800 
 36 H       -6.5590    -0.4340    -1.5680 H     1 <1>   0.0800 
 37 H       -7.0780    -0.3870     1.3410 H     1 <1>   0.4500 
 38 H       -8.9600    -0.7770    -0.9040 H     1 <1>   0.0800 
 39 H       -9.3880    -0.6710     0.7910 H     1 <1>   0.0800 
 40 H       -8.4240    -2.0120     0.2170 H     1 <1>   0.0800 
@<TRIPOS>BOND
  1   1   2  1   
  2   2   3  ar  
  3   2   4  ar  
  4   3   5  1   
  5   3   6  ar  
  6   4   7  ar  
  7   4   8  1   
  8   6   9  ar  
  9   6  19  1   
 10   7   9  ar  
 11   7  20  1   
 12   8  10  1   
 13   8  21  1   
 14   8  22  1   
 15   9  23  1   
 16  10  11  1   
 17  10  12  1   
 18  10  24  1   
 19  11  13  1   
 20  11  14  1   
 21  11  25  1   
 22  12  26  1   
 23  12  27  1   
 24  12  28  1   
 25  13  15  1   
 26  13  29  1   
 27  13  30  1   
 28  14  16  1   
 29  14  31  1   
 30  14  32  1   
 31  15  17  1   
 32  15  33  1   
 33  15  34  1   
 34  16  17  1   
 35  16  35  1   
 36  16  36  1   
 37  17  18  1   
 38  17  37  1   
 39  18  38  1   
 40  18  39  1   
 41  18  40  1   
@<TRIPOS>SUBSTRUCTURE
  1 ****  10 GROUP 4 **** **** 0

# MOE 2024.06 (io_trps.svl 2023.06)
