@<TRIPOS>MOLECULE
NONAME
38 39 1 0 0 
SMALL
USER_CHARGES


@<TRIPOS>ATOM
  1 CL       0.6500     0.7170     1.2710 Cl    1 <1>  -0.1770 
  2 C        1.7950    -0.5160     0.8390 C.ar  1 <1>   0.7970 
  3 N        3.0080    -0.1050     0.6180 N.ar  1 <1>  -0.6200 
  4 N        1.3230    -1.7240     0.7790 N.ar  1 <1>  -0.6200 
  5 C        3.8130    -1.0810     0.2980 C.ar  1 <1>   0.7200 
  6 C        2.2410    -2.5950     0.4500 C.ar  1 <1>   0.7200 
  7 N        3.4910    -2.3420     0.1950 N.ar  1 <1>  -0.6200 
  8 N        5.0810    -0.6800     0.0600 N.pl3 1 <1>  -0.8690 
  9 N        1.8930    -3.8930     0.3500 N.pl3 1 <1>  -0.8690 
 10 C        6.3190    -1.4360    -0.1180 C.3   1 <1>   0.3690 
 11 C        0.5310    -4.4490     0.3340 C.3   1 <1>   0.2890 
 12 C        7.4340    -0.3980    -0.2180 C.3   1 <1>  -0.2400 
 13 C        6.5680    -2.3330     1.0950 C.3   1 <1>  -0.2400 
 14 C        6.2570    -2.2400    -1.4160 C.3   1 <1>  -0.2400 
 15 C        0.5530    -5.7970     1.0410 C.3   1 <1>  -0.1600 
 16 C        0.1680    -4.8110    -1.1000 C.3   1 <1>  -0.1600 
 17 C        1.0660    -6.8070     0.0070 C.3   1 <1>  -0.1600 
 18 C        0.8240    -6.1710    -1.3680 C.3   1 <1>  -0.1600 
 19 H        5.2190     0.3170     0.1980 H     1 <1>   0.4000 
 20 H        2.6170    -4.5050    -0.0160 H     1 <1>   0.4000 
 21 H       -0.1760    -3.7680     0.7790 H     1 <1>   0.0800 
 22 H        7.4870     0.1870     0.6830 H     1 <1>   0.0800 
 23 H        7.2660     0.2550    -1.0560 H     1 <1>   0.0800 
 24 H        8.3820    -0.8850    -0.3570 H     1 <1>   0.0800 
 25 H        6.5480    -1.7530     2.0000 H     1 <1>   0.0800 
 26 H        7.5280    -2.8070     1.0130 H     1 <1>   0.0800 
 27 H        5.8240    -3.1050     1.1590 H     1 <1>   0.0800 
 28 H        6.0240    -1.5950    -2.2430 H     1 <1>   0.0800 
 29 H        5.5100    -3.0100    -1.3530 H     1 <1>   0.0800 
 30 H        7.2030    -2.7130    -1.6040 H     1 <1>   0.0800 
 31 H       -0.4560    -6.0560     1.3100 H     1 <1>   0.0800 
 32 H        1.1520    -5.7750     1.9350 H     1 <1>   0.0800 
 33 H        0.4770    -4.0540    -1.7990 H     1 <1>   0.0800 
 34 H       -0.9000    -4.9200    -1.1620 H     1 <1>   0.0800 
 35 H        0.5530    -7.7480     0.1020 H     1 <1>   0.0800 
 36 H        2.1210    -6.9710     0.1490 H     1 <1>   0.0800 
 37 H        1.7660    -6.0280    -1.8710 H     1 <1>   0.0800 
 38 H        0.1920    -6.7880    -1.9840 H     1 <1>   0.0800 
@<TRIPOS>BOND
  1   1   2  1   
  2   2   3  ar  
  3   2   4  ar  
  4   3   5  ar  
  5   4   6  ar  
  6   5   7  ar  
  7   5   8  1   
  8   6   7  ar  
  9   6   9  1   
 10   8  10  1   
 11   8  19  1   
 12   9  11  1   
 13   9  20  1   
 14  10  12  1   
 15  10  13  1   
 16  10  14  1   
 17  11  15  1   
 18  11  16  1   
 19  11  21  1   
 20  12  22  1   
 21  12  23  1   
 22  12  24  1   
 23  13  25  1   
 24  13  26  1   
 25  13  27  1   
 26  14  28  1   
 27  14  29  1   
 28  14  30  1   
 29  15  17  1   
 30  15  31  1   
 31  15  32  1   
 32  16  18  1   
 33  16  33  1   
 34  16  34  1   
 35  17  18  1   
 36  17  35  1   
 37  17  36  1   
 38  18  37  1   
 39  18  38  1   
@<TRIPOS>SUBSTRUCTURE
  1 ****   7 GROUP 4 **** **** 0

# MOE 2024.06 (io_trps.svl 2023.06)
