@<TRIPOS>MOLECULE
NONAME
40 41 1 0 0 
SMALL
USER_CHARGES


@<TRIPOS>ATOM
  1 O       -0.0200     0.2840     0.7010 O.2   1 <1>  -0.5700 
  2 C        0.1570     1.4650     0.5270 C.2   1 <1>   0.6300 
  3 N        1.2910     1.9500    -0.0260 N.am  1 <1>  -0.7300 
  4 C       -0.9150     2.4550     0.9510 C.3   1 <1>  -0.1000 
  5 C        2.4580     1.1440    -0.3850 C.3   1 <1>   0.3640 
  6 C       -2.2190     2.5330     0.2160 C.3   1 <1>  -0.1950 
  7 C       -1.2530     3.6670     0.1160 C.3   1 <1>  -0.2000 
  8 C        3.6960     2.0280    -0.2760 C.ar  1 <1>  -0.1430 
  9 C        2.2700     0.5930    -1.7960 C.3   1 <1>  -0.2400 
 10 C       -3.5370     2.7000     0.9730 C.3   1 <1>  -0.1450 
 11 C        4.6730     1.7280     0.6590 C.ar  1 <1>  -0.1500 
 12 C        3.8710     3.1390    -1.0880 C.ar  1 <1>  -0.1500 
 13 C        5.8140     2.5030     0.7930 C.ar  1 <1>   0.0820 
 14 C        4.9980     3.9330    -0.9630 C.ar  1 <1>  -0.1500 
 15 O        6.6880     2.0700     1.7460 O.3   1 <1>  -0.3620 
 16 C        5.9810     3.6360    -0.0210 C.ar  1 <1>   0.0820 
 17 C        8.0780     2.2670     1.6110 C.3   1 <1>   0.0400 
 18 O        7.0810     4.4320     0.1300 O.3   1 <1>  -0.3630 
 19 C        7.2210     5.6600    -0.5490 C.3   1 <1>   0.0400 
 20 H        1.4400     2.9550    -0.0730 H     1 <1>   0.3700 
 21 H       -0.9460     2.5580     2.0200 H     1 <1>   0.1000 
 22 H        2.5390     0.3180     0.3040 H     1 <1>   0.0800 
 23 H       -2.3220     1.8930    -0.6450 H     1 <1>   0.1000 
 24 H       -0.7610     3.8210    -0.8290 H     1 <1>   0.1000 
 25 H       -1.4740     4.5910     0.6210 H     1 <1>   0.1000 
 26 H        2.1050     1.3830    -2.5030 H     1 <1>   0.0800 
 27 H        1.4300    -0.0780    -1.8120 H     1 <1>   0.0800 
 28 H        3.1470     0.0440    -2.0870 H     1 <1>   0.0800 
 29 H       -3.4090     3.3360     1.8310 H     1 <1>   0.0800 
 30 H       -3.8890     1.7400     1.3060 H     1 <1>   0.0800 
 31 H       -4.2780     3.1360     0.3270 H     1 <1>   0.0800 
 32 H        4.5630     0.8750     1.3050 H     1 <1>   0.1500 
 33 H        3.1300     3.3950    -1.8240 H     1 <1>   0.1500 
 34 H        5.0870     4.7810    -1.6140 H     1 <1>   0.1500 
 35 H        8.5790     1.5650     2.2510 H     1 <1>   0.0800 
 36 H        8.3170     3.2700     1.9160 H     1 <1>   0.0800 
 37 H        8.3600     2.1010     0.5870 H     1 <1>   0.0800 
 38 H        8.1300     6.1250    -0.2120 H     1 <1>   0.0800 
 39 H        6.3810     6.2890    -0.3120 H     1 <1>   0.0800 
 40 H        7.2790     5.4710    -1.6060 H     1 <1>   0.0800 
@<TRIPOS>BOND
  1   1   2  2   
  2   2   3  am  
  3   2   4  1   
  4   3   5  1   
  5   3  20  1   
  6   4   6  1   
  7   4   7  1   
  8   4  21  1   
  9   5   8  1   
 10   5   9  1   
 11   5  22  1   
 12   6   7  1   
 13   6  10  1   
 14   6  23  1   
 15   7  24  1   
 16   7  25  1   
 17   8  11  ar  
 18   8  12  ar  
 19   9  26  1   
 20   9  27  1   
 21   9  28  1   
 22  10  29  1   
 23  10  30  1   
 24  10  31  1   
 25  11  13  ar  
 26  11  32  1   
 27  12  14  ar  
 28  12  33  1   
 29  13  15  1   
 30  13  16  ar  
 31  14  16  ar  
 32  14  34  1   
 33  15  17  1   
 34  16  18  1   
 35  17  35  1   
 36  17  36  1   
 37  17  37  1   
 38  18  19  1   
 39  19  38  1   
 40  19  39  1   
 41  19  40  1   
@<TRIPOS>SUBSTRUCTURE
  1 ****   8 GROUP 4 **** **** 0

# MOE 2024.06 (io_trps.svl 2023.06)
