@<TRIPOS>MOLECULE
NONAME
46 47 1 0 0 
SMALL
USER_CHARGES


@<TRIPOS>ATOM
  1 O        0.2070     0.6540    -0.1310 O.2   1 <1>  -0.5700 
  2 C        0.0310     1.7790     0.2990 C.2   1 <1>   0.5440 
  3 N        1.1130     2.4830     0.7970 N.am  1 <1>  -0.6600 
  4 C       -1.3060     2.3390     0.2660 C.ar  1 <1>   0.0860 
  5 C        2.4180     1.8150     1.0640 C.3   1 <1>   0.1400 
  6 C        1.1230     3.9610     0.9760 C.3   1 <1>   0.1400 
  7 C       -1.9090     2.8670     1.4090 C.ar  1 <1>  -0.1500 
  8 C       -2.0450     2.3570    -0.9160 C.ar  1 <1>  -0.1500 
  9 C        3.5030     2.4220     0.1720 C.3   1 <1>  -0.1600 
 10 C        2.2070     4.5820     0.0900 C.3   1 <1>  -0.1600 
 11 C       -3.1810     3.4050     1.3660 C.ar  1 <1>  -0.1500 
 12 C       -3.3190     2.8920    -0.9690 C.ar  1 <1>  -0.1500 
 13 C        3.5900     3.9520     0.3450 C.3   1 <1>  -0.0190 
 14 C       -3.8960     3.4260     0.1800 C.ar  1 <1>   0.0830 
 15 C        4.6600     4.5930    -0.5370 C.2   1 <1>   0.6590 
 16 O       -5.1320     3.9720     0.2210 O.3   1 <1>  -0.3630 
 17 O        5.1990     4.0090    -1.4440 O.2   1 <1>  -0.5700 
 18 O        4.9660     5.8490    -0.2350 O.3   1 <1>  -0.4300 
 19 C       -5.9700     3.9970    -0.9110 C.3   1 <1>   0.2580 
 20 C        5.9330     6.5650    -0.9670 C.3   1 <1>   0.1200 
 21 C       -7.2770     4.6540    -0.5150 C.2   1 <1>  -0.2880 
 22 C        6.0320     7.9670    -0.3740 C.3   1 <1>  -0.2400 
 23 C       -8.4900     4.1020    -0.6280 C.2   1 <1>  -0.3000 
 24 H        2.3520     0.7560     0.8810 H     1 <1>   0.0800 
 25 H        2.6750     1.9530     2.1000 H     1 <1>   0.0800 
 26 H        1.3180     4.1870     2.0100 H     1 <1>   0.0800 
 27 H        0.1720     4.3880     0.7120 H     1 <1>   0.0800 
 28 H       -1.3690     2.8470     2.3390 H     1 <1>   0.1500 
 29 H       -1.6010     1.9360    -1.8030 H     1 <1>   0.1500 
 30 H        3.2790     2.1790    -0.8530 H     1 <1>   0.0800 
 31 H        4.4510     1.9740     0.4120 H     1 <1>   0.0800 
 32 H        2.2500     5.6400     0.2800 H     1 <1>   0.0800 
 33 H        1.9330     4.4460    -0.9420 H     1 <1>   0.0800 
 34 H       -3.6350     3.8100     2.2540 H     1 <1>   0.1500 
 35 H       -3.8430     2.8810    -1.9060 H     1 <1>   0.1500 
 36 H        3.8690     4.1530     1.3640 H     1 <1>   0.0800 
 37 H       -6.1320     2.9850    -1.2370 H     1 <1>   0.0800 
 38 H       -5.4820     4.5650    -1.6830 H     1 <1>   0.0800 
 39 H        5.6240     6.6010    -1.9980 H     1 <1>   0.0800 
 40 H        6.8730     6.0440    -0.8900 H     1 <1>   0.0800 
 41 H       -7.1240     5.6430    -0.1160 H     1 <1>   0.1500 
 42 H        5.0840     8.4690    -0.4490 H     1 <1>   0.0800 
 43 H        6.7650     8.5370    -0.9150 H     1 <1>   0.0800 
 44 H        6.3320     7.9140     0.6570 H     1 <1>   0.0800 
 45 H       -9.4010     4.5950    -0.3340 H     1 <1>   0.1500 
 46 H       -8.6770     3.1160    -1.0170 H     1 <1>   0.1500 
@<TRIPOS>BOND
  1   1   2  2   
  2   2   3  am  
  3   2   4  1   
  4   3   5  1   
  5   3   6  1   
  6   4   7  ar  
  7   4   8  ar  
  8   5   9  1   
  9   5  24  1   
 10   5  25  1   
 11   6  10  1   
 12   6  26  1   
 13   6  27  1   
 14   7  11  ar  
 15   7  28  1   
 16   8  12  ar  
 17   8  29  1   
 18   9  13  1   
 19   9  30  1   
 20   9  31  1   
 21  10  13  1   
 22  10  32  1   
 23  10  33  1   
 24  11  14  ar  
 25  11  34  1   
 26  12  14  ar  
 27  12  35  1   
 28  13  15  1   
 29  13  36  1   
 30  14  16  1   
 31  15  17  2   
 32  15  18  1   
 33  16  19  1   
 34  18  20  1   
 35  19  21  1   
 36  19  37  1   
 37  19  38  1   
 38  20  22  1   
 39  20  39  1   
 40  20  40  1   
 41  21  23  2   
 42  21  41  1   
 43  22  42  1   
 44  22  43  1   
 45  22  44  1   
 46  23  45  1   
 47  23  46  1   
@<TRIPOS>SUBSTRUCTURE
  1 ****   6 GROUP 4 **** **** 0

# MOE 2024.06 (io_trps.svl 2023.06)
