@<TRIPOS>MOLECULE
NONAME
34 34 1 0 0 
SMALL
USER_CHARGES


@<TRIPOS>ATOM
  1 O       -0.4800    -2.9850     1.0510 O.2   1 <1>  -0.5700 
  2 C       -0.1980    -3.7190     0.1320 C.2   1 <1>   0.5690 
  3 N        1.0850    -3.9630    -0.2880 N.am  1 <1>  -0.5470 
  4 C       -1.3800    -4.3950    -0.5820 C.3   1 <1>   0.4040 
  5 C        2.3000    -3.4320     0.1750 C.ar  1 <1>   0.1170 
  6 N       -2.6990    -3.7450    -0.2200 N.4   1 <1>  -0.9590 
  7 C        3.4660    -4.1600    -0.0390 C.ar  1 <1>  -0.1500 
  8 C        2.3990    -2.2020     0.8200 C.ar  1 <1>  -0.1500 
  9 C       -3.6840    -4.7400     0.2760 C.3   1 <1>   0.3430 
 10 C       -3.2400    -2.8600    -1.2890 C.3   1 <1>   0.3430 
 11 C        4.6930    -3.6790     0.3810 C.ar  1 <1>  -0.1500 
 12 C        3.6240    -1.7190     1.2430 C.ar  1 <1>  -0.1500 
 13 C       -4.7440    -4.0370     1.1140 C.3   1 <1>  -0.2400 
 14 C       -2.3170    -1.6650    -1.5010 C.3   1 <1>  -0.2400 
 15 C        4.7740    -2.4570     1.0240 C.ar  1 <1>  -0.1500 
 16 H        1.2200    -4.6660    -1.0140 H     1 <1>   0.3700 
 17 H       -1.3920    -5.4300    -0.2880 H     1 <1>   0.0800 
 18 H       -1.2260    -4.3460    -1.6460 H     1 <1>   0.0800 
 19 H       -2.4460    -3.1350     0.5840 H     1 <1>   0.4500 
 20 H        3.4250    -5.1120    -0.5340 H     1 <1>   0.1500 
 21 H        1.5240    -1.6060     0.9970 H     1 <1>   0.1500 
 22 H       -3.1840    -5.4670     0.8970 H     1 <1>   0.0800 
 23 H       -4.1440    -5.2590    -0.5510 H     1 <1>   0.0800 
 24 H       -4.2110    -2.4930    -0.9990 H     1 <1>   0.0800 
 25 H       -3.3520    -3.4110    -2.2100 H     1 <1>   0.0800 
 26 H        5.5870    -4.2540     0.2110 H     1 <1>   0.1500 
 27 H        3.6850    -0.7670     1.7430 H     1 <1>   0.1500 
 28 H       -4.2920    -3.4960     1.9270 H     1 <1>   0.0800 
 29 H       -5.4050    -4.7740     1.5350 H     1 <1>   0.0800 
 30 H       -5.3410    -3.3670     0.5210 H     1 <1>   0.0800 
 31 H       -2.1600    -1.1360    -0.5770 H     1 <1>   0.0800 
 32 H       -2.7770    -0.9850    -2.1960 H     1 <1>   0.0800 
 33 H       -1.3700    -1.9590    -1.9150 H     1 <1>   0.0800 
 34 H        5.7270    -2.0810     1.3530 H     1 <1>   0.1500 
@<TRIPOS>BOND
  1   1   2  2   
  2   2   3  am  
  3   2   4  1   
  4   3   5  1   
  5   3  16  1   
  6   4   6  1   
  7   4  17  1   
  8   4  18  1   
  9   5   7  ar  
 10   5   8  ar  
 11   6   9  1   
 12   6  10  1   
 13   6  19  1   
 14   7  11  ar  
 15   7  20  1   
 16   8  12  ar  
 17   8  21  1   
 18   9  13  1   
 19   9  22  1   
 20   9  23  1   
 21  10  14  1   
 22  10  24  1   
 23  10  25  1   
 24  11  15  ar  
 25  11  26  1   
 26  12  15  ar  
 27  12  27  1   
 28  13  28  1   
 29  13  29  1   
 30  13  30  1   
 31  14  31  1   
 32  14  32  1   
 33  14  33  1   
 34  15  34  1   
@<TRIPOS>SUBSTRUCTURE
  1 ****   2 GROUP 4 **** **** 0

# MOE 2024.06 (io_trps.svl 2023.06)
