@<TRIPOS>MOLECULE
NONAME
44 46 1 0 0 
SMALL
USER_CHARGES


@<TRIPOS>ATOM
  1 O       -0.4400     0.4260     0.6360 O.3   1 <1>  -0.3630 
  2 C       -1.6390     1.0580     0.6330 C.ar  1 <1>   0.0830 
  3 C        0.5970     0.8040    -0.2420 C.3   1 <1>   0.0400 
  4 C       -2.5570     0.6530     1.5860 C.ar  1 <1>  -0.1500 
  5 C       -1.9810     2.0710    -0.2570 C.ar  1 <1>  -0.1500 
  6 C       -3.8070     1.2400     1.6540 C.ar  1 <1>  -0.1500 
  7 C       -3.2320     2.6590    -0.1910 C.ar  1 <1>  -0.1500 
  8 C       -4.1550     2.2410     0.7580 C.ar  1 <1>  -0.1430 
  9 C       -5.5340     2.8700     0.8130 C.3   1 <1>   0.4860 
 10 N       -6.3570     2.3180    -0.3080 N.4   1 <1>  -0.9590 
 11 C       -7.6690     3.0230    -0.5170 C.3   1 <1>   0.5660 
 12 C       -6.4610     0.8230    -0.1890 C.3   1 <1>   0.3430 
 13 C       -7.5530     4.5090    -0.2020 C.ar  1 <1>  -0.1430 
 14 C       -8.7970     2.2900     0.2220 C.3   1 <1>  -0.1600 
 15 C       -7.6940     0.2880    -0.9210 C.3   1 <1>  -0.1600 
 16 C       -7.8890     5.0350     1.0410 C.ar  1 <1>   0.1600 
 17 C       -7.0790     5.3710    -1.1740 C.ar  1 <1>  -0.1500 
 18 C       -8.9950     0.8690    -0.3370 C.3   1 <1>  -0.1600 
 19 N       -7.7640     6.3030     1.3810 N.ar  1 <1>  -0.6200 
 20 C       -6.9600     6.7010    -0.8360 C.ar  1 <1>  -0.1500 
 21 C       -7.3090     7.1120     0.4380 C.ar  1 <1>   0.1600 
 22 H        1.4500     0.1820    -0.0370 H     1 <1>   0.0800 
 23 H        0.8480     1.8350    -0.0640 H     1 <1>   0.0800 
 24 H        0.2720     0.6530    -1.2550 H     1 <1>   0.0800 
 25 H       -2.2780    -0.1250     2.2760 H     1 <1>   0.1500 
 26 H       -1.2830     2.4110    -1.0000 H     1 <1>   0.1500 
 27 H       -4.4940     0.9060     2.4130 H     1 <1>   0.1500 
 28 H       -3.4680     3.4480    -0.8850 H     1 <1>   0.1500 
 29 H       -5.4270     3.9390     0.7190 H     1 <1>   0.0800 
 30 H       -6.0010     2.6570     1.7610 H     1 <1>   0.0800 
 31 H       -5.8020     2.5030    -1.1490 H     1 <1>   0.4500 
 32 H       -7.9130     2.9520    -1.5650 H     1 <1>   0.0800 
 33 H       -6.5420     0.5500     0.8510 H     1 <1>   0.0800 
 34 H       -5.5670     0.3610    -0.5800 H     1 <1>   0.0800 
 35 H       -9.7160     2.8400     0.1180 H     1 <1>   0.0800 
 36 H       -8.5670     2.2330     1.2710 H     1 <1>   0.0800 
 37 H       -7.7170    -0.7850    -0.8410 H     1 <1>   0.0800 
 38 H       -7.6140     0.5250    -1.9680 H     1 <1>   0.0800 
 39 H       -8.2750     4.3940     1.8140 H     1 <1>   0.1500 
 40 H       -6.8100     5.0390    -2.1640 H     1 <1>   0.1500 
 41 H       -9.7480     0.8780    -1.1090 H     1 <1>   0.0800 
 42 H       -9.3590     0.2320     0.4530 H     1 <1>   0.0800 
 43 H       -6.6010     7.4230    -1.5500 H     1 <1>   0.1500 
 44 H       -7.2110     8.1540     0.6940 H     1 <1>   0.1500 
@<TRIPOS>BOND
  1   1   2  1   
  2   1   3  1   
  3   2   4  ar  
  4   2   5  ar  
  5   3  22  1   
  6   3  23  1   
  7   3  24  1   
  8   4   6  ar  
  9   4  25  1   
 10   5   7  ar  
 11   5  26  1   
 12   6   8  ar  
 13   6  27  1   
 14   7   8  ar  
 15   7  28  1   
 16   8   9  1   
 17   9  10  1   
 18   9  29  1   
 19   9  30  1   
 20  10  11  1   
 21  10  12  1   
 22  10  31  1   
 23  11  13  1   
 24  11  14  1   
 25  11  32  1   
 26  12  15  1   
 27  12  33  1   
 28  12  34  1   
 29  13  16  ar  
 30  13  17  ar  
 31  14  18  1   
 32  14  35  1   
 33  14  36  1   
 34  15  18  1   
 35  15  37  1   
 36  15  38  1   
 37  16  19  ar  
 38  16  39  1   
 39  17  20  ar  
 40  17  40  1   
 41  18  41  1   
 42  18  42  1   
 43  19  21  ar  
 44  20  21  ar  
 45  20  43  1   
 46  21  44  1   
@<TRIPOS>SUBSTRUCTURE
  1 ****   9 GROUP 4 **** **** 0

# MOE 2024.06 (io_trps.svl 2023.06)
