@<TRIPOS>MOLECULE
NONAME
34 35 1 0 0 
SMALL
USER_CHARGES


@<TRIPOS>ATOM
  1 S       -0.4570    -0.8220    -0.1390 S.o2  1 <1>   1.3330 
  2 O       -1.2970    -1.8240     0.4670 O.2   1 <1>  -0.6500 
  3 O        0.6370    -1.1760    -1.0060 O.2   1 <1>  -0.6500 
  4 N       -1.4420     0.1910    -1.1110 N.am  1 <1>  -0.7570 
  5 C        0.1380     0.3090     1.0990 C.3   1 <1>  -0.1350 
  6 C       -2.7240     0.6680    -0.8960 C.ar  1 <1>   0.1990 
  7 C       -3.3340     1.4230    -1.8910 C.ar  1 <1>  -0.1500 
  8 C       -3.4410     0.4390     0.2760 C.ar  1 <1>  -0.1500 
  9 C       -4.6110     1.9240    -1.7270 C.ar  1 <1>  -0.1500 
 10 C       -4.7170     0.9420     0.4380 C.ar  1 <1>  -0.1500 
 11 C       -5.3420     1.6880    -0.5630 C.ar  1 <1>   0.0860 
 12 C       -6.6860     2.2060    -0.4100 C.2   1 <1>   0.5440 
 13 O       -6.9180     3.3680    -0.6900 O.2   1 <1>  -0.5700 
 14 N       -7.7230     1.4150     0.0330 N.am  1 <1>  -0.6600 
 15 C       -7.7240    -0.0660     0.0180 C.3   1 <1>   0.1400 
 16 C       -9.0960     1.9410     0.1960 C.3   1 <1>   0.1400 
 17 C       -9.1920    -0.4490    -0.1300 C.3   1 <1>  -0.1600 
 18 C       -9.9560     0.7170     0.4910 C.3   1 <1>  -0.1600 
 19 H       -1.0370     0.2680    -2.0390 H     1 <1>   0.4200 
 20 H        0.8090    -0.1960     1.7650 H     1 <1>   0.0800 
 21 H       -0.6810     0.7030     1.6690 H     1 <1>   0.0800 
 22 H        0.6610     1.1230     0.6370 H     1 <1>   0.0800 
 23 H       -2.8020     1.6230    -2.8040 H     1 <1>   0.1500 
 24 H       -3.0100    -0.1380     1.0710 H     1 <1>   0.1500 
 25 H       -5.0650     2.5120    -2.5070 H     1 <1>   0.1500 
 26 H       -5.2480     0.7610     1.3560 H     1 <1>   0.1500 
 27 H       -7.3400    -0.4280     0.9550 H     1 <1>   0.0800 
 28 H       -7.1330    -0.4520    -0.7950 H     1 <1>   0.0800 
 29 H       -9.4040     2.4100    -0.7240 H     1 <1>   0.0800 
 30 H       -9.1340     2.6610     0.9950 H     1 <1>   0.0800 
 31 H       -9.4110    -1.3870     0.3490 H     1 <1>   0.0800 
 32 H       -9.4290    -0.5250    -1.1770 H     1 <1>   0.0800 
 33 H      -10.9480     0.8200     0.0880 H     1 <1>   0.0800 
 34 H      -10.0210     0.5870     1.5570 H     1 <1>   0.0800 
@<TRIPOS>BOND
  1   1   2  2   
  2   1   3  2   
  3   1   4  am  
  4   1   5  1   
  5   4   6  1   
  6   4  19  1   
  7   5  20  1   
  8   5  21  1   
  9   5  22  1   
 10   6   7  ar  
 11   6   8  ar  
 12   7   9  ar  
 13   7  23  1   
 14   8  10  ar  
 15   8  24  1   
 16   9  11  ar  
 17   9  25  1   
 18  10  11  ar  
 19  10  26  1   
 20  11  12  1   
 21  12  13  2   
 22  12  14  am  
 23  14  15  1   
 24  14  16  1   
 25  15  17  1   
 26  15  27  1   
 27  15  28  1   
 28  16  18  1   
 29  16  29  1   
 30  16  30  1   
 31  17  18  1   
 32  17  31  1   
 33  17  32  1   
 34  18  33  1   
 35  18  34  1   
@<TRIPOS>SUBSTRUCTURE
  1 ****  10 GROUP 4 **** **** 0

# MOE 2024.06 (io_trps.svl 2023.06)
