@<TRIPOS>MOLECULE
NONAME
47 48 1 0 0 
SMALL
USER_CHARGES


@<TRIPOS>ATOM
  1 BR       0.6330     0.5290     0.3420 Br    1 <1>  -0.1110 
  2 C        0.1390    -1.3150     0.0780 C.ar  1 <1>   0.1110 
  3 C        0.9820    -2.3330     0.4840 C.ar  1 <1>   0.1900 
  4 C       -1.0740    -1.5960    -0.5240 C.ar  1 <1>  -0.1500 
  5 F        2.1250    -2.0550     1.0540 F     1 <1>  -0.1900 
  6 C        0.6300    -3.6560     0.2970 C.ar  1 <1>  -0.1500 
  7 C       -1.4440    -2.9240    -0.7120 C.ar  1 <1>  -0.1440 
  8 C       -0.5870    -3.9460    -0.3050 C.ar  1 <1>  -0.1500 
  9 C       -2.7770    -3.2550    -1.3620 C.3   1 <1>   0.4870 
 10 N       -3.7380    -3.6960    -0.3140 N.4   1 <1>  -0.9590 
 11 C       -4.9880    -4.2330    -0.9470 C.3   1 <1>   0.3430 
 12 C       -4.0370    -2.6000     0.6570 C.3   1 <1>   0.3430 
 13 C       -5.9810    -4.7580     0.0980 C.3   1 <1>  -0.0190 
 14 C       -4.9770    -3.1160     1.7480 C.3   1 <1>  -0.1600 
 15 C       -7.2540    -5.1800    -0.6300 C.2   1 <1>   0.5690 
 16 C       -6.2780    -3.6780     1.1570 C.3   1 <1>  -0.1600 
 17 O       -7.5090    -4.5820    -1.6500 O.2   1 <1>  -0.5700 
 18 N       -8.0610    -6.1850    -0.1570 N.am  1 <1>  -0.6600 
 19 C       -7.8370    -6.9570     1.0960 C.3   1 <1>   0.1400 
 20 C       -9.3030    -6.5530    -0.8940 C.3   1 <1>   0.1400 
 21 C       -7.0720    -8.2400     0.7760 C.3   1 <1>  -0.2400 
 22 C      -10.4790    -5.7470    -0.3480 C.3   1 <1>  -0.2400 
 23 H       -1.7010    -0.7780    -0.8350 H     1 <1>   0.1500 
 24 H        1.3010    -4.4360     0.6140 H     1 <1>   0.1500 
 25 H       -0.8500    -4.9800    -0.4550 H     1 <1>   0.1500 
 26 H       -2.6320    -4.0410    -2.0850 H     1 <1>   0.0800 
 27 H       -3.1620    -2.3890    -1.8780 H     1 <1>   0.0800 
 28 H       -3.2830    -4.4510     0.2120 H     1 <1>   0.4500 
 29 H       -4.7480    -5.0300    -1.6330 H     1 <1>   0.0800 
 30 H       -5.4680    -3.4490    -1.5120 H     1 <1>   0.0800 
 31 H       -4.5030    -1.7740     0.1440 H     1 <1>   0.0800 
 32 H       -3.1240    -2.2460     1.1110 H     1 <1>   0.0800 
 33 H       -5.5410    -5.6190     0.5640 H     1 <1>   0.0800 
 34 H       -5.2140    -2.3040     2.4140 H     1 <1>   0.0800 
 35 H       -4.4750    -3.8700     2.3290 H     1 <1>   0.0800 
 36 H       -6.8890    -4.0870     1.9430 H     1 <1>   0.0800 
 37 H       -6.8370    -2.8780     0.6990 H     1 <1>   0.0800 
 38 H       -8.7860    -7.2050     1.5430 H     1 <1>   0.0800 
 39 H       -7.2900    -6.3700     1.8120 H     1 <1>   0.0800 
 40 H       -9.4960    -7.6070    -0.7890 H     1 <1>   0.0800 
 41 H       -9.1830    -6.3460    -1.9450 H     1 <1>   0.0800 
 42 H       -7.6410    -8.8600     0.1080 H     1 <1>   0.0800 
 43 H       -6.9010    -8.7930     1.6820 H     1 <1>   0.0800 
 44 H       -6.1210    -8.0170     0.3280 H     1 <1>   0.0800 
 45 H      -10.6410    -5.9610     0.6920 H     1 <1>   0.0800 
 46 H      -11.3720    -6.0020    -0.8910 H     1 <1>   0.0800 
 47 H      -10.2960    -4.6950    -0.4750 H     1 <1>   0.0800 
@<TRIPOS>BOND
  1   1   2  1   
  2   2   3  ar  
  3   2   4  ar  
  4   3   5  1   
  5   3   6  ar  
  6   4   7  ar  
  7   4  23  1   
  8   6   8  ar  
  9   6  24  1   
 10   7   8  ar  
 11   7   9  1   
 12   8  25  1   
 13   9  10  1   
 14   9  26  1   
 15   9  27  1   
 16  10  11  1   
 17  10  12  1   
 18  10  28  1   
 19  11  13  1   
 20  11  29  1   
 21  11  30  1   
 22  12  14  1   
 23  12  31  1   
 24  12  32  1   
 25  13  15  1   
 26  13  16  1   
 27  13  33  1   
 28  14  16  1   
 29  14  34  1   
 30  14  35  1   
 31  15  17  2   
 32  15  18  am  
 33  16  36  1   
 34  16  37  1   
 35  18  19  1   
 36  18  20  1   
 37  19  21  1   
 38  19  38  1   
 39  19  39  1   
 40  20  22  1   
 41  20  40  1   
 42  20  41  1   
 43  21  42  1   
 44  21  43  1   
 45  21  44  1   
 46  22  45  1   
 47  22  46  1   
 48  22  47  1   
@<TRIPOS>SUBSTRUCTURE
  1 ****  10 GROUP 4 **** **** 0

# MOE 2024.06 (io_trps.svl 2023.06)
