@<TRIPOS>MOLECULE
NONAME
46 48 1 0 0 
SMALL
USER_CHARGES


@<TRIPOS>ATOM
  1 BR      -1.8280     0.2400     1.5450 Br    1 <1>  -0.1110 
  2 C       -2.7220     0.3710    -0.1580 C.ar  1 <1>   0.1110 
  3 C       -3.3670    -0.7400    -0.6800 C.ar  1 <1>  -0.1440 
  4 C       -2.6960     1.5890    -0.8100 C.ar  1 <1>  -0.1500 
  5 C       -4.0010    -0.6110    -1.9070 C.ar  1 <1>  -0.1500 
  6 C       -3.3850    -2.0630     0.0580 C.3   1 <1>   0.4870 
  7 C       -3.3390     1.7020    -2.0300 C.ar  1 <1>  -0.1500 
  8 C       -3.9880     0.6040    -2.5750 C.ar  1 <1>  -0.1500 
  9 N       -4.2800    -1.9600     1.2520 N.4   1 <1>  -0.9590 
 10 C       -4.2610    -3.2320     2.0670 C.3   1 <1>   0.3430 
 11 C       -5.6770    -1.5100     0.8660 C.3   1 <1>   0.3430 
 12 C       -5.2380    -4.3390     1.5760 C.3   1 <1>   0.1960 
 13 C       -6.7930    -2.4370     1.4010 C.3   1 <1>   0.1960 
 14 N       -6.5360    -3.8470     1.0510 N.am  1 <1>  -0.8490 
 15 S       -6.7730    -4.1660    -0.6050 S.o2  1 <1>   1.4470 
 16 O       -5.5110    -3.8250    -1.2300 O.2   1 <1>  -0.6500 
 17 O       -7.9480    -3.4210    -0.9910 O.2   1 <1>  -0.6500 
 18 C       -7.0760    -5.9510    -0.6560 C.ar  1 <1>  -0.0090 
 19 C       -6.3210    -6.7870    -1.4710 C.ar  1 <1>  -0.1500 
 20 C       -8.0700    -6.5300     0.1240 C.ar  1 <1>  -0.1500 
 21 C       -6.5420    -8.1530    -1.4970 C.ar  1 <1>  -0.1500 
 22 C       -8.2950    -7.8960     0.1030 C.ar  1 <1>  -0.1500 
 23 C       -7.5280    -8.7150    -0.7070 C.ar  1 <1>  -0.1430 
 24 C       -7.7750   -10.2130    -0.7350 C.3   1 <1>  -0.0970 
 25 H       -2.1850     2.4320    -0.3770 H     1 <1>   0.1500 
 26 H       -4.5100    -1.4500    -2.3580 H     1 <1>   0.1500 
 27 H       -2.3810    -2.3020     0.3710 H     1 <1>   0.0800 
 28 H       -3.7160    -2.8410    -0.6040 H     1 <1>   0.0800 
 29 H       -3.3330     2.6400    -2.5590 H     1 <1>   0.1500 
 30 H       -4.4830     0.6980    -3.5280 H     1 <1>   0.1500 
 31 H       -3.8660    -1.2070     1.8200 H     1 <1>   0.4500 
 32 H       -4.5450    -2.9900     3.0780 H     1 <1>   0.0800 
 33 H       -3.2620    -3.6320     2.1120 H     1 <1>   0.0800 
 34 H       -5.7650    -1.4780    -0.2080 H     1 <1>   0.0800 
 35 H       -5.8480    -0.5090     1.2270 H     1 <1>   0.0800 
 36 H       -5.4390    -4.9940     2.4060 H     1 <1>   0.0800 
 37 H       -4.7350    -4.9410     0.8380 H     1 <1>   0.0800 
 38 H       -7.7450    -2.1180     1.0110 H     1 <1>   0.0800 
 39 H       -6.8530    -2.3410     2.4720 H     1 <1>   0.0800 
 40 H       -5.5520    -6.3690    -2.0990 H     1 <1>   0.1500 
 41 H       -8.6780    -5.9060     0.7570 H     1 <1>   0.1500 
 42 H       -5.9440    -8.7780    -2.1390 H     1 <1>   0.1500 
 43 H       -9.0720    -8.3180     0.7170 H     1 <1>   0.1500 
 44 H       -6.8640   -10.7410    -0.9540 H     1 <1>   0.0800 
 45 H       -8.5010   -10.4470    -1.4920 H     1 <1>   0.0800 
 46 H       -8.1430   -10.5530     0.2160 H     1 <1>   0.0800 
@<TRIPOS>BOND
  1   1   2  1   
  2   2   3  ar  
  3   2   4  ar  
  4   3   5  ar  
  5   3   6  1   
  6   4   7  ar  
  7   4  25  1   
  8   5   8  ar  
  9   5  26  1   
 10   6   9  1   
 11   6  27  1   
 12   6  28  1   
 13   7   8  ar  
 14   7  29  1   
 15   8  30  1   
 16   9  10  1   
 17   9  11  1   
 18   9  31  1   
 19  10  12  1   
 20  10  32  1   
 21  10  33  1   
 22  11  13  1   
 23  11  34  1   
 24  11  35  1   
 25  12  14  1   
 26  12  36  1   
 27  12  37  1   
 28  13  14  1   
 29  13  38  1   
 30  13  39  1   
 31  14  15  am  
 32  15  16  2   
 33  15  17  2   
 34  15  18  1   
 35  18  19  ar  
 36  18  20  ar  
 37  19  21  ar  
 38  19  40  1   
 39  20  22  ar  
 40  20  41  1   
 41  21  23  ar  
 42  21  42  1   
 43  22  23  ar  
 44  22  43  1   
 45  23  24  1   
 46  24  44  1   
 47  24  45  1   
 48  24  46  1   
@<TRIPOS>SUBSTRUCTURE
  1 ****  16 GROUP 4 **** **** 0

# MOE 2024.06 (io_trps.svl 2023.06)
