@<TRIPOS>MOLECULE
NONAME
50 52 1 0 0 
SMALL
USER_CHARGES


@<TRIPOS>ATOM
  1 F       -1.0480     0.1830    -0.4600 F     1 <1>  -0.3400 
  2 C        0.2610     0.2990    -0.2680 C.3   1 <1>   1.1640 
  3 F        0.4810    -0.1140     0.9730 F     1 <1>  -0.3400 
  4 F        0.8390    -0.5790    -1.0720 F     1 <1>  -0.3400 
  5 C        0.7170     1.7580    -0.4680 C.ar  1 <1>  -0.1440 
  6 C        0.2370     2.8030     0.3350 C.ar  1 <1>  -0.1440 
  7 C        1.6350     2.0570    -1.4720 C.ar  1 <1>  -0.1500 
  8 C        0.7030     4.0970     0.1300 C.ar  1 <1>  -0.1500 
  9 C       -0.7900     2.5940     1.4450 C.3   1 <1>   0.4870 
 10 C        2.0780     3.3500    -1.6730 C.ar  1 <1>  -0.1500 
 11 C        1.6150     4.3710    -0.8690 C.ar  1 <1>  -0.1500 
 12 N       -2.0470     3.2880     1.0650 N.4   1 <1>  -0.9590 
 13 C       -3.0240     3.3680     2.2080 C.3   1 <1>   0.3430 
 14 C       -2.7130     2.6660    -0.1370 C.3   1 <1>   0.3430 
 15 C       -4.2880     4.1650     1.8300 C.3   1 <1>   0.2090 
 16 C       -3.9740     3.4390    -0.5670 C.3   1 <1>   0.2090 
 17 N       -4.9170     3.6480     0.5760 N.pl3 1 <1>  -0.8380 
 18 C       -6.0960     4.3190     0.2210 C.ar  1 <1>   0.1000 
 19 C       -6.1380     5.6630    -0.1970 C.ar  1 <1>   0.0830 
 20 C       -7.2830     3.6040     0.2900 C.ar  1 <1>  -0.1500 
 21 O       -4.9590     6.3580    -0.2660 O.3   1 <1>  -0.3630 
 22 C       -7.3600     6.2440    -0.5230 C.ar  1 <1>  -0.1500 
 23 C       -8.4920     4.1880    -0.0390 C.ar  1 <1>  -0.1500 
 24 C       -4.8990     7.6390    -0.8500 C.3   1 <1>   0.1200 
 25 C       -8.5310     5.5090    -0.4450 C.ar  1 <1>  -0.1500 
 26 C       -3.4370     8.0730    -0.8800 C.3   1 <1>  -0.2400 
 27 H        2.0280     1.2850    -2.1150 H     1 <1>   0.1500 
 28 H        0.3700     4.9140     0.7480 H     1 <1>   0.1500 
 29 H       -0.4020     3.0140     2.3600 H     1 <1>   0.0800 
 30 H       -0.9840     1.5490     1.6140 H     1 <1>   0.0800 
 31 H        2.7910     3.5620    -2.4540 H     1 <1>   0.1500 
 32 H        1.9710     5.3760    -1.0230 H     1 <1>   0.1500 
 33 H       -1.8050     4.2480     0.7920 H     1 <1>   0.4500 
 34 H       -2.5610     3.8360     3.0600 H     1 <1>   0.0800 
 35 H       -3.3280     2.3750     2.4960 H     1 <1>   0.0800 
 36 H       -3.0020     1.6530     0.0900 H     1 <1>   0.0800 
 37 H       -2.0260     2.6370    -0.9660 H     1 <1>   0.0800 
 38 H       -4.0340     5.2030     1.7140 H     1 <1>   0.0800 
 39 H       -5.0050     4.0950     2.6310 H     1 <1>   0.0800 
 40 H       -4.4820     2.8870    -1.3400 H     1 <1>   0.0800 
 41 H       -3.6830     4.3870    -0.9850 H     1 <1>   0.0800 
 42 H       -7.2530     2.5780     0.6070 H     1 <1>   0.1500 
 43 H       -7.4320     7.2670    -0.8390 H     1 <1>   0.1500 
 44 H       -9.4020     3.6160     0.0220 H     1 <1>   0.1500 
 45 H       -5.4840     8.3160    -0.2510 H     1 <1>   0.0800 
 46 H       -5.2990     7.5800    -1.8480 H     1 <1>   0.0800 
 47 H       -9.4720     5.9650    -0.7000 H     1 <1>   0.1500 
 48 H       -3.0440     8.1250     0.1190 H     1 <1>   0.0800 
 49 H       -3.3600     9.0480    -1.3280 H     1 <1>   0.0800 
 50 H       -2.8570     7.3830    -1.4660 H     1 <1>   0.0800 
@<TRIPOS>BOND
  1   1   2  1   
  2   2   3  1   
  3   2   4  1   
  4   2   5  1   
  5   5   6  ar  
  6   5   7  ar  
  7   6   8  ar  
  8   6   9  1   
  9   7  10  ar  
 10   7  27  1   
 11   8  11  ar  
 12   8  28  1   
 13   9  12  1   
 14   9  29  1   
 15   9  30  1   
 16  10  11  ar  
 17  10  31  1   
 18  11  32  1   
 19  12  13  1   
 20  12  14  1   
 21  12  33  1   
 22  13  15  1   
 23  13  34  1   
 24  13  35  1   
 25  14  16  1   
 26  14  36  1   
 27  14  37  1   
 28  15  17  1   
 29  15  38  1   
 30  15  39  1   
 31  16  17  1   
 32  16  40  1   
 33  16  41  1   
 34  17  18  1   
 35  18  19  ar  
 36  18  20  ar  
 37  19  21  1   
 38  19  22  ar  
 39  20  23  ar  
 40  20  42  1   
 41  21  24  1   
 42  22  25  ar  
 43  22  43  1   
 44  23  25  ar  
 45  23  44  1   
 46  24  26  1   
 47  24  45  1   
 48  24  46  1   
 49  25  47  1   
 50  26  48  1   
 51  26  49  1   
 52  26  50  1   
@<TRIPOS>SUBSTRUCTURE
  1 ****  14 GROUP 4 **** **** 0

# MOE 2024.06 (io_trps.svl 2023.06)
