@<TRIPOS>MOLECULE
NONAME
34 35 1 0 0 
SMALL
USER_CHARGES


@<TRIPOS>ATOM
  1 F        0.7500     0.8980    -2.6230 F     1 <1>  -0.3400 
  2 C        0.1140     1.8190    -1.9030 C.3   1 <1>   1.0200 
  3 F        0.3260     2.9710    -2.5380 F     1 <1>  -0.3400 
  4 F        0.7950     1.9230    -0.7620 F     1 <1>  -0.3400 
  5 C       -1.4300     1.5400    -1.6780 C.3   1 <1>   0.5800 
  6 O       -2.1600     1.3650    -2.8590 O.3   1 <1>  -0.6800 
  7 N       -1.7180     0.3440    -0.8380 N.am  1 <1>  -0.2980 
  8 C       -2.1120     2.6670    -0.8820 C.3   1 <1>  -0.0990 
  9 N       -2.4000     0.6870     0.3120 N.2   1 <1>  -0.5120 
 10 C       -1.4060    -0.9450    -1.2410 C.2   1 <1>   0.5440 
 11 C       -2.6350     1.9230     0.3190 C.2   1 <1>   0.3280 
 12 O       -1.2600    -1.1640    -2.4330 O.2   1 <1>  -0.5700 
 13 C       -1.3110    -2.0180    -0.2810 C.ar  1 <1>   0.0860 
 14 C       -3.3710     2.7120     1.3940 C.3   1 <1>  -0.0990 
 15 C       -0.3360    -2.0280     0.7230 C.ar  1 <1>   0.0820 
 16 C       -2.1970    -3.0950    -0.3300 C.ar  1 <1>  -0.1500 
 17 C       -3.8420     1.8510     2.5760 C.3   1 <1>  -0.2400 
 18 O        0.5690    -1.0380     0.8000 O.3   1 <1>  -0.5320 
 19 C       -0.2690    -3.0590     1.6490 C.ar  1 <1>  -0.1500 
 20 C       -2.1310    -4.1260     0.5880 C.ar  1 <1>  -0.1500 
 21 C       -1.1670    -4.1070     1.5820 C.ar  1 <1>  -0.1500 
 22 H       -1.9920     0.4360    -3.1470 H     1 <1>   0.4000 
 23 H       -2.9140     3.1220    -1.4350 H     1 <1>   0.0800 
 24 H       -1.4140     3.4200    -0.5680 H     1 <1>   0.0800 
 25 H       -4.2260     3.1860     0.9460 H     1 <1>   0.0800 
 26 H       -2.7180     3.4830     1.7630 H     1 <1>   0.0800 
 27 H       -2.9460    -3.1120    -1.1030 H     1 <1>   0.1500 
 28 H       -4.5150     1.0840     2.2330 H     1 <1>   0.0800 
 29 H       -4.3520     2.4590     3.3010 H     1 <1>   0.0800 
 30 H       -3.0000     1.3790     3.0510 H     1 <1>   0.0800 
 31 H        1.1920    -1.1230     1.5420 H     1 <1>   0.4500 
 32 H        0.4800    -3.0510     2.4190 H     1 <1>   0.1500 
 33 H       -2.8280    -4.9440     0.5310 H     1 <1>   0.1500 
 34 H       -1.1180    -4.9100     2.2980 H     1 <1>   0.1500 
@<TRIPOS>BOND
  1   1   2  1   
  2   2   3  1   
  3   2   4  1   
  4   2   5  1   
  5   5   6  1   
  6   5   7  1   
  7   5   8  1   
  8   6  22  1   
  9   7   9  1   
 10   7  10  am  
 11   8  11  1   
 12   8  23  1   
 13   8  24  1   
 14   9  11  2   
 15  10  12  2   
 16  10  13  1   
 17  11  14  1   
 18  13  15  ar  
 19  13  16  ar  
 20  14  17  1   
 21  14  25  1   
 22  14  26  1   
 23  15  18  1   
 24  15  19  ar  
 25  16  20  ar  
 26  16  27  1   
 27  17  28  1   
 28  17  29  1   
 29  17  30  1   
 30  18  31  1   
 31  19  21  ar  
 32  19  32  1   
 33  20  21  ar  
 34  20  33  1   
 35  21  34  1   
@<TRIPOS>SUBSTRUCTURE
  1 ****   7 GROUP 4 **** **** 0

# MOE 2024.06 (io_trps.svl 2023.06)
