@<TRIPOS>MOLECULE
NONAME
51 52 1 0 0 
SMALL
USER_CHARGES


@<TRIPOS>ATOM
  1 S       -0.0750    -0.9740    -0.9300 S.o2  1 <1>   1.4470 
  2 O       -0.4540    -2.0070     0.0060 O.2   1 <1>  -0.6500 
  3 O        0.1900    -1.2850    -2.3140 O.2   1 <1>  -0.6500 
  4 N        1.3680    -0.2480    -0.3370 N.am  1 <1>  -0.7570 
  5 C       -1.2340     0.4130    -0.8180 C.ar  1 <1>  -0.0090 
  6 C        2.6050    -0.8740    -0.2640 C.ar  1 <1>   0.1990 
  7 C       -2.1630     0.4930     0.2120 C.ar  1 <1>  -0.1500 
  8 C       -1.2010     1.4440    -1.7460 C.ar  1 <1>  -0.1500 
  9 C        3.7730    -0.1650    -0.6090 C.ar  1 <1>   0.0860 
 10 C        2.7130    -2.2010     0.1460 C.ar  1 <1>  -0.1500 
 11 C       -3.0520     1.5610     0.3290 C.ar  1 <1>   0.0830 
 12 C       -2.0730     2.5120    -1.6500 C.ar  1 <1>  -0.1500 
 13 C        3.7230     1.2360    -0.9830 C.2   1 <1>   0.5440 
 14 C        4.9910    -0.8480    -0.5880 C.ar  1 <1>  -0.1500 
 15 C        3.9320    -2.8460     0.1800 C.ar  1 <1>  -0.1500 
 16 O       -3.9480     1.6130     1.3580 O.3   1 <1>  -0.3630 
 17 C       -3.0040     2.5900    -0.6290 C.ar  1 <1>   0.0830 
 18 O        2.8080     1.6830    -1.6490 O.2   1 <1>  -0.5700 
 19 N        4.6580     2.1470    -0.5970 N.am  1 <1>  -0.7300 
 20 C        5.0770    -2.1690    -0.1970 C.ar  1 <1>  -0.1500 
 21 C       -4.0320     0.6120     2.3500 C.3   1 <1>   0.0400 
 22 O       -3.7930     3.7020    -0.6830 O.3   1 <1>  -0.3630 
 23 C        5.4450     2.1460     0.6460 C.3   1 <1>   0.2200 
 24 C       -4.9110     3.9090     0.1490 C.3   1 <1>   0.0400 
 25 C        4.8420     3.1600     1.6320 C.3   1 <1>  -0.1600 
 26 C        6.8960     2.4570     0.2870 C.3   1 <1>  -0.2400 
 27 C        4.7400     4.6080     1.1210 C.3   1 <1>  -0.2400 
 28 H        1.4600     0.6590    -0.8100 H     1 <1>   0.4200 
 29 H       -2.1700    -0.3080     0.9270 H     1 <1>   0.1500 
 30 H       -0.4890     1.4130    -2.5550 H     1 <1>   0.1500 
 31 H        1.8350    -2.7450     0.4430 H     1 <1>   0.1500 
 32 H       -2.0350     3.3020    -2.3800 H     1 <1>   0.1500 
 33 H        5.8860    -0.3310    -0.8870 H     1 <1>   0.1500 
 34 H        3.9910    -3.8750     0.4930 H     1 <1>   0.1500 
 35 H        4.5100     3.0810    -0.9810 H     1 <1>   0.3700 
 36 H        6.0280    -2.6740    -0.1850 H     1 <1>   0.1500 
 37 H       -4.8080     0.8900     3.0400 H     1 <1>   0.0800 
 38 H       -3.0900     0.5510     2.8670 H     1 <1>   0.0800 
 39 H       -4.2790    -0.3250     1.8830 H     1 <1>   0.0800 
 40 H        5.4040     1.1720     1.1030 H     1 <1>   0.0800 
 41 H       -5.4040     4.8080    -0.1710 H     1 <1>   0.0800 
 42 H       -4.5730     4.0190     1.1640 H     1 <1>   0.0800 
 43 H       -5.5770     3.0700     0.0530 H     1 <1>   0.0800 
 44 H        5.4340     3.1530     2.5300 H     1 <1>   0.0800 
 45 H        3.8580     2.8190     1.9060 H     1 <1>   0.0800 
 46 H        7.2940     1.6810    -0.3400 H     1 <1>   0.0800 
 47 H        7.4930     2.5070     1.1800 H     1 <1>   0.0800 
 48 H        6.9760     3.3950    -0.2320 H     1 <1>   0.0800 
 49 H        5.7100     5.0050     0.8820 H     1 <1>   0.0800 
 50 H        4.3070     5.2290     1.8850 H     1 <1>   0.0800 
 51 H        4.1110     4.6680     0.2510 H     1 <1>   0.0800 
@<TRIPOS>BOND
  1   1   2  2   
  2   1   3  2   
  3   1   4  am  
  4   1   5  1   
  5   4   6  1   
  6   4  28  1   
  7   5   7  ar  
  8   5   8  ar  
  9   6   9  ar  
 10   6  10  ar  
 11   7  11  ar  
 12   7  29  1   
 13   8  12  ar  
 14   8  30  1   
 15   9  13  1   
 16   9  14  ar  
 17  10  15  ar  
 18  10  31  1   
 19  11  16  1   
 20  11  17  ar  
 21  12  17  ar  
 22  12  32  1   
 23  13  18  2   
 24  13  19  am  
 25  14  20  ar  
 26  14  33  1   
 27  15  20  ar  
 28  15  34  1   
 29  16  21  1   
 30  17  22  1   
 31  19  23  1   
 32  19  35  1   
 33  20  36  1   
 34  21  37  1   
 35  21  38  1   
 36  21  39  1   
 37  22  24  1   
 38  23  25  1   
 39  23  26  1   
 40  23  40  1   
 41  24  41  1   
 42  24  42  1   
 43  24  43  1   
 44  25  27  1   
 45  25  44  1   
 46  25  45  1   
 47  26  46  1   
 48  26  47  1   
 49  26  48  1   
 50  27  49  1   
 51  27  50  1   
 52  27  51  1   
@<TRIPOS>SUBSTRUCTURE
  1 ****   4 GROUP 4 **** **** 0

# MOE 2024.06 (io_trps.svl 2023.06)
