@<TRIPOS>MOLECULE
NONAME
43 45 1 0 0 
SMALL
USER_CHARGES


@<TRIPOS>ATOM
  1 S       -0.5730    -0.1950    -1.9600 S.o2  1 <1>   1.3180 
  2 O       -0.7860     0.9530    -2.8180 O.2   1 <1>  -0.6500 
  3 O       -0.9640    -1.5110    -2.4230 O.2   1 <1>  -0.6500 
  4 C        1.1660    -0.2430    -1.4680 C.ar  1 <1>  -0.0090 
  5 C       -1.3710     0.1190    -0.3640 C.ar  1 <1>  -0.0090 
  6 C        1.7690    -1.4310    -1.0680 C.ar  1 <1>  -0.1500 
  7 C        1.9390     0.9130    -1.4410 C.ar  1 <1>  -0.1500 
  8 C       -1.7530    -0.9300     0.4660 C.ar  1 <1>  -0.1500 
  9 C       -1.5900     1.4160     0.0870 C.ar  1 <1>  -0.1500 
 10 C        3.0880    -1.4640    -0.6550 C.ar  1 <1>  -0.1500 
 11 C        3.2580     0.8830    -1.0290 C.ar  1 <1>  -0.1500 
 12 C       -2.3330    -0.6950     1.7010 C.ar  1 <1>  -0.1500 
 13 C       -2.1690     1.6600     1.3200 C.ar  1 <1>  -0.1500 
 14 C        3.8530    -0.3050    -0.6290 C.ar  1 <1>   0.1000 
 15 C       -2.5410     0.6030     2.1300 C.ar  1 <1>  -0.1500 
 16 N        5.1790    -0.3090    -0.2120 N.pl3 1 <1>  -0.8380 
 17 C        5.4990     0.3220     1.0930 C.3   1 <1>   0.2090 
 18 C        6.0960    -1.3660    -0.7040 C.3   1 <1>   0.2090 
 19 C        6.5440     1.4180     0.8790 C.3   1 <1>  -0.1600 
 20 C        7.5010    -0.8130    -0.9680 C.3   1 <1>  -0.1600 
 21 C        8.0080     0.9390     0.8710 C.3   1 <1>  -0.1600 
 22 C        8.2730    -0.4710     0.3170 C.3   1 <1>  -0.1600 
 23 H        1.1990    -2.3450    -1.0800 H     1 <1>   0.1500 
 24 H        1.5060     1.8500    -1.7500 H     1 <1>   0.1500 
 25 H       -1.5990    -1.9460     0.1420 H     1 <1>   0.1500 
 26 H       -1.3080     2.2490    -0.5350 H     1 <1>   0.1500 
 27 H        3.5310    -2.3910    -0.3430 H     1 <1>   0.1500 
 28 H        3.8480     1.7810    -1.0190 H     1 <1>   0.1500 
 29 H       -2.6230    -1.5220     2.3270 H     1 <1>   0.1500 
 30 H       -2.3310     2.6720     1.6490 H     1 <1>   0.1500 
 31 H       -2.9920     0.7890     3.0890 H     1 <1>   0.1500 
 32 H        5.8480    -0.4150     1.7950 H     1 <1>   0.0800 
 33 H        4.6030     0.7650     1.4950 H     1 <1>   0.0800 
 34 H        5.7030    -1.7620    -1.6250 H     1 <1>   0.0800 
 35 H        6.1390    -2.1680     0.0130 H     1 <1>   0.0800 
 36 H        6.4380     2.1480     1.6610 H     1 <1>   0.0800 
 37 H        6.3240     1.9190    -0.0480 H     1 <1>   0.0800 
 38 H        7.4410     0.0400    -1.6220 H     1 <1>   0.0800 
 39 H        8.0490    -1.5770    -1.4890 H     1 <1>   0.0800 
 40 H        8.3850     0.9700     1.8790 H     1 <1>   0.0800 
 41 H        8.5840     1.6480     0.3020 H     1 <1>   0.0800 
 42 H        9.3270    -0.5480     0.1140 H     1 <1>   0.0800 
 43 H        8.0480    -1.2030     1.0720 H     1 <1>   0.0800 
@<TRIPOS>BOND
  1   1   2  2   
  2   1   3  2   
  3   1   4  1   
  4   1   5  1   
  5   4   6  ar  
  6   4   7  ar  
  7   5   8  ar  
  8   5   9  ar  
  9   6  10  ar  
 10   6  23  1   
 11   7  11  ar  
 12   7  24  1   
 13   8  12  ar  
 14   8  25  1   
 15   9  13  ar  
 16   9  26  1   
 17  10  14  ar  
 18  10  27  1   
 19  11  14  ar  
 20  11  28  1   
 21  12  15  ar  
 22  12  29  1   
 23  13  15  ar  
 24  13  30  1   
 25  14  16  1   
 26  15  31  1   
 27  16  17  1   
 28  16  18  1   
 29  17  19  1   
 30  17  32  1   
 31  17  33  1   
 32  18  20  1   
 33  18  34  1   
 34  18  35  1   
 35  19  21  1   
 36  19  36  1   
 37  19  37  1   
 38  20  22  1   
 39  20  38  1   
 40  20  39  1   
 41  21  22  1   
 42  21  40  1   
 43  21  41  1   
 44  22  42  1   
 45  22  43  1   
@<TRIPOS>SUBSTRUCTURE
  1 ****   7 GROUP 4 **** **** 0

# MOE 2024.06 (io_trps.svl 2023.06)
