@<TRIPOS>MOLECULE
NONAME
35 36 1 0 0 
SMALL
USER_CHARGES


@<TRIPOS>ATOM
  1 CL       0.1320     0.3450     0.3190 Cl    1 <1>  -0.1770 
  2 C        1.5480    -0.6490     0.0930 C.ar  1 <1>   0.1770 
  3 C        2.7980    -0.0890     0.2650 C.ar  1 <1>  -0.1500 
  4 C        1.3920    -1.9770    -0.2550 C.ar  1 <1>  -0.1500 
  5 C        3.9390    -0.8630     0.0880 C.ar  1 <1>   0.1170 
  6 C        2.5210    -2.7580    -0.4300 C.ar  1 <1>  -0.1500 
  7 N        5.1940    -0.2630     0.2810 N.am  1 <1>  -0.5470 
  8 C        3.7790    -2.2040    -0.2580 C.ar  1 <1>  -0.1500 
  9 C        6.4250    -0.6160    -0.1960 C.2   1 <1>   0.5690 
 10 O        6.6230    -1.5480    -0.9330 O.2   1 <1>  -0.5700 
 11 C        7.6160     0.2250     0.2120 C.3   1 <1>  -0.0990 
 12 C        8.9070    -0.5160    -0.1460 C.3   1 <1>   0.3430 
 13 N       10.1230     0.2630     0.2360 N.4   1 <1>  -0.9590 
 14 C       10.3470     1.4850    -0.5780 C.3   1 <1>   0.3430 
 15 C       11.3590    -0.5440     0.0840 C.3   1 <1>   0.3430 
 16 C       11.8250     1.7980    -0.3960 C.3   1 <1>  -0.1600 
 17 C       12.4800     0.4850     0.0420 C.3   1 <1>  -0.1600 
 18 H        2.8700     0.9480     0.5320 H     1 <1>   0.1500 
 19 H        0.4070    -2.3880    -0.3840 H     1 <1>   0.1500 
 20 H        2.4230    -3.7960    -0.7010 H     1 <1>   0.1500 
 21 H        5.1550     0.5960     0.8280 H     1 <1>   0.3700 
 22 H        4.6390    -2.8340    -0.3940 H     1 <1>   0.1500 
 23 H        7.5750     0.3960     1.2720 H     1 <1>   0.0800 
 24 H        7.5590     1.1590    -0.3130 H     1 <1>   0.0800 
 25 H        8.9180    -0.7180    -1.2060 H     1 <1>   0.0800 
 26 H        8.9090    -1.4670     0.3630 H     1 <1>   0.0800 
 27 H       10.0670     0.5420     1.2240 H     1 <1>   0.4500 
 28 H        9.7230     2.3040    -0.2560 H     1 <1>   0.0800 
 29 H       10.1510     1.2710    -1.6180 H     1 <1>   0.0800 
 30 H       11.3320    -1.0830    -0.8510 H     1 <1>   0.0800 
 31 H       11.4870    -1.2420     0.8960 H     1 <1>   0.0800 
 32 H       11.9500     2.5520     0.3630 H     1 <1>   0.0800 
 33 H       12.2460     2.1680    -1.3150 H     1 <1>   0.0800 
 34 H       13.2500     0.1740    -0.6430 H     1 <1>   0.0800 
 35 H       12.9170     0.5900     1.0200 H     1 <1>   0.0800 
@<TRIPOS>BOND
  1   1   2  1   
  2   2   3  ar  
  3   2   4  ar  
  4   3   5  ar  
  5   3  18  1   
  6   4   6  ar  
  7   4  19  1   
  8   5   7  1   
  9   5   8  ar  
 10   6   8  ar  
 11   6  20  1   
 12   7   9  am  
 13   7  21  1   
 14   8  22  1   
 15   9  10  2   
 16   9  11  1   
 17  11  12  1   
 18  11  23  1   
 19  11  24  1   
 20  12  13  1   
 21  12  25  1   
 22  12  26  1   
 23  13  14  1   
 24  13  15  1   
 25  13  27  1   
 26  14  16  1   
 27  14  28  1   
 28  14  29  1   
 29  15  17  1   
 30  15  30  1   
 31  15  31  1   
 32  16  17  1   
 33  16  32  1   
 34  16  33  1   
 35  17  34  1   
 36  17  35  1   
@<TRIPOS>SUBSTRUCTURE
  1 ****   9 GROUP 4 **** **** 0

# MOE 2024.06 (io_trps.svl 2023.06)
