@<TRIPOS>MOLECULE
NONAME
51 53 1 0 0 
SMALL
USER_CHARGES


@<TRIPOS>ATOM
  1 O        0.5520    -0.1470     0.5540 O.3   1 <1>  -0.3630 
  2 C        1.6370     0.6790     0.6200 C.ar  1 <1>   0.0830 
  3 C       -0.6390     0.0650     1.2770 C.3   1 <1>   0.0400 
  4 C        1.7980     1.8120     1.4370 C.ar  1 <1>   0.0830 
  5 C        2.6620     0.3120    -0.2350 C.ar  1 <1>  -0.1500 
  6 O        0.8050     2.1930     2.2930 O.3   1 <1>  -0.3630 
  7 C        2.9900     2.5300     1.3580 C.ar  1 <1>  -0.1500 
  8 C        3.8430     1.0300    -0.3090 C.ar  1 <1>  -0.1430 
  9 C        0.9040     3.3250     3.1300 C.3   1 <1>   0.0400 
 10 C        4.0060     2.1490     0.4970 C.ar  1 <1>  -0.1430 
 11 C        4.9170     0.5700    -1.2800 C.3   1 <1>   0.4860 
 12 C        5.2960     2.9600     0.4640 C.3   1 <1>  -0.0160 
 13 N        6.2420     1.0920    -0.8570 N.4   1 <1>  -0.9590 
 14 C        6.2010     2.5780    -0.7100 C.3   1 <1>   0.3430 
 15 C        7.3390     0.6270    -1.7450 C.3   1 <1>   0.4860 
 16 C        8.6600     1.0550    -1.1370 C.ar  1 <1>  -0.1430 
 17 C        9.0740     0.5190     0.0720 C.ar  1 <1>  -0.1500 
 18 C        9.4610     1.9920    -1.7670 C.ar  1 <1>  -0.1500 
 19 C       10.2570     0.9130     0.6710 C.ar  1 <1>   0.0830 
 20 C       10.6500     2.3970    -1.1850 C.ar  1 <1>  -0.1500 
 21 O       10.5000     0.2920     1.8610 O.3   1 <1>  -0.3620 
 22 C       11.0640     1.8760     0.0390 C.ar  1 <1>   0.0830 
 23 C       11.7740     0.2660     2.4670 C.3   1 <1>   0.0400 
 24 O       12.2220     2.2960     0.6260 O.3   1 <1>  -0.3630 
 25 C       13.1130     3.1950     0.0000 C.3   1 <1>   0.0400 
 26 H       -1.3370    -0.7060     1.0080 H     1 <1>   0.0800 
 27 H       -1.0390     1.0290     1.0160 H     1 <1>   0.0800 
 28 H       -0.4230     0.0100     2.3290 H     1 <1>   0.0800 
 29 H        2.5070    -0.5590    -0.8490 H     1 <1>   0.1500 
 30 H        3.1450     3.3970     1.9720 H     1 <1>   0.1500 
 31 H       -0.0090     3.4030     3.6930 H     1 <1>   0.0800 
 32 H        1.0300     4.2020     2.5210 H     1 <1>   0.0800 
 33 H        1.7340     3.1930     3.8010 H     1 <1>   0.0800 
 34 H        4.6750     0.9290    -2.2670 H     1 <1>   0.0800 
 35 H        4.9340    -0.5080    -1.3020 H     1 <1>   0.0800 
 36 H        5.8310     2.8050     1.3840 H     1 <1>   0.0800 
 37 H        5.0660     4.0090     0.3980 H     1 <1>   0.0800 
 38 H        6.4240     0.7130     0.0810 H     1 <1>   0.4500 
 39 H        7.1900     2.9690    -0.5320 H     1 <1>   0.0800 
 40 H        5.8180     3.0200    -1.6160 H     1 <1>   0.0800 
 41 H        7.2310     1.0530    -2.7290 H     1 <1>   0.0800 
 42 H        7.3210    -0.4470    -1.8310 H     1 <1>   0.0800 
 43 H        8.4860    -0.2250     0.5810 H     1 <1>   0.1500 
 44 H        9.1770     2.4190    -2.7150 H     1 <1>   0.1500 
 45 H       11.2400     3.1270    -1.7060 H     1 <1>   0.1500 
 46 H       11.7500    -0.4470     3.2700 H     1 <1>   0.0800 
 47 H       11.9960     1.2430     2.8560 H     1 <1>   0.0800 
 48 H       12.5050    -0.0310     1.7350 H     1 <1>   0.0800 
 49 H       13.9600     3.3300     0.6500 H     1 <1>   0.0800 
 50 H       12.6160     4.1370    -0.1480 H     1 <1>   0.0800 
 51 H       13.4370     2.7740    -0.9350 H     1 <1>   0.0800 
@<TRIPOS>BOND
  1   1   2  1   
  2   1   3  1   
  3   2   4  ar  
  4   2   5  ar  
  5   3  26  1   
  6   3  27  1   
  7   3  28  1   
  8   4   6  1   
  9   4   7  ar  
 10   5   8  ar  
 11   5  29  1   
 12   6   9  1   
 13   7  10  ar  
 14   7  30  1   
 15   8  10  ar  
 16   8  11  1   
 17   9  31  1   
 18   9  32  1   
 19   9  33  1   
 20  10  12  1   
 21  11  13  1   
 22  11  34  1   
 23  11  35  1   
 24  12  14  1   
 25  12  36  1   
 26  12  37  1   
 27  13  14  1   
 28  13  15  1   
 29  13  38  1   
 30  14  39  1   
 31  14  40  1   
 32  15  16  1   
 33  15  41  1   
 34  15  42  1   
 35  16  17  ar  
 36  16  18  ar  
 37  17  19  ar  
 38  17  43  1   
 39  18  20  ar  
 40  18  44  1   
 41  19  21  1   
 42  19  22  ar  
 43  20  22  ar  
 44  20  45  1   
 45  21  23  1   
 46  22  24  1   
 47  23  46  1   
 48  23  47  1   
 49  23  48  1   
 50  24  25  1   
 51  25  49  1   
 52  25  50  1   
 53  25  51  1   
@<TRIPOS>SUBSTRUCTURE
  1 ****  13 GROUP 4 **** **** 0

# MOE 2024.06 (io_trps.svl 2023.06)
