@<TRIPOS>MOLECULE
NONAME
30 31 1 0 0 
SMALL
USER_CHARGES


@<TRIPOS>ATOM
  1 F        1.0000     0.0810    -1.8540 F     1 <1>  -0.3400 
  2 C        1.3810     0.0200    -0.5860 C.3   1 <1>   1.1580 
  3 F        2.5800     0.5880    -0.5370 F     1 <1>  -0.3400 
  4 F        0.5700     0.8170     0.0950 F     1 <1>  -0.3400 
  5 C        1.3830    -1.4160    -0.0430 C.2   1 <1>  -0.1670 
  6 C        0.1640    -2.1860    -0.0210 C.ar  1 <1>   0.0280 
  7 C        2.5140    -2.0020     0.4270 C.2   1 <1>  -0.1360 
  8 C        0.2210    -3.4960     0.4870 C.ar  1 <1>   0.0820 
  9 C       -1.0850    -1.7350    -0.4670 C.ar  1 <1>  -0.1500 
 10 C        2.5290    -3.3330     0.9340 C.2   1 <1>   0.7060 
 11 O        1.3850    -4.0150     0.9390 O.3   1 <1>  -0.2330 
 12 C       -0.9020    -4.3050     0.5450 C.ar  1 <1>  -0.1500 
 13 C       -2.2020    -2.5430    -0.4090 C.ar  1 <1>  -0.1500 
 14 O        3.5290    -3.8710     1.3570 O.2   1 <1>  -0.5700 
 15 C       -2.1250    -3.8330     0.0950 C.ar  1 <1>   0.0820 
 16 O       -3.2750    -4.5470     0.1120 O.3   1 <1>  -0.3630 
 17 C       -3.3520    -5.8870     0.5530 C.3   1 <1>   0.1200 
 18 C       -2.8800    -6.8240    -0.5650 C.3   1 <1>  -0.1600 
 19 C       -2.9600    -8.2910    -0.1310 C.3   1 <1>  -0.2400 
 20 H        3.4690    -1.5090     0.4520 H     1 <1>   0.1500 
 21 H       -1.2080    -0.7460    -0.8680 H     1 <1>   0.1500 
 22 H       -0.7930    -5.2960     0.9430 H     1 <1>   0.1500 
 23 H       -3.1540    -2.1820    -0.7550 H     1 <1>   0.1500 
 24 H       -4.3840    -6.0840     0.7830 H     1 <1>   0.0800 
 25 H       -2.7760    -5.9990     1.4540 H     1 <1>   0.0800 
 26 H       -1.8640    -6.5940    -0.8350 H     1 <1>   0.0800 
 27 H       -3.5020    -6.6770    -1.4310 H     1 <1>   0.0800 
 28 H       -2.3340    -8.4660     0.7270 H     1 <1>   0.0800 
 29 H       -2.6290    -8.9290    -0.9310 H     1 <1>   0.0800 
 30 H       -3.9730    -8.5560     0.1190 H     1 <1>   0.0800 
@<TRIPOS>BOND
  1   1   2  1   
  2   2   3  1   
  3   2   4  1   
  4   2   5  1   
  5   5   6  1   
  6   5   7  2   
  7   6   8  ar  
  8   6   9  ar  
  9   7  10  1   
 10   7  20  1   
 11   8  11  1   
 12   8  12  ar  
 13   9  13  ar  
 14   9  21  1   
 15  10  11  1   
 16  10  14  2   
 17  12  15  ar  
 18  12  22  1   
 19  13  15  ar  
 20  13  23  1   
 21  15  16  1   
 22  16  17  1   
 23  17  18  1   
 24  17  24  1   
 25  17  25  1   
 26  18  19  1   
 27  18  26  1   
 28  18  27  1   
 29  19  28  1   
 30  19  29  1   
 31  19  30  1   
@<TRIPOS>SUBSTRUCTURE
  1 ****   8 GROUP 4 **** **** 0

# MOE 2024.06 (io_trps.svl 2023.06)
