@<TRIPOS>MOLECULE
NONAME
32 32 1 0 0 
SMALL
USER_CHARGES


@<TRIPOS>ATOM
  1 CL       1.0810     0.7750     0.0200 Cl    1 <1>  -0.1770 
  2 C        0.7810    -0.9500    -0.0060 C.ar  1 <1>   0.1770 
  3 C        1.8490    -1.8410    -0.0230 C.ar  1 <1>   0.0820 
  4 C       -0.5260    -1.3940    -0.0080 C.ar  1 <1>  -0.1500 
  5 O        3.1080    -1.3260    -0.0180 O.3   1 <1>  -0.3630 
  6 C        1.5780    -3.2080    -0.0440 C.ar  1 <1>  -0.1500 
  7 C       -0.7810    -2.7540    -0.0280 C.ar  1 <1>  -0.1500 
  8 C        4.2510    -2.1410    -0.0260 C.3   1 <1>   0.1200 
  9 C        0.2670    -3.6620    -0.0480 C.ar  1 <1>  -0.1440 
 10 C        5.4570    -1.1990    -0.0120 C.3   1 <1>   0.3430 
 11 C       -0.0270    -5.1520    -0.0680 C.3   1 <1>  -0.0960 
 12 N        6.7540    -1.9440    -0.0170 N.4   1 <1>  -0.9060 
 13 C        7.9120    -0.9990    -0.0020 C.3   1 <1>   0.3430 
 14 C        9.2560    -1.7370    -0.0060 C.3   1 <1>   0.1200 
 15 O       10.2510    -0.7800     0.0080 O.3   1 <1>  -0.6800 
 16 H       -1.3330    -0.6820     0.0070 H     1 <1>   0.1500 
 17 H        2.3680    -3.9330    -0.0560 H     1 <1>   0.1500 
 18 H       -1.8000    -3.1020    -0.0280 H     1 <1>   0.1500 
 19 H        4.2290    -2.7360    -0.9230 H     1 <1>   0.0800 
 20 H        4.2250    -2.7580     0.8540 H     1 <1>   0.0800 
 21 H        5.3980    -0.5800     0.8700 H     1 <1>   0.0800 
 22 H        5.4030    -0.5590    -0.8780 H     1 <1>   0.0800 
 23 H        0.7540    -5.6880    -0.5770 H     1 <1>   0.0800 
 24 H       -0.9540    -5.3450    -0.5780 H     1 <1>   0.0800 
 25 H       -0.1040    -5.5230     0.9380 H     1 <1>   0.0800 
 26 H        6.8100    -2.5370    -0.8550 H     1 <1>   0.4500 
 27 H        6.8050    -2.5570     0.8080 H     1 <1>   0.4500 
 28 H        7.8640    -0.3790     0.8800 H     1 <1>   0.0800 
 29 H        7.8700    -0.3580    -0.8680 H     1 <1>   0.0800 
 30 H        9.3770    -2.3280    -0.8990 H     1 <1>   0.0800 
 31 H        9.3720    -2.3490     0.8720 H     1 <1>   0.0800 
 32 H       11.1490    -1.1790     0.0060 H     1 <1>   0.4000 
@<TRIPOS>BOND
  1   1   2  1   
  2   2   3  ar  
  3   2   4  ar  
  4   3   5  1   
  5   3   6  ar  
  6   4   7  ar  
  7   4  16  1   
  8   5   8  1   
  9   6   9  ar  
 10   6  17  1   
 11   7   9  ar  
 12   7  18  1   
 13   8  10  1   
 14   8  19  1   
 15   8  20  1   
 16   9  11  1   
 17  10  12  1   
 18  10  21  1   
 19  10  22  1   
 20  11  23  1   
 21  11  24  1   
 22  11  25  1   
 23  12  13  1   
 24  12  26  1   
 25  12  27  1   
 26  13  14  1   
 27  13  28  1   
 28  13  29  1   
 29  14  15  1   
 30  14  30  1   
 31  14  31  1   
 32  15  32  1   
@<TRIPOS>SUBSTRUCTURE
  1 ****   5 GROUP 4 **** **** 0

# MOE 2024.06 (io_trps.svl 2023.06)
