@<TRIPOS>MOLECULE
NONAME
26 26 1 0 0 
SMALL
USER_CHARGES


@<TRIPOS>ATOM
  1 S        0.0330     0.1670     0.5090 S.3   1 <1>  -0.4600 
  2 C        1.1600     1.5690     0.2510 C.3   1 <1>   0.0700 
  3 C        1.1880    -1.2120     0.7720 C.3   1 <1>   0.0700 
  4 C        2.1740     1.2080    -0.8400 C.3   1 <1>   0.1400 
  5 C        2.1980    -1.2520    -0.3800 C.3   1 <1>   0.1400 
  6 N        2.9850     0.0180    -0.4380 N.am  1 <1>  -0.6600 
  7 C        4.3070     0.0440    -0.0680 C.2   1 <1>   0.5690 
  8 O        4.8750    -0.9580     0.3000 O.2   1 <1>  -0.5700 
  9 C        5.0890     1.3550    -0.1050 C.3   1 <1>  -0.0990 
 10 C        6.5430     1.2520     0.3930 C.3   1 <1>  -0.1600 
 11 C        7.2550     2.6070     0.3300 C.3   1 <1>  -0.2400 
 12 H        1.6480     1.7720     1.1880 H     1 <1>   0.0800 
 13 H        0.5560     2.4100    -0.0370 H     1 <1>   0.0800 
 14 H        0.6040    -2.1140     0.8100 H     1 <1>   0.0800 
 15 H        1.6820    -1.0560     1.7140 H     1 <1>   0.0800 
 16 H        2.8030     2.0580    -1.0320 H     1 <1>   0.0800 
 17 H        1.6480     0.9850    -1.7530 H     1 <1>   0.0800 
 18 H        1.6780    -1.3940    -1.3110 H     1 <1>   0.0800 
 19 H        2.8530    -2.0950    -0.2420 H     1 <1>   0.0800 
 20 H        4.5700     2.0710     0.5040 H     1 <1>   0.0800 
 21 H        5.0970     1.7080    -1.1190 H     1 <1>   0.0800 
 22 H        7.0770     0.5380    -0.2120 H     1 <1>   0.0800 
 23 H        6.5480     0.8910     1.4080 H     1 <1>   0.0800 
 24 H        7.2830     2.9730    -0.6820 H     1 <1>   0.0800 
 25 H        8.2670     2.5040     0.6820 H     1 <1>   0.0800 
 26 H        6.7510     3.3280     0.9490 H     1 <1>   0.0800 
@<TRIPOS>BOND
  1   1   2  1   
  2   1   3  1   
  3   2   4  1   
  4   2  12  1   
  5   2  13  1   
  6   3   5  1   
  7   3  14  1   
  8   3  15  1   
  9   4   6  1   
 10   4  16  1   
 11   4  17  1   
 12   5   6  1   
 13   5  18  1   
 14   5  19  1   
 15   6   7  am  
 16   7   8  2   
 17   7   9  1   
 18   9  10  1   
 19   9  20  1   
 20   9  21  1   
 21  10  11  1   
 22  10  22  1   
 23  10  23  1   
 24  11  24  1   
 25  11  25  1   
 26  11  26  1   
@<TRIPOS>SUBSTRUCTURE
  1 ****   6 GROUP 4 **** **** 0

# MOE 2024.06 (io_trps.svl 2023.06)
