@<TRIPOS>MOLECULE
NONAME
44 45 1 0 0 
SMALL
USER_CHARGES


@<TRIPOS>ATOM
  1 O       -0.0070    -0.4920    -1.1680 O.2   1 <1>  -0.5700 
  2 C        0.1640    -1.3700    -0.3540 C.2   1 <1>   0.5690 
  3 N        1.3920    -1.7410     0.1300 N.am  1 <1>  -0.5470 
  4 C       -1.1030    -2.0820     0.1460 C.3   1 <1>   0.4040 
  5 C        2.6650    -1.2020    -0.1240 C.ar  1 <1>   0.1170 
  6 N       -2.3460    -1.2640    -0.1220 N.4   1 <1>  -0.9590 
  7 C        3.7940    -2.0130     0.0170 C.ar  1 <1>  -0.1430 
  8 C        2.8400     0.1310    -0.4870 C.ar  1 <1>  -0.1500 
  9 C       -2.8520    -0.4840     1.0450 C.3   1 <1>   0.4230 
 10 C       -3.3990    -2.0890    -0.7800 C.3   1 <1>   0.3430 
 11 C        5.0530    -1.4820    -0.2100 C.ar  1 <1>  -0.1500 
 12 C        3.6860    -3.4820     0.4110 C.3   1 <1>  -0.0970 
 13 C        4.0980     0.6560    -0.7170 C.ar  1 <1>  -0.1430 
 14 C       -4.0080     0.4180     0.5900 C.3   1 <1>  -0.1600 
 15 C       -1.7420     0.3750     1.6500 C.3   1 <1>  -0.2400 
 16 C       -4.5460    -1.1980    -1.2550 C.3   1 <1>  -0.1600 
 17 C        5.2070    -0.1570    -0.5750 C.ar  1 <1>  -0.1500 
 18 C        4.2690     2.1100    -1.1190 C.3   1 <1>  -0.0970 
 19 C       -5.1250    -0.3690    -0.1040 C.3   1 <1>  -0.1600 
 20 H        1.4420    -2.5660     0.7260 H     1 <1>   0.3700 
 21 H       -1.0110    -2.2800     1.2000 H     1 <1>   0.0800 
 22 H       -1.1700    -3.0230    -0.3700 H     1 <1>   0.0800 
 23 H       -2.0270    -0.5600    -0.8150 H     1 <1>   0.4500 
 24 H        1.9870     0.7740    -0.5900 H     1 <1>   0.1500 
 25 H       -3.2220    -1.1650     1.7960 H     1 <1>   0.0800 
 26 H       -3.7790    -2.8180    -0.0830 H     1 <1>   0.0800 
 27 H       -2.9840    -2.6100    -1.6280 H     1 <1>   0.0800 
 28 H        5.9320    -2.0950    -0.1060 H     1 <1>   0.1500 
 29 H        3.0380    -4.0030    -0.2710 H     1 <1>   0.0800 
 30 H        3.3040    -3.5710     1.4110 H     1 <1>   0.0800 
 31 H        4.6500    -3.9590     0.3780 H     1 <1>   0.0800 
 32 H       -3.6330     1.1740    -0.0790 H     1 <1>   0.0800 
 33 H       -4.4210     0.9240     1.4450 H     1 <1>   0.0800 
 34 H       -1.2960     1.0120     0.9060 H     1 <1>   0.0800 
 35 H       -0.9820    -0.2260     2.1140 H     1 <1>   0.0800 
 36 H       -2.1540     1.0060     2.4190 H     1 <1>   0.0800 
 37 H       -5.3210    -1.8140    -1.6760 H     1 <1>   0.0800 
 38 H       -4.1930    -0.5470    -2.0370 H     1 <1>   0.0800 
 39 H        6.1930     0.2370    -0.7480 H     1 <1>   0.1500 
 40 H        3.3500     2.5090    -1.5090 H     1 <1>   0.0800 
 41 H        5.0250     2.1990    -1.8780 H     1 <1>   0.0800 
 42 H        4.5640     2.6920    -0.2640 H     1 <1>   0.0800 
 43 H       -5.8710     0.3110    -0.4830 H     1 <1>   0.0800 
 44 H       -5.6060    -1.0210     0.6070 H     1 <1>   0.0800 
@<TRIPOS>BOND
  1   1   2  2   
  2   2   3  am  
  3   2   4  1   
  4   3   5  1   
  5   3  20  1   
  6   4   6  1   
  7   4  21  1   
  8   4  22  1   
  9   5   7  ar  
 10   5   8  ar  
 11   6   9  1   
 12   6  10  1   
 13   6  23  1   
 14   7  11  ar  
 15   7  12  1   
 16   8  13  ar  
 17   8  24  1   
 18   9  14  1   
 19   9  15  1   
 20   9  25  1   
 21  10  16  1   
 22  10  26  1   
 23  10  27  1   
 24  11  17  ar  
 25  11  28  1   
 26  12  29  1   
 27  12  30  1   
 28  12  31  1   
 29  13  17  ar  
 30  13  18  1   
 31  14  19  1   
 32  14  32  1   
 33  14  33  1   
 34  15  34  1   
 35  15  35  1   
 36  15  36  1   
 37  16  19  1   
 38  16  37  1   
 39  16  38  1   
 40  17  39  1   
 41  18  40  1   
 42  18  41  1   
 43  18  42  1   
 44  19  43  1   
 45  19  44  1   
@<TRIPOS>SUBSTRUCTURE
  1 ****   2 GROUP 4 **** **** 0

# MOE 2024.06 (io_trps.svl 2023.06)
