@<TRIPOS>MOLECULE
NONAME
43 44 1 0 0 
SMALL
USER_CHARGES


@<TRIPOS>ATOM
  1 S        0.0440     0.2280    -0.8360 S.o2  1 <1>   1.4470 
  2 O       -0.2270     0.5370    -2.2240 O.2   1 <1>  -0.6500 
  3 O       -0.4440    -1.0170    -0.2810 O.2   1 <1>  -0.6500 
  4 N       -0.6260     1.4890     0.0820 N.am  1 <1>  -0.8490 
  5 C        1.8200     0.3620    -0.4890 C.ar  1 <1>  -0.0090 
  6 C       -0.2000     2.8140    -0.3860 C.3   1 <1>   0.1960 
  7 C       -2.0830     1.3660     0.1660 C.3   1 <1>   0.1960 
  8 C        2.3230     0.0740     0.7740 C.ar  1 <1>  -0.1500 
  9 C        2.7240     0.7760    -1.4610 C.ar  1 <1>  -0.1500 
 10 C        0.5770     3.4980     0.7330 C.3   1 <1>  -0.2400 
 11 C       -2.6370     2.2240     1.3030 C.3   1 <1>  -0.2400 
 12 C        3.6720     0.1980     1.0580 C.ar  1 <1>  -0.1500 
 13 C        4.0730     0.9020    -1.1820 C.ar  1 <1>  -0.1500 
 14 C        4.5690     0.6190     0.0850 C.ar  1 <1>   0.1170 
 15 N        5.9270     0.7240     0.4160 N.am  1 <1>  -0.5470 
 16 C        6.9280     1.4760    -0.1430 C.2   1 <1>   0.5770 
 17 O        6.7450     2.2540    -1.0470 O.2   1 <1>  -0.5700 
 18 C        8.3280     1.3390     0.4420 C.3   1 <1>   0.0530 
 19 C        9.4970     1.4740    -0.5730 C.3   1 <1>   0.0000 
 20 C        8.8090    -0.1210     0.6710 C.3   1 <1>   0.0000 
 21 C       10.2160     0.3570     0.2270 C.3   1 <1>   0.0000 
 22 H       -1.0480     3.4190    -0.6640 H     1 <1>   0.0800 
 23 H        0.4330     2.7400    -1.2550 H     1 <1>   0.0800 
 24 H       -2.3480     0.3420     0.3750 H     1 <1>   0.0800 
 25 H       -2.5360     1.6360    -0.7750 H     1 <1>   0.0800 
 26 H        1.6410    -0.2490     1.5440 H     1 <1>   0.1500 
 27 H        2.3680     1.0040    -2.4530 H     1 <1>   0.1500 
 28 H       -0.0350     3.5980     1.6110 H     1 <1>   0.0800 
 29 H        0.8830     4.4780     0.4150 H     1 <1>   0.0800 
 30 H        1.4570     2.9320     0.9780 H     1 <1>   0.0800 
 31 H       -2.1450     1.9710     2.2250 H     1 <1>   0.0800 
 32 H       -3.6880     2.0310     1.4150 H     1 <1>   0.0800 
 33 H       -2.5110     3.2710     1.1020 H     1 <1>   0.0800 
 34 H        4.0240    -0.0310     2.0470 H     1 <1>   0.1500 
 35 H        4.7410     1.2200    -1.9630 H     1 <1>   0.1500 
 36 H        6.2090     0.1760     1.2250 H     1 <1>   0.3700 
 37 H        8.4790     1.9530     1.3140 H     1 <1>   0.0000 
 38 H        9.9970     2.4250    -0.5380 H     1 <1>   0.0000 
 39 H        9.2360     1.1590    -1.5690 H     1 <1>   0.0000 
 40 H        8.3780    -0.8250    -0.0220 H     1 <1>   0.0000 
 41 H        8.7610    -0.4410     1.6960 H     1 <1>   0.0000 
 42 H       10.8010     0.7420     1.0450 H     1 <1>   0.0000 
 43 H       10.7430    -0.3500    -0.3880 H     1 <1>   0.0000 
@<TRIPOS>BOND
  1   1   2  2   
  2   1   3  2   
  3   1   4  am  
  4   1   5  1   
  5   4   6  1   
  6   4   7  1   
  7   5   8  ar  
  8   5   9  ar  
  9   6  10  1   
 10   6  22  1   
 11   6  23  1   
 12   7  11  1   
 13   7  24  1   
 14   7  25  1   
 15   8  12  ar  
 16   8  26  1   
 17   9  13  ar  
 18   9  27  1   
 19  10  28  1   
 20  10  29  1   
 21  10  30  1   
 22  11  31  1   
 23  11  32  1   
 24  11  33  1   
 25  12  14  ar  
 26  12  34  1   
 27  13  14  ar  
 28  13  35  1   
 29  14  15  1   
 30  15  16  am  
 31  15  36  1   
 32  16  17  2   
 33  16  18  1   
 34  18  19  1   
 35  18  20  1   
 36  18  37  1   
 37  19  21  1   
 38  19  38  1   
 39  19  39  1   
 40  20  21  1   
 41  20  40  1   
 42  20  41  1   
 43  21  42  1   
 44  21  43  1   
@<TRIPOS>SUBSTRUCTURE
  1 ****  13 GROUP 4 **** **** 0

# MOE 2024.06 (io_trps.svl 2023.06)
