@<TRIPOS>MOLECULE
NONAME
52 54 1 0 0 
SMALL
USER_CHARGES


@<TRIPOS>ATOM
  1 N       -0.1470     0.0180    -0.1990 N.4   1 <1>  -0.9590 
  2 C        1.0580     0.6790     0.3940 C.3   1 <1>   0.4230 
  3 C       -1.4300     0.7400     0.1390 C.3   1 <1>   0.3430 
  4 C       -0.2790    -1.4310     0.2040 C.3   1 <1>   0.3430 
  5 C        1.1560     2.1390    -0.0860 C.3   1 <1>  -0.1600 
  6 C        2.3350    -0.0870    -0.0010 C.3   1 <1>  -0.1600 
  7 C       -2.6690     0.0500    -0.4630 C.3   1 <1>   0.1100 
  8 C       -1.5310    -2.1010    -0.3990 C.3   1 <1>   0.1100 
  9 C        2.4320     2.8280     0.4200 C.3   1 <1>  -0.1600 
 10 C        3.6110     0.6080     0.4960 C.3   1 <1>  -0.1600 
 11 N       -2.7520    -1.3630    -0.0410 N.3   1 <1>  -0.8100 
 12 C        3.6990     2.0640     0.0090 C.3   1 <1>  -0.0800 
 13 C       -3.9640    -2.0310    -0.5580 C.3   1 <1>   0.2530 
 14 C        4.9410     2.7880     0.5620 C.3   1 <1>  -0.1600 
 15 C       -5.2220    -1.3220    -0.0770 C.ar  1 <1>  -0.1430 
 16 C        6.2650     2.1930     0.0650 C.3   1 <1>  -0.2400 
 17 C       -5.4910    -1.2260     1.2800 C.ar  1 <1>  -0.1500 
 18 C       -6.1080    -0.7610    -0.9850 C.ar  1 <1>  -0.1500 
 19 C       -6.6270    -0.5750     1.7260 C.ar  1 <1>  -0.1500 
 20 C       -7.2450    -0.1080    -0.5410 C.ar  1 <1>  -0.1500 
 21 C       -7.5050    -0.0140     0.8150 C.ar  1 <1>  -0.1500 
 22 H       -0.0400     0.0460    -1.2180 H     1 <1>   0.4500 
 23 H        0.9760     0.6760     1.4700 H     1 <1>   0.0800 
 24 H       -1.3960     1.7510    -0.2290 H     1 <1>   0.0800 
 25 H       -1.5530     0.7790     1.2090 H     1 <1>   0.0800 
 26 H       -0.3420    -1.5030     1.2780 H     1 <1>   0.0800 
 27 H        0.5870    -1.9850    -0.1150 H     1 <1>   0.0800 
 28 H        0.3260     2.7150     0.2770 H     1 <1>   0.0800 
 29 H        1.1550     2.1690    -1.1610 H     1 <1>   0.0800 
 30 H        2.3900    -0.1710    -1.0730 H     1 <1>   0.0800 
 31 H        2.3330    -1.0740     0.4230 H     1 <1>   0.0800 
 32 H       -2.6420     0.1180    -1.5370 H     1 <1>   0.0800 
 33 H       -3.5410     0.5830    -0.1210 H     1 <1>   0.0800 
 34 H       -1.6010    -3.1060    -0.0160 H     1 <1>   0.0800 
 35 H       -1.4320    -2.1600    -1.4700 H     1 <1>   0.0800 
 36 H        2.3940     2.9090     1.4940 H     1 <1>   0.0800 
 37 H        2.4730     3.8280     0.0210 H     1 <1>   0.0800 
 38 H        4.4620     0.0530     0.1420 H     1 <1>   0.0800 
 39 H        3.6370     0.5890     1.5730 H     1 <1>   0.0800 
 40 H        3.7620     2.0660    -1.0680 H     1 <1>   0.0800 
 41 H       -3.9920    -3.0480    -0.2030 H     1 <1>   0.0800 
 42 H       -3.9420    -2.0540    -1.6350 H     1 <1>   0.0800 
 43 H        4.9280     2.7710     1.6390 H     1 <1>   0.0800 
 44 H        4.9070     3.8200     0.2560 H     1 <1>   0.0800 
 45 H        6.4180     1.2030     0.4540 H     1 <1>   0.0800 
 46 H        7.0840     2.8080     0.3960 H     1 <1>   0.0800 
 47 H        6.2840     2.1560    -1.0100 H     1 <1>   0.0800 
 48 H       -4.8090    -1.6580     1.9920 H     1 <1>   0.1500 
 49 H       -5.9220    -0.8270    -2.0430 H     1 <1>   0.1500 
 50 H       -6.8300    -0.5050     2.7810 H     1 <1>   0.1500 
 51 H       -7.9300     0.3250    -1.2490 H     1 <1>   0.1500 
 52 H       -8.3890     0.4920     1.1610 H     1 <1>   0.1500 
@<TRIPOS>BOND
  1   1   2  1   
  2   1   3  1   
  3   1   4  1   
  4   1  22  1   
  5   2   5  1   
  6   2   6  1   
  7   2  23  1   
  8   3   7  1   
  9   3  24  1   
 10   3  25  1   
 11   4   8  1   
 12   4  26  1   
 13   4  27  1   
 14   5   9  1   
 15   5  28  1   
 16   5  29  1   
 17   6  10  1   
 18   6  30  1   
 19   6  31  1   
 20   7  11  1   
 21   7  32  1   
 22   7  33  1   
 23   8  11  1   
 24   8  34  1   
 25   8  35  1   
 26   9  12  1   
 27   9  36  1   
 28   9  37  1   
 29  10  12  1   
 30  10  38  1   
 31  10  39  1   
 32  11  13  1   
 33  12  14  1   
 34  12  40  1   
 35  13  15  1   
 36  13  41  1   
 37  13  42  1   
 38  14  16  1   
 39  14  43  1   
 40  14  44  1   
 41  15  17  ar  
 42  15  18  ar  
 43  16  45  1   
 44  16  46  1   
 45  16  47  1   
 46  17  19  ar  
 47  17  48  1   
 48  18  20  ar  
 49  18  49  1   
 50  19  21  ar  
 51  19  50  1   
 52  20  21  ar  
 53  20  51  1   
 54  21  52  1   
@<TRIPOS>SUBSTRUCTURE
  1 ****   3 GROUP 4 **** **** 0

# MOE 2024.06 (io_trps.svl 2023.06)
