@<TRIPOS>MOLECULE
NONAME
52 54 1 0 0 
SMALL
USER_CHARGES


@<TRIPOS>ATOM
  1 O       -0.9060     0.9410     2.5650 O.2   1 <1>  -0.5700 
  2 C       -1.6400     1.2420     1.6520 C.2   1 <1>   0.6340 
  3 O       -2.3680     0.2580     1.1130 O.3   1 <1>  -0.4300 
  4 C       -1.7090     2.5960     1.1330 C.ar  1 <1>   0.0860 
  5 C       -2.9160     0.2960    -0.1920 C.3   1 <1>   0.0400 
  6 C       -2.9200     3.2260     0.8690 C.ar  1 <1>  -0.1500 
  7 C       -0.5460     3.3230     0.8870 C.ar  1 <1>  -0.1500 
  8 C       -2.9940     4.5010     0.3240 C.ar  1 <1>   0.1170 
  9 C       -0.5960     4.6040     0.3700 C.ar  1 <1>  -0.1500 
 10 N       -4.2360     5.0840     0.0340 N.am  1 <1>  -0.5470 
 11 C       -1.8110     5.2000     0.0790 C.ar  1 <1>  -0.1430 
 12 C       -5.3920     4.4950    -0.4220 C.2   1 <1>   0.5440 
 13 C       -1.8260     6.6050    -0.5090 C.3   1 <1>  -0.0960 
 14 O       -5.3960     3.3210    -0.7320 O.2   1 <1>  -0.5700 
 15 C       -6.6010     5.2860    -0.5550 C.ar  1 <1>   0.0860 
 16 C       -6.9300     6.2970     0.3490 C.ar  1 <1>  -0.1500 
 17 C       -7.4920     5.0520    -1.6010 C.ar  1 <1>  -0.1500 
 18 C       -8.0920     7.0360     0.2160 C.ar  1 <1>  -0.1500 
 19 C       -8.6550     5.7860    -1.7430 C.ar  1 <1>  -0.1500 
 20 C       -8.9690     6.7790    -0.8290 C.ar  1 <1>  -0.1430 
 21 C      -10.2620     7.5630    -0.9660 C.3   1 <1>   0.4860 
 22 N      -11.2400     7.0410     0.0280 N.4   1 <1>  -0.9590 
 23 C      -11.5800     5.5950    -0.2250 C.3   1 <1>   0.3430 
 24 C      -12.4870     7.8800     0.0780 C.3   1 <1>   0.3430 
 25 C      -12.6750     5.0950     0.7360 C.3   1 <1>   0.1200 
 26 C      -13.5400     7.2700     1.0250 C.3   1 <1>   0.1200 
 27 O      -13.7890     5.9390     0.6780 O.3   1 <1>  -0.5600 
 28 H       -3.1400    -0.7130    -0.4890 H     1 <1>   0.0800 
 29 H       -2.1980     0.7240    -0.8690 H     1 <1>   0.0800 
 30 H       -3.8220     0.8760    -0.1830 H     1 <1>   0.0800 
 31 H       -3.8310     2.7050     1.0980 H     1 <1>   0.1500 
 32 H        0.4070     2.8700     1.1080 H     1 <1>   0.1500 
 33 H        0.3260     5.1320     0.1930 H     1 <1>   0.1500 
 34 H       -4.2300     6.1010     0.0250 H     1 <1>   0.3700 
 35 H       -2.3700     6.6120    -1.4370 H     1 <1>   0.0800 
 36 H       -0.8270     6.9500    -0.7070 H     1 <1>   0.0800 
 37 H       -2.2880     7.2900     0.1800 H     1 <1>   0.0800 
 38 H       -6.2700     6.5010     1.1760 H     1 <1>   0.1500 
 39 H       -7.2580     4.2750    -2.3130 H     1 <1>   0.1500 
 40 H       -8.3010     7.8090     0.9360 H     1 <1>   0.1500 
 41 H       -9.3050     5.5680    -2.5750 H     1 <1>   0.1500 
 42 H      -10.6530     7.4570    -1.9650 H     1 <1>   0.0800 
 43 H      -10.0670     8.6070    -0.7840 H     1 <1>   0.0800 
 44 H      -10.7840     7.0800     0.9470 H     1 <1>   0.4500 
 45 H      -10.7010     4.9820    -0.1080 H     1 <1>   0.0800 
 46 H      -11.9360     5.4730    -1.2340 H     1 <1>   0.0800 
 47 H      -12.9220     7.9480    -0.9060 H     1 <1>   0.0800 
 48 H      -12.2510     8.8790     0.4070 H     1 <1>   0.0800 
 49 H      -12.3190     5.0580     1.7510 H     1 <1>   0.0800 
 50 H      -12.9980     4.1090     0.4500 H     1 <1>   0.0800 
 51 H      -14.4690     7.8080     0.9420 H     1 <1>   0.0800 
 52 H      -13.2140     7.3070     2.0510 H     1 <1>   0.0800 
@<TRIPOS>BOND
  1   1   2  2   
  2   2   3  1   
  3   2   4  1   
  4   3   5  1   
  5   4   6  ar  
  6   4   7  ar  
  7   5  28  1   
  8   5  29  1   
  9   5  30  1   
 10   6   8  ar  
 11   6  31  1   
 12   7   9  ar  
 13   7  32  1   
 14   8  10  1   
 15   8  11  ar  
 16   9  11  ar  
 17   9  33  1   
 18  10  12  am  
 19  10  34  1   
 20  11  13  1   
 21  12  14  2   
 22  12  15  1   
 23  13  35  1   
 24  13  36  1   
 25  13  37  1   
 26  15  16  ar  
 27  15  17  ar  
 28  16  18  ar  
 29  16  38  1   
 30  17  19  ar  
 31  17  39  1   
 32  18  20  ar  
 33  18  40  1   
 34  19  20  ar  
 35  19  41  1   
 36  20  21  1   
 37  21  22  1   
 38  21  42  1   
 39  21  43  1   
 40  22  23  1   
 41  22  24  1   
 42  22  44  1   
 43  23  25  1   
 44  23  45  1   
 45  23  46  1   
 46  24  26  1   
 47  24  47  1   
 48  24  48  1   
 49  25  27  1   
 50  25  49  1   
 51  25  50  1   
 52  26  27  1   
 53  26  51  1   
 54  26  52  1   
@<TRIPOS>SUBSTRUCTURE
  1 ****  15 GROUP 4 **** **** 0

# MOE 2024.06 (io_trps.svl 2023.06)
