@<TRIPOS>MOLECULE
NONAME
33 34 1 0 0 
SMALL
USER_CHARGES


@<TRIPOS>ATOM
  1 S       -0.2570     0.6880    -1.8160 S.3   1 <1>  -0.4600 
  2 C       -0.9440     1.9340    -0.6990 C.3   1 <1>   0.5940 
  3 C        1.0460     0.0710    -0.7170 C.3   1 <1>   0.1310 
  4 N       -0.1370     1.7820     0.5110 N.am  1 <1>  -0.7300 
  5 C       -2.4140     1.6360    -0.4360 C.ar  1 <1>  -0.1430 
  6 C        0.8280     0.8460     0.5620 C.2   1 <1>   0.5690 
  7 C       -3.3780     2.5600    -0.8090 C.ar  1 <1>  -0.1500 
  8 C       -2.8130     0.4570     0.1800 C.ar  1 <1>  -0.1500 
  9 O        1.4600     0.6230     1.5610 O.2   1 <1>  -0.5700 
 10 C       -4.7220     2.3280    -0.5750 C.ar  1 <1>   0.0830 
 11 C       -4.1590     0.1950     0.4190 C.ar  1 <1>   0.0830 
 12 O       -5.5640     3.3230    -0.9720 O.3   1 <1>  -0.3630 
 13 C       -5.1220     1.1280     0.0250 C.ar  1 <1>   0.0830 
 14 O       -4.5800    -0.9530     1.0280 O.3   1 <1>  -0.3630 
 15 C       -6.6810     3.6590    -0.1780 C.3   1 <1>   0.0400 
 16 O       -6.4410     0.8510     0.2250 O.3   1 <1>  -0.3630 
 17 C       -3.6690    -1.8680     1.5960 C.3   1 <1>   0.0400 
 18 C       -7.0240    -0.0110    -0.7240 C.3   1 <1>   0.0400 
 19 H       -0.7940     2.9000    -1.1520 H     1 <1>   0.0800 
 20 H        1.9990     0.2910    -1.1590 H     1 <1>   0.0800 
 21 H        0.9040    -0.9840    -0.5760 H     1 <1>   0.0800 
 22 H       -0.4220     2.2830     1.3510 H     1 <1>   0.3700 
 23 H       -3.1000     3.4820    -1.2880 H     1 <1>   0.1500 
 24 H       -2.0580    -0.2510     0.4650 H     1 <1>   0.1500 
 25 H       -6.9620     4.6710    -0.4040 H     1 <1>   0.0800 
 26 H       -6.4160     3.5710     0.8610 H     1 <1>   0.0800 
 27 H       -7.4920     2.9960    -0.4190 H     1 <1>   0.0800 
 28 H       -4.2350    -2.6460     2.0750 H     1 <1>   0.0800 
 29 H       -3.0660    -1.3550     2.3240 H     1 <1>   0.0800 
 30 H       -3.0620    -2.2880     0.8140 H     1 <1>   0.0800 
 31 H       -8.0640    -0.1260    -0.4810 H     1 <1>   0.0800 
 32 H       -6.5280    -0.9650    -0.6840 H     1 <1>   0.0800 
 33 H       -6.9160     0.4270    -1.7010 H     1 <1>   0.0800 
@<TRIPOS>BOND
  1   1   2  1   
  2   1   3  1   
  3   2   4  1   
  4   2   5  1   
  5   2  19  1   
  6   3   6  1   
  7   3  20  1   
  8   3  21  1   
  9   4   6  am  
 10   4  22  1   
 11   5   7  ar  
 12   5   8  ar  
 13   6   9  2   
 14   7  10  ar  
 15   7  23  1   
 16   8  11  ar  
 17   8  24  1   
 18  10  12  1   
 19  10  13  ar  
 20  11  13  ar  
 21  11  14  1   
 22  12  15  1   
 23  13  16  1   
 24  14  17  1   
 25  15  25  1   
 26  15  26  1   
 27  15  27  1   
 28  16  18  1   
 29  17  28  1   
 30  17  29  1   
 31  17  30  1   
 32  18  31  1   
 33  18  32  1   
 34  18  33  1   
@<TRIPOS>SUBSTRUCTURE
  1 ****   8 GROUP 4 **** **** 0

# MOE 2024.06 (io_trps.svl 2023.06)
