@<TRIPOS>MOLECULE
NONAME
45 46 1 0 0 
SMALL
USER_CHARGES


@<TRIPOS>ATOM
  1 O       -0.6310     0.9390    -2.1370 O.2   1 <1>  -0.5700 
  2 C       -0.1950     1.5590    -1.1990 C.2   1 <1>   0.5690 
  3 N       -0.8700     1.6650    -0.0250 N.am  1 <1>  -0.7300 
  4 C        1.1580     2.2490    -1.3380 C.3   1 <1>  -0.0190 
  5 C       -2.2270     1.1310     0.2320 C.3   1 <1>   0.1400 
  6 C        2.2150     1.6220    -0.4060 C.3   1 <1>  -0.1600 
  7 C        1.0540     3.7690    -1.1030 C.3   1 <1>  -0.1600 
  8 C       -3.1690     2.2530     0.6960 C.3   1 <1>  -0.0800 
  9 C        3.5620     2.3390    -0.5240 C.3   1 <1>   0.1400 
 10 C        2.4210     4.4490    -1.2040 C.3   1 <1>   0.1400 
 11 C       -4.5420     1.6640     1.0650 C.3   1 <1>  -0.1600 
 12 C       -3.3300     3.3480    -0.3780 C.3   1 <1>  -0.1600 
 13 N        3.3650     3.7910    -0.2590 N.am  1 <1>  -0.6600 
 14 C       -5.5230     2.7540     1.5160 C.3   1 <1>  -0.1600 
 15 C       -4.3150     4.4380     0.0670 C.3   1 <1>  -0.1600 
 16 C        3.9460     4.4950     0.7650 C.2   1 <1>   0.5690 
 17 C       -5.6760     3.8390     0.4430 C.3   1 <1>  -0.1600 
 18 O        3.7120     5.6640     0.9560 O.2   1 <1>  -0.5700 
 19 C        4.9120     3.8240     1.7130 C.3   1 <1>  -0.1790 
 20 H       -0.4650     2.2170     0.7310 H     1 <1>   0.3700 
 21 H        1.4850     2.0980    -2.3530 H     1 <1>   0.0800 
 22 H       -2.1620     0.3700     0.9910 H     1 <1>   0.0800 
 23 H       -2.6170     0.6760    -0.6640 H     1 <1>   0.0800 
 24 H        2.3410     0.5840    -0.6590 H     1 <1>   0.0800 
 25 H        1.8850     1.6730     0.6160 H     1 <1>   0.0800 
 26 H        0.6470     3.9740    -0.1280 H     1 <1>   0.0800 
 27 H        0.3900     4.2010    -1.8310 H     1 <1>   0.0800 
 28 H       -2.7520     2.6980     1.5840 H     1 <1>   0.0800 
 29 H        3.9570     2.2160    -1.5180 H     1 <1>   0.0800 
 30 H        4.2630     1.9040     0.1650 H     1 <1>   0.0800 
 31 H        2.3210     5.4970    -0.9790 H     1 <1>   0.0800 
 32 H        2.8060     4.3610    -2.2050 H     1 <1>   0.0800 
 33 H       -4.4290     0.9430     1.8570 H     1 <1>   0.0800 
 34 H       -4.9550     1.1530     0.2110 H     1 <1>   0.0800 
 35 H       -3.6840     2.9020    -1.2920 H     1 <1>   0.0800 
 36 H       -2.3790     3.8050    -0.5870 H     1 <1>   0.0800 
 37 H       -5.1660     3.2030     2.4280 H     1 <1>   0.0800 
 38 H       -6.4840     2.3130     1.7200 H     1 <1>   0.0800 
 39 H       -4.4440     5.1530    -0.7270 H     1 <1>   0.0800 
 40 H       -3.9090     4.9600     0.9170 H     1 <1>   0.0800 
 41 H       -6.3260     4.6160     0.8050 H     1 <1>   0.0800 
 42 H       -6.1300     3.4100    -0.4340 H     1 <1>   0.0800 
 43 H        4.4170     3.0280     2.2360 H     1 <1>   0.0800 
 44 H        5.2680     4.5390     2.4320 H     1 <1>   0.0800 
 45 H        5.7520     3.4400     1.1660 H     1 <1>   0.0800 
@<TRIPOS>BOND
  1   1   2  2   
  2   2   3  am  
  3   2   4  1   
  4   3   5  1   
  5   3  20  1   
  6   4   6  1   
  7   4   7  1   
  8   4  21  1   
  9   5   8  1   
 10   5  22  1   
 11   5  23  1   
 12   6   9  1   
 13   6  24  1   
 14   6  25  1   
 15   7  10  1   
 16   7  26  1   
 17   7  27  1   
 18   8  11  1   
 19   8  12  1   
 20   8  28  1   
 21   9  13  1   
 22   9  29  1   
 23   9  30  1   
 24  10  13  1   
 25  10  31  1   
 26  10  32  1   
 27  11  14  1   
 28  11  33  1   
 29  11  34  1   
 30  12  15  1   
 31  12  35  1   
 32  12  36  1   
 33  13  16  am  
 34  14  17  1   
 35  14  37  1   
 36  14  38  1   
 37  15  17  1   
 38  15  39  1   
 39  15  40  1   
 40  16  18  2   
 41  16  19  1   
 42  17  41  1   
 43  17  42  1   
 44  19  43  1   
 45  19  44  1   
 46  19  45  1   
@<TRIPOS>SUBSTRUCTURE
  1 ****   3 GROUP 4 **** **** 0

# MOE 2024.06 (io_trps.svl 2023.06)
