@<TRIPOS>MOLECULE
NONAME
43 44 1 0 0 
SMALL
USER_CHARGES


@<TRIPOS>ATOM
  1 CL       1.6920     0.8810     1.2550 Cl    1 <1>  -0.1770 
  2 C        1.0160     2.2370     0.3830 C.ar  1 <1>   0.1770 
  3 C        1.6290     2.6660    -0.7800 C.ar  1 <1>  -0.1440 
  4 C       -0.1090     2.8600     0.8860 C.ar  1 <1>  -0.1500 
  5 C        1.0880     3.7530    -1.4460 C.ar  1 <1>  -0.1500 
  6 C        2.8600     1.9650    -1.3070 C.3   1 <1>   0.4860 
  7 C       -0.6530     3.9560     0.2200 C.ar  1 <1>   0.0820 
  8 C       -0.0390     4.4040    -0.9670 C.ar  1 <1>   0.0820 
  9 N        3.9980     2.3790    -0.4650 N.4   1 <1>  -0.9060 
 10 O       -1.7550     4.5930     0.7090 O.3   1 <1>  -0.3620 
 11 O       -0.4280     5.4520    -1.7470 O.3   1 <1>  -0.3620 
 12 C        5.2810     1.7430    -0.8110 C.3   1 <1>   0.4860 
 13 C       -2.4090     4.1900     1.8950 C.3   1 <1>   0.1200 
 14 C       -1.6450     6.1460    -1.5810 C.3   1 <1>   0.0400 
 15 C        6.2840     2.2460     0.1990 C.ar  1 <1>  -0.1440 
 16 C       -3.5770     5.1410     2.1490 C.3   1 <1>   0.1200 
 17 C        7.0420     3.3770    -0.0700 C.ar  1 <1>  -0.1500 
 18 C        6.4440     1.5860     1.4100 C.ar  1 <1>  -0.1500 
 19 O       -4.2640     4.7280     3.2810 O.3   1 <1>  -0.6800 
 20 C        7.9450     3.8470     0.8660 C.ar  1 <1>  -0.1500 
 21 C        7.3490     2.0590     2.3440 C.ar  1 <1>  -0.1500 
 22 C        8.0970     3.1890     2.0730 C.ar  1 <1>  -0.1500 
 23 H       -0.5320     2.4730     1.7930 H     1 <1>   0.1500 
 24 H        1.5270     4.1230    -2.3570 H     1 <1>   0.1500 
 25 H        3.0290     2.2430    -2.3350 H     1 <1>   0.0800 
 26 H        2.7200     0.8970    -1.2530 H     1 <1>   0.0800 
 27 H        3.7870     2.1560     0.5160 H     1 <1>   0.4500 
 28 H        4.1100     3.3990    -0.4920 H     1 <1>   0.4500 
 29 H        5.5890     2.0180    -1.8070 H     1 <1>   0.0800 
 30 H        5.2040     0.6690    -0.7480 H     1 <1>   0.0800 
 31 H       -1.7060     4.2460     2.7080 H     1 <1>   0.0800 
 32 H       -2.7640     3.1840     1.7590 H     1 <1>   0.0800 
 33 H       -1.7490     6.8420    -2.3940 H     1 <1>   0.0800 
 34 H       -1.6180     6.6800    -0.6480 H     1 <1>   0.0800 
 35 H       -2.4570     5.4410    -1.5990 H     1 <1>   0.0800 
 36 H       -4.2620     5.1470     1.3190 H     1 <1>   0.0800 
 37 H       -3.2120     6.1370     2.3320 H     1 <1>   0.0800 
 38 H        6.9460     3.9060    -1.0040 H     1 <1>   0.1500 
 39 H        5.8770     0.7000     1.6440 H     1 <1>   0.1500 
 40 H       -4.7880     3.9220     3.1020 H     1 <1>   0.4000 
 41 H        8.5350     4.7250     0.6600 H     1 <1>   0.1500 
 42 H        7.4750     1.5480     3.2840 H     1 <1>   0.1500 
 43 H        8.8020     3.5560     2.8020 H     1 <1>   0.1500 
@<TRIPOS>BOND
  1   1   2  1   
  2   2   3  ar  
  3   2   4  ar  
  4   3   5  ar  
  5   3   6  1   
  6   4   7  ar  
  7   4  23  1   
  8   5   8  ar  
  9   5  24  1   
 10   6   9  1   
 11   6  25  1   
 12   6  26  1   
 13   7   8  ar  
 14   7  10  1   
 15   8  11  1   
 16   9  12  1   
 17   9  27  1   
 18   9  28  1   
 19  10  13  1   
 20  11  14  1   
 21  12  15  1   
 22  12  29  1   
 23  12  30  1   
 24  13  16  1   
 25  13  31  1   
 26  13  32  1   
 27  14  33  1   
 28  14  34  1   
 29  14  35  1   
 30  15  17  ar  
 31  15  18  ar  
 32  16  19  1   
 33  16  36  1   
 34  16  37  1   
 35  17  20  ar  
 36  17  38  1   
 37  18  21  ar  
 38  18  39  1   
 39  19  40  1   
 40  20  22  ar  
 41  20  41  1   
 42  21  22  ar  
 43  21  42  1   
 44  22  43  1   
@<TRIPOS>SUBSTRUCTURE
  1 ****   3 GROUP 4 **** **** 0

# MOE 2024.06 (io_trps.svl 2023.06)
