@<TRIPOS>MOLECULE
NONAME
45 46 1 0 0 
SMALL
USER_CHARGES


@<TRIPOS>ATOM
  1 O       -1.6250     0.0570    -2.0700 O.2   1 <1>  -0.5700 
  2 C       -2.0620    -0.7330    -1.2740 C.2   1 <1>   0.5690 
  3 N       -1.7600    -2.0450    -1.4010 N.am  1 <1>  -0.7300 
  4 C       -2.9420    -0.2190    -0.1470 C.3   1 <1>  -0.0990 
  5 C       -2.1940    -3.1960    -0.5940 C.3   1 <1>   0.2200 
  6 C       -4.4360    -0.4560    -0.4260 C.3   1 <1>  -0.1600 
  7 C       -0.9580    -3.8890    -0.0140 C.3   1 <1>  -0.1600 
  8 C       -2.9980    -4.1490    -1.4840 C.3   1 <1>  -0.1600 
  9 C       -5.3180     0.0890     0.7020 C.3   1 <1>  -0.0170 
 10 C       -1.3470    -5.1590     0.7590 C.3   1 <1>  -0.1600 
 11 C       -3.3950    -5.4180    -0.7160 C.3   1 <1>  -0.1600 
 12 C       -6.7800    -0.2070     0.4140 C.ar  1 <1>  -0.1440 
 13 C       -2.1630    -6.1150    -0.1220 C.3   1 <1>  -0.1600 
 14 C       -7.3860    -1.3370     0.9400 C.ar  1 <1>  -0.1500 
 15 C       -7.5200     0.6500    -0.3860 C.ar  1 <1>  -0.1500 
 16 C       -8.7170    -1.6110     0.6740 C.ar  1 <1>  -0.1500 
 17 C       -8.8500     0.3790    -0.6550 C.ar  1 <1>  -0.1500 
 18 C       -9.4580    -0.7490    -0.1290 C.ar  1 <1>   0.0820 
 19 O      -10.7640    -0.9400    -0.4400 O.3   1 <1>  -0.3620 
 20 C      -11.4810    -2.0470     0.0590 C.3   1 <1>   0.0400 
 21 H       -1.1630    -2.2740    -2.1970 H     1 <1>   0.3700 
 22 H       -2.7640     0.8360    -0.0420 H     1 <1>   0.0800 
 23 H       -2.6500    -0.6890     0.7730 H     1 <1>   0.0800 
 24 H       -2.8210    -2.8680     0.2170 H     1 <1>   0.0800 
 25 H       -4.6240    -1.5080    -0.5440 H     1 <1>   0.0800 
 26 H       -4.7030     0.0280    -1.3510 H     1 <1>   0.0800 
 27 H       -0.4460    -3.2120     0.6480 H     1 <1>   0.0800 
 28 H       -0.2880    -4.1570    -0.8120 H     1 <1>   0.0800 
 29 H       -2.4060    -4.4280    -2.3380 H     1 <1>   0.0800 
 30 H       -3.8850    -3.6520    -1.8340 H     1 <1>   0.0800 
 31 H       -5.1790     1.1530     0.7950 H     1 <1>   0.0800 
 32 H       -5.0370    -0.3610     1.6380 H     1 <1>   0.0800 
 33 H       -1.9290    -4.8870     1.6230 H     1 <1>   0.0800 
 34 H       -0.4580    -5.6570     1.1040 H     1 <1>   0.0800 
 35 H       -3.9070    -6.0950    -1.3790 H     1 <1>   0.0800 
 36 H       -4.0750    -5.1580     0.0770 H     1 <1>   0.0800 
 37 H       -2.4760    -6.9640     0.4620 H     1 <1>   0.0800 
 38 H       -1.5410    -6.4790    -0.9220 H     1 <1>   0.0800 
 39 H       -6.8220    -2.0110     1.5610 H     1 <1>   0.1500 
 40 H       -7.0630     1.5300    -0.8050 H     1 <1>   0.1500 
 41 H       -9.1550    -2.4940     1.0970 H     1 <1>   0.1500 
 42 H       -9.4250     1.0420    -1.2750 H     1 <1>   0.1500 
 43 H      -12.4890    -1.9850    -0.3100 H     1 <1>   0.0800 
 44 H      -11.4820    -2.0050     1.1340 H     1 <1>   0.0800 
 45 H      -11.0170    -2.9510    -0.2930 H     1 <1>   0.0800 
@<TRIPOS>BOND
  1   1   2  2   
  2   2   3  am  
  3   2   4  1   
  4   3   5  1   
  5   3  21  1   
  6   4   6  1   
  7   4  22  1   
  8   4  23  1   
  9   5   7  1   
 10   5   8  1   
 11   5  24  1   
 12   6   9  1   
 13   6  25  1   
 14   6  26  1   
 15   7  10  1   
 16   7  27  1   
 17   7  28  1   
 18   8  11  1   
 19   8  29  1   
 20   8  30  1   
 21   9  12  1   
 22   9  31  1   
 23   9  32  1   
 24  10  13  1   
 25  10  33  1   
 26  10  34  1   
 27  11  13  1   
 28  11  35  1   
 29  11  36  1   
 30  12  14  ar  
 31  12  15  ar  
 32  13  37  1   
 33  13  38  1   
 34  14  16  ar  
 35  14  39  1   
 36  15  17  ar  
 37  15  40  1   
 38  16  18  ar  
 39  16  41  1   
 40  17  18  ar  
 41  17  42  1   
 42  18  19  1   
 43  19  20  1   
 44  20  43  1   
 45  20  44  1   
 46  20  45  1   
@<TRIPOS>SUBSTRUCTURE
  1 ****   6 GROUP 4 **** **** 0

# MOE 2024.06 (io_trps.svl 2023.06)
