@<TRIPOS>MOLECULE
NONAME
49 51 1 0 0 
SMALL
USER_CHARGES


@<TRIPOS>ATOM
  1 O       -0.1610     6.1850    -0.8450 O.2   1 <1>  -0.5700 
  2 C       -0.2340     5.1310    -0.2430 C.2   1 <1>   0.6900 
  3 N        0.9110     4.4650     0.1230 N.am  1 <1>  -0.6600 
  4 N       -1.4450     4.5730     0.0500 N.am  1 <1>  -0.5470 
  5 C        0.9660     3.1930     0.9140 C.3   1 <1>   0.1400 
  6 C        2.2600     4.9450    -0.3030 C.3   1 <1>   0.1400 
  7 C       -2.7770     4.9630    -0.1450 C.ar  1 <1>   0.1170 
  8 C        1.7010     2.1000     0.1260 C.3   1 <1>   0.1400 
  9 C        3.0150     3.8520    -1.0800 C.3   1 <1>   0.1400 
 10 C       -3.8050     3.9940    -0.1470 C.ar  1 <1>   0.0860 
 11 C       -3.1050     6.3060    -0.3230 C.ar  1 <1>  -0.1500 
 12 N        3.0580     2.5690    -0.3060 N.am  1 <1>  -0.6600 
 13 C       -3.5450     2.5780     0.0510 C.2   1 <1>   0.6340 
 14 C       -5.1180     4.4390    -0.3490 C.ar  1 <1>  -0.1500 
 15 C       -4.4080     6.7120    -0.5180 C.ar  1 <1>  -0.1500 
 16 C        4.1940     1.8790     0.0650 C.2   1 <1>   0.5690 
 17 O       -2.4980     2.1220     0.4780 O.2   1 <1>  -0.5700 
 18 O       -4.5220     1.7150    -0.2510 O.3   1 <1>  -0.4300 
 19 C       -5.4210     5.7720    -0.5340 C.ar  1 <1>  -0.1500 
 20 O        4.1270     1.0010     0.8990 O.2   1 <1>  -0.5700 
 21 C        5.5860     2.2250    -0.5240 C.3   1 <1>   0.2610 
 22 C       -4.3710     0.3170    -0.0960 C.3   1 <1>   0.0400 
 23 O        6.2870     1.0870    -0.9590 O.3   1 <1>  -0.5600 
 24 C        6.5090     2.9130     0.4920 C.3   1 <1>  -0.1600 
 25 C        7.2060     0.6950     0.0020 C.3   1 <1>   0.1200 
 26 C        7.7210     1.9990     0.5850 C.3   1 <1>  -0.1600 
 27 H       -1.3530     3.6030     0.3610 H     1 <1>   0.3700 
 28 H       -0.0160     2.8410     1.1720 H     1 <1>   0.0800 
 29 H        1.4950     3.3740     1.8330 H     1 <1>   0.0800 
 30 H        2.8260     5.2170     0.5700 H     1 <1>   0.0800 
 31 H        2.1770     5.8200    -0.9240 H     1 <1>   0.0800 
 32 H        1.1240     1.8430    -0.7450 H     1 <1>   0.0800 
 33 H        1.7750     1.2170     0.7360 H     1 <1>   0.0800 
 34 H        4.0000     4.2180    -1.2920 H     1 <1>   0.0800 
 35 H        2.5150     3.6810    -2.0180 H     1 <1>   0.0800 
 36 H       -2.3330     7.0530    -0.3070 H     1 <1>   0.1500 
 37 H       -5.9250     3.7280    -0.3620 H     1 <1>   0.1500 
 38 H       -4.6350     7.7550    -0.6580 H     1 <1>   0.1500 
 39 H       -6.4400     6.0840    -0.6880 H     1 <1>   0.1500 
 40 H        5.4750     2.8370    -1.3960 H     1 <1>   0.0800 
 41 H       -5.2840    -0.1610    -0.4040 H     1 <1>   0.0800 
 42 H       -4.1700     0.1010     0.9390 H     1 <1>   0.0800 
 43 H       -3.5530    -0.0150    -0.7120 H     1 <1>   0.0800 
 44 H        6.0190     2.9840     1.4480 H     1 <1>   0.0800 
 45 H        6.7790     3.9010     0.1670 H     1 <1>   0.0800 
 46 H        7.9790     0.1070    -0.4620 H     1 <1>   0.0800 
 47 H        6.6850     0.1110     0.7430 H     1 <1>   0.0800 
 48 H        8.0720     1.8730     1.5940 H     1 <1>   0.0800 
 49 H        8.5230     2.3690    -0.0310 H     1 <1>   0.0800 
@<TRIPOS>BOND
  1   1   2  2   
  2   2   3  am  
  3   2   4  am  
  4   3   5  1   
  5   3   6  1   
  6   4   7  1   
  7   4  27  1   
  8   5   8  1   
  9   5  28  1   
 10   5  29  1   
 11   6   9  1   
 12   6  30  1   
 13   6  31  1   
 14   7  10  ar  
 15   7  11  ar  
 16   8  12  1   
 17   8  32  1   
 18   8  33  1   
 19   9  12  1   
 20   9  34  1   
 21   9  35  1   
 22  10  13  1   
 23  10  14  ar  
 24  11  15  ar  
 25  11  36  1   
 26  12  16  am  
 27  13  17  2   
 28  13  18  1   
 29  14  19  ar  
 30  14  37  1   
 31  15  19  ar  
 32  15  38  1   
 33  16  20  2   
 34  16  21  1   
 35  18  22  1   
 36  19  39  1   
 37  21  23  1   
 38  21  24  1   
 39  21  40  1   
 40  22  41  1   
 41  22  42  1   
 42  22  43  1   
 43  23  25  1   
 44  24  26  1   
 45  24  44  1   
 46  24  45  1   
 47  25  26  1   
 48  25  46  1   
 49  25  47  1   
 50  26  48  1   
 51  26  49  1   
@<TRIPOS>SUBSTRUCTURE
  1 ****   5 GROUP 4 **** **** 0

# MOE 2024.06 (io_trps.svl 2023.06)
