@<TRIPOS>MOLECULE
NONAME
39 39 1 0 0 
SMALL
USER_CHARGES


@<TRIPOS>ATOM
  1 S       -0.6420    -0.4080    -1.2400 S.o2  1 <1>   1.3330 
  2 O        0.2670    -1.0960    -2.1240 O.2   1 <1>  -0.6500 
  3 O       -0.3790     0.9610    -0.8700 O.2   1 <1>  -0.6500 
  4 N       -0.7880    -1.3610     0.2090 N.am  1 <1>  -0.6930 
  5 C       -2.2510    -0.4950    -1.9970 C.3   1 <1>  -0.1350 
  6 C       -0.1940    -2.6170     0.3140 C.ar  1 <1>   0.1990 
  7 C       -1.8150    -1.0280     1.2490 C.3   1 <1>   0.3370 
  8 C        0.6520    -2.8980     1.3800 C.ar  1 <1>  -0.1500 
  9 C       -0.4640    -3.6280    -0.6030 C.ar  1 <1>  -0.1500 
 10 C       -3.2300    -1.5020     0.8420 C.2   1 <1>   0.5690 
 11 C       -1.7350     0.4370     1.7020 C.3   1 <1>  -0.2400 
 12 C        1.1970    -4.1590     1.5470 C.ar  1 <1>  -0.1440 
 13 C        0.0750    -4.8930    -0.4500 C.ar  1 <1>  -0.1440 
 14 O       -4.1370    -0.7080     0.7420 O.2   1 <1>  -0.5700 
 15 N       -3.4200    -2.8270     0.5770 N.am  1 <1>  -0.7300 
 16 C        0.9010    -5.1540     0.6300 C.ar  1 <1>  -0.1500 
 17 C        2.1190    -4.4600     2.7150 C.3   1 <1>  -0.0970 
 18 C       -0.2210    -5.9910    -1.4560 C.3   1 <1>  -0.0970 
 19 C       -4.7080    -3.4600     0.1960 C.3   1 <1>   0.0600 
 20 H       -2.2160    -0.0520    -2.9730 H     1 <1>   0.0800 
 21 H       -2.9720     0.0430    -1.4140 H     1 <1>   0.0800 
 22 H       -2.5670    -1.5140    -2.0950 H     1 <1>   0.0800 
 23 H       -1.5740    -1.6060     2.1230 H     1 <1>   0.0800 
 24 H        0.8820    -2.1120     2.0760 H     1 <1>   0.1500 
 25 H       -1.0980    -3.4160    -1.4430 H     1 <1>   0.1500 
 26 H       -2.1330     1.0970     0.9530 H     1 <1>   0.0800 
 27 H       -0.7170     0.7080     1.9180 H     1 <1>   0.0800 
 28 H       -2.3210     0.5690     2.5930 H     1 <1>   0.0800 
 29 H       -2.6080    -3.4540     0.6230 H     1 <1>   0.3700 
 30 H        1.3240    -6.1350     0.7540 H     1 <1>   0.1500 
 31 H        2.1610    -3.6300     3.3970 H     1 <1>   0.0800 
 32 H        3.1120    -4.6560     2.3520 H     1 <1>   0.0800 
 33 H        1.7670    -5.3240     3.2490 H     1 <1>   0.0800 
 34 H       -0.7110    -5.5940    -2.3260 H     1 <1>   0.0800 
 35 H       -0.8560    -6.7350    -1.0090 H     1 <1>   0.0800 
 36 H        0.6960    -6.4580    -1.7680 H     1 <1>   0.0800 
 37 H       -4.6210    -3.9060    -0.7800 H     1 <1>   0.0800 
 38 H       -5.4960    -2.7260     0.1740 H     1 <1>   0.0800 
 39 H       -4.9650    -4.2210     0.9120 H     1 <1>   0.0800 
@<TRIPOS>BOND
  1   1   2  2   
  2   1   3  2   
  3   1   4  am  
  4   1   5  1   
  5   4   6  1   
  6   4   7  1   
  7   5  20  1   
  8   5  21  1   
  9   5  22  1   
 10   6   8  ar  
 11   6   9  ar  
 12   7  10  1   
 13   7  11  1   
 14   7  23  1   
 15   8  12  ar  
 16   8  24  1   
 17   9  13  ar  
 18   9  25  1   
 19  10  14  2   
 20  10  15  am  
 21  11  26  1   
 22  11  27  1   
 23  11  28  1   
 24  12  16  ar  
 25  12  17  1   
 26  13  16  ar  
 27  13  18  1   
 28  15  19  1   
 29  15  29  1   
 30  16  30  1   
 31  17  31  1   
 32  17  32  1   
 33  17  33  1   
 34  18  34  1   
 35  18  35  1   
 36  18  36  1   
 37  19  37  1   
 38  19  38  1   
 39  19  39  1   
@<TRIPOS>SUBSTRUCTURE
  1 ****   6 GROUP 4 **** **** 0

# MOE 2024.06 (io_trps.svl 2023.06)
