@<TRIPOS>MOLECULE
NONAME
38 40 1 0 0 
SMALL
USER_CHARGES


@<TRIPOS>ATOM
  1 S       -0.8710     1.6760     2.0710 S.3   1 <1>  -0.0800 
  2 C       -1.5300     0.8820     0.6350 C.2   1 <1>  -0.0450 
  3 C       -0.8150     3.2340     1.2850 C.2   1 <1>  -0.1100 
  4 C       -1.8020    -0.5270     0.7180 C.2   1 <1>   0.5940 
  5 C       -1.6670     1.8200    -0.3430 C.2   1 <1>  -0.1500 
  6 C       -1.2670     3.1370     0.0220 C.2   1 <1>  -0.1500 
  7 O       -1.5310    -1.2000     1.6820 O.2   1 <1>  -0.5700 
  8 C       -2.4430    -1.2560    -0.4490 C.3   1 <1>  -0.0190 
  9 C       -3.9440    -1.4550    -0.1880 C.3   1 <1>   0.4600 
 10 C       -1.7170    -2.5970    -0.6700 C.3   1 <1>   0.3430 
 11 O       -4.4860    -2.0410    -1.3180 O.3   1 <1>  -0.6800 
 12 C       -4.6770    -0.1300    -0.0060 C.2   1 <1>  -0.1400 
 13 C       -4.2020    -2.4410     0.9680 C.3   1 <1>  -0.1600 
 14 N       -2.5490    -3.7920    -0.3020 N.4   1 <1>  -0.9590 
 15 S       -4.8870     0.8850    -1.4340 S.3   1 <1>  -0.0800 
 16 C       -5.2260     0.4750     1.0680 C.2   1 <1>  -0.1500 
 17 C       -3.2130    -3.6120     1.0190 C.3   1 <1>   0.3430 
 18 C       -1.7640    -5.0580    -0.3640 C.3   1 <1>   0.2630 
 19 C       -5.7200     2.1150    -0.5050 C.2   1 <1>  -0.1100 
 20 C       -5.8160     1.7480     0.7840 C.2   1 <1>  -0.1500 
 21 H       -0.4450     4.0690     1.8550 H     1 <1>   0.1500 
 22 H       -2.0440     1.6460    -1.3350 H     1 <1>   0.1500 
 23 H       -1.3360     3.9560    -0.6740 H     1 <1>   0.1500 
 24 H       -2.3120    -0.6590    -1.3300 H     1 <1>   0.0800 
 25 H       -0.8050    -2.6030    -0.0930 H     1 <1>   0.0800 
 26 H       -1.4440    -2.6720    -1.7100 H     1 <1>   0.0800 
 27 H       -5.2660    -1.5060    -1.5840 H     1 <1>   0.4000 
 28 H       -5.2100    -2.8120     0.9120 H     1 <1>   0.0800 
 29 H       -4.1190    -1.9280     1.9090 H     1 <1>   0.0800 
 30 H       -3.3210    -3.8210    -0.9980 H     1 <1>   0.4500 
 31 H       -5.2500     0.0970     2.0760 H     1 <1>   0.1500 
 32 H       -3.7360    -4.5110     1.3020 H     1 <1>   0.0800 
 33 H       -2.4620    -3.4120     1.7680 H     1 <1>   0.0800 
 34 H       -0.9630    -5.0370     0.3580 H     1 <1>   0.0800 
 35 H       -1.3400    -5.1880    -1.3470 H     1 <1>   0.0800 
 36 H       -2.3990    -5.9030    -0.1510 H     1 <1>   0.0800 
 37 H       -6.0550     2.9940    -1.0290 H     1 <1>   0.1500 
 38 H       -6.2830     2.3270     1.5630 H     1 <1>   0.1500 
@<TRIPOS>BOND
  1   1   2  1   
  2   1   3  1   
  3   2   4  1   
  4   2   5  2   
  5   3   6  2   
  6   3  21  1   
  7   4   7  2   
  8   4   8  1   
  9   5   6  1   
 10   5  22  1   
 11   6  23  1   
 12   8   9  1   
 13   8  10  1   
 14   8  24  1   
 15   9  11  1   
 16   9  12  1   
 17   9  13  1   
 18  10  14  1   
 19  10  25  1   
 20  10  26  1   
 21  11  27  1   
 22  12  15  1   
 23  12  16  2   
 24  13  17  1   
 25  13  28  1   
 26  13  29  1   
 27  14  17  1   
 28  14  18  1   
 29  14  30  1   
 30  15  19  1   
 31  16  20  1   
 32  16  31  1   
 33  17  32  1   
 34  17  33  1   
 35  18  34  1   
 36  18  35  1   
 37  18  36  1   
 38  19  20  2   
 39  19  37  1   
 40  20  38  1   
@<TRIPOS>SUBSTRUCTURE
  1 ****   8 GROUP 4 **** **** 0

# MOE 2024.06 (io_trps.svl 2023.06)
