@<TRIPOS>MOLECULE
NONAME
32 32 1 0 0 
SMALL
USER_CHARGES


@<TRIPOS>ATOM
  1 CL       2.1290     3.7000    -2.5770 Cl    1 <1>  -0.1770 
  2 C        2.7020     2.9190    -1.1200 C.ar  1 <1>   0.1770 
  3 C        2.1800     3.2530     0.1200 C.ar  1 <1>   0.1900 
  4 C        3.6930     1.9610    -1.2130 C.ar  1 <1>  -0.1500 
  5 F        1.2440     4.1650     0.2130 F     1 <1>  -0.1900 
  6 C        2.6270     2.6440     1.2780 C.ar  1 <1>  -0.1500 
  7 C        4.1600     1.3400    -0.0590 C.ar  1 <1>   0.1000 
  8 C        3.6200     1.6840     1.1780 C.ar  1 <1>  -0.1500 
  9 N        5.1650     0.3930    -0.1410 N.pl3 1 <1>  -0.8690 
 10 C        6.5380     0.8800     0.1830 C.3   1 <1>   0.3500 
 11 C        7.2590     1.4900    -1.0490 C.2   1 <1>   0.6590 
 12 C        7.3080    -0.3080     0.7590 C.3   1 <1>  -0.2400 
 13 O        7.1150     0.9950    -2.1390 O.2   1 <1>  -0.5700 
 14 O        8.0580     2.5480    -0.9160 O.3   1 <1>  -0.4300 
 15 C        8.1130     3.4380     0.1710 C.3   1 <1>   0.2000 
 16 C        6.8860     4.3510     0.1220 C.3   1 <1>  -0.2400 
 17 C        9.4020     4.2410     0.0210 C.3   1 <1>  -0.2400 
 18 H        4.1010     1.7030    -2.1730 H     1 <1>   0.1500 
 19 H        2.2040     2.9150     2.2290 H     1 <1>   0.1500 
 20 H        3.9820     1.1840     2.0590 H     1 <1>   0.1500 
 21 H        5.2180    -0.0400    -1.0750 H     1 <1>   0.4000 
 22 H        6.4460     1.6220     0.9530 H     1 <1>   0.0800 
 23 H        7.4030    -1.0820     0.0170 H     1 <1>   0.0800 
 24 H        6.7940    -0.7000     1.6180 H     1 <1>   0.0800 
 25 H        8.2930     0.0020     1.0570 H     1 <1>   0.0800 
 26 H        8.1520     2.8780     1.0890 H     1 <1>   0.0800 
 27 H        6.8550     4.8840    -0.8120 H     1 <1>   0.0800 
 28 H        6.9340     5.0710     0.9200 H     1 <1>   0.0800 
 29 H        5.9770     3.7900     0.2360 H     1 <1>   0.0800 
 30 H        9.3990     4.7860    -0.9060 H     1 <1>   0.0800 
 31 H       10.2520     3.5820     0.0410 H     1 <1>   0.0800 
 32 H        9.4980     4.9420     0.8310 H     1 <1>   0.0800 
@<TRIPOS>BOND
  1   1   2  1   
  2   2   3  ar  
  3   2   4  ar  
  4   3   5  1   
  5   3   6  ar  
  6   4   7  ar  
  7   4  18  1   
  8   6   8  ar  
  9   6  19  1   
 10   7   8  ar  
 11   7   9  1   
 12   8  20  1   
 13   9  10  1   
 14   9  21  1   
 15  10  11  1   
 16  10  12  1   
 17  10  22  1   
 18  11  13  2   
 19  11  14  1   
 20  12  23  1   
 21  12  24  1   
 22  12  25  1   
 23  14  15  1   
 24  15  16  1   
 25  15  17  1   
 26  15  26  1   
 27  16  27  1   
 28  16  28  1   
 29  16  29  1   
 30  17  30  1   
 31  17  31  1   
 32  17  32  1   
@<TRIPOS>SUBSTRUCTURE
  1 ****   7 GROUP 4 **** **** 0

# MOE 2024.06 (io_trps.svl 2023.06)
