@<TRIPOS>MOLECULE
NONAME
27 27 1 0 0 
SMALL
USER_CHARGES


@<TRIPOS>ATOM
  1 BR       0.4040    -0.7800     0.6530 Br    1 <1>  -0.1110 
  2 C       -1.4190    -1.3170     0.3440 C.ar  1 <1>   0.1110 
  3 C       -1.6940    -2.6550     0.1430 C.ar  1 <1>  -0.1500 
  4 C       -2.4080    -0.3490     0.3280 C.ar  1 <1>  -0.1500 
  5 C       -3.0130    -2.9980    -0.0750 C.ar  1 <1>   0.1900 
  6 C       -3.7230    -0.7300     0.1060 C.ar  1 <1>  -0.1500 
  7 F       -3.2910    -4.2650    -0.2750 F     1 <1>  -0.1900 
  8 C       -4.0580    -2.0700    -0.0950 C.ar  1 <1>   0.1170 
  9 N       -5.3770    -2.5080    -0.3290 N.am  1 <1>  -0.5470 
 10 C       -6.5830    -1.9300    -0.0720 C.2   1 <1>   0.6900 
 11 O       -6.6820    -0.8720     0.5160 O.2   1 <1>  -0.5700 
 12 N       -7.6910    -2.5880    -0.4920 N.am  1 <1>  -0.7300 
 13 C       -9.0780    -2.1290    -0.2710 C.3   1 <1>   0.1400 
 14 C       -9.9510    -3.3330     0.0840 C.3   1 <1>  -0.1600 
 15 C      -11.4060    -2.9130     0.3230 C.3   1 <1>  -0.2400 
 16 H       -0.9160    -3.3950     0.1550 H     1 <1>   0.1500 
 17 H       -2.1540     0.6850     0.4860 H     1 <1>   0.1500 
 18 H       -4.4870     0.0260     0.0880 H     1 <1>   0.1500 
 19 H       -5.4430    -3.4830    -0.6070 H     1 <1>   0.3700 
 20 H       -7.5900    -3.3900    -1.1100 H     1 <1>   0.3700 
 21 H       -9.4410    -1.6550    -1.1670 H     1 <1>   0.0800 
 22 H       -9.1030    -1.4080     0.5300 H     1 <1>   0.0800 
 23 H       -9.5690    -3.7950     0.9780 H     1 <1>   0.0800 
 24 H       -9.9210    -4.0500    -0.7170 H     1 <1>   0.0800 
 25 H      -11.4650    -2.2070     1.1340 H     1 <1>   0.0800 
 26 H      -12.0010    -3.7730     0.5760 H     1 <1>   0.0800 
 27 H      -11.8190    -2.4600    -0.5620 H     1 <1>   0.0800 
@<TRIPOS>BOND
  1   1   2  1   
  2   2   3  ar  
  3   2   4  ar  
  4   3   5  ar  
  5   3  16  1   
  6   4   6  ar  
  7   4  17  1   
  8   5   7  1   
  9   5   8  ar  
 10   6   8  ar  
 11   6  18  1   
 12   8   9  1   
 13   9  10  am  
 14   9  19  1   
 15  10  11  2   
 16  10  12  am  
 17  12  13  1   
 18  12  20  1   
 19  13  14  1   
 20  13  21  1   
 21  13  22  1   
 22  14  15  1   
 23  14  23  1   
 24  14  24  1   
 25  15  25  1   
 26  15  26  1   
 27  15  27  1   
@<TRIPOS>SUBSTRUCTURE
  1 ****   9 GROUP 4 **** **** 0

# MOE 2024.06 (io_trps.svl 2023.06)
