@<TRIPOS>MOLECULE
NONAME
50 53 1 0 0 
SMALL
USER_CHARGES


@<TRIPOS>ATOM
  1 O        0.8170     0.0340     0.4130 O.2   1 <1>  -0.5700 
  2 C        1.9840     0.3120     0.2990 C.2   1 <1>   0.5690 
  3 N        2.6090     1.2060     1.1190 N.am  1 <1>  -0.3680 
  4 C        2.8240    -0.3060    -0.7950 C.3   1 <1>  -0.0990 
  5 N        3.9500     1.5480     1.1050 N.2   1 <1>  -0.5120 
  6 C        4.3030    -0.3860    -0.3700 C.3   1 <1>  -0.0990 
  7 C        4.7770     0.8540     0.4080 C.2   1 <1>   0.3030 
  8 C        6.1850     1.1820     0.3360 C.ar  1 <1>   0.0860 
  9 C        7.1770     0.2220     0.1120 C.ar  1 <1>  -0.1500 
 10 C        6.6090     2.5110     0.5020 C.ar  1 <1>  -0.1500 
 11 C        8.5110     0.5870     0.0490 C.ar  1 <1>   0.1170 
 12 C        7.9390     2.8780     0.4410 C.ar  1 <1>  -0.1500 
 13 N        9.6410    -0.1950    -0.1610 N.am  1 <1>  -0.4770 
 14 C        8.9060     1.9080     0.2090 C.ar  1 <1>   0.0280 
 15 C       10.7410     0.6250    -0.1370 C.2   1 <1>   0.6160 
 16 C        9.6820    -1.6600    -0.3500 C.3   1 <1>   0.1400 
 17 C       10.3320     1.9750     0.0950 C.2   1 <1>  -0.0140 
 18 O       11.8870     0.2210    -0.2960 O.2   1 <1>  -0.5700 
 19 C        9.5780    -2.3550     1.0060 C.3   1 <1>  -0.2400 
 20 C       11.1270     3.0800     0.1870 C.2   1 <1>  -0.0500 
 21 N       12.4850     3.0590     0.0660 N.pl3 1 <1>  -0.4580 
 22 N       13.2880     4.1710     0.1590 N.2   1 <1>  -0.4920 
 23 C       14.5440     4.0620     0.0390 C.2   1 <1>   0.3280 
 24 C       15.4990     5.2310     0.1170 C.3   1 <1>  -0.0990 
 25 C       15.3400     2.7920    -0.2080 C.3   1 <1>  -0.0990 
 26 C       16.8330     4.6960    -0.4070 C.3   1 <1>  -0.1600 
 27 C       16.8090     3.2030    -0.0790 C.3   1 <1>  -0.1600 
 28 H        1.9920     1.6770     1.7870 H     1 <1>   0.3700 
 29 H        2.4460    -1.2830    -1.0350 H     1 <1>   0.0800 
 30 H        2.7310     0.3180    -1.6650 H     1 <1>   0.0800 
 31 H        4.9010    -0.5270    -1.2520 H     1 <1>   0.0800 
 32 H        4.4320    -1.2420     0.2680 H     1 <1>   0.0800 
 33 H        6.9220    -0.8140    -0.0020 H     1 <1>   0.1500 
 34 H        5.8670     3.2700     0.6850 H     1 <1>   0.1500 
 35 H        8.2320     3.9050     0.5720 H     1 <1>   0.1500 
 36 H        8.8710    -1.9610    -0.9900 H     1 <1>   0.0800 
 37 H       10.6080    -1.9320    -0.8280 H     1 <1>   0.0800 
 38 H        8.6540    -2.1040     1.4940 H     1 <1>   0.0800 
 39 H       10.4030    -2.0630     1.6320 H     1 <1>   0.0800 
 40 H        9.6170    -3.4210     0.8710 H     1 <1>   0.0800 
 41 H       10.6970     4.0510     0.3660 H     1 <1>   0.1500 
 42 H       12.9260     2.1370    -0.1090 H     1 <1>   0.4000 
 43 H       15.1420     6.0620    -0.4650 H     1 <1>   0.0800 
 44 H       15.5930     5.5280     1.1460 H     1 <1>   0.0800 
 45 H       15.0840     2.0240     0.5000 H     1 <1>   0.0800 
 46 H       15.1360     2.4460    -1.2060 H     1 <1>   0.0800 
 47 H       16.8720     4.8250    -1.4750 H     1 <1>   0.0800 
 48 H       17.6740     5.1980     0.0400 H     1 <1>   0.0800 
 49 H       17.1300     3.0580     0.9390 H     1 <1>   0.0800 
 50 H       17.4470     2.6330    -0.7330 H     1 <1>   0.0800 
@<TRIPOS>BOND
  1   1   2  2   
  2   2   3  am  
  3   2   4  1   
  4   3   5  1   
  5   3  28  1   
  6   4   6  1   
  7   4  29  1   
  8   4  30  1   
  9   5   7  2   
 10   6   7  1   
 11   6  31  1   
 12   6  32  1   
 13   7   8  1   
 14   8   9  ar  
 15   8  10  ar  
 16   9  11  ar  
 17   9  33  1   
 18  10  12  ar  
 19  10  34  1   
 20  11  13  1   
 21  11  14  ar  
 22  12  14  ar  
 23  12  35  1   
 24  13  15  am  
 25  13  16  1   
 26  14  17  1   
 27  15  17  1   
 28  15  18  2   
 29  16  19  1   
 30  16  36  1   
 31  16  37  1   
 32  17  20  2   
 33  19  38  1   
 34  19  39  1   
 35  19  40  1   
 36  20  21  1   
 37  20  41  1   
 38  21  22  1   
 39  21  42  1   
 40  22  23  2   
 41  23  24  1   
 42  23  25  1   
 43  24  26  1   
 44  24  43  1   
 45  24  44  1   
 46  25  27  1   
 47  25  45  1   
 48  25  46  1   
 49  26  27  1   
 50  26  47  1   
 51  26  48  1   
 52  27  49  1   
 53  27  50  1   
@<TRIPOS>SUBSTRUCTURE
  1 ****  14 GROUP 4 **** **** 0

# MOE 2024.06 (io_trps.svl 2023.06)
