@<TRIPOS>MOLECULE
NONAME
40 42 1 0 0 
SMALL
USER_CHARGES


@<TRIPOS>ATOM
  1 O       -0.5180     0.1310     0.6830 O.2   1 <1>  -0.5700 
  2 C       -1.5290     0.8230     0.6090 C.2   1 <1>   0.7670 
  3 N       -2.7130     0.2020     0.8350 N.2   1 <1>  -0.6610 
  4 C       -1.4450     2.2080     0.2990 C.2   1 <1>   0.0790 
  5 C       -3.7930     0.9110     0.7590 C.2   1 <1>   0.5500 
  6 C       -0.1570     2.7780     0.0920 C.1   1 <1>   0.4920 
  7 C       -2.6030     2.9250     0.2150 C.2   1 <1>   0.0720 
  8 N       -3.7590     2.2300     0.4520 N.pl3 1 <1>  -0.5500 
  9 N       -5.0160     0.3490     0.9680 N.pl3 1 <1>  -0.7880 
 10 N        0.8490     3.2820    -0.0970 N.1   1 <1>  -0.5570 
 11 C       -2.7210     4.3270    -0.0980 C.ar  1 <1>   0.0280 
 12 C       -5.1980    -1.1280     0.9530 C.3   1 <1>   0.2090 
 13 C       -6.2690     1.0960     1.2590 C.3   1 <1>   0.2090 
 14 C       -2.2780     4.8410    -1.3140 C.ar  1 <1>  -0.1500 
 15 C       -3.2980     5.2100     0.8130 C.ar  1 <1>  -0.1500 
 16 C       -5.4310    -1.6370    -0.4740 C.3   1 <1>  -0.1600 
 17 C       -7.1320     1.2420    -0.0010 C.3   1 <1>  -0.1600 
 18 C       -2.4050     6.1860    -1.6100 C.ar  1 <1>  -0.1500 
 19 C       -3.4280     6.5550     0.5210 C.ar  1 <1>  -0.1500 
 20 C       -6.2970    -0.7480    -1.3890 C.3   1 <1>  -0.1600 
 21 C       -7.5000    -0.0820    -0.7010 C.3   1 <1>  -0.1600 
 22 C       -2.9810     7.0460    -0.6930 C.ar  1 <1>  -0.1500 
 23 H       -4.6640     2.6770     0.3190 H     1 <1>   0.4000 
 24 H       -6.0410    -1.3940     1.5670 H     1 <1>   0.0800 
 25 H       -4.3360    -1.6190     1.3750 H     1 <1>   0.0800 
 26 H       -6.0370     2.0680     1.6580 H     1 <1>   0.0800 
 27 H       -6.8280     0.5730     2.0170 H     1 <1>   0.0800 
 28 H       -1.8290     4.1840    -2.0390 H     1 <1>   0.1500 
 29 H       -3.6420     4.8400     1.7630 H     1 <1>   0.1500 
 30 H       -5.8810    -2.6100    -0.4030 H     1 <1>   0.0800 
 31 H       -4.4710    -1.7720    -0.9410 H     1 <1>   0.0800 
 32 H       -6.6310     1.8890    -0.6980 H     1 <1>   0.0800 
 33 H       -8.0440     1.7360     0.2850 H     1 <1>   0.0800 
 34 H       -2.0540     6.5660    -2.5550 H     1 <1>   0.1500 
 35 H       -3.8740     7.2240     1.2370 H     1 <1>   0.1500 
 36 H       -6.6530    -1.3580    -2.2020 H     1 <1>   0.0800 
 37 H       -5.6730     0.0150    -1.8250 H     1 <1>   0.0800 
 38 H       -8.2290     0.1450    -1.4600 H     1 <1>   0.0800 
 39 H       -7.9640    -0.7640    -0.0090 H     1 <1>   0.0800 
 40 H       -3.0790     8.0930    -0.9220 H     1 <1>   0.1500 
@<TRIPOS>BOND
  1   1   2  2   
  2   2   3  1   
  3   2   4  1   
  4   3   5  2   
  5   4   6  1   
  6   4   7  2   
  7   5   8  1   
  8   5   9  1   
  9   6  10  3   
 10   7   8  1   
 11   7  11  1   
 12   8  23  1   
 13   9  12  1   
 14   9  13  1   
 15  11  14  ar  
 16  11  15  ar  
 17  12  16  1   
 18  12  24  1   
 19  12  25  1   
 20  13  17  1   
 21  13  26  1   
 22  13  27  1   
 23  14  18  ar  
 24  14  28  1   
 25  15  19  ar  
 26  15  29  1   
 27  16  20  1   
 28  16  30  1   
 29  16  31  1   
 30  17  21  1   
 31  17  32  1   
 32  17  33  1   
 33  18  22  ar  
 34  18  34  1   
 35  19  22  ar  
 36  19  35  1   
 37  20  21  1   
 38  20  36  1   
 39  20  37  1   
 40  21  38  1   
 41  21  39  1   
 42  22  40  1   
@<TRIPOS>SUBSTRUCTURE
  1 ****   8 GROUP 4 **** **** 0

# MOE 2024.06 (io_trps.svl 2023.06)
