@<TRIPOS>MOLECULE
NONAME
52 54 1 0 0 
SMALL
USER_CHARGES


@<TRIPOS>ATOM
  1 O        1.0480    -0.3000     0.6390 O.2   1 <1>  -0.5700 
  2 C        2.1220    -0.8550     0.5330 C.2   1 <1>   0.5690 
  3 N        3.1430    -0.2580    -0.1740 N.am  1 <1>  -0.6600 
  4 C        2.3250    -2.2260     1.2310 C.3   1 <1>   0.2610 
  5 C        2.9650     1.0470    -0.8740 C.3   1 <1>   0.1400 
  6 C        4.5040    -0.8340    -0.3860 C.3   1 <1>   0.1400 
  7 O        2.6800    -3.2260     0.3120 O.3   1 <1>  -0.5600 
  8 C        1.0870    -2.8180     1.9080 C.3   1 <1>  -0.1600 
  9 C        4.0750     2.0320    -0.4750 C.3   1 <1>   0.1100 
 10 C        5.5960     0.1840    -0.0080 C.3   1 <1>   0.1100 
 11 C        1.5310    -3.7770    -0.2500 C.3   1 <1>   0.1200 
 12 C        0.4290    -3.6190     0.7950 C.3   1 <1>  -0.1600 
 13 N        5.4250     1.4750    -0.7110 N.3   1 <1>  -0.8100 
 14 C        6.4710     2.4890    -0.3860 C.3   1 <1>   0.1710 
 15 C        7.9250     2.1040    -0.7010 C.2   1 <1>   0.5690 
 16 O        8.4350     2.5420    -1.7040 O.2   1 <1>  -0.5700 
 17 N        8.5930     1.3250     0.2100 N.am  1 <1>  -0.5470 
 18 C        9.8900     0.7890     0.2030 C.ar  1 <1>   0.1170 
 19 C       10.6420     0.6270    -0.9550 C.ar  1 <1>  -0.1500 
 20 C       10.4470     0.3810     1.4070 C.ar  1 <1>  -0.1500 
 21 C       11.9150     0.0790    -0.9220 C.ar  1 <1>  -0.1440 
 22 C       11.7150    -0.1670     1.4520 C.ar  1 <1>  -0.1500 
 23 C       12.4580    -0.3230     0.2930 C.ar  1 <1>  -0.1440 
 24 C       12.6880    -0.0660    -2.2260 C.3   1 <1>  -0.0970 
 25 C       13.8520    -0.9290     0.3810 C.3   1 <1>  -0.0970 
 26 H        3.1240    -2.1290     1.9420 H     1 <1>   0.0800 
 27 H        2.0080     1.4790    -0.6390 H     1 <1>   0.0800 
 28 H        3.0010     0.8850    -1.9370 H     1 <1>   0.0800 
 29 H        4.6140    -1.0970    -1.4240 H     1 <1>   0.0800 
 30 H        4.6470    -1.7260     0.1940 H     1 <1>   0.0800 
 31 H        0.4370    -2.0690     2.3250 H     1 <1>   0.0800 
 32 H        1.4060    -3.4770     2.6960 H     1 <1>   0.0800 
 33 H        3.9570     2.2840     0.5650 H     1 <1>   0.0800 
 34 H        3.9550     2.9320    -1.0530 H     1 <1>   0.0800 
 35 H        6.5460    -0.2460    -0.2720 H     1 <1>   0.0800 
 36 H        5.5740     0.3400     1.0570 H     1 <1>   0.0800 
 37 H        1.7250    -4.8090    -0.4880 H     1 <1>   0.0800 
 38 H        1.2990    -3.2280    -1.1470 H     1 <1>   0.0800 
 39 H       -0.3960    -3.0760     0.3680 H     1 <1>   0.0800 
 40 H        0.0800    -4.5740     1.1450 H     1 <1>   0.0800 
 41 H        6.4060     2.7460     0.6560 H     1 <1>   0.0800 
 42 H        6.2610     3.3810    -0.9480 H     1 <1>   0.0800 
 43 H        8.0580     1.1000     1.0430 H     1 <1>   0.3700 
 44 H       10.2250     0.9300    -1.8970 H     1 <1>   0.1500 
 45 H        9.8920     0.4940     2.3190 H     1 <1>   0.1500 
 46 H       12.1220    -0.4730     2.4000 H     1 <1>   0.1500 
 47 H       12.1130     0.3010    -3.0570 H     1 <1>   0.0800 
 48 H       12.9180    -1.1000    -2.4050 H     1 <1>   0.0800 
 49 H       13.6020     0.4960    -2.1760 H     1 <1>   0.0800 
 50 H       14.5810    -0.2270     0.0200 H     1 <1>   0.0800 
 51 H       13.9020    -1.8240    -0.2110 H     1 <1>   0.0800 
 52 H       14.1010    -1.1810     1.3960 H     1 <1>   0.0800 
@<TRIPOS>BOND
  1   1   2  2   
  2   2   3  am  
  3   2   4  1   
  4   3   5  1   
  5   3   6  1   
  6   4   7  1   
  7   4   8  1   
  8   4  26  1   
  9   5   9  1   
 10   5  27  1   
 11   5  28  1   
 12   6  10  1   
 13   6  29  1   
 14   6  30  1   
 15   7  11  1   
 16   8  12  1   
 17   8  31  1   
 18   8  32  1   
 19   9  13  1   
 20   9  33  1   
 21   9  34  1   
 22  10  13  1   
 23  10  35  1   
 24  10  36  1   
 25  11  12  1   
 26  11  37  1   
 27  11  38  1   
 28  12  39  1   
 29  12  40  1   
 30  13  14  1   
 31  14  15  1   
 32  14  41  1   
 33  14  42  1   
 34  15  16  2   
 35  15  17  am  
 36  17  18  1   
 37  17  43  1   
 38  18  19  ar  
 39  18  20  ar  
 40  19  21  ar  
 41  19  44  1   
 42  20  22  ar  
 43  20  45  1   
 44  21  23  ar  
 45  21  24  1   
 46  22  23  ar  
 47  22  46  1   
 48  23  25  1   
 49  24  47  1   
 50  24  48  1   
 51  24  49  1   
 52  25  50  1   
 53  25  51  1   
 54  25  52  1   
@<TRIPOS>SUBSTRUCTURE
  1 ****  10 GROUP 4 **** **** 0

# MOE 2024.06 (io_trps.svl 2023.06)
