@<TRIPOS>MOLECULE
NONAME
43 45 1 0 0 
SMALL
USER_CHARGES


@<TRIPOS>ATOM
  1 S       -0.3720    -0.4890     0.2620 S.3   1 <1>  -0.0800 
  2 C        0.6500     0.9020    -0.1360 C.2   1 <1>   0.1040 
  3 C       -1.8090     0.4740     0.0160 C.2   1 <1>  -0.1400 
  4 N        2.0320     0.7780    -0.1800 N.am  1 <1>  -0.4940 
  5 C       -0.1110     2.0120    -0.4060 C.2   1 <1>  -0.0860 
  6 C       -1.5140     1.7160    -0.3210 C.2   1 <1>  -0.1810 
  7 C       -3.2580     0.1250     0.1150 C.3   1 <1>   0.0200 
  8 C        2.9160    -0.1670     0.2960 C.2   1 <1>   0.5440 
  9 C        0.3900     3.3190    -0.7370 C.2   1 <1>   0.7160 
 10 C       -2.7710     2.5170    -0.5390 C.3   1 <1>   0.0210 
 11 C       -3.9030     1.4900    -0.2410 C.3   1 <1>  -0.1600 
 12 O        2.5160    -1.1040     0.9550 O.2   1 <1>  -0.5700 
 13 C        4.3350    -0.0180     0.0180 C.ar  1 <1>   0.0860 
 14 O       -0.1280     3.9650    -1.6320 O.2   1 <1>  -0.5700 
 15 N        1.4690     3.8740    -0.0640 N.am  1 <1>  -0.6600 
 16 C        4.9190     1.2230    -0.2600 C.ar  1 <1>  -0.1500 
 17 C        5.1780    -1.1300     0.0200 C.ar  1 <1>  -0.1500 
 18 C        1.7440     3.5780     1.3730 C.3   1 <1>   0.0600 
 19 C        2.1480     5.0950    -0.5800 C.3   1 <1>   0.0600 
 20 C        6.2700     1.3490    -0.5350 C.ar  1 <1>  -0.1430 
 21 C        6.5290    -1.0160    -0.2490 C.ar  1 <1>  -0.1500 
 22 C        7.0750     0.2230    -0.5290 C.ar  1 <1>  -0.1500 
 23 C        6.8790     2.7070    -0.8360 C.3   1 <1>  -0.0970 
 24 H        2.4880     1.5620    -0.6430 H     1 <1>   0.3700 
 25 H       -3.5080    -0.1900     1.1130 H     1 <1>   0.0800 
 26 H       -3.5140    -0.6380    -0.5990 H     1 <1>   0.0800 
 27 H       -2.8170     2.8680    -1.5550 H     1 <1>   0.0800 
 28 H       -2.8090     3.3520     0.1370 H     1 <1>   0.0800 
 29 H       -4.5010     1.8370     0.5830 H     1 <1>   0.0800 
 30 H       -4.5360     1.3840    -1.1040 H     1 <1>   0.0800 
 31 H        4.3150     2.1110    -0.2540 H     1 <1>   0.1500 
 32 H        4.7620    -2.0990     0.2390 H     1 <1>   0.1500 
 33 H        1.0350     2.8690     1.7660 H     1 <1>   0.0800 
 34 H        1.6710     4.4820     1.9520 H     1 <1>   0.0800 
 35 H        2.7350     3.1720     1.4810 H     1 <1>   0.0800 
 36 H        1.6980     5.9710    -0.1460 H     1 <1>   0.0800 
 37 H        2.0520     5.1530    -1.6510 H     1 <1>   0.0800 
 38 H        3.1940     5.0700    -0.3300 H     1 <1>   0.0800 
 39 H        7.1560    -1.8910    -0.2410 H     1 <1>   0.1500 
 40 H        8.1280     0.3050    -0.7380 H     1 <1>   0.1500 
 41 H        6.1240     3.4050    -1.1510 H     1 <1>   0.0800 
 42 H        7.6080     2.6220    -1.6220 H     1 <1>   0.0800 
 43 H        7.3620     3.0930     0.0440 H     1 <1>   0.0800 
@<TRIPOS>BOND
  1   1   2  1   
  2   1   3  1   
  3   2   4  1   
  4   2   5  2   
  5   3   6  2   
  6   3   7  1   
  7   4   8  am  
  8   4  24  1   
  9   5   6  1   
 10   5   9  1   
 11   6  10  1   
 12   7  11  1   
 13   7  25  1   
 14   7  26  1   
 15   8  12  2   
 16   8  13  1   
 17   9  14  2   
 18   9  15  am  
 19  10  11  1   
 20  10  27  1   
 21  10  28  1   
 22  11  29  1   
 23  11  30  1   
 24  13  16  ar  
 25  13  17  ar  
 26  15  18  1   
 27  15  19  1   
 28  16  20  ar  
 29  16  31  1   
 30  17  21  ar  
 31  17  32  1   
 32  18  33  1   
 33  18  34  1   
 34  18  35  1   
 35  19  36  1   
 36  19  37  1   
 37  19  38  1   
 38  20  22  ar  
 39  20  23  1   
 40  21  22  ar  
 41  21  39  1   
 42  22  40  1   
 43  23  41  1   
 44  23  42  1   
 45  23  43  1   
@<TRIPOS>SUBSTRUCTURE
  1 ****   4 GROUP 4 **** **** 0

# MOE 2024.06 (io_trps.svl 2023.06)
