@<TRIPOS>MOLECULE
NONAME
49 51 1 0 0 
SMALL
USER_CHARGES


@<TRIPOS>ATOM
  1 S       -0.0510    -0.2830    -1.8220 S.o2  1 <1>   1.4470 
  2 O       -1.0570    -1.2680    -2.1570 O.2   1 <1>  -0.6500 
  3 O        0.5440     0.4980    -2.8840 O.2   1 <1>  -0.6500 
  4 N       -0.7950     0.8270    -0.7750 N.am  1 <1>  -0.8490 
  5 C        1.2990    -1.0170    -0.8250 C.ar  1 <1>  -0.0090 
  6 C        0.0460     1.9680    -0.3800 C.3   1 <1>   0.1960 
  7 C       -1.4600     0.2220     0.3840 C.3   1 <1>   0.1960 
  8 C        1.2220    -2.2300    -0.1300 C.ar  1 <1>  -0.1440 
  9 C        2.4860    -0.3010    -0.7260 C.ar  1 <1>  -0.1500 
 10 C       -0.7500     2.9680     0.4750 C.3   1 <1>   0.1200 
 11 C       -2.2000     1.2880     1.2130 C.3   1 <1>   0.1200 
 12 C        2.2960    -2.6600     0.6360 C.ar  1 <1>  -0.1500 
 13 C       -0.0040    -3.1370    -0.1780 C.3   1 <1>  -0.0960 
 14 C        3.5760    -0.7090     0.0370 C.ar  1 <1>   0.0860 
 15 O       -1.3280     2.3210     1.5750 O.3   1 <1>  -0.5600 
 16 C        3.4510    -1.9120     0.7240 C.ar  1 <1>  -0.1500 
 17 C        4.7730     0.1050     0.1110 C.2   1 <1>   0.5440 
 18 O        4.6800     1.3160     0.1000 O.2   1 <1>  -0.5700 
 19 N        6.0050    -0.5030     0.1660 N.am  1 <1>  -0.5470 
 20 C        7.2890     0.0360     0.3550 C.ar  1 <1>   0.1170 
 21 C        7.5150     1.2270     1.0360 C.ar  1 <1>  -0.1500 
 22 C        8.3870    -0.6610    -0.1380 C.ar  1 <1>  -0.1500 
 23 C        8.7990     1.7090     1.2140 C.ar  1 <1>  -0.1500 
 24 C        9.6740    -0.1850     0.0380 C.ar  1 <1>  -0.1500 
 25 C        9.8870     1.0100     0.7190 C.ar  1 <1>   0.0820 
 26 O       11.1150     1.5520     0.9380 O.3   1 <1>  -0.3620 
 27 C       12.2810     0.9340     0.4400 C.3   1 <1>   0.0400 
 28 H        0.4110     2.4720    -1.2590 H     1 <1>   0.0800 
 29 H        0.8930     1.6320     0.1930 H     1 <1>   0.0800 
 30 H       -0.7380    -0.2690     1.0140 H     1 <1>   0.0800 
 31 H       -2.1740    -0.5110     0.0480 H     1 <1>   0.0800 
 32 H        2.5810     0.6270    -1.2680 H     1 <1>   0.1500 
 33 H       -1.5310     3.4250    -0.1080 H     1 <1>   0.0800 
 34 H       -0.1000     3.7380     0.8500 H     1 <1>   0.0800 
 35 H       -2.5900     0.8540     2.1160 H     1 <1>   0.0800 
 36 H       -3.0150     1.7050     0.6470 H     1 <1>   0.0800 
 37 H        2.2380    -3.5910     1.1760 H     1 <1>   0.1500 
 38 H       -0.8860    -2.6080     0.1300 H     1 <1>   0.0800 
 39 H        0.1110    -3.9870     0.4700 H     1 <1>   0.0800 
 40 H       -0.1510    -3.5040    -1.1780 H     1 <1>   0.0800 
 41 H        4.2600    -2.2630     1.3430 H     1 <1>   0.1500 
 42 H        5.9930    -1.4980    -0.0420 H     1 <1>   0.3700 
 43 H        6.6860     1.7850     1.4330 H     1 <1>   0.1500 
 44 H        8.2380    -1.5830    -0.6690 H     1 <1>   0.1500 
 45 H        8.9640     2.6320     1.7400 H     1 <1>   0.1500 
 46 H       10.4940    -0.7520    -0.3600 H     1 <1>   0.1500 
 47 H       13.1230     1.5410     0.7180 H     1 <1>   0.0800 
 48 H       12.2120     0.8730    -0.6320 H     1 <1>   0.0800 
 49 H       12.3730    -0.0430     0.8790 H     1 <1>   0.0800 
@<TRIPOS>BOND
  1   1   2  2   
  2   1   3  2   
  3   1   4  am  
  4   1   5  1   
  5   4   6  1   
  6   4   7  1   
  7   5   8  ar  
  8   5   9  ar  
  9   6  10  1   
 10   6  28  1   
 11   6  29  1   
 12   7  11  1   
 13   7  30  1   
 14   7  31  1   
 15   8  12  ar  
 16   8  13  1   
 17   9  14  ar  
 18   9  32  1   
 19  10  15  1   
 20  10  33  1   
 21  10  34  1   
 22  11  15  1   
 23  11  35  1   
 24  11  36  1   
 25  12  16  ar  
 26  12  37  1   
 27  13  38  1   
 28  13  39  1   
 29  13  40  1   
 30  14  16  ar  
 31  14  17  1   
 32  16  41  1   
 33  17  18  2   
 34  17  19  am  
 35  19  20  1   
 36  19  42  1   
 37  20  21  ar  
 38  20  22  ar  
 39  21  23  ar  
 40  21  43  1   
 41  22  24  ar  
 42  22  44  1   
 43  23  25  ar  
 44  23  45  1   
 45  24  25  ar  
 46  24  46  1   
 47  25  26  1   
 48  26  27  1   
 49  27  47  1   
 50  27  48  1   
 51  27  49  1   
@<TRIPOS>SUBSTRUCTURE
  1 ****  14 GROUP 4 **** **** 0

# MOE 2024.06 (io_trps.svl 2023.06)
