@<TRIPOS>MOLECULE
NONAME
33 36 1 0 0 
SMALL
USER_CHARGES


@<TRIPOS>ATOM
  1 O        1.3060     0.5170    -0.6640 O.2   1 <1>  -0.5700 
  2 C        2.0820    -0.2230    -0.1060 C.2   1 <1>   0.5940 
  3 C        3.2900     0.2600     0.5060 C.2   1 <1>   0.0550 
  4 C        1.7180    -1.7060    -0.0800 C.3   1 <1>   0.0610 
  5 O        4.1430    -0.5550     1.1200 O.3   1 <1>  -0.2800 
  6 C        3.7830     1.5290     0.5880 C.2   1 <1>  -0.1500 
  7 C        0.3840    -1.9320    -0.8040 C.3   1 <1>   0.3430 
  8 C        1.5290    -2.2480     1.3460 C.3   1 <1>   0.1100 
  9 C        2.7520    -2.5850    -0.8010 C.3   1 <1>   0.1100 
 10 C        5.1500     0.1480     1.5840 C.2   1 <1>  -0.0100 
 11 C        4.9880     1.4540     1.2860 C.2   1 <1>  -0.1500 
 12 N        0.0250    -3.3890    -0.7800 N.4   1 <1>  -0.9590 
 13 N        1.1410    -3.6710     1.2620 N.3   1 <1>  -0.8100 
 14 N        2.2910    -3.9890    -0.7560 N.3   1 <1>  -0.8100 
 15 C       -0.1310    -3.8730     0.6030 C.3   1 <1>   0.6130 
 16 C        1.0470    -4.1980    -1.4650 C.3   1 <1>   0.6130 
 17 C        2.1820    -4.4660     0.6190 C.3   1 <1>   0.3800 
 18 H        3.3420     2.4300     0.1950 H     1 <1>   0.1500 
 19 H        0.4700    -1.5890    -1.8230 H     1 <1>   0.0800 
 20 H       -0.3860    -1.3520    -0.3210 H     1 <1>   0.0800 
 21 H        2.4420    -2.1680     1.9130 H     1 <1>   0.0800 
 22 H        0.7680    -1.6900     1.8690 H     1 <1>   0.0800 
 23 H        3.7150    -2.5190    -0.3220 H     1 <1>   0.0800 
 24 H        2.8720    -2.2720    -1.8250 H     1 <1>   0.0800 
 25 H        5.9440    -0.3510     2.1150 H     1 <1>   0.1500 
 26 H        5.6330     2.2830     1.5230 H     1 <1>   0.1500 
 27 H       -0.8640    -3.5270    -1.2640 H     1 <1>   0.4500 
 28 H       -0.3870    -4.9210     0.6170 H     1 <1>   0.0800 
 29 H       -0.9000    -3.3190     1.1190 H     1 <1>   0.0800 
 30 H        0.7870    -5.2450    -1.4430 H     1 <1>   0.0800 
 31 H        1.1580    -3.8870    -2.4920 H     1 <1>   0.0800 
 32 H        1.9270    -5.5140     0.6390 H     1 <1>   0.0800 
 33 H        3.1220    -4.3370     1.1340 H     1 <1>   0.0800 
@<TRIPOS>BOND
  1   1   2  2   
  2   2   3  1   
  3   2   4  1   
  4   3   5  1   
  5   3   6  2   
  6   4   7  1   
  7   4   8  1   
  8   4   9  1   
  9   5  10  1   
 10   6  11  1   
 11   6  18  1   
 12   7  12  1   
 13   7  19  1   
 14   7  20  1   
 15   8  13  1   
 16   8  21  1   
 17   8  22  1   
 18   9  14  1   
 19   9  23  1   
 20   9  24  1   
 21  10  11  2   
 22  10  25  1   
 23  11  26  1   
 24  12  15  1   
 25  12  16  1   
 26  12  27  1   
 27  13  15  1   
 28  13  17  1   
 29  14  16  1   
 30  14  17  1   
 31  15  28  1   
 32  15  29  1   
 33  16  30  1   
 34  16  31  1   
 35  17  32  1   
 36  17  33  1   
@<TRIPOS>SUBSTRUCTURE
  1 ****   4 GROUP 4 **** **** 0

# MOE 2024.06 (io_trps.svl 2023.06)
