@<TRIPOS>MOLECULE
NONAME
44 45 1 0 0 
SMALL
USER_CHARGES


@<TRIPOS>ATOM
  1 O       -0.2700     1.7210     1.4760 O.3   1 <1>  -0.6800 
  2 C       -1.2140     1.4590     0.5150 C.3   1 <1>   0.2000 
  3 C       -1.7060     2.8010    -0.0390 C.3   1 <1>  -0.1600 
  4 C       -2.3360     0.6660     1.1920 C.3   1 <1>  -0.1600 
  5 C       -2.9370     2.6250    -0.9430 C.3   1 <1>  -0.1600 
  6 C       -3.5620     0.5080     0.2780 C.3   1 <1>  -0.1600 
  7 C       -4.0550     1.8780    -0.2070 C.3   1 <1>   0.4230 
  8 N       -5.1980     1.7160    -1.1370 N.4   1 <1>  -0.9060 
  9 C       -6.4580     1.2080    -0.5380 C.3   1 <1>   0.4230 
 10 C       -7.4450     0.8900    -1.6610 C.3   1 <1>  -0.1600 
 11 C       -7.0610     2.2410     0.4200 C.3   1 <1>  -0.1600 
 12 C       -8.7890     0.4220    -1.0980 C.3   1 <1>   0.3430 
 13 C       -8.4120     1.7670     0.9620 C.3   1 <1>   0.3430 
 14 N       -9.3390     1.4470    -0.1650 N.4   1 <1>  -0.9590 
 15 C      -10.6720     1.0000     0.3390 C.3   1 <1>   0.3430 
 16 C      -11.4300     2.1890     0.9180 C.3   1 <1>  -0.2400 
 17 H        0.5200     2.1440     1.0870 H     1 <1>   0.4000 
 18 H       -0.7510     0.8690    -0.2600 H     1 <1>   0.0800 
 19 H       -0.9140     3.2680    -0.6000 H     1 <1>   0.0800 
 20 H       -1.9610     3.4490     0.7840 H     1 <1>   0.0800 
 21 H       -2.6280     1.1740     2.0960 H     1 <1>   0.0800 
 22 H       -1.9600    -0.3060     1.4650 H     1 <1>   0.0800 
 23 H       -2.6400     2.0780    -1.8220 H     1 <1>   0.0800 
 24 H       -3.2780     3.6000    -1.2440 H     1 <1>   0.0800 
 25 H       -4.3260     0.0020     0.8400 H     1 <1>   0.0800 
 26 H       -3.2840    -0.1070    -0.5610 H     1 <1>   0.0800 
 27 H       -4.3510     2.4690     0.6460 H     1 <1>   0.0800 
 28 H       -4.8840     1.0810    -1.8820 H     1 <1>   0.4500 
 29 H       -5.3610     2.6230    -1.5910 H     1 <1>   0.4500 
 30 H       -6.2550     0.2990     0.0070 H     1 <1>   0.0800 
 31 H       -7.0510     0.1030    -2.2800 H     1 <1>   0.0800 
 32 H       -7.6120     1.7540    -2.2820 H     1 <1>   0.0800 
 33 H       -7.1980     3.1870    -0.0730 H     1 <1>   0.0800 
 34 H       -6.4090     2.3910     1.2620 H     1 <1>   0.0800 
 35 H       -8.6590    -0.5130    -0.5750 H     1 <1>   0.0800 
 36 H       -9.4810     0.2550    -1.9100 H     1 <1>   0.0800 
 37 H       -8.8380     2.5410     1.5820 H     1 <1>   0.0800 
 38 H       -8.2730     0.8910     1.5770 H     1 <1>   0.0800 
 39 H       -9.5260     2.3110    -0.6980 H     1 <1>   0.4500 
 40 H      -10.5560     0.2320     1.0880 H     1 <1>   0.0800 
 41 H      -11.2510     0.5890    -0.4750 H     1 <1>   0.0800 
 42 H      -10.9530     2.5770     1.7990 H     1 <1>   0.0800 
 43 H      -12.4170     1.8670     1.2040 H     1 <1>   0.0800 
 44 H      -11.5420     2.9700     0.1880 H     1 <1>   0.0800 
@<TRIPOS>BOND
  1   1   2  1   
  2   1  17  1   
  3   2   3  1   
  4   2   4  1   
  5   2  18  1   
  6   3   5  1   
  7   3  19  1   
  8   3  20  1   
  9   4   6  1   
 10   4  21  1   
 11   4  22  1   
 12   5   7  1   
 13   5  23  1   
 14   5  24  1   
 15   6   7  1   
 16   6  25  1   
 17   6  26  1   
 18   7   8  1   
 19   7  27  1   
 20   8   9  1   
 21   8  28  1   
 22   8  29  1   
 23   9  10  1   
 24   9  11  1   
 25   9  30  1   
 26  10  12  1   
 27  10  31  1   
 28  10  32  1   
 29  11  13  1   
 30  11  33  1   
 31  11  34  1   
 32  12  14  1   
 33  12  35  1   
 34  12  36  1   
 35  13  14  1   
 36  13  37  1   
 37  13  38  1   
 38  14  15  1   
 39  14  39  1   
 40  15  16  1   
 41  15  40  1   
 42  15  41  1   
 43  16  42  1   
 44  16  43  1   
 45  16  44  1   
@<TRIPOS>SUBSTRUCTURE
  1 ****   9 GROUP 4 **** **** 0

# MOE 2024.06 (io_trps.svl 2023.06)
