@<TRIPOS>MOLECULE
NONAME
53 54 1 0 0 
SMALL
USER_CHARGES


@<TRIPOS>ATOM
  1 O        5.9080    -5.3860     1.8930 O.2   1 <1>  -0.5700 
  2 C        6.3130    -4.8570     0.8920 C.2   1 <1>   0.6590 
  3 O        7.5640    -4.9720     0.4770 O.3   1 <1>  -0.4300 
  4 C        5.4040    -4.0040     0.0230 C.3   1 <1>  -0.0190 
  5 C        8.5110    -5.7380     1.1870 C.3   1 <1>   0.1200 
  6 C        4.1280    -3.6490     0.8100 C.3   1 <1>   0.3430 
  7 C        5.0780    -4.6880    -1.3200 C.3   1 <1>  -0.1600 
  8 C        9.8370    -5.6630     0.4370 C.3   1 <1>  -0.2400 
  9 N        2.9090    -3.5190    -0.0640 N.4   1 <1>  -0.9590 
 10 C        4.1520    -3.8050    -2.1800 C.3   1 <1>  -0.1600 
 11 C        3.2310    -2.8790    -1.3730 C.3   1 <1>   0.3430 
 12 C        1.8070    -2.8390     0.6730 C.3   1 <1>   0.3430 
 13 C        0.4730    -3.0820    -0.0270 C.3   1 <1>  -0.1600 
 14 C       -0.6780    -2.4930     0.7860 C.3   1 <1>   0.1200 
 15 O       -1.8580    -2.7490     0.0720 O.3   1 <1>  -0.3630 
 16 C       -3.0780    -2.3410     0.5170 C.ar  1 <1>   0.0830 
 17 C       -4.1960    -2.6230    -0.2720 C.ar  1 <1>  -0.1430 
 18 C       -3.2340    -1.6570     1.7200 C.ar  1 <1>  -0.1500 
 19 C       -5.4560    -2.2000     0.1460 C.ar  1 <1>  -0.1430 
 20 C       -4.0430    -3.3820    -1.5910 C.3   1 <1>  -0.0970 
 21 C       -4.4880    -1.2500     2.1310 C.ar  1 <1>  -0.1500 
 22 C       -5.5910    -1.5200     1.3460 C.ar  1 <1>  -0.1500 
 23 C       -6.7100    -2.4580    -0.6790 C.3   1 <1>  -0.0970 
 24 H        5.9360    -3.0920    -0.1770 H     1 <1>   0.0800 
 25 H        8.1560    -6.7540     1.2440 H     1 <1>   0.0800 
 26 H        8.6050    -5.3330     2.1810 H     1 <1>   0.0800 
 27 H        4.3020    -2.7280     1.3430 H     1 <1>   0.0800 
 28 H        3.9360    -4.4140     1.5460 H     1 <1>   0.0800 
 29 H        4.5960    -5.6320    -1.1240 H     1 <1>   0.0800 
 30 H        5.9860    -4.8980    -1.8620 H     1 <1>   0.0800 
 31 H        9.7270    -6.0630    -0.5550 H     1 <1>   0.0800 
 32 H       10.5790    -6.2410     0.9580 H     1 <1>   0.0800 
 33 H       10.1760    -4.6450     0.3810 H     1 <1>   0.0800 
 34 H        2.5950    -4.4760    -0.2780 H     1 <1>   0.4500 
 35 H        3.5560    -4.4340    -2.8180 H     1 <1>   0.0800 
 36 H        4.7500    -3.1880    -2.8290 H     1 <1>   0.0800 
 37 H        3.7280    -1.9380    -1.1970 H     1 <1>   0.0800 
 38 H        2.3350    -2.6860    -1.9400 H     1 <1>   0.0800 
 39 H        2.0030    -1.7800     0.7400 H     1 <1>   0.0800 
 40 H        1.7480    -3.2350     1.6740 H     1 <1>   0.0800 
 41 H        0.3050    -4.1390    -0.1330 H     1 <1>   0.0800 
 42 H        0.4670    -2.6170    -0.9960 H     1 <1>   0.0800 
 43 H       -0.5760    -1.4260     0.8950 H     1 <1>   0.0800 
 44 H       -0.7600    -2.9660     1.7500 H     1 <1>   0.0800 
 45 H       -2.4010    -1.4280     2.3540 H     1 <1>   0.1500 
 46 H       -3.1140    -3.9170    -1.6420 H     1 <1>   0.0800 
 47 H       -4.0830    -2.6900    -2.4120 H     1 <1>   0.0800 
 48 H       -4.8290    -4.1060    -1.7050 H     1 <1>   0.0800 
 49 H       -4.6070    -0.7220     3.0610 H     1 <1>   0.1500 
 50 H       -6.5610    -1.1930     1.6790 H     1 <1>   0.1500 
 51 H       -6.5610    -2.1360    -1.6940 H     1 <1>   0.0800 
 52 H       -7.5520    -1.9220    -0.2810 H     1 <1>   0.0800 
 53 H       -6.9430    -3.5070    -0.6720 H     1 <1>   0.0800 
@<TRIPOS>BOND
  1   1   2  2   
  2   2   3  1   
  3   2   4  1   
  4   3   5  1   
  5   4   6  1   
  6   4   7  1   
  7   4  24  1   
  8   5   8  1   
  9   5  25  1   
 10   5  26  1   
 11   6   9  1   
 12   6  27  1   
 13   6  28  1   
 14   7  10  1   
 15   7  29  1   
 16   7  30  1   
 17   8  31  1   
 18   8  32  1   
 19   8  33  1   
 20   9  11  1   
 21   9  12  1   
 22   9  34  1   
 23  10  11  1   
 24  10  35  1   
 25  10  36  1   
 26  11  37  1   
 27  11  38  1   
 28  12  13  1   
 29  12  39  1   
 30  12  40  1   
 31  13  14  1   
 32  13  41  1   
 33  13  42  1   
 34  14  15  1   
 35  14  43  1   
 36  14  44  1   
 37  15  16  1   
 38  16  17  ar  
 39  16  18  ar  
 40  17  19  ar  
 41  17  20  1   
 42  18  21  ar  
 43  18  45  1   
 44  19  22  ar  
 45  19  23  1   
 46  20  46  1   
 47  20  47  1   
 48  20  48  1   
 49  21  22  ar  
 50  21  49  1   
 51  22  50  1   
 52  23  51  1   
 53  23  52  1   
 54  23  53  1   
@<TRIPOS>SUBSTRUCTURE
  1 ****  13 GROUP 4 **** **** 0

# MOE 2024.06 (io_trps.svl 2023.06)
