@<TRIPOS>MOLECULE
NONAME
34 37 1 0 0 
SMALL
USER_CHARGES


@<TRIPOS>ATOM
  1 O       -0.5930    -2.0770     3.3740 O.2   1 <1>  -0.5700 
  2 C       -0.6350    -2.2800     2.1930 C.2   1 <1>   0.6590 
  3 O       -1.7370    -2.5310     1.5180 O.3   1 <1>  -0.4300 
  4 C        0.5510    -2.2690     1.2630 C.3   1 <1>  -0.0190 
  5 C       -1.4760    -2.6770     0.1440 C.3   1 <1>   0.2000 
  6 C        1.0640    -3.7200     1.0500 C.3   1 <1>  -0.0190 
  7 C       -0.1370    -1.9510    -0.0740 C.3   1 <1>  -0.0800 
  8 C       -1.1100    -4.1470    -0.1480 C.3   1 <1>  -0.1600 
  9 C        2.5830    -3.8970     1.0450 C.2   1 <1>   0.5690 
 10 C        0.4260    -4.1000    -0.3080 C.3   1 <1>  -0.0800 
 11 C        0.5800    -2.8130    -1.1000 C.3   1 <1>  -0.1600 
 12 O        3.0090    -4.9820     1.3530 O.2   1 <1>  -0.5700 
 13 N        3.3940    -2.8480     0.6940 N.am  1 <1>  -0.5470 
 14 C        4.7890    -2.7570     0.5720 C.ar  1 <1>   0.1170 
 15 C        5.6110    -3.8620     0.3710 C.ar  1 <1>  -0.1500 
 16 C        5.3800    -1.4990     0.6330 C.ar  1 <1>  -0.1500 
 17 C        6.9810    -3.7140     0.2390 C.ar  1 <1>  -0.1500 
 18 C        6.7480    -1.3470     0.5000 C.ar  1 <1>  -0.1500 
 19 C        7.5520    -2.4560     0.3030 C.ar  1 <1>  -0.1500 
 20 H        1.2880    -1.5530     1.5730 H     1 <1>   0.0800 
 21 H       -2.3010    -2.3050    -0.4400 H     1 <1>   0.0800 
 22 H        0.6840    -4.3700     1.8220 H     1 <1>   0.0800 
 23 H       -0.2400    -0.9060    -0.3110 H     1 <1>   0.0800 
 24 H       -1.5590    -4.4550    -1.0760 H     1 <1>   0.0800 
 25 H       -1.4280    -4.8160     0.6340 H     1 <1>   0.0800 
 26 H        0.8490    -4.9790    -0.7670 H     1 <1>   0.0800 
 27 H        1.6030    -2.5240    -1.2610 H     1 <1>   0.0800 
 28 H        0.0630    -2.8450    -2.0450 H     1 <1>   0.0800 
 29 H        2.9090    -1.9760     0.5040 H     1 <1>   0.3700 
 30 H        5.1870    -4.8470     0.3130 H     1 <1>   0.1500 
 31 H        4.7690    -0.6290     0.7890 H     1 <1>   0.1500 
 32 H        7.6010    -4.5800     0.0870 H     1 <1>   0.1500 
 33 H        7.1910    -0.3670     0.5520 H     1 <1>   0.1500 
 34 H        8.6170    -2.3410     0.2010 H     1 <1>   0.1500 
@<TRIPOS>BOND
  1   1   2  2   
  2   2   3  1   
  3   2   4  1   
  4   3   5  1   
  5   4   6  1   
  6   4   7  1   
  7   4  20  1   
  8   5   7  1   
  9   5   8  1   
 10   5  21  1   
 11   6   9  1   
 12   6  10  1   
 13   6  22  1   
 14   7  11  1   
 15   7  23  1   
 16   8  10  1   
 17   8  24  1   
 18   8  25  1   
 19   9  12  2   
 20   9  13  am  
 21  10  11  1   
 22  10  26  1   
 23  11  27  1   
 24  11  28  1   
 25  13  14  1   
 26  13  29  1   
 27  14  15  ar  
 28  14  16  ar  
 29  15  17  ar  
 30  15  30  1   
 31  16  18  ar  
 32  16  31  1   
 33  17  19  ar  
 34  17  32  1   
 35  18  19  ar  
 36  18  33  1   
 37  19  34  1   
@<TRIPOS>SUBSTRUCTURE
  1 ****   9 GROUP 4 **** **** 0

# MOE 2024.06 (io_trps.svl 2023.06)
