@<TRIPOS>MOLECULE
NONAME
37 37 1 0 0 
SMALL
USER_CHARGES


@<TRIPOS>ATOM
  1 O       -8.1740     2.7990    -0.0160 O.3   1 <1>  -0.3630 
  2 C       -6.9760     2.2360    -0.3150 C.ar  1 <1>   0.0830 
  3 C       -9.3810     2.1260    -0.2660 C.3   1 <1>   0.1200 
  4 C       -5.8480     2.9880    -0.0270 C.ar  1 <1>  -0.1500 
  5 C       -6.8320     0.9730    -0.8830 C.ar  1 <1>  -0.1500 
  6 C      -10.5090     3.0520     0.1920 C.3   1 <1>   0.3430 
  7 C       -4.5770     2.5030    -0.2950 C.ar  1 <1>  -0.1440 
  8 C       -5.5680     0.4830    -1.1530 C.ar  1 <1>  -0.1500 
  9 N      -11.8560     2.4410    -0.0260 N.4   1 <1>  -0.9060 
 10 C       -4.4480     1.2430    -0.8610 C.ar  1 <1>  -0.1500 
 11 C       -3.3520     3.3540     0.0330 C.3   1 <1>   0.0630 
 12 C      -12.9460     3.3360     0.4180 C.3   1 <1>   0.3430 
 13 C       -2.5570     3.6820    -1.2350 C.3   1 <1>  -0.2400 
 14 C       -2.4630     2.6580     1.0680 C.3   1 <1>  -0.2400 
 15 C      -14.2700     2.6330     0.1580 C.3   1 <1>  -0.2400 
 16 H       -9.3740     1.2100     0.2990 H     1 <1>   0.0800 
 17 H       -9.4400     1.9320    -1.3230 H     1 <1>   0.0800 
 18 H       -5.9750     3.9610     0.4110 H     1 <1>   0.1500 
 19 H       -7.6760     0.3570    -1.1220 H     1 <1>   0.1500 
 20 H      -10.4380     3.9770    -0.3570 H     1 <1>   0.0800 
 21 H      -10.3730     3.2650     1.2400 H     1 <1>   0.0800 
 22 H       -5.4480    -0.4930    -1.5920 H     1 <1>   0.1500 
 23 H      -11.9290     1.5530     0.4880 H     1 <1>   0.4500 
 24 H      -11.9910     2.2260    -1.0220 H     1 <1>   0.4500 
 25 H       -3.4730     0.8450    -1.0780 H     1 <1>   0.1500 
 26 H       -3.6830     4.2860     0.4610 H     1 <1>   0.0800 
 27 H      -12.9130     4.2660    -0.1300 H     1 <1>   0.0800 
 28 H      -12.8480     3.5530     1.4700 H     1 <1>   0.0800 
 29 H       -2.1570     2.7880    -1.6790 H     1 <1>   0.0800 
 30 H       -1.7430     4.3450    -1.0040 H     1 <1>   0.0800 
 31 H       -3.1980     4.1630    -1.9520 H     1 <1>   0.0800 
 32 H       -2.0610     1.7420     0.6740 H     1 <1>   0.0800 
 33 H       -3.0380     2.4290     1.9480 H     1 <1>   0.0800 
 34 H       -1.6470     3.2980     1.3500 H     1 <1>   0.0800 
 35 H      -14.4030     2.4320    -0.8910 H     1 <1>   0.0800 
 36 H      -15.0770     3.2710     0.4750 H     1 <1>   0.0800 
 37 H      -14.3370     1.7160     0.7160 H     1 <1>   0.0800 
@<TRIPOS>BOND
  1   1   2  1   
  2   1   3  1   
  3   2   4  ar  
  4   2   5  ar  
  5   3   6  1   
  6   3  16  1   
  7   3  17  1   
  8   4   7  ar  
  9   4  18  1   
 10   5   8  ar  
 11   5  19  1   
 12   6   9  1   
 13   6  20  1   
 14   6  21  1   
 15   7  10  ar  
 16   7  11  1   
 17   8  10  ar  
 18   8  22  1   
 19   9  12  1   
 20   9  23  1   
 21   9  24  1   
 22  10  25  1   
 23  11  13  1   
 24  11  14  1   
 25  11  26  1   
 26  12  15  1   
 27  12  27  1   
 28  12  28  1   
 29  13  29  1   
 30  13  30  1   
 31  13  31  1   
 32  14  32  1   
 33  14  33  1   
 34  14  34  1   
 35  15  35  1   
 36  15  36  1   
 37  15  37  1   
@<TRIPOS>SUBSTRUCTURE
  1 ****   2 GROUP 4 **** **** 0

# MOE 2024.06 (io_trps.svl 2023.06)
