@<TRIPOS>MOLECULE
NONAME
44 45 1 0 0 
SMALL
USER_CHARGES


@<TRIPOS>ATOM
  1 BR       0.1260    -1.1110     1.0130 Br    1 <1>  -0.1110 
  2 C        1.9140    -1.4410     0.3670 C.ar  1 <1>   0.1110 
  3 C        2.8220    -2.1260     1.1620 C.ar  1 <1>  -0.1440 
  4 C        2.2330    -0.9740    -0.8940 C.ar  1 <1>  -0.1500 
  5 C        4.0930    -2.3360     0.6510 C.ar  1 <1>  -0.1500 
  6 C        2.4510    -2.6350     2.5460 C.3   1 <1>  -0.0960 
  7 C        3.5070    -1.1940    -1.3880 C.ar  1 <1>  -0.1500 
  8 C        4.4430    -1.8750    -0.6110 C.ar  1 <1>   0.0830 
  9 O        5.7130    -2.1260    -1.0130 O.3   1 <1>  -0.3630 
 10 C        6.2270    -1.5740    -2.2170 C.3   1 <1>   0.1810 
 11 C        7.7060    -1.9060    -2.4020 C.2   1 <1>   0.5690 
 12 O        8.0150    -2.4560    -3.4340 O.2   1 <1>  -0.5700 
 13 N        8.6540    -1.5700    -1.4620 N.am  1 <1>  -0.6600 
 14 C       10.0850    -1.9810    -1.6200 C.3   1 <1>   0.1400 
 15 C        8.3780    -0.8430    -0.1800 C.3   1 <1>   0.1400 
 16 C       11.0310    -0.7840    -1.4480 C.3   1 <1>   0.1400 
 17 C        9.3310     0.3490     0.0030 C.3   1 <1>   0.1400 
 18 N       10.7520    -0.0720    -0.1650 N.am  1 <1>  -0.6600 
 19 C       11.6790     0.0960     0.8280 C.2   1 <1>   0.7800 
 20 O       11.4120     0.6300     1.8880 O.2   1 <1>  -0.5700 
 21 O       12.9150    -0.3550     0.6070 O.3   1 <1>  -0.4300 
 22 C       13.9190    -0.2160     1.5850 C.3   1 <1>   0.1200 
 23 C       15.2030    -0.8290     1.0350 C.3   1 <1>  -0.2400 
 24 H        1.4950    -0.4520    -1.4760 H     1 <1>   0.1500 
 25 H        4.8320    -2.8640     1.2270 H     1 <1>   0.1500 
 26 H        2.1480    -1.8150     3.1720 H     1 <1>   0.0800 
 27 H        3.2850    -3.1280     3.0110 H     1 <1>   0.0800 
 28 H        1.6380    -3.3360     2.4730 H     1 <1>   0.0800 
 29 H        3.7440    -0.8330    -2.3710 H     1 <1>   0.1500 
 30 H        6.1020    -0.5080    -2.1870 H     1 <1>   0.0800 
 31 H        5.6670    -1.9850    -3.0370 H     1 <1>   0.0800 
 32 H       10.2500    -2.4200    -2.5890 H     1 <1>   0.0800 
 33 H       10.3190    -2.7260    -0.8800 H     1 <1>   0.0800 
 34 H        8.5070    -1.5250     0.6430 H     1 <1>   0.0800 
 35 H        7.3680    -0.4800    -0.1480 H     1 <1>   0.0800 
 36 H       10.8900    -0.1020    -2.2680 H     1 <1>   0.0800 
 37 H       12.0480    -1.1310    -1.4820 H     1 <1>   0.0800 
 38 H        9.1760     0.7790     0.9770 H     1 <1>   0.0800 
 39 H        9.1010     1.1040    -0.7280 H     1 <1>   0.0800 
 40 H       13.5980    -0.7250     2.4780 H     1 <1>   0.0800 
 41 H       14.0490     0.8330     1.7940 H     1 <1>   0.0800 
 42 H       15.0540    -1.8720     0.8220 H     1 <1>   0.0800 
 43 H       15.9890    -0.7360     1.7620 H     1 <1>   0.0800 
 44 H       15.5030    -0.3160     0.1390 H     1 <1>   0.0800 
@<TRIPOS>BOND
  1   1   2  1   
  2   2   3  ar  
  3   2   4  ar  
  4   3   5  ar  
  5   3   6  1   
  6   4   7  ar  
  7   4  24  1   
  8   5   8  ar  
  9   5  25  1   
 10   6  26  1   
 11   6  27  1   
 12   6  28  1   
 13   7   8  ar  
 14   7  29  1   
 15   8   9  1   
 16   9  10  1   
 17  10  11  1   
 18  10  30  1   
 19  10  31  1   
 20  11  12  2   
 21  11  13  am  
 22  13  14  1   
 23  13  15  1   
 24  14  16  1   
 25  14  32  1   
 26  14  33  1   
 27  15  17  1   
 28  15  34  1   
 29  15  35  1   
 30  16  18  1   
 31  16  36  1   
 32  16  37  1   
 33  17  18  1   
 34  17  38  1   
 35  17  39  1   
 36  18  19  am  
 37  19  20  2   
 38  19  21  1   
 39  21  22  1   
 40  22  23  1   
 41  22  40  1   
 42  22  41  1   
 43  23  42  1   
 44  23  43  1   
 45  23  44  1   
@<TRIPOS>SUBSTRUCTURE
  1 ****  15 GROUP 4 **** **** 0

# MOE 2024.06 (io_trps.svl 2023.06)
