@<TRIPOS>MOLECULE
NONAME
48 49 1 0 0 
SMALL
USER_CHARGES


@<TRIPOS>ATOM
  1 O        2.7080    -4.5290    -1.9060 O.2   1 <1>  -0.5700 
  2 C        3.2080    -5.1170    -0.9820 C.2   1 <1>   0.6590 
  3 O        4.4060    -5.6770    -1.0550 O.3   1 <1>  -0.4300 
  4 C        2.4830    -5.2630     0.3530 C.3   1 <1>  -0.0190 
  5 C        5.1750    -5.6170    -2.2340 C.3   1 <1>   0.1200 
  6 C        1.2230    -6.1340     0.1900 C.3   1 <1>  -0.1600 
  7 C        2.1240    -3.8820     0.9350 C.3   1 <1>  -0.1600 
  8 C        6.4850    -6.3570    -1.9820 C.3   1 <1>  -0.2400 
  9 C        0.3590    -6.1700     1.4500 C.3   1 <1>   0.3430 
 10 C        1.2580    -3.9830     2.1870 C.3   1 <1>   0.3430 
 11 N        0.0420    -4.7830     1.8930 N.4   1 <1>  -0.9590 
 12 C       -0.9250    -4.7450     3.0340 C.3   1 <1>   0.3430 
 13 C       -2.3470    -5.1220     2.5960 C.3   1 <1>   0.1200 
 14 O       -2.6740    -4.3830     1.4360 O.3   1 <1>  -0.3630 
 15 C       -2.7570    -5.0450     0.2540 C.ar  1 <1>   0.0820 
 16 C       -1.9210    -4.6780    -0.8010 C.ar  1 <1>   0.0820 
 17 C       -3.6770    -6.0720     0.0960 C.ar  1 <1>  -0.1500 
 18 O       -1.0330    -3.6630    -0.5980 O.3   1 <1>  -0.3620 
 19 C       -2.0060    -5.3700    -2.0050 C.ar  1 <1>  -0.1500 
 20 C       -3.7520    -6.7530    -1.1060 C.ar  1 <1>  -0.1500 
 21 C       -0.5000    -2.9620    -1.7070 C.3   1 <1>   0.0400 
 22 C       -2.9160    -6.4030    -2.1520 C.ar  1 <1>  -0.1500 
 23 H        3.1500    -5.7560     1.0390 H     1 <1>   0.0800 
 24 H        5.3550    -4.5820    -2.4730 H     1 <1>   0.0800 
 25 H        4.6170    -6.0790    -3.0310 H     1 <1>   0.0800 
 26 H        1.5160    -7.1390    -0.0610 H     1 <1>   0.0800 
 27 H        0.6320    -5.7680    -0.6290 H     1 <1>   0.0800 
 28 H        1.6020    -3.2960     0.2000 H     1 <1>   0.0800 
 29 H        3.0290    -3.3520     1.1760 H     1 <1>   0.0800 
 30 H        7.0270    -5.8910    -1.1790 H     1 <1>   0.0800 
 31 H        7.0930    -6.3260    -2.8680 H     1 <1>   0.0800 
 32 H        6.2900    -7.3860    -1.7370 H     1 <1>   0.0800 
 33 H        0.8840    -6.6920     2.2330 H     1 <1>   0.0800 
 34 H       -0.5530    -6.7050     1.2340 H     1 <1>   0.0800 
 35 H        0.9770    -2.9910     2.5050 H     1 <1>   0.0800 
 36 H        1.8200    -4.4500     2.9800 H     1 <1>   0.0800 
 37 H       -0.4510    -4.3240     1.0940 H     1 <1>   0.4500 
 38 H       -0.9630    -3.7450     3.4350 H     1 <1>   0.0800 
 39 H       -0.5990    -5.4030     3.8230 H     1 <1>   0.0800 
 40 H       -3.0560    -4.8620     3.3620 H     1 <1>   0.0800 
 41 H       -2.4220    -6.1760     2.3970 H     1 <1>   0.0800 
 42 H       -4.3420    -6.3330     0.9000 H     1 <1>   0.1500 
 43 H       -1.3720    -5.1250    -2.8380 H     1 <1>   0.1500 
 44 H       -4.4650    -7.5500    -1.2320 H     1 <1>   0.1500 
 45 H        0.0110    -2.0890    -1.3440 H     1 <1>   0.0800 
 46 H       -1.3060    -2.6650    -2.3560 H     1 <1>   0.0800 
 47 H        0.1950    -3.5980    -2.2280 H     1 <1>   0.0800 
 48 H       -2.9790    -6.9350    -3.0880 H     1 <1>   0.1500 
@<TRIPOS>BOND
  1   1   2  2   
  2   2   3  1   
  3   2   4  1   
  4   3   5  1   
  5   4   6  1   
  6   4   7  1   
  7   4  23  1   
  8   5   8  1   
  9   5  24  1   
 10   5  25  1   
 11   6   9  1   
 12   6  26  1   
 13   6  27  1   
 14   7  10  1   
 15   7  28  1   
 16   7  29  1   
 17   8  30  1   
 18   8  31  1   
 19   8  32  1   
 20   9  11  1   
 21   9  33  1   
 22   9  34  1   
 23  10  11  1   
 24  10  35  1   
 25  10  36  1   
 26  11  12  1   
 27  11  37  1   
 28  12  13  1   
 29  12  38  1   
 30  12  39  1   
 31  13  14  1   
 32  13  40  1   
 33  13  41  1   
 34  14  15  1   
 35  15  16  ar  
 36  15  17  ar  
 37  16  18  1   
 38  16  19  ar  
 39  17  20  ar  
 40  17  42  1   
 41  18  21  1   
 42  19  22  ar  
 43  19  43  1   
 44  20  22  ar  
 45  20  44  1   
 46  21  45  1   
 47  21  46  1   
 48  21  47  1   
 49  22  48  1   
@<TRIPOS>SUBSTRUCTURE
  1 ****   6 GROUP 4 **** **** 0

# MOE 2024.06 (io_trps.svl 2023.06)
