@<TRIPOS>MOLECULE
NONAME
61 64 1 0 0 
SMALL
USER_CHARGES


@<TRIPOS>ATOM
  1 O       -9.6780     6.8220     1.2900 O.2   1 <1>  -0.5700 
  2 C      -10.7670     7.0230     1.7690 C.2   1 <1>   0.5690 
  3 N      -11.8320     6.1780     1.6220 N.am  1 <1>  -0.5470 
  4 C      -10.9880     8.3000     2.5550 C.3   1 <1>  -0.0990 
  5 C      -11.9610     4.9790     0.9040 C.ar  1 <1>   0.1170 
  6 C      -11.7090     9.3790     1.7310 C.3   1 <1>   0.1100 
  7 C      -10.8750     4.1670     0.5820 C.ar  1 <1>  -0.1500 
  8 C      -13.2350     4.5770     0.5080 C.ar  1 <1>  -0.1500 
  9 N      -10.7850    10.2830     1.0150 N.3   1 <1>  -0.8100 
 10 C      -11.0770     2.9980    -0.1250 C.ar  1 <1>  -0.1440 
 11 C      -13.4320     3.4020    -0.1990 C.ar  1 <1>  -0.1500 
 12 C       -9.9080     9.5780     0.0370 C.3   1 <1>   0.1100 
 13 C      -11.5260    11.3850     0.3580 C.3   1 <1>   0.1100 
 14 C      -12.3370     2.6190    -0.5110 C.ar  1 <1>  -0.1440 
 15 C      -10.0420     1.9960    -0.5690 C.3   1 <1>  -0.0170 
 16 C       -9.1840    10.5240    -0.9470 C.3   1 <1>   0.3430 
 17 C      -10.5780    12.4390    -0.2650 C.3   1 <1>   0.3430 
 18 C      -12.3100     1.3130    -1.2660 C.3   1 <1>  -0.0170 
 19 C      -10.8840     0.7900    -1.0220 C.3   1 <1>  -0.1600 
 20 N       -9.1770    11.9220    -0.4120 N.4   1 <1>  -0.9590 
 21 C       -8.2750    12.8520    -1.1180 C.3   1 <1>   0.4810 
 22 C       -6.8580    12.4640    -0.7700 C.2   1 <1>  -0.2880 
 23 C       -6.0450    13.1750     0.0310 C.2   1 <1>  -0.1780 
 24 C       -4.6840    12.8630     0.4100 C.ar  1 <1>   0.0280 
 25 C       -4.1390    11.5890     0.2610 C.ar  1 <1>  -0.1500 
 26 C       -3.8690    13.8540     0.9520 C.ar  1 <1>  -0.1500 
 27 C       -2.8350    11.3170     0.6320 C.ar  1 <1>  -0.1500 
 28 C       -2.5640    13.5890     1.3250 C.ar  1 <1>  -0.1500 
 29 C       -2.0430    12.3180     1.1650 C.ar  1 <1>  -0.1500 
 30 H      -12.6880     6.4670     2.0900 H     1 <1>   0.3700 
 31 H      -11.5910     8.0570     3.4100 H     1 <1>   0.0800 
 32 H      -10.0510     8.6760     2.9230 H     1 <1>   0.0800 
 33 H      -12.2920     9.9740     2.4140 H     1 <1>   0.0800 
 34 H      -12.3920     8.9200     1.0350 H     1 <1>   0.0800 
 35 H       -9.8790     4.4380     0.8800 H     1 <1>   0.1500 
 36 H      -14.0850     5.1860     0.7490 H     1 <1>   0.1500 
 37 H      -14.4190     3.1010    -0.5030 H     1 <1>   0.1500 
 38 H       -9.1460     9.0510     0.5830 H     1 <1>   0.0800 
 39 H      -10.4710     8.8490    -0.5220 H     1 <1>   0.0800 
 40 H      -12.1610    10.9800    -0.4130 H     1 <1>   0.0800 
 41 H      -12.1620    11.8760     1.0760 H     1 <1>   0.0800 
 42 H       -9.4830     2.4020    -1.3940 H     1 <1>   0.0800 
 43 H       -9.3740     1.7350     0.2330 H     1 <1>   0.0800 
 44 H       -9.6900    10.4990    -1.8980 H     1 <1>   0.0800 
 45 H       -8.1800    10.1650    -1.0960 H     1 <1>   0.0800 
 46 H      -10.5710    13.3110     0.3680 H     1 <1>   0.0800 
 47 H      -10.9690    12.7350    -1.2240 H     1 <1>   0.0800 
 48 H      -13.0520     0.6270    -0.8980 H     1 <1>   0.0800 
 49 H      -12.4720     1.5020    -2.3130 H     1 <1>   0.0800 
 50 H      -10.4730     0.3230    -1.9000 H     1 <1>   0.0800 
 51 H      -10.9120     0.0700    -0.2230 H     1 <1>   0.0800 
 52 H       -8.8310    11.8160     0.5540 H     1 <1>   0.4500 
 53 H       -8.4330    12.8100    -2.1840 H     1 <1>   0.0800 
 54 H       -8.4550    13.8600    -0.7810 H     1 <1>   0.0800 
 55 H       -6.5460    11.5500    -1.2410 H     1 <1>   0.1500 
 56 H       -6.3960    14.0960     0.4650 H     1 <1>   0.1500 
 57 H       -4.7330    10.7920    -0.1430 H     1 <1>   0.1500 
 58 H       -4.2540    14.8490     1.0820 H     1 <1>   0.1500 
 59 H       -2.4330    10.3260     0.5090 H     1 <1>   0.1500 
 60 H       -1.9510    14.3700     1.7400 H     1 <1>   0.1500 
 61 H       -1.0280    12.1090     1.4550 H     1 <1>   0.1500 
@<TRIPOS>BOND
  1   1   2  2   
  2   2   3  am  
  3   2   4  1   
  4   3   5  1   
  5   3  30  1   
  6   4   6  1   
  7   4  31  1   
  8   4  32  1   
  9   5   7  ar  
 10   5   8  ar  
 11   6   9  1   
 12   6  33  1   
 13   6  34  1   
 14   7  10  ar  
 15   7  35  1   
 16   8  11  ar  
 17   8  36  1   
 18   9  12  1   
 19   9  13  1   
 20  10  14  ar  
 21  10  15  1   
 22  11  14  ar  
 23  11  37  1   
 24  12  16  1   
 25  12  38  1   
 26  12  39  1   
 27  13  17  1   
 28  13  40  1   
 29  13  41  1   
 30  14  18  1   
 31  15  19  1   
 32  15  42  1   
 33  15  43  1   
 34  16  20  1   
 35  16  44  1   
 36  16  45  1   
 37  17  20  1   
 38  17  46  1   
 39  17  47  1   
 40  18  19  1   
 41  18  48  1   
 42  18  49  1   
 43  19  50  1   
 44  19  51  1   
 45  20  21  1   
 46  20  52  1   
 47  21  22  1   
 48  21  53  1   
 49  21  54  1   
 50  22  23  2   
 51  22  55  1   
 52  23  24  1   
 53  23  56  1   
 54  24  25  ar  
 55  24  26  ar  
 56  25  27  ar  
 57  25  57  1   
 58  26  28  ar  
 59  26  58  1   
 60  27  29  ar  
 61  27  59  1   
 62  28  29  ar  
 63  28  60  1   
 64  29  61  1   
@<TRIPOS>SUBSTRUCTURE
  1 ****  12 GROUP 4 **** **** 0

# MOE 2024.06 (io_trps.svl 2023.06)
