@<TRIPOS>MOLECULE
NONAME
38 40 1 0 0 
SMALL
USER_CHARGES


@<TRIPOS>ATOM
  1 S        0.1490     0.0300    -0.5500 S.3   1 <1>  -0.0800 
  2 C       -1.4870    -0.5670    -0.2470 C.ar  1 <1>   0.2970 
  3 C        0.7740    -1.6150    -0.6210 C.2   1 <1>  -0.1400 
  4 N       -2.5210     0.2270    -0.0880 N.ar  1 <1>  -0.5670 
  5 C       -1.5030    -1.9450    -0.2090 C.ar  1 <1>   0.0000 
  6 C       -0.1940    -2.5140    -0.4170 C.2   1 <1>  -0.1810 
  7 C        2.2370    -1.9060    -0.8800 C.3   1 <1>   0.3000 
  8 C       -3.6320    -0.4480     0.1190 C.ar  1 <1>   0.7220 
  9 C       -2.7580    -2.4990     0.0170 C.ar  1 <1>   0.3930 
 10 C        0.1630    -3.9890    -0.4360 C.3   1 <1>   0.0210 
 11 O        2.4010    -3.2860    -1.1130 O.3   1 <1>  -0.5600 
 12 S       -5.0860     0.5670     0.3460 S.3   1 <1>  -0.3320 
 13 N       -3.8380    -1.7590     0.1850 N.ar  1 <1>  -0.6200 
 14 O       -2.8690    -3.8380     0.0630 O.3   1 <1>  -0.3630 
 15 C        1.6980    -4.1960    -0.3020 C.3   1 <1>   0.2800 
 16 C       -6.4760    -0.6230     0.6110 C.3   1 <1>  -0.0100 
 17 C       -4.1080    -4.4760     0.2790 C.3   1 <1>   0.1200 
 18 C        2.0910    -5.5840    -0.8110 C.3   1 <1>  -0.2400 
 19 C        2.1780    -4.0430     1.1500 C.3   1 <1>  -0.2400 
 20 C       -3.8730    -5.9830     0.2730 C.3   1 <1>  -0.2400 
 21 H        2.8420    -1.6200    -0.0390 H     1 <1>   0.0800 
 22 H        2.5770    -1.3850    -1.7570 H     1 <1>   0.0800 
 23 H       -0.1860    -4.4140    -1.3600 H     1 <1>   0.0800 
 24 H       -0.3340    -4.5010     0.3680 H     1 <1>   0.0800 
 25 H       -7.3750    -0.0510     0.7530 H     1 <1>   0.0800 
 26 H       -6.2490    -1.2070     1.4850 H     1 <1>   0.0800 
 27 H       -6.5480    -1.2460    -0.2620 H     1 <1>   0.0800 
 28 H       -4.7810    -4.1870    -0.5100 H     1 <1>   0.0800 
 29 H       -4.4980    -4.1500     1.2290 H     1 <1>   0.0800 
 30 H        1.8170    -5.6910    -1.8450 H     1 <1>   0.0800 
 31 H        1.5910    -6.3470    -0.2440 H     1 <1>   0.0800 
 32 H        3.1520    -5.7270    -0.7170 H     1 <1>   0.0800 
 33 H        1.8560    -3.1080     1.5720 H     1 <1>   0.0800 
 34 H        3.2500    -4.1050     1.1970 H     1 <1>   0.0800 
 35 H        1.7680    -4.8290     1.7570 H     1 <1>   0.0800 
 36 H       -3.4720    -6.2910    -0.6760 H     1 <1>   0.0800 
 37 H       -4.8030    -6.4960     0.4340 H     1 <1>   0.0800 
 38 H       -3.1910    -6.2550     1.0580 H     1 <1>   0.0800 
@<TRIPOS>BOND
  1   1   2  1   
  2   1   3  1   
  3   2   4  ar  
  4   2   5  ar  
  5   3   6  2   
  6   3   7  1   
  7   4   8  ar  
  8   5   6  1   
  9   5   9  ar  
 10   6  10  1   
 11   7  11  1   
 12   7  21  1   
 13   7  22  1   
 14   8  12  1   
 15   8  13  ar  
 16   9  13  ar  
 17   9  14  1   
 18  10  15  1   
 19  10  23  1   
 20  10  24  1   
 21  11  15  1   
 22  12  16  1   
 23  14  17  1   
 24  15  18  1   
 25  15  19  1   
 26  16  25  1   
 27  16  26  1   
 28  16  27  1   
 29  17  20  1   
 30  17  28  1   
 31  17  29  1   
 32  18  30  1   
 33  18  31  1   
 34  18  32  1   
 35  19  33  1   
 36  19  34  1   
 37  19  35  1   
 38  20  36  1   
 39  20  37  1   
 40  20  38  1   
@<TRIPOS>SUBSTRUCTURE
  1 ****   5 GROUP 4 **** **** 0

# MOE 2024.06 (io_trps.svl 2023.06)
