@<TRIPOS>MOLECULE
NONAME
50 52 1 0 0 
SMALL
USER_CHARGES


@<TRIPOS>ATOM
  1 CL      -1.7430     1.0830    -0.4540 Cl    1 <1>  -0.1770 
  2 C       -2.9450    -0.1620    -0.2160 C.ar  1 <1>   0.1770 
  3 C       -2.7080    -1.1680     0.7030 C.ar  1 <1>  -0.1500 
  4 C       -4.1170    -0.1230    -0.9500 C.ar  1 <1>  -0.1500 
  5 C       -3.6640    -2.1510     0.8880 C.ar  1 <1>  -0.1500 
  6 C       -5.0670    -1.1110    -0.7570 C.ar  1 <1>  -0.1500 
  7 C       -4.8490    -2.1340     0.1630 C.ar  1 <1>   0.1000 
  8 N       -5.7900    -3.1330     0.3740 N.pl3 1 <1>  -0.8380 
  9 C       -6.0870    -4.0180    -0.7920 C.3   1 <1>   0.2090 
 10 C       -7.0270    -2.7130     1.0960 C.3   1 <1>   0.2090 
 11 C       -6.9880    -5.1990    -0.3840 C.3   1 <1>   0.1100 
 12 C       -7.9240    -3.9180     1.4370 C.3   1 <1>   0.1100 
 13 N       -8.2460    -4.7380     0.2420 N.3   1 <1>  -0.8100 
 14 C       -9.1180    -5.8910     0.6150 C.3   1 <1>   0.1710 
 15 C      -10.5620    -5.4850     0.9170 C.2   1 <1>   0.5690 
 16 O      -11.1980    -6.1130     1.7290 O.2   1 <1>  -0.5700 
 17 N      -11.0350    -4.4040     0.2330 N.am  1 <1>  -0.5470 
 18 C      -12.2490    -3.6980     0.2210 C.ar  1 <1>   0.1170 
 19 C      -12.3320    -2.5350    -0.5490 C.ar  1 <1>   0.0830 
 20 C      -13.3720    -4.0940     0.9390 C.ar  1 <1>  -0.1500 
 21 O      -11.2540    -2.1280    -1.2640 O.3   1 <1>  -0.3630 
 22 C      -13.5030    -1.7980    -0.6070 C.ar  1 <1>  -0.1500 
 23 C      -14.5420    -3.3540     0.8880 C.ar  1 <1>  -0.1500 
 24 C      -10.4910    -1.0970    -0.6880 C.3   1 <1>   0.1200 
 25 C      -14.6100    -2.2070     0.1150 C.ar  1 <1>  -0.1500 
 26 C       -9.2550    -0.8870    -1.5580 C.3   1 <1>  -0.2400 
 27 H       -1.7900    -1.1780     1.2620 H     1 <1>   0.1500 
 28 H       -4.2760     0.6690    -1.6580 H     1 <1>   0.1500 
 29 H       -3.5060    -2.9450     1.5950 H     1 <1>   0.1500 
 30 H       -5.9820    -1.0940    -1.3190 H     1 <1>   0.1500 
 31 H       -5.1620    -4.3950    -1.1920 H     1 <1>   0.0800 
 32 H       -6.5800    -3.4510    -1.5620 H     1 <1>   0.0800 
 33 H       -7.5810    -2.0210     0.4890 H     1 <1>   0.0800 
 34 H       -6.7490    -2.2090     2.0060 H     1 <1>   0.0800 
 35 H       -6.4440    -5.8280     0.3000 H     1 <1>   0.0800 
 36 H       -7.2160    -5.7760    -1.2630 H     1 <1>   0.0800 
 37 H       -8.8320    -3.5540     1.8830 H     1 <1>   0.0800 
 38 H       -7.4150    -4.5230     2.1680 H     1 <1>   0.0800 
 39 H       -8.7120    -6.4030     1.4690 H     1 <1>   0.0800 
 40 H       -9.1540    -6.5890    -0.2020 H     1 <1>   0.0800 
 41 H      -10.3170    -3.9860    -0.3690 H     1 <1>   0.3700 
 42 H      -13.3410    -4.9830     1.5400 H     1 <1>   0.1500 
 43 H      -13.5470    -0.9150    -1.2180 H     1 <1>   0.1500 
 44 H      -15.4020    -3.6760     1.4500 H     1 <1>   0.1500 
 45 H      -10.2140    -1.3940     0.3090 H     1 <1>   0.0800 
 46 H      -11.0940    -0.2060    -0.6500 H     1 <1>   0.0800 
 47 H      -15.5230    -1.6380     0.0740 H     1 <1>   0.1500 
 48 H       -8.6870    -1.7990    -1.6200 H     1 <1>   0.0800 
 49 H       -8.6350    -0.1200    -1.1310 H     1 <1>   0.0800 
 50 H       -9.5490    -0.5810    -2.5460 H     1 <1>   0.0800 
@<TRIPOS>BOND
  1   1   2  1   
  2   2   3  ar  
  3   2   4  ar  
  4   3   5  ar  
  5   3  27  1   
  6   4   6  ar  
  7   4  28  1   
  8   5   7  ar  
  9   5  29  1   
 10   6   7  ar  
 11   6  30  1   
 12   7   8  1   
 13   8   9  1   
 14   8  10  1   
 15   9  11  1   
 16   9  31  1   
 17   9  32  1   
 18  10  12  1   
 19  10  33  1   
 20  10  34  1   
 21  11  13  1   
 22  11  35  1   
 23  11  36  1   
 24  12  13  1   
 25  12  37  1   
 26  12  38  1   
 27  13  14  1   
 28  14  15  1   
 29  14  39  1   
 30  14  40  1   
 31  15  16  2   
 32  15  17  am  
 33  17  18  1   
 34  17  41  1   
 35  18  19  ar  
 36  18  20  ar  
 37  19  21  1   
 38  19  22  ar  
 39  20  23  ar  
 40  20  42  1   
 41  21  24  1   
 42  22  25  ar  
 43  22  43  1   
 44  23  25  ar  
 45  23  44  1   
 46  24  26  1   
 47  24  45  1   
 48  24  46  1   
 49  25  47  1   
 50  26  48  1   
 51  26  49  1   
 52  26  50  1   
@<TRIPOS>SUBSTRUCTURE
  1 ****  10 GROUP 4 **** **** 0

# MOE 2024.06 (io_trps.svl 2023.06)
