@<TRIPOS>MOLECULE
NONAME
45 47 1 0 0 
SMALL
USER_CHARGES


@<TRIPOS>ATOM
  1 O        0.5630    -0.0910    -0.6290 O.2   1 <1>  -0.5700 
  2 C        0.8810    -1.2210    -0.9470 C.2   1 <1>   0.6900 
  3 N        2.1560    -1.4820    -1.3750 N.am  1 <1>  -0.6600 
  4 N       -0.0110    -2.2530    -0.9120 N.am  1 <1>  -0.5470 
  5 C        3.0600    -0.3650    -1.7860 C.3   1 <1>   0.1400 
  6 C        2.8890    -2.7310    -1.0070 C.3   1 <1>   0.1400 
  7 C       -1.3050    -2.3490    -0.3810 C.ar  1 <1>   0.1170 
  8 C        4.0820    -0.0700    -0.6810 C.3   1 <1>   0.1400 
  9 C        3.9510    -2.4550     0.0740 C.3   1 <1>   0.1400 
 10 C       -1.7680    -1.5170     0.6330 C.ar  1 <1>  -0.1500 
 11 C       -2.1590    -3.3310    -0.8710 C.ar  1 <1>  -0.1500 
 12 N        4.8330    -1.3100    -0.3080 N.am  1 <1>  -0.6600 
 13 C       -3.0470    -1.6540     1.1430 C.ar  1 <1>  -0.1430 
 14 C       -3.4400    -3.4820    -0.3690 C.ar  1 <1>  -0.1430 
 15 C        6.2040    -1.4040    -0.4680 C.2   1 <1>   0.7150 
 16 C       -3.8790    -2.6400     0.6390 C.ar  1 <1>  -0.1500 
 17 C       -3.5400    -0.7360     2.2470 C.3   1 <1>  -0.0970 
 18 C       -4.3680    -4.5550    -0.9090 C.3   1 <1>  -0.0970 
 19 O        6.7400    -0.6260    -1.2380 O.2   1 <1>  -0.5700 
 20 C        7.0260    -2.3840     0.2170 C.2   1 <1>   0.0550 
 21 O        6.6230    -3.0250     1.3140 O.3   1 <1>  -0.2800 
 22 C        8.2910    -2.8010    -0.0740 C.2   1 <1>  -0.1500 
 23 C        7.5810    -3.8290     1.7160 C.2   1 <1>  -0.0100 
 24 C        8.6480    -3.7390     0.8950 C.2   1 <1>  -0.1500 
 25 H        0.2820    -3.0330    -1.4870 H     1 <1>   0.3700 
 26 H        2.4880     0.5240    -1.9920 H     1 <1>   0.0800 
 27 H        3.5790    -0.6380    -2.6870 H     1 <1>   0.0800 
 28 H        3.3730    -3.1240    -1.8840 H     1 <1>   0.0800 
 29 H        2.2100    -3.4790    -0.6390 H     1 <1>   0.0800 
 30 H        3.5630     0.3040     0.1850 H     1 <1>   0.0800 
 31 H        4.7550     0.7010    -1.0150 H     1 <1>   0.0800 
 32 H        4.5240    -3.3520     0.2130 H     1 <1>   0.0800 
 33 H        3.4610    -2.2250     1.0050 H     1 <1>   0.0800 
 34 H       -1.1190    -0.7560     1.0260 H     1 <1>   0.1500 
 35 H       -1.8160    -3.9800    -1.6540 H     1 <1>   0.1500 
 36 H       -4.8730    -2.7520     1.0350 H     1 <1>   0.1500 
 37 H       -2.9140     0.1340     2.3240 H     1 <1>   0.0800 
 38 H       -3.5270    -1.2580     3.1870 H     1 <1>   0.0800 
 39 H       -4.5440    -0.4140     2.0390 H     1 <1>   0.0800 
 40 H       -3.9520    -5.0200    -1.7840 H     1 <1>   0.0800 
 41 H       -5.3160    -4.1210    -1.1720 H     1 <1>   0.0800 
 42 H       -4.5270    -5.3100    -0.1590 H     1 <1>   0.0800 
 43 H        8.9100    -2.4710    -0.8910 H     1 <1>   0.1500 
 44 H        7.4270    -4.4290     2.5960 H     1 <1>   0.1500 
 45 H        9.5860    -4.2610     0.9500 H     1 <1>   0.1500 
@<TRIPOS>BOND
  1   1   2  2   
  2   2   3  am  
  3   2   4  am  
  4   3   5  1   
  5   3   6  1   
  6   4   7  1   
  7   4  25  1   
  8   5   8  1   
  9   5  26  1   
 10   5  27  1   
 11   6   9  1   
 12   6  28  1   
 13   6  29  1   
 14   7  10  ar  
 15   7  11  ar  
 16   8  12  1   
 17   8  30  1   
 18   8  31  1   
 19   9  12  1   
 20   9  32  1   
 21   9  33  1   
 22  10  13  ar  
 23  10  34  1   
 24  11  14  ar  
 25  11  35  1   
 26  12  15  am  
 27  13  16  ar  
 28  13  17  1   
 29  14  16  ar  
 30  14  18  1   
 31  15  19  2   
 32  15  20  1   
 33  16  36  1   
 34  17  37  1   
 35  17  38  1   
 36  17  39  1   
 37  18  40  1   
 38  18  41  1   
 39  18  42  1   
 40  20  21  1   
 41  20  22  2   
 42  21  23  1   
 43  22  24  1   
 44  22  43  1   
 45  23  24  2   
 46  23  44  1   
 47  24  45  1   
@<TRIPOS>SUBSTRUCTURE
  1 ****   6 GROUP 4 **** **** 0

# MOE 2024.06 (io_trps.svl 2023.06)
