@<TRIPOS>MOLECULE
NONAME
34 35 1 0 0 
SMALL
USER_CHARGES


@<TRIPOS>ATOM
  1 CL       3.5570     2.8000     3.1220 Cl    1 <1>  -0.1770 
  2 C        2.1520     2.9320     2.0850 C.ar  1 <1>   0.1770 
  3 C        2.2600     2.6470     0.7280 C.ar  1 <1>   0.0830 
  4 C        0.9510     3.3230     2.6470 C.ar  1 <1>  -0.1500 
  5 O        3.4740     2.2690     0.2510 O.3   1 <1>  -0.3630 
  6 C        1.1250     2.7610    -0.0720 C.ar  1 <1>  -0.1500 
  7 C       -0.1710     3.4340     1.8420 C.ar  1 <1>  -0.1500 
  8 C        3.6940     2.0020    -1.1280 C.3   1 <1>   0.1810 
  9 C       -0.0810     3.1540     0.4880 C.ar  1 <1>  -0.1500 
 10 C        5.1530     1.6440    -1.3850 C.2   1 <1>   0.5690 
 11 O        5.5420     1.5830    -2.5260 O.2   1 <1>  -0.5700 
 12 N        5.9740     1.4120    -0.3280 N.am  1 <1>  -0.7300 
 13 C        7.4300     1.1140    -0.3950 C.3   1 <1>   0.1400 
 14 C        8.2610     2.3290     0.0400 C.3   1 <1>   0.2000 
 15 O        9.5970     1.9630     0.1430 O.3   1 <1>  -0.5600 
 16 C        7.9240     2.8780     1.4210 C.3   1 <1>  -0.1600 
 17 C       10.2810     2.8680     0.9490 C.3   1 <1>   0.1200 
 18 C        9.2370     3.4940     1.8730 C.3   1 <1>  -0.1600 
 19 H        0.8970     3.5370     3.6990 H     1 <1>   0.1500 
 20 H        1.1550     2.5520    -1.1240 H     1 <1>   0.1500 
 21 H       -1.1120     3.7380     2.2690 H     1 <1>   0.1500 
 22 H        3.4410     2.8810    -1.6910 H     1 <1>   0.0800 
 23 H        3.0690     1.1790    -1.4220 H     1 <1>   0.0800 
 24 H       -0.9570     3.2420    -0.1330 H     1 <1>   0.1500 
 25 H        5.5780     1.5280     0.6110 H     1 <1>   0.3700 
 26 H        7.6990     0.8480    -1.4030 H     1 <1>   0.0800 
 27 H        7.6460     0.2810     0.2500 H     1 <1>   0.0800 
 28 H        8.1950     3.1050    -0.7040 H     1 <1>   0.0800 
 29 H        7.6500     2.0710     2.0780 H     1 <1>   0.0800 
 30 H        7.1210     3.5930     1.3810 H     1 <1>   0.0800 
 31 H       10.7350     3.6080     0.3130 H     1 <1>   0.0800 
 32 H       11.0390     2.3330     1.4950 H     1 <1>   0.0800 
 33 H        9.4460     3.2710     2.9040 H     1 <1>   0.0800 
 34 H        9.2310     4.5620     1.7390 H     1 <1>   0.0800 
@<TRIPOS>BOND
  1   1   2  1   
  2   2   3  ar  
  3   2   4  ar  
  4   3   5  1   
  5   3   6  ar  
  6   4   7  ar  
  7   4  19  1   
  8   5   8  1   
  9   6   9  ar  
 10   6  20  1   
 11   7   9  ar  
 12   7  21  1   
 13   8  10  1   
 14   8  22  1   
 15   8  23  1   
 16   9  24  1   
 17  10  11  2   
 18  10  12  am  
 19  12  13  1   
 20  12  25  1   
 21  13  14  1   
 22  13  26  1   
 23  13  27  1   
 24  14  15  1   
 25  14  16  1   
 26  14  28  1   
 27  15  17  1   
 28  16  18  1   
 29  16  29  1   
 30  16  30  1   
 31  17  18  1   
 32  17  31  1   
 33  17  32  1   
 34  18  33  1   
 35  18  34  1   
@<TRIPOS>SUBSTRUCTURE
  1 ****   5 GROUP 4 **** **** 0

# MOE 2024.06 (io_trps.svl 2023.06)
