@<TRIPOS>MOLECULE
NONAME
43 45 1 0 0 
SMALL
USER_CHARGES


@<TRIPOS>ATOM
  1 CL      -0.6280    -0.0560     0.3580 Cl    1 <1>  -0.1770 
  2 C       -0.3370     1.6580     0.1340 C.ar  1 <1>   0.1770 
  3 C       -1.4230     2.5090    -0.0810 C.ar  1 <1>   0.1170 
  4 C        0.9690     2.1130     0.1810 C.ar  1 <1>  -0.1500 
  5 N       -2.7230     1.9630    -0.1130 N.am  1 <1>  -0.5470 
  6 C       -1.1510     3.8660    -0.2440 C.ar  1 <1>  -0.1500 
  7 C        1.2190     3.4650     0.0120 C.ar  1 <1>  -0.1500 
  8 C       -3.9360     2.4930    -0.4620 C.2   1 <1>   0.5690 
  9 C        0.1530     4.3220    -0.1970 C.ar  1 <1>   0.1770 
 10 O       -4.0740     3.6230    -0.8570 O.2   1 <1>  -0.5700 
 11 C       -5.1570     1.5870    -0.3750 C.3   1 <1>  -0.0190 
 12 CL       0.4690     6.0250    -0.4050 Cl    1 <1>  -0.1770 
 13 C       -6.4930     2.3480    -0.4230 C.3   1 <1>   0.1400 
 14 C       -5.2330     0.7320     0.9060 C.3   1 <1>  -0.0990 
 15 N       -7.3900     1.5310     0.4200 N.am  1 <1>  -0.6600 
 16 C       -6.7090     0.6330     1.1640 C.2   1 <1>   0.5690 
 17 C       -8.8580     1.7300     0.4760 C.3   1 <1>   0.2200 
 18 O       -7.1800    -0.1580     1.9420 O.2   1 <1>  -0.5700 
 19 C       -9.5010     1.3280    -0.8570 C.3   1 <1>  -0.1600 
 20 C       -9.1960     3.1810     0.8440 C.3   1 <1>  -0.1600 
 21 C      -11.0220     1.5420    -0.8200 C.3   1 <1>  -0.1600 
 22 C      -10.7160     3.3970     0.8840 C.3   1 <1>  -0.1600 
 23 C      -11.3700     2.9900    -0.4440 C.3   1 <1>  -0.1600 
 24 H        1.7760     1.4210     0.3460 H     1 <1>   0.1500 
 25 H       -2.7450     0.9720     0.1370 H     1 <1>   0.3700 
 26 H       -1.9370     4.5790    -0.4050 H     1 <1>   0.1500 
 27 H        2.2220     3.8530     0.0420 H     1 <1>   0.1500 
 28 H       -5.1380     0.9300    -1.2250 H     1 <1>   0.0800 
 29 H       -6.8590     2.4290    -1.4320 H     1 <1>   0.0800 
 30 H       -6.4010     3.3300     0.0110 H     1 <1>   0.0800 
 31 H       -4.7790     1.2280     1.7440 H     1 <1>   0.0800 
 32 H       -4.8050    -0.2450     0.7710 H     1 <1>   0.0800 
 33 H       -9.2580     1.0890     1.2450 H     1 <1>   0.0800 
 34 H       -9.2920     0.2910    -1.0520 H     1 <1>   0.0800 
 35 H       -9.0890     1.9180    -1.6550 H     1 <1>   0.0800 
 36 H       -8.7750     3.8520     0.1170 H     1 <1>   0.0800 
 37 H       -8.7780     3.4100     1.8080 H     1 <1>   0.0800 
 38 H      -11.4570     0.8730    -0.0980 H     1 <1>   0.0800 
 39 H      -11.4430     1.3080    -1.7830 H     1 <1>   0.0800 
 40 H      -10.9290     4.4320     1.0900 H     1 <1>   0.0800 
 41 H      -11.1380     2.8090     1.6830 H     1 <1>   0.0800 
 42 H      -12.4380     3.0940    -0.3660 H     1 <1>   0.0800 
 43 H      -11.0310     3.6510    -1.2240 H     1 <1>   0.0800 
@<TRIPOS>BOND
  1   1   2  1   
  2   2   3  ar  
  3   2   4  ar  
  4   3   5  1   
  5   3   6  ar  
  6   4   7  ar  
  7   4  24  1   
  8   5   8  am  
  9   5  25  1   
 10   6   9  ar  
 11   6  26  1   
 12   7   9  ar  
 13   7  27  1   
 14   8  10  2   
 15   8  11  1   
 16   9  12  1   
 17  11  13  1   
 18  11  14  1   
 19  11  28  1   
 20  13  15  1   
 21  13  29  1   
 22  13  30  1   
 23  14  16  1   
 24  14  31  1   
 25  14  32  1   
 26  15  16  am  
 27  15  17  1   
 28  16  18  2   
 29  17  19  1   
 30  17  20  1   
 31  17  33  1   
 32  19  21  1   
 33  19  34  1   
 34  19  35  1   
 35  20  22  1   
 36  20  36  1   
 37  20  37  1   
 38  21  23  1   
 39  21  38  1   
 40  21  39  1   
 41  22  23  1   
 42  22  40  1   
 43  22  41  1   
 44  23  42  1   
 45  23  43  1   
@<TRIPOS>SUBSTRUCTURE
  1 ****  11 GROUP 4 **** **** 0

# MOE 2024.06 (io_trps.svl 2023.06)
