@<TRIPOS>MOLECULE
Structure1886
41 42 1 0 0 
SMALL
USER_CHARGES


@<TRIPOS>ATOM
  1 CL       0.6630    -0.0400    -0.7450 Cl    1 <1>  -0.1770 
  2 C       -0.6420    -0.9850    -0.0660 C.ar  1 <1>   0.1770 
  3 C       -0.4740    -2.3560     0.1880 C.ar  1 <1>   0.0000 
  4 C       -1.8320    -0.3540     0.2120 C.ar  1 <1>  -0.1500 
  5 C       -1.5560    -3.0530     0.7290 C.ar  1 <1>  -0.1520 
  6 C        0.5690    -3.3070     0.0350 C.2   1 <1>  -0.1810 
  7 C       -2.9020    -1.0740     0.7550 C.ar  1 <1>  -0.1500 
  8 N       -1.1890    -4.3630     0.8940 N.pl3 1 <1>   0.0330 
  9 C       -2.7690    -2.4190     1.0140 C.ar  1 <1>  -0.1500 
 10 C        0.0970    -4.4990     0.4730 C.2   1 <1>  -0.3020 
 11 C        1.9520    -2.9970    -0.5300 C.3   1 <1>   0.0210 
 12 C        2.9520    -4.1650    -0.4990 C.3   1 <1>   0.1140 
 13 N        4.3280    -3.6050    -0.7240 N.am  1 <1>  -0.7300 
 14 C        2.6230    -5.2400    -1.5540 C.2   1 <1>   0.9060 
 15 C        5.2850    -3.4270     0.2050 C.2   1 <1>   0.7800 
 16 O        2.1280    -6.3220    -1.2120 O.co2 1 <1>  -0.9000 
 17 O        2.9420    -5.0120    -2.7330 O.co2 1 <1>  -0.9000 
 18 O        5.0540    -3.4310     1.3970 O.2   1 <1>  -0.5700 
 19 O        6.5140    -3.2350    -0.2730 O.3   1 <1>  -0.4300 
 20 C        7.6960    -3.0390     0.4720 C.3   1 <1>   0.2800 
 21 C        7.5960    -1.7490     1.2960 C.3   1 <1>  -0.2400 
 22 C        8.8030    -2.8850    -0.5720 C.3   1 <1>  -0.2400 
 23 C        7.9870    -4.2690     1.3400 C.3   1 <1>  -0.2400 
 24 H       -1.9410     0.6960     0.0100 H     1 <1>   0.1500 
 25 H       -3.8260    -0.5660     0.9660 H     1 <1>   0.1500 
 26 H       -1.7840    -5.1190     1.2440 H     1 <1>   0.2700 
 27 H       -3.5830    -2.9860     1.4300 H     1 <1>   0.1500 
 28 H        0.6000    -5.4520     0.5010 H     1 <1>   0.1500 
 29 H        2.3630    -2.1930     0.0530 H     1 <1>   0.0800 
 30 H        1.8460    -2.6610    -1.5460 H     1 <1>   0.0800 
 31 H        2.9210    -4.6320     0.4680 H     1 <1>   0.0800 
 32 H        4.6180    -3.7450    -1.6980 H     1 <1>   0.3700 
 33 H        8.5440    -1.5290     1.7510 H     1 <1>   0.0800 
 34 H        6.8730    -1.8490     2.0840 H     1 <1>   0.0800 
 35 H        7.3180    -0.9250     0.6650 H     1 <1>   0.0800 
 36 H        8.6010    -2.0420    -1.2060 H     1 <1>   0.0800 
 37 H        8.8670    -3.7710    -1.1770 H     1 <1>   0.0800 
 38 H        9.7530    -2.7310    -0.0920 H     1 <1>   0.0800 
 39 H        7.9720    -5.1600     0.7380 H     1 <1>   0.0800 
 40 H        7.2640    -4.3650     2.1290 H     1 <1>   0.0800 
 41 H        8.9560    -4.1780     1.7950 H     1 <1>   0.0800 
@<TRIPOS>BOND
  1   1   2  1   
  2   2   3  ar  
  3   2   4  ar  
  4   3   5  ar  
  5   3   6  1   
  6   4   7  ar  
  7   4  24  1   
  8   5   8  1   
  9   5   9  ar  
 10   6  10  2   
 11   6  11  1   
 12   7   9  ar  
 13   7  25  1   
 14   8  10  1   
 15   8  26  1   
 16   9  27  1   
 17  10  28  1   
 18  11  12  1   
 19  11  29  1   
 20  11  30  1   
 21  12  13  1   
 22  12  14  1   
 23  12  31  1   
 24  13  15  am  
 25  13  32  1   
 26  14  16  ar  
 27  14  17  ar  
 28  15  18  2   
 29  15  19  1   
 30  19  20  1   
 31  20  21  1   
 32  20  22  1   
 33  20  23  1   
 34  21  33  1   
 35  21  34  1   
 36  21  35  1   
 37  22  36  1   
 38  22  37  1   
 39  22  38  1   
 40  23  39  1   
 41  23  40  1   
 42  23  41  1   
@<TRIPOS>SUBSTRUCTURE
  1 ****  11 GROUP 4 **** **** 0

# MOE 2024.06 (io_trps.svl 2023.06)
