@<TRIPOS>MOLECULE
NONAME
34 37 1 0 0 
SMALL
USER_CHARGES


@<TRIPOS>ATOM
  1 BR       0.4740    -0.0640    -1.0620 Br    1 <1>  -0.1110 
  2 C       -1.4500    -0.0850    -0.9770 C.ar  1 <1>   0.1110 
  3 C       -2.1060    -1.3010    -0.9800 C.ar  1 <1>  -0.1500 
  4 C       -2.1280     1.1170    -0.9150 C.ar  1 <1>  -0.1500 
  5 C       -3.4890    -1.3070    -0.9180 C.ar  1 <1>  -0.1500 
  6 C       -3.5110     1.0930    -0.8550 C.ar  1 <1>  -0.1500 
  7 C       -4.2090    -0.1130    -0.8580 C.ar  1 <1>   0.1170 
  8 N       -5.6100    -0.0750    -0.7780 N.am  1 <1>  -0.5470 
  9 C       -6.5550    -0.9780    -1.1900 C.2   1 <1>   0.5690 
 10 O       -6.2750    -2.0090    -1.7480 O.2   1 <1>  -0.5700 
 11 C       -8.0400    -0.7030    -0.9420 C.3   1 <1>  -0.0190 
 12 C       -8.4390     0.7920    -0.8000 C.3   1 <1>  -0.0190 
 13 C       -8.5290    -1.3040     0.3970 C.3   1 <1>  -0.0800 
 14 C       -9.7300     1.0450    -1.5350 C.2   1 <1>   0.6590 
 15 C       -8.9170     0.8810     0.6570 C.3   1 <1>  -0.0800 
 16 C      -10.0710    -1.2170     0.4540 C.3   1 <1>  -0.1600 
 17 C       -8.1560    -0.2140     1.3870 C.3   1 <1>  -0.1600 
 18 O       -9.8200     1.4760    -2.6510 O.2   1 <1>  -0.5700 
 19 O      -10.7550     0.7380    -0.7690 O.3   1 <1>  -0.4300 
 20 C      -10.3350     0.3030     0.5020 C.3   1 <1>   0.2000 
 21 H       -1.5480    -2.2190    -1.0290 H     1 <1>   0.1500 
 22 H       -1.5840     2.0440    -0.9160 H     1 <1>   0.1500 
 23 H       -4.0060    -2.2490    -0.9150 H     1 <1>   0.1500 
 24 H       -4.0500     2.0220    -0.8110 H     1 <1>   0.1500 
 25 H       -5.9780     0.7790    -0.3700 H     1 <1>   0.3700 
 26 H       -8.5750    -1.1590    -1.7590 H     1 <1>   0.0800 
 27 H       -7.6850     1.5060    -1.0730 H     1 <1>   0.0800 
 28 H       -8.1350    -2.2830     0.6160 H     1 <1>   0.0800 
 29 H       -8.8910     1.8620     1.1000 H     1 <1>   0.0800 
 30 H      -10.4240    -1.6740     1.3630 H     1 <1>   0.0800 
 31 H      -10.5480    -1.6940    -0.3850 H     1 <1>   0.0800 
 32 H       -7.0980    -0.0300     1.4490 H     1 <1>   0.0800 
 33 H       -8.5470    -0.3990     2.3740 H     1 <1>   0.0800 
 34 H      -11.0400     0.6040     1.2580 H     1 <1>   0.0800 
@<TRIPOS>BOND
  1   1   2  1   
  2   2   3  ar  
  3   2   4  ar  
  4   3   5  ar  
  5   3  21  1   
  6   4   6  ar  
  7   4  22  1   
  8   5   7  ar  
  9   5  23  1   
 10   6   7  ar  
 11   6  24  1   
 12   7   8  1   
 13   8   9  am  
 14   8  25  1   
 15   9  10  2   
 16   9  11  1   
 17  11  12  1   
 18  11  13  1   
 19  11  26  1   
 20  12  14  1   
 21  12  15  1   
 22  12  27  1   
 23  13  16  1   
 24  13  17  1   
 25  13  28  1   
 26  14  18  2   
 27  14  19  1   
 28  15  17  1   
 29  15  20  1   
 30  15  29  1   
 31  16  20  1   
 32  16  30  1   
 33  16  31  1   
 34  17  32  1   
 35  17  33  1   
 36  19  20  1   
 37  20  34  1   
@<TRIPOS>SUBSTRUCTURE
  1 ****   8 GROUP 4 **** **** 0

# MOE 2024.06 (io_trps.svl 2023.06)
