@<TRIPOS>MOLECULE
NONAME
41 44 1 0 0 
SMALL
USER_CHARGES


@<TRIPOS>ATOM
  1 O        0.0900    -1.2130    -2.1090 O.2   1 <1>  -0.5700 
  2 C       -0.0910    -1.3630    -0.9260 C.2   1 <1>   0.5690 
  3 N        0.8390    -1.7340     0.0020 N.am  1 <1>  -0.6600 
  4 C       -1.4130    -1.1900    -0.2460 C.3   1 <1>  -0.0190 
  5 C        2.1790    -2.2340    -0.3640 C.3   1 <1>   0.3640 
  6 C        0.1660    -2.1130     1.2910 C.3   1 <1>   0.1400 
  7 C       -1.2680    -2.2810     0.7910 C.3   1 <1>   0.4180 
  8 C       -2.8690    -1.4110    -0.7050 C.3   1 <1>  -0.0190 
  9 C        2.1140    -3.7560    -0.4830 C.ar  1 <1>  -0.1440 
 10 C        3.2090    -1.7120     0.6380 C.3   1 <1>  -0.2400 
 11 O       -2.4390    -2.0440     1.4800 O.3   1 <1>  -0.5600 
 12 C       -1.5750    -3.6690     0.2460 C.2   1 <1>  -0.2880 
 13 C       -3.6750    -0.1330    -0.7850 C.2   1 <1>   0.6590 
 14 C       -3.3600    -2.3250     0.4450 C.3   1 <1>   0.3380 
 15 C        2.5500    -4.6480     0.4810 C.ar  1 <1>  -0.1500 
 16 C        1.5670    -4.3220    -1.6190 C.ar  1 <1>  -0.1500 
 17 C       -2.8860    -3.7050     0.0710 C.2   1 <1>  -0.2880 
 18 O       -4.8200    -0.0780    -0.4160 O.2   1 <1>  -0.5700 
 19 O       -3.0590     0.9170    -1.3150 O.3   1 <1>  -0.4300 
 20 C        2.4140    -6.0100     0.2690 C.ar  1 <1>   0.1600 
 21 C        1.4760    -5.6980    -1.7320 C.ar  1 <1>   0.1600 
 22 C       -3.7080     2.1610    -1.4770 C.3   1 <1>   0.0400 
 23 N        1.8840    -6.5560    -0.8120 N.ar  1 <1>  -0.6200 
 24 H       -1.3530    -0.2430     0.2630 H     1 <1>   0.0800 
 25 H        2.4370    -1.8360    -1.3330 H     1 <1>   0.0800 
 26 H        0.2440    -1.3100     2.0020 H     1 <1>   0.0800 
 27 H        0.5500    -3.0350     1.6900 H     1 <1>   0.0800 
 28 H       -2.9170    -1.9120    -1.6550 H     1 <1>   0.0800 
 29 H        2.9750    -2.0200     1.6400 H     1 <1>   0.0800 
 30 H        3.2370    -0.6380     0.5990 H     1 <1>   0.0800 
 31 H        4.1830    -2.0840     0.3790 H     1 <1>   0.0800 
 32 H       -0.7990    -4.3970     0.0790 H     1 <1>   0.1500 
 33 H       -4.3800    -2.2430     0.7840 H     1 <1>   0.0800 
 34 H        2.9920    -4.3100     1.4000 H     1 <1>   0.1500 
 35 H        1.2020    -3.6990    -2.4170 H     1 <1>   0.1500 
 36 H       -3.5610    -4.4640    -0.2840 H     1 <1>   0.1500 
 37 H        2.7590    -6.6870     1.0320 H     1 <1>   0.1500 
 38 H        1.0420    -6.1130    -2.6260 H     1 <1>   0.1500 
 39 H       -3.0160     2.8510    -1.9240 H     1 <1>   0.0800 
 40 H       -4.0200     2.5190    -0.5110 H     1 <1>   0.0800 
 41 H       -4.5630     2.0260    -2.1160 H     1 <1>   0.0800 
@<TRIPOS>BOND
  1   1   2  2   
  2   2   3  am  
  3   2   4  1   
  4   3   5  1   
  5   3   6  1   
  6   4   7  1   
  7   4   8  1   
  8   4  24  1   
  9   5   9  1   
 10   5  10  1   
 11   5  25  1   
 12   6   7  1   
 13   6  26  1   
 14   6  27  1   
 15   7  11  1   
 16   7  12  1   
 17   8  13  1   
 18   8  14  1   
 19   8  28  1   
 20   9  15  ar  
 21   9  16  ar  
 22  10  29  1   
 23  10  30  1   
 24  10  31  1   
 25  11  14  1   
 26  12  17  2   
 27  12  32  1   
 28  13  18  2   
 29  13  19  1   
 30  14  17  1   
 31  14  33  1   
 32  15  20  ar  
 33  15  34  1   
 34  16  21  ar  
 35  16  35  1   
 36  17  36  1   
 37  19  22  1   
 38  20  23  ar  
 39  20  37  1   
 40  21  23  ar  
 41  21  38  1   
 42  22  39  1   
 43  22  40  1   
 44  22  41  1   
@<TRIPOS>SUBSTRUCTURE
  1 ****   2 GROUP 4 **** **** 0

# MOE 2024.06 (io_trps.svl 2023.06)
