@<TRIPOS>MOLECULE
NONAME
29 29 1 0 0 
SMALL
USER_CHARGES


@<TRIPOS>ATOM
  1 I        0.5360    -0.0530    -0.3110 I     1 <1>  -0.0810 
  2 C       -1.3680     0.9000    -0.2600 C.ar  1 <1>   0.0810 
  3 C       -1.4280     2.2710    -0.4240 C.ar  1 <1>  -0.1500 
  4 C       -2.4930     0.1220    -0.0640 C.ar  1 <1>  -0.1500 
  5 C       -2.6670     2.8940    -0.3930 C.ar  1 <1>  -0.1440 
  6 C       -3.7270     0.7480    -0.0300 C.ar  1 <1>  -0.1500 
  7 C       -3.8190     2.1320    -0.1910 C.ar  1 <1>   0.0830 
  8 C       -2.7530     4.4000    -0.5830 C.3   1 <1>   0.2640 
  9 O       -5.0050     2.7980    -0.1550 O.3   1 <1>  -0.3630 
 10 O       -3.1520     4.9580     0.6140 O.3   1 <1>  -0.6800 
 11 C       -6.2310     2.1220     0.0130 C.3   1 <1>   0.1200 
 12 C       -7.3530     3.1610    -0.0070 C.3   1 <1>  -0.1600 
 13 C       -8.7260     2.4980     0.1700 C.3   1 <1>  -0.1600 
 14 C       -9.8450     3.5420     0.1500 C.3   1 <1>  -0.2400 
 15 H       -0.5250     2.8370    -0.5700 H     1 <1>   0.1500 
 16 H       -2.4080    -0.9430     0.0590 H     1 <1>   0.1500 
 17 H       -4.5990     0.1420     0.1250 H     1 <1>   0.1500 
 18 H       -3.4840     4.6480    -1.3330 H     1 <1>   0.0800 
 19 H       -1.8030     4.8270    -0.8520 H     1 <1>   0.0800 
 20 H       -3.9240     4.4430     0.9280 H     1 <1>   0.4000 
 21 H       -6.2090     1.6050     0.9570 H     1 <1>   0.0800 
 22 H       -6.3470     1.4220    -0.7960 H     1 <1>   0.0800 
 23 H       -7.3280     3.6860    -0.9450 H     1 <1>   0.0800 
 24 H       -7.1920     3.8670     0.7890 H     1 <1>   0.0800 
 25 H       -8.7550     1.9680     1.1070 H     1 <1>   0.0800 
 26 H       -8.8910     1.7880    -0.6230 H     1 <1>   0.0800 
 27 H       -9.7140     4.2520     0.9480 H     1 <1>   0.0800 
 28 H      -10.8000     3.0610     0.2750 H     1 <1>   0.0800 
 29 H       -9.8500     4.0720    -0.7870 H     1 <1>   0.0800 
@<TRIPOS>BOND
  1   1   2  1   
  2   2   3  ar  
  3   2   4  ar  
  4   3   5  ar  
  5   3  15  1   
  6   4   6  ar  
  7   4  16  1   
  8   5   7  ar  
  9   5   8  1   
 10   6   7  ar  
 11   6  17  1   
 12   7   9  1   
 13   8  10  1   
 14   8  18  1   
 15   8  19  1   
 16   9  11  1   
 17  10  20  1   
 18  11  12  1   
 19  11  21  1   
 20  11  22  1   
 21  12  13  1   
 22  12  23  1   
 23  12  24  1   
 24  13  14  1   
 25  13  25  1   
 26  13  26  1   
 27  14  27  1   
 28  14  28  1   
 29  14  29  1   
@<TRIPOS>SUBSTRUCTURE
  1 ****   7 GROUP 4 **** **** 0

# MOE 2024.06 (io_trps.svl 2023.06)
