@<TRIPOS>MOLECULE
NONAME
30 30 1 0 0 
SMALL
USER_CHARGES


@<TRIPOS>ATOM
  1 O        0.1600     1.5240     2.1660 O.2   1 <1>  -0.5700 
  2 C       -0.1100     2.0370     1.0940 C.2   1 <1>   0.5440 
  3 N        0.8440     2.0390     0.0910 N.am  1 <1>  -0.6600 
  4 C       -1.4100     2.6500     0.9290 C.ar  1 <1>   0.0860 
  5 C        2.1420     1.3220     0.2270 C.3   1 <1>   0.0600 
  6 C        0.6280     2.6760    -1.2360 C.3   1 <1>   0.0600 
  7 C       -2.3650     2.1600     0.0320 C.ar  1 <1>   0.0820 
  8 C       -1.7470     3.7680     1.6920 C.ar  1 <1>  -0.1500 
  9 O       -2.0790     1.0710    -0.7200 O.3   1 <1>  -0.3630 
 10 C       -3.6080     2.7820    -0.1110 C.ar  1 <1>   0.0820 
 11 C       -2.9730     4.3890     1.5600 C.ar  1 <1>  -0.1500 
 12 C       -2.3220    -0.1790    -0.1190 C.3   1 <1>   0.0400 
 13 O       -4.4890     2.2540    -1.0090 O.3   1 <1>  -0.3630 
 14 C       -3.9040     3.9020     0.6590 C.ar  1 <1>  -0.1500 
 15 C       -5.7410     2.8510    -1.2590 C.3   1 <1>   0.0400 
 16 H        2.2020     0.8040     1.1690 H     1 <1>   0.0800 
 17 H        2.9520     2.0270     0.1720 H     1 <1>   0.0800 
 18 H        2.2430     0.6010    -0.5650 H     1 <1>   0.0800 
 19 H        0.3240     1.9280    -1.9480 H     1 <1>   0.0800 
 20 H        1.5380     3.1390    -1.5750 H     1 <1>   0.0800 
 21 H       -0.1360     3.4320    -1.1800 H     1 <1>   0.0800 
 22 H       -1.0260     4.1440     2.3980 H     1 <1>   0.1500 
 23 H       -3.2070     5.2520     2.1600 H     1 <1>   0.1500 
 24 H       -2.0670    -0.9470    -0.8260 H     1 <1>   0.0800 
 25 H       -3.3650    -0.2430     0.1380 H     1 <1>   0.0800 
 26 H       -1.7100    -0.2710     0.7620 H     1 <1>   0.0800 
 27 H       -4.8480     4.4060     0.5780 H     1 <1>   0.1500 
 28 H       -6.2400     2.2720    -2.0150 H     1 <1>   0.0800 
 29 H       -5.5860     3.8550    -1.6100 H     1 <1>   0.0800 
 30 H       -6.3200     2.8420    -0.3520 H     1 <1>   0.0800 
@<TRIPOS>BOND
  1   1   2  2   
  2   2   3  am  
  3   2   4  1   
  4   3   5  1   
  5   3   6  1   
  6   4   7  ar  
  7   4   8  ar  
  8   5  16  1   
  9   5  17  1   
 10   5  18  1   
 11   6  19  1   
 12   6  20  1   
 13   6  21  1   
 14   7   9  1   
 15   7  10  ar  
 16   8  11  ar  
 17   8  22  1   
 18   9  12  1   
 19  10  13  1   
 20  10  14  ar  
 21  11  14  ar  
 22  11  23  1   
 23  12  24  1   
 24  12  25  1   
 25  12  26  1   
 26  13  15  1   
 27  14  27  1   
 28  15  28  1   
 29  15  29  1   
 30  15  30  1   
@<TRIPOS>SUBSTRUCTURE
  1 ****   7 GROUP 4 **** **** 0

# MOE 2024.06 (io_trps.svl 2023.06)
