@<TRIPOS>MOLECULE
NONAME
47 49 1 0 0 
SMALL
USER_CHARGES


@<TRIPOS>ATOM
  1 BR       4.1350     0.2510     5.2270 Br    1 <1>  -0.1110 
  2 C        3.6180     0.6770     3.4230 C.ar  1 <1>   0.1110 
  3 C        4.5640     0.5960     2.4230 C.ar  1 <1>  -0.1500 
  4 C        2.3090     1.0500     3.1800 C.ar  1 <1>  -0.1500 
  5 C        4.1930     0.8960     1.1180 C.ar  1 <1>   0.1990 
  6 C        1.9400     1.3530     1.8800 C.ar  1 <1>  -0.1500 
  7 N        5.0960     0.8070     0.0680 N.am  1 <1>  -0.6930 
  8 C        2.8780     1.2750     0.8630 C.ar  1 <1>  -0.1500 
  9 S        5.6720    -0.7450    -0.4380 S.o2  1 <1>   1.4470 
 10 C        6.0360     1.9550    -0.1320 C.3   1 <1>   0.2570 
 11 O        6.4610    -1.2770     0.6480 O.2   1 <1>  -0.6500 
 12 O        6.2770    -0.5290    -1.7330 O.2   1 <1>  -0.6500 
 13 C        4.1310    -1.6810    -0.6380 C.ar  1 <1>  -0.0090 
 14 C        7.2270     1.9830     0.8420 C.2   1 <1>   0.5690 
 15 C        3.5740    -2.3810     0.4270 C.ar  1 <1>  -0.1500 
 16 C        3.4490    -1.6940    -1.8510 C.ar  1 <1>  -0.1500 
 17 O        7.0350     2.5430     1.8990 O.2   1 <1>  -0.5700 
 18 N        8.4490     1.4170     0.5530 N.am  1 <1>  -0.6600 
 19 C        2.3840    -3.0730     0.2880 C.ar  1 <1>  -0.1500 
 20 C        2.2590    -2.3840    -1.9980 C.ar  1 <1>  -0.1500 
 21 C        8.8670     0.8490    -0.7620 C.3   1 <1>   0.1400 
 22 C        9.4590     1.2120     1.6320 C.3   1 <1>   0.1400 
 23 C        1.7240    -3.0760    -0.9270 C.ar  1 <1>  -0.1500 
 24 C       10.2110     1.4490    -1.1930 C.3   1 <1>  -0.1600 
 25 C       10.8000     1.8290     1.2240 C.3   1 <1>  -0.1600 
 26 C       11.2890     1.2670    -0.1170 C.3   1 <1>  -0.1600 
 27 H        5.5740     0.3080     2.6530 H     1 <1>   0.1500 
 28 H        1.6000     1.1020     3.9880 H     1 <1>   0.1500 
 29 H        0.9270     1.6460     1.6620 H     1 <1>   0.1500 
 30 H        2.5910     1.5050    -0.1470 H     1 <1>   0.1500 
 31 H        5.4860     2.8650     0.0200 H     1 <1>   0.0800 
 32 H        6.3770     1.9710    -1.1480 H     1 <1>   0.0800 
 33 H        4.0790    -2.3830     1.3790 H     1 <1>   0.1500 
 34 H        3.8560    -1.1570    -2.6910 H     1 <1>   0.1500 
 35 H        1.9710    -3.6090     1.1260 H     1 <1>   0.1500 
 36 H        1.7490    -2.3840    -2.9470 H     1 <1>   0.1500 
 37 H        8.1480     1.0560    -1.5290 H     1 <1>   0.0800 
 38 H        8.9570    -0.2210    -0.6680 H     1 <1>   0.0800 
 39 H        9.5780     0.1550     1.7970 H     1 <1>   0.0800 
 40 H        9.1300     1.6540     2.5570 H     1 <1>   0.0800 
 41 H        0.7990    -3.6150    -1.0380 H     1 <1>   0.1500 
 42 H       10.0740     2.4970    -1.3940 H     1 <1>   0.0800 
 43 H       10.5310     0.9790    -2.1060 H     1 <1>   0.0800 
 44 H       11.5290     1.6280     1.9880 H     1 <1>   0.0800 
 45 H       10.6820     2.8960     1.1540 H     1 <1>   0.0800 
 46 H       12.1920     1.7700    -0.4160 H     1 <1>   0.0800 
 47 H       11.5100     0.2190    -0.0060 H     1 <1>   0.0800 
@<TRIPOS>BOND
  1   1   2  1   
  2   2   3  ar  
  3   2   4  ar  
  4   3   5  ar  
  5   3  27  1   
  6   4   6  ar  
  7   4  28  1   
  8   5   7  1   
  9   5   8  ar  
 10   6   8  ar  
 11   6  29  1   
 12   7   9  am  
 13   7  10  1   
 14   8  30  1   
 15   9  11  2   
 16   9  12  2   
 17   9  13  1   
 18  10  14  1   
 19  10  31  1   
 20  10  32  1   
 21  13  15  ar  
 22  13  16  ar  
 23  14  17  2   
 24  14  18  am  
 25  15  19  ar  
 26  15  33  1   
 27  16  20  ar  
 28  16  34  1   
 29  18  21  1   
 30  18  22  1   
 31  19  23  ar  
 32  19  35  1   
 33  20  23  ar  
 34  20  36  1   
 35  21  24  1   
 36  21  37  1   
 37  21  38  1   
 38  22  25  1   
 39  22  39  1   
 40  22  40  1   
 41  23  41  1   
 42  24  26  1   
 43  24  42  1   
 44  24  43  1   
 45  25  26  1   
 46  25  44  1   
 47  25  45  1   
 48  26  46  1   
 49  26  47  1   
@<TRIPOS>SUBSTRUCTURE
  1 ****   7 GROUP 4 **** **** 0

# MOE 2024.06 (io_trps.svl 2023.06)
