@<TRIPOS>MOLECULE
NONAME
44 46 1 0 0 
SMALL
USER_CHARGES


@<TRIPOS>ATOM
  1 O       -0.2170     0.8790     2.1880 O.2   1 <1>  -0.5700 
  2 C       -0.6640     1.6640     1.3890 C.2   1 <1>   0.5690 
  3 N        0.0480     2.4750     0.5750 N.am  1 <1>  -0.6600 
  4 C       -2.1390     1.8490     1.1730 C.3   1 <1>  -0.0990 
  5 C        1.5260     2.5890     0.5830 C.3   1 <1>   0.2200 
  6 C       -0.8270     3.3120    -0.2710 C.3   1 <1>   0.1400 
  7 C       -2.2000     2.6250    -0.1550 C.3   1 <1>  -0.0190 
  8 C        1.9580     4.0300     0.8850 C.3   1 <1>  -0.1600 
  9 C        2.1040     2.1000    -0.7510 C.3   1 <1>  -0.1600 
 10 C       -3.3930     3.5730    -0.2480 C.2   1 <1>   0.5690 
 11 C        3.4890     4.1570     0.8750 C.3   1 <1>  -0.1600 
 12 C        3.6350     2.2260    -0.7650 C.3   1 <1>  -0.1600 
 13 O       -3.2040     4.7460    -0.0270 O.2   1 <1>  -0.5700 
 14 N       -4.6440     3.1050    -0.5680 N.am  1 <1>  -0.6600 
 15 C        4.0770     3.6640    -0.4550 C.3   1 <1>  -0.1600 
 16 C       -5.0280     1.6780    -0.8060 C.3   1 <1>   0.1400 
 17 C       -5.8160     4.0310    -0.6660 C.3   1 <1>   0.1400 
 18 C       -6.2420     1.2940     0.0580 C.3   1 <1>   0.1200 
 19 C       -6.9880     3.5160     0.1840 C.3   1 <1>   0.1200 
 20 O       -7.2950     2.1910    -0.1470 O.3   1 <1>  -0.5600 
 21 H       -2.5330     2.4330     1.9840 H     1 <1>   0.0800 
 22 H       -2.6370     0.9000     1.1200 H     1 <1>   0.0800 
 23 H        1.9100     1.9550     1.3660 H     1 <1>   0.0800 
 24 H       -0.4880     3.3350    -1.2910 H     1 <1>   0.0800 
 25 H       -0.8430     4.3120     0.1300 H     1 <1>   0.0800 
 26 H       -2.2510     1.9260    -0.9680 H     1 <1>   0.0800 
 27 H        1.5820     4.3180     1.8510 H     1 <1>   0.0800 
 28 H        1.5530     4.6970     0.1450 H     1 <1>   0.0800 
 29 H        1.7030     2.6840    -1.5590 H     1 <1>   0.0800 
 30 H        1.8300     1.0710    -0.8990 H     1 <1>   0.0800 
 31 H        3.8990     3.5760     1.6830 H     1 <1>   0.0800 
 32 H        3.7660     5.1850     1.0340 H     1 <1>   0.0800 
 33 H        4.0130     1.9320    -1.7280 H     1 <1>   0.0800 
 34 H        4.0530     1.5600    -0.0290 H     1 <1>   0.0800 
 35 H        5.1520     3.7090    -0.4110 H     1 <1>   0.0800 
 36 H        3.7530     4.3140    -1.2500 H     1 <1>   0.0800 
 37 H       -4.2200     1.0090    -0.5840 H     1 <1>   0.0800 
 38 H       -5.2860     1.5530    -1.8430 H     1 <1>   0.0800 
 39 H       -6.1270     4.0990    -1.6940 H     1 <1>   0.0800 
 40 H       -5.5520     5.0200    -0.3360 H     1 <1>   0.0800 
 41 H       -5.9830     1.3000     1.1030 H     1 <1>   0.0800 
 42 H       -6.5920     0.3130    -0.2070 H     1 <1>   0.0800 
 43 H       -7.8650     4.1110     0.0060 H     1 <1>   0.0800 
 44 H       -6.7450     3.5640     1.2320 H     1 <1>   0.0800 
@<TRIPOS>BOND
  1   1   2  2   
  2   2   3  am  
  3   2   4  1   
  4   3   5  1   
  5   3   6  1   
  6   4   7  1   
  7   4  21  1   
  8   4  22  1   
  9   5   8  1   
 10   5   9  1   
 11   5  23  1   
 12   6   7  1   
 13   6  24  1   
 14   6  25  1   
 15   7  10  1   
 16   7  26  1   
 17   8  11  1   
 18   8  27  1   
 19   8  28  1   
 20   9  12  1   
 21   9  29  1   
 22   9  30  1   
 23  10  13  2   
 24  10  14  am  
 25  11  15  1   
 26  11  31  1   
 27  11  32  1   
 28  12  15  1   
 29  12  33  1   
 30  12  34  1   
 31  14  16  1   
 32  14  17  1   
 33  15  35  1   
 34  15  36  1   
 35  16  18  1   
 36  16  37  1   
 37  16  38  1   
 38  17  19  1   
 39  17  39  1   
 40  17  40  1   
 41  18  20  1   
 42  18  41  1   
 43  18  42  1   
 44  19  20  1   
 45  19  43  1   
 46  19  44  1   
@<TRIPOS>SUBSTRUCTURE
  1 ****   7 GROUP 4 **** **** 0

# MOE 2024.06 (io_trps.svl 2023.06)
