@<TRIPOS>MOLECULE
NONAME
35 36 1 0 0 
SMALL
USER_CHARGES


@<TRIPOS>ATOM
  1 O        0.1810     0.1410     0.4720 O.3   1 <1>  -0.5600 
  2 C        0.0710     1.4430    -0.0140 C.3   1 <1>   0.1200 
  3 C        1.2660    -0.5800    -0.0260 C.3   1 <1>   0.1200 
  4 C        1.3310     2.2500     0.3540 C.3   1 <1>   0.3430 
  5 C        2.5820     0.1320     0.3410 C.3   1 <1>   0.3430 
  6 N        2.6060     1.5780    -0.1190 N.4   1 <1>  -0.9590 
  7 C        3.8500     2.3100     0.2990 C.3   1 <1>   0.4230 
  8 C        3.8270     3.7570    -0.2180 C.3   1 <1>  -0.1600 
  9 C        5.1040     1.5960    -0.2320 C.3   1 <1>  -0.1600 
 10 C        5.1220     4.5020     0.1100 C.3   1 <1>   0.3430 
 11 C        6.3830     2.3680     0.0970 C.3   1 <1>   0.3430 
 12 N        6.2920     3.7570    -0.4320 N.4   1 <1>  -0.9590 
 13 C        7.5610     4.5050    -0.1410 C.3   1 <1>   0.2630 
 14 H       -0.8000     1.8860     0.4400 H     1 <1>   0.0800 
 15 H       -0.0810     1.4080    -1.0790 H     1 <1>   0.0800 
 16 H        1.1560    -0.6850    -1.0920 H     1 <1>   0.0800 
 17 H        1.2360    -1.5600     0.4180 H     1 <1>   0.0800 
 18 H        1.3530     2.3620     1.4260 H     1 <1>   0.0800 
 19 H        1.2420     3.2310    -0.0800 H     1 <1>   0.0800 
 20 H        3.3970    -0.4150    -0.1030 H     1 <1>   0.0800 
 21 H        2.6970     0.0870     1.4120 H     1 <1>   0.0800 
 22 H        2.5600     1.5570    -1.1470 H     1 <1>   0.4500 
 23 H        3.8960     2.3300     1.3770 H     1 <1>   0.0800 
 24 H        3.0280     4.3070     0.2450 H     1 <1>   0.0800 
 25 H        3.6760     3.7760    -1.2840 H     1 <1>   0.0800 
 26 H        5.0420     1.4650    -1.2980 H     1 <1>   0.0800 
 27 H        5.2030     0.6270     0.2220 H     1 <1>   0.0800 
 28 H        5.2220     4.6070     1.1790 H     1 <1>   0.0800 
 29 H        5.0880     5.4920    -0.3190 H     1 <1>   0.0800 
 30 H        7.2320     1.8640    -0.3410 H     1 <1>   0.0800 
 31 H        6.5290     2.3950     1.1660 H     1 <1>   0.0800 
 32 H        6.2080     3.7140    -1.4610 H     1 <1>   0.4500 
 33 H        7.7160     4.5900     0.9220 H     1 <1>   0.0800 
 34 H        7.5180     5.4980    -0.5620 H     1 <1>   0.0800 
 35 H        8.4070     3.9920    -0.5710 H     1 <1>   0.0800 
@<TRIPOS>BOND
  1   1   2  1   
  2   1   3  1   
  3   2   4  1   
  4   2  14  1   
  5   2  15  1   
  6   3   5  1   
  7   3  16  1   
  8   3  17  1   
  9   4   6  1   
 10   4  18  1   
 11   4  19  1   
 12   5   6  1   
 13   5  20  1   
 14   5  21  1   
 15   6   7  1   
 16   6  22  1   
 17   7   8  1   
 18   7   9  1   
 19   7  23  1   
 20   8  10  1   
 21   8  24  1   
 22   8  25  1   
 23   9  11  1   
 24   9  26  1   
 25   9  27  1   
 26  10  12  1   
 27  10  28  1   
 28  10  29  1   
 29  11  12  1   
 30  11  30  1   
 31  11  31  1   
 32  12  13  1   
 33  12  32  1   
 34  13  33  1   
 35  13  34  1   
 36  13  35  1   
@<TRIPOS>SUBSTRUCTURE
  1 ****   7 GROUP 4 **** **** 0

# MOE 2024.06 (io_trps.svl 2023.06)
