@<TRIPOS>MOLECULE
NONAME
34 35 1 0 0 
SMALL
USER_CHARGES


@<TRIPOS>ATOM
  1 CL       0.2320     0.5200     1.0090 Cl    1 <1>  -0.1770 
  2 C       -0.8610     1.7340     0.3980 C.ar  1 <1>   0.1770 
  3 C       -2.1930     1.6890     0.7580 C.ar  1 <1>  -0.1500 
  4 C       -0.3730     2.7200    -0.4360 C.ar  1 <1>  -0.1500 
  5 C       -3.0930     2.6470     0.2850 C.ar  1 <1>   0.0860 
  6 C       -1.2450     3.6800    -0.9170 C.ar  1 <1>  -0.1500 
  7 C       -4.4940     2.5980     0.6630 C.2   1 <1>   0.6340 
  8 C       -2.5820     3.6400    -0.5590 C.ar  1 <1>  -0.1500 
  9 O       -4.9590     1.7480     1.3930 O.2   1 <1>  -0.5700 
 10 O       -5.3150     3.5380     0.1780 O.3   1 <1>  -0.4300 
 11 C       -6.6860     3.5780     0.5020 C.3   1 <1>   0.2000 
 12 C       -7.4380     2.5800    -0.3820 C.3   1 <1>  -0.1600 
 13 C       -7.1800     5.0040     0.2610 C.3   1 <1>  -0.1600 
 14 C       -8.9430     2.7040    -0.1680 C.3   1 <1>   0.3430 
 15 C       -8.6910     5.0890     0.4610 C.3   1 <1>   0.3430 
 16 N       -9.3780     4.1080    -0.4330 N.4   1 <1>  -0.9590 
 17 C      -10.8630     4.2320    -0.3160 C.3   1 <1>   0.2630 
 18 H       -2.5330     0.9040     1.4110 H     1 <1>   0.1500 
 19 H        0.6690     2.7330    -0.7020 H     1 <1>   0.1500 
 20 H       -0.8820     4.4570    -1.5690 H     1 <1>   0.1500 
 21 H       -3.2410     4.3980    -0.9450 H     1 <1>   0.1500 
 22 H       -6.8010     3.3270     1.5460 H     1 <1>   0.0800 
 23 H       -7.1390     1.5780    -0.1300 H     1 <1>   0.0800 
 24 H       -7.2060     2.7500    -1.4190 H     1 <1>   0.0800 
 25 H       -6.9310     5.3210    -0.7360 H     1 <1>   0.0800 
 26 H       -6.6980     5.6680     0.9570 H     1 <1>   0.0800 
 27 H       -9.1840     2.4310     0.8480 H     1 <1>   0.0800 
 28 H       -9.4560     2.0250    -0.8310 H     1 <1>   0.0800 
 29 H       -9.0260     6.0890     0.2380 H     1 <1>   0.0800 
 30 H       -8.9310     4.8730     1.4900 H     1 <1>   0.0800 
 31 H       -9.1090     4.3340    -1.4020 H     1 <1>   0.4500 
 32 H      -11.1810     4.0010     0.6880 H     1 <1>   0.0800 
 33 H      -11.3500     3.5530    -0.9970 H     1 <1>   0.0800 
 34 H      -11.1750     5.2360    -0.5540 H     1 <1>   0.0800 
@<TRIPOS>BOND
  1   1   2  1   
  2   2   3  ar  
  3   2   4  ar  
  4   3   5  ar  
  5   3  18  1   
  6   4   6  ar  
  7   4  19  1   
  8   5   7  1   
  9   5   8  ar  
 10   6   8  ar  
 11   6  20  1   
 12   7   9  2   
 13   7  10  1   
 14   8  21  1   
 15  10  11  1   
 16  11  12  1   
 17  11  13  1   
 18  11  22  1   
 19  12  14  1   
 20  12  23  1   
 21  12  24  1   
 22  13  15  1   
 23  13  25  1   
 24  13  26  1   
 25  14  16  1   
 26  14  27  1   
 27  14  28  1   
 28  15  16  1   
 29  15  29  1   
 30  15  30  1   
 31  16  17  1   
 32  16  31  1   
 33  17  32  1   
 34  17  33  1   
 35  17  34  1   
@<TRIPOS>SUBSTRUCTURE
  1 ****  10 GROUP 4 **** **** 0

# MOE 2024.06 (io_trps.svl 2023.06)
