@<TRIPOS>MOLECULE
NONAME
42 42 1 0 0 
SMALL
USER_CHARGES


@<TRIPOS>ATOM
  1 CL      -2.1780     1.7590     2.6460 Cl    1 <1>  -0.1770 
  2 C       -1.0380     2.4310     1.5030 C.ar  1 <1>   0.1770 
  3 C       -1.3160     2.3720     0.1430 C.ar  1 <1>  -0.1440 
  4 C        0.1140     3.0210     1.9860 C.ar  1 <1>  -0.1500 
  5 C       -0.4060     2.9220    -0.7530 C.ar  1 <1>  -0.1500 
  6 C       -2.5870     1.7080    -0.3510 C.3   1 <1>   0.4870 
  7 C        1.0020     3.5630     1.0780 C.ar  1 <1>   0.1770 
  8 C        0.7540     3.5190    -0.2830 C.ar  1 <1>  -0.1500 
  9 N       -3.7670     2.5130     0.1020 N.4   1 <1>  -0.9590 
 10 CL       2.4610     4.3180     1.6570 Cl    1 <1>  -0.1770 
 11 C       -5.0370     1.7030     0.0220 C.3   1 <1>   0.3430 
 12 C       -3.8200     3.8220    -0.6370 C.3   1 <1>   0.2630 
 13 C       -6.2410     2.3310     0.7840 C.3   1 <1>   0.3430 
 14 N       -7.4680     1.4540     0.8850 N.4   1 <1>  -0.9590 
 15 C       -8.1340     1.1850    -0.4270 C.3   1 <1>   0.3430 
 16 C       -8.4440     2.0700     1.8340 C.3   1 <1>   0.3430 
 17 C       -7.7090    -0.1880    -0.9290 C.3   1 <1>  -0.2400 
 18 C       -9.3830     0.9930     2.3650 C.3   1 <1>  -0.2400 
 19 H        0.3220     3.0610     3.0410 H     1 <1>   0.1500 
 20 H       -0.5750     2.8900    -1.8170 H     1 <1>   0.1500 
 21 H       -2.6350     0.7120     0.0610 H     1 <1>   0.0800 
 22 H       -2.5720     1.6290    -1.4270 H     1 <1>   0.0800 
 23 H        1.4710     3.9490    -0.9630 H     1 <1>   0.1500 
 24 H       -3.5480     2.7160     1.0940 H     1 <1>   0.4500 
 25 H       -4.8490     0.7300     0.4480 H     1 <1>   0.0800 
 26 H       -5.3050     1.5690    -1.0130 H     1 <1>   0.0800 
 27 H       -3.9900     3.6570    -1.6900 H     1 <1>   0.0800 
 28 H       -2.8860     4.3520    -0.5250 H     1 <1>   0.0800 
 29 H       -4.6070     4.4490    -0.2520 H     1 <1>   0.0800 
 30 H       -6.5140     3.2560     0.3020 H     1 <1>   0.0800 
 31 H       -5.9120     2.5640     1.7830 H     1 <1>   0.0800 
 32 H       -7.2320     0.5410     1.3030 H     1 <1>   0.4500 
 33 H       -7.8840     1.9480    -1.1480 H     1 <1>   0.0800 
 34 H       -9.2070     1.1870    -0.3060 H     1 <1>   0.0800 
 35 H       -9.0100     2.8490     1.3440 H     1 <1>   0.0800 
 36 H       -7.9220     2.5090     2.6700 H     1 <1>   0.0800 
 37 H       -6.6560    -0.2450    -1.1240 H     1 <1>   0.0800 
 38 H       -8.2220    -0.3950    -1.8530 H     1 <1>   0.0800 
 39 H       -7.9920    -0.9540    -0.2270 H     1 <1>   0.0800 
 40 H       -9.9800     0.5590     1.5830 H     1 <1>   0.0800 
 41 H      -10.0570     1.4360     3.0770 H     1 <1>   0.0800 
 42 H       -8.8350     0.2190     2.8730 H     1 <1>   0.0800 
@<TRIPOS>BOND
  1   1   2  1   
  2   2   3  ar  
  3   2   4  ar  
  4   3   5  ar  
  5   3   6  1   
  6   4   7  ar  
  7   4  19  1   
  8   5   8  ar  
  9   5  20  1   
 10   6   9  1   
 11   6  21  1   
 12   6  22  1   
 13   7   8  ar  
 14   7  10  1   
 15   8  23  1   
 16   9  11  1   
 17   9  12  1   
 18   9  24  1   
 19  11  13  1   
 20  11  25  1   
 21  11  26  1   
 22  12  27  1   
 23  12  28  1   
 24  12  29  1   
 25  13  14  1   
 26  13  30  1   
 27  13  31  1   
 28  14  15  1   
 29  14  16  1   
 30  14  32  1   
 31  15  17  1   
 32  15  33  1   
 33  15  34  1   
 34  16  18  1   
 35  16  35  1   
 36  16  36  1   
 37  17  37  1   
 38  17  38  1   
 39  17  39  1   
 40  18  40  1   
 41  18  41  1   
 42  18  42  1   
@<TRIPOS>SUBSTRUCTURE
  1 ****   9 GROUP 4 **** **** 0

# MOE 2024.06 (io_trps.svl 2023.06)
