@<TRIPOS>MOLECULE
NONAME
46 48 1 0 0 
SMALL
USER_CHARGES


@<TRIPOS>ATOM
  1 F       -0.9890     6.6150     1.6400 F     1 <1>  -0.1900 
  2 C       -1.4110     5.3810     1.5830 C.ar  1 <1>   0.1900 
  3 C       -2.5410     5.0980     0.8450 C.ar  1 <1>  -0.1500 
  4 C       -0.7080     4.4090     2.2660 C.ar  1 <1>  -0.1500 
  5 C       -3.0190     3.7880     0.7680 C.ar  1 <1>   0.0860 
  6 C       -1.1630     3.1050     2.1980 C.ar  1 <1>  -0.1500 
  7 C       -4.2140     3.4840    -0.0020 C.2   1 <1>   0.5440 
  8 C       -2.2970     2.8040     1.4590 C.ar  1 <1>  -0.1500 
  9 O       -4.5950     4.2430    -0.8700 O.2   1 <1>  -0.5700 
 10 N       -4.9100     2.3260     0.2520 N.am  1 <1>  -0.5470 
 11 C       -6.0370     1.7220    -0.3240 C.ar  1 <1>   0.1170 
 12 C       -6.1990     0.3260    -0.2260 C.ar  1 <1>   0.0860 
 13 C       -7.0090     2.4790    -0.9740 C.ar  1 <1>  -0.1500 
 14 C       -5.2170    -0.5280     0.4230 C.2   1 <1>   0.5440 
 15 C       -7.3440    -0.2430    -0.7900 C.ar  1 <1>  -0.1500 
 16 C       -8.1270     1.8890    -1.5280 C.ar  1 <1>  -0.1500 
 17 O       -4.5470    -0.1250     1.3620 O.2   1 <1>  -0.5700 
 18 N       -4.9810    -1.7980    -0.0520 N.am  1 <1>  -0.6600 
 19 C       -8.2970     0.5200    -1.4340 C.ar  1 <1>  -0.1500 
 20 C       -4.7340    -2.9830     0.8280 C.3   1 <1>   0.2200 
 21 C       -4.4400    -1.9160    -1.4350 C.3   1 <1>   0.1400 
 22 C       -5.2180    -4.2630     0.1220 C.3   1 <1>  -0.1600 
 23 C       -5.4660    -2.8730     2.1720 C.3   1 <1>  -0.2400 
 24 C       -4.9700    -3.1740    -2.1210 C.3   1 <1>  -0.1600 
 25 C       -4.6470    -4.4200    -1.2920 C.3   1 <1>  -0.1600 
 26 H       -3.0530     5.8910     0.3280 H     1 <1>   0.1500 
 27 H        0.1680     4.6700     2.8320 H     1 <1>   0.1500 
 28 H       -0.6350     2.3230     2.7170 H     1 <1>   0.1500 
 29 H       -2.6140     1.7760     1.4220 H     1 <1>   0.1500 
 30 H       -4.4740     1.7160     0.9560 H     1 <1>   0.3700 
 31 H       -6.8970     3.5450    -1.0470 H     1 <1>   0.1500 
 32 H       -7.4880    -1.3070    -0.7180 H     1 <1>   0.1500 
 33 H       -8.8640     2.4930    -2.0280 H     1 <1>   0.1500 
 34 H       -9.1690     0.0560    -1.8620 H     1 <1>   0.1500 
 35 H       -3.6750    -3.0580     1.0080 H     1 <1>   0.0800 
 36 H       -3.3650    -1.9600    -1.3820 H     1 <1>   0.0800 
 37 H       -4.7080    -1.0490    -2.0160 H     1 <1>   0.0800 
 38 H       -6.2930    -4.2470     0.0670 H     1 <1>   0.0800 
 39 H       -4.9380    -5.1200     0.7090 H     1 <1>   0.0800 
 40 H       -6.5100    -2.6690     2.0190 H     1 <1>   0.0800 
 41 H       -5.0360    -2.0990     2.7800 H     1 <1>   0.0800 
 42 H       -5.3730    -3.7930     2.7190 H     1 <1>   0.0800 
 43 H       -4.5230    -3.2630    -3.0950 H     1 <1>   0.0800 
 44 H       -6.0340    -3.0830    -2.2540 H     1 <1>   0.0800 
 45 H       -5.0700    -5.2920    -1.7620 H     1 <1>   0.0800 
 46 H       -3.5800    -4.5520    -1.2370 H     1 <1>   0.0800 
@<TRIPOS>BOND
  1   1   2  1   
  2   2   3  ar  
  3   2   4  ar  
  4   3   5  ar  
  5   3  26  1   
  6   4   6  ar  
  7   4  27  1   
  8   5   7  1   
  9   5   8  ar  
 10   6   8  ar  
 11   6  28  1   
 12   7   9  2   
 13   7  10  am  
 14   8  29  1   
 15  10  11  1   
 16  10  30  1   
 17  11  12  ar  
 18  11  13  ar  
 19  12  14  1   
 20  12  15  ar  
 21  13  16  ar  
 22  13  31  1   
 23  14  17  2   
 24  14  18  am  
 25  15  19  ar  
 26  15  32  1   
 27  16  19  ar  
 28  16  33  1   
 29  18  20  1   
 30  18  21  1   
 31  19  34  1   
 32  20  22  1   
 33  20  23  1   
 34  20  35  1   
 35  21  24  1   
 36  21  36  1   
 37  21  37  1   
 38  22  25  1   
 39  22  38  1   
 40  22  39  1   
 41  23  40  1   
 42  23  41  1   
 43  23  42  1   
 44  24  25  1   
 45  24  43  1   
 46  24  44  1   
 47  25  45  1   
 48  25  46  1   
@<TRIPOS>SUBSTRUCTURE
  1 ****  10 GROUP 4 **** **** 0

# MOE 2024.06 (io_trps.svl 2023.06)
