@<TRIPOS>MOLECULE
NONAME
33 34 1 0 0 
SMALL
USER_CHARGES


@<TRIPOS>ATOM
  1 S        0.1030    -0.0030     0.0440 S.3   1 <1>  -0.3320 
  2 C       -1.4690    -0.8230    -0.2670 C.ar  1 <1>   0.1020 
  3 C        0.9640    -0.9650     1.3660 C.3   1 <1>  -0.0100 
  4 C       -1.8870    -1.9230     0.4630 C.ar  1 <1>  -0.1500 
  5 C       -2.2550    -0.3040    -1.2780 C.ar  1 <1>  -0.1500 
  6 C       -3.1120    -2.5020     0.1760 C.ar  1 <1>  -0.1500 
  7 C       -3.4770    -0.8860    -1.5640 C.ar  1 <1>  -0.1500 
  8 C       -3.9150    -1.9830    -0.8330 C.ar  1 <1>  -0.1430 
  9 C       -5.2660    -2.6030    -1.1320 C.3   1 <1>   0.4860 
 10 N       -6.2250    -2.1780    -0.0770 N.4   1 <1>  -0.9590 
 11 C       -7.5400    -2.8960    -0.1890 C.3   1 <1>   0.3430 
 12 C       -6.4280    -0.6850    -0.0750 C.3   1 <1>   0.3430 
 13 C       -8.5620    -2.3660     0.8360 C.3   1 <1>   0.1200 
 14 C       -7.5050    -0.2610     0.9410 C.3   1 <1>   0.1200 
 15 O       -8.6850    -0.9780     0.7210 O.3   1 <1>  -0.5600 
 16 H        1.9170    -0.4980     1.5370 H     1 <1>   0.0800 
 17 H        1.0920    -1.9730     1.0140 H     1 <1>   0.0800 
 18 H        0.3580    -0.9290     2.2530 H     1 <1>   0.0800 
 19 H       -1.2760    -2.3320     1.2440 H     1 <1>   0.1500 
 20 H       -1.9030     0.5470    -1.8350 H     1 <1>   0.1500 
 21 H       -3.4210    -3.3620     0.7460 H     1 <1>   0.1500 
 22 H       -4.0720    -0.4720    -2.3610 H     1 <1>   0.1500 
 23 H       -5.1700    -3.6770    -1.1390 H     1 <1>   0.0800 
 24 H       -5.6120    -2.2850    -2.1020 H     1 <1>   0.0800 
 25 H       -5.7970    -2.4160     0.8260 H     1 <1>   0.4500 
 26 H       -7.4000    -3.9540    -0.0370 H     1 <1>   0.0800 
 27 H       -7.9510    -2.7540    -1.1760 H     1 <1>   0.0800 
 28 H       -6.7390    -0.3570    -1.0530 H     1 <1>   0.0800 
 29 H       -5.5010    -0.1860     0.1610 H     1 <1>   0.0800 
 30 H       -8.2690    -2.6070     1.8430 H     1 <1>   0.0800 
 31 H       -9.5320    -2.7960     0.6500 H     1 <1>   0.0800 
 32 H       -7.7320     0.7850     0.8270 H     1 <1>   0.0800 
 33 H       -7.1770    -0.4310     1.9520 H     1 <1>   0.0800 
@<TRIPOS>BOND
  1   1   2  1   
  2   1   3  1   
  3   2   4  ar  
  4   2   5  ar  
  5   3  16  1   
  6   3  17  1   
  7   3  18  1   
  8   4   6  ar  
  9   4  19  1   
 10   5   7  ar  
 11   5  20  1   
 12   6   8  ar  
 13   6  21  1   
 14   7   8  ar  
 15   7  22  1   
 16   8   9  1   
 17   9  10  1   
 18   9  23  1   
 19   9  24  1   
 20  10  11  1   
 21  10  12  1   
 22  10  25  1   
 23  11  13  1   
 24  11  26  1   
 25  11  27  1   
 26  12  14  1   
 27  12  28  1   
 28  12  29  1   
 29  13  15  1   
 30  13  30  1   
 31  13  31  1   
 32  14  15  1   
 33  14  32  1   
 34  14  33  1   
@<TRIPOS>SUBSTRUCTURE
  1 ****   8 GROUP 4 **** **** 0

# MOE 2024.06 (io_trps.svl 2023.06)
