@<TRIPOS>MOLECULE
NONAME
45 48 1 0 0 
SMALL
USER_CHARGES


@<TRIPOS>ATOM
  1 O        4.2190     2.5910     0.0240 O.2   1 <1>  -0.5700 
  2 C        3.2840     3.1190    -0.5510 C.2   1 <1>   0.5440 
  3 N        2.0190     2.6540    -0.2880 N.am  1 <1>  -0.6600 
  4 C        3.5280     4.1600    -1.5260 C.ar  1 <1>   0.0860 
  5 C        0.7640     3.2430    -0.8370 C.3   1 <1>   0.2810 
  6 C        1.7520     1.4260     0.4870 C.3   1 <1>   0.1400 
  7 C        2.7250     5.3080    -1.6470 C.ar  1 <1>   0.1170 
  8 C        4.6140     4.0270    -2.3940 C.ar  1 <1>  -0.1500 
  9 C        0.6140     4.7440    -0.5100 C.2   1 <1>   0.5690 
 10 C       -0.3410     2.3420    -0.2590 C.3   1 <1>  -0.1600 
 11 C        0.3460     1.0190     0.0670 C.3   1 <1>  -0.1600 
 12 N        1.6680     5.5960    -0.7650 N.am  1 <1>  -0.4770 
 13 C        3.0030     6.2340    -2.6500 C.ar  1 <1>  -0.1500 
 14 C        4.8910     4.9640    -3.3690 C.ar  1 <1>  -0.1500 
 15 O       -0.4260     5.1580    -0.0490 O.2   1 <1>  -0.5700 
 16 C        1.7860     6.8470     0.0660 C.3   1 <1>   0.2010 
 17 C        4.0750     6.0710    -3.5030 C.ar  1 <1>  -0.1500 
 18 C        2.9650     6.7870     1.0370 C.2   1 <1>   0.5690 
 19 O        2.7540     6.7650     2.2250 O.2   1 <1>  -0.5700 
 20 N        4.2300     6.7570     0.5470 N.am  1 <1>  -0.7300 
 21 C        5.4130     6.3820     1.3350 C.3   1 <1>   0.3200 
 22 C        6.4210     5.7550     0.3910 C.2   1 <1>  -0.0400 
 23 O        6.9850     6.5050    -0.5390 O.3   1 <1>  -0.2800 
 24 C        6.8690     4.4840     0.3070 C.2   1 <1>  -0.1500 
 25 C        7.8070     5.7360    -1.2250 C.2   1 <1>  -0.0100 
 26 C        7.7830     4.4710    -0.7530 C.2   1 <1>  -0.1500 
 27 H        0.7800     3.1270    -1.9060 H     1 <1>   0.0800 
 28 H        2.4760     0.6590     0.2650 H     1 <1>   0.0800 
 29 H        1.7840     1.6610     1.5370 H     1 <1>   0.0800 
 30 H        5.2540     3.1660    -2.2930 H     1 <1>   0.1500 
 31 H       -0.7200     2.7690     0.6540 H     1 <1>   0.0800 
 32 H       -1.1590     2.2260    -0.9480 H     1 <1>   0.0800 
 33 H        0.4060     0.4050    -0.8150 H     1 <1>   0.0800 
 34 H       -0.1600     0.4730     0.8430 H     1 <1>   0.0800 
 35 H        2.3710     7.0960    -2.7670 H     1 <1>   0.1500 
 36 H        5.7370     4.8330    -4.0210 H     1 <1>   0.1500 
 37 H        1.9070     7.6980    -0.5750 H     1 <1>   0.0800 
 38 H        0.8920     7.0040     0.6430 H     1 <1>   0.0800 
 39 H        4.2800     6.8000    -4.2690 H     1 <1>   0.1500 
 40 H        4.4050     6.7160    -0.4600 H     1 <1>   0.3700 
 41 H        5.8350     7.2570     1.7980 H     1 <1>   0.0800 
 42 H        5.1340     5.6780     2.1000 H     1 <1>   0.0800 
 43 H        6.5930     3.6320     0.9060 H     1 <1>   0.1500 
 44 H        8.3700     6.1690    -2.0330 H     1 <1>   0.1500 
 45 H        8.3310     3.6100    -1.0910 H     1 <1>   0.1500 
@<TRIPOS>BOND
  1   1   2  2   
  2   2   3  am  
  3   2   4  1   
  4   3   5  1   
  5   3   6  1   
  6   4   7  ar  
  7   4   8  ar  
  8   5   9  1   
  9   5  10  1   
 10   5  27  1   
 11   6  11  1   
 12   6  28  1   
 13   6  29  1   
 14   7  12  1   
 15   7  13  ar  
 16   8  14  ar  
 17   8  30  1   
 18   9  12  am  
 19   9  15  2   
 20  10  11  1   
 21  10  31  1   
 22  10  32  1   
 23  11  33  1   
 24  11  34  1   
 25  12  16  1   
 26  13  17  ar  
 27  13  35  1   
 28  14  17  ar  
 29  14  36  1   
 30  16  18  1   
 31  16  37  1   
 32  16  38  1   
 33  17  39  1   
 34  18  19  2   
 35  18  20  am  
 36  20  21  1   
 37  20  40  1   
 38  21  22  1   
 39  21  41  1   
 40  21  42  1   
 41  22  23  1   
 42  22  24  2   
 43  23  25  1   
 44  24  26  1   
 45  24  43  1   
 46  25  26  2   
 47  25  44  1   
 48  26  45  1   
@<TRIPOS>SUBSTRUCTURE
  1 ****   4 GROUP 4 **** **** 0

# MOE 2024.06 (io_trps.svl 2023.06)
