@<TRIPOS>MOLECULE
NONAME
50 52 1 0 0 
SMALL
USER_CHARGES


@<TRIPOS>ATOM
  1 S        0.1410     0.1220     1.7060 S.o2  1 <1>   1.4470 
  2 O        0.5540     1.4540     2.0960 O.2   1 <1>  -0.6500 
  3 O       -0.4680    -0.7300     2.7040 O.2   1 <1>  -0.6500 
  4 N       -0.9850     0.3240     0.4540 N.am  1 <1>  -0.8490 
  5 C        1.5240    -0.7540     0.8990 C.ar  1 <1>  -0.0090 
  6 C       -0.5150     1.2750    -0.5600 C.3   1 <1>   0.1960 
  7 C       -2.2920     0.7250     0.9800 C.3   1 <1>   0.1960 
  8 C        1.4330    -2.0680     0.4330 C.ar  1 <1>  -0.1440 
  9 C        2.7280    -0.0840     0.7110 C.ar  1 <1>  -0.1500 
 10 C       -1.4850     1.3070    -1.7440 C.3   1 <1>  -0.1600 
 11 C       -3.3330     0.7500    -0.1450 C.3   1 <1>  -0.1600 
 12 C        2.5210    -2.6630    -0.1860 C.ar  1 <1>  -0.1500 
 13 C        0.1550    -2.8870     0.5820 C.3   1 <1>  -0.0970 
 14 C        3.8350    -0.6580     0.0910 C.ar  1 <1>   0.0860 
 15 C       -2.9030     1.6730    -1.2910 C.3   1 <1>  -0.1600 
 16 C        3.7020    -1.9700    -0.3560 C.ar  1 <1>  -0.1500 
 17 C        5.0660     0.0920    -0.0800 C.2   1 <1>   0.5440 
 18 O        5.0460     1.2990    -0.2190 O.2   1 <1>  -0.5700 
 19 N        6.2740    -0.5350    -0.0780 N.am  1 <1>  -0.7300 
 20 C        7.5660     0.1510    -0.2250 C.3   1 <1>   0.2840 
 21 C        8.6570    -0.9030    -0.1920 C.ar  1 <1>  -0.1440 
 22 C        9.0390    -1.5490    -1.3580 C.ar  1 <1>  -0.1500 
 23 C        9.2760    -1.2350     1.0040 C.ar  1 <1>  -0.1500 
 24 C       10.0300    -2.5150    -1.3300 C.ar  1 <1>  -0.1500 
 25 C       10.2670    -2.2010     1.0330 C.ar  1 <1>  -0.1500 
 26 C       10.6440    -2.8420    -0.1340 C.ar  1 <1>  -0.1500 
 27 H        0.4580     0.9800    -0.9170 H     1 <1>   0.0800 
 28 H       -0.4300     2.2610    -0.1300 H     1 <1>   0.0800 
 29 H       -2.2180     1.6970     1.4410 H     1 <1>   0.0800 
 30 H       -2.6150     0.0220     1.7300 H     1 <1>   0.0800 
 31 H        2.8200     0.9330     1.0570 H     1 <1>   0.1500 
 32 H       -1.4900     0.3390    -2.2140 H     1 <1>   0.0800 
 33 H       -1.1400     2.0240    -2.4680 H     1 <1>   0.0800 
 34 H       -4.2770     1.0790     0.2510 H     1 <1>   0.0800 
 35 H       -3.4630    -0.2520    -0.5150 H     1 <1>   0.0800 
 36 H        2.4530    -3.6760    -0.5450 H     1 <1>   0.1500 
 37 H        0.2380    -3.8330     0.0780 H     1 <1>   0.0800 
 38 H       -0.0430    -3.0800     1.6220 H     1 <1>   0.0800 
 39 H       -0.6830    -2.3620     0.1600 H     1 <1>   0.0800 
 40 H       -3.5890     1.5840    -2.1150 H     1 <1>   0.0800 
 41 H       -2.9170     2.6950    -0.9510 H     1 <1>   0.0800 
 42 H        4.5270    -2.4510    -0.8510 H     1 <1>   0.1500 
 43 H        6.3530    -1.5290     0.1420 H     1 <1>   0.3700 
 44 H        7.6920     0.8560     0.5790 H     1 <1>   0.0800 
 45 H        7.5840     0.6890    -1.1570 H     1 <1>   0.0800 
 46 H        8.5640    -1.3030    -2.2930 H     1 <1>   0.1500 
 47 H        8.9880    -0.7440     1.9170 H     1 <1>   0.1500 
 48 H       10.3230    -3.0130    -2.2380 H     1 <1>   0.1500 
 49 H       10.7440    -2.4540     1.9630 H     1 <1>   0.1500 
 50 H       11.4150    -3.5920    -0.1120 H     1 <1>   0.1500 
@<TRIPOS>BOND
  1   1   2  2   
  2   1   3  2   
  3   1   4  am  
  4   1   5  1   
  5   4   6  1   
  6   4   7  1   
  7   5   8  ar  
  8   5   9  ar  
  9   6  10  1   
 10   6  27  1   
 11   6  28  1   
 12   7  11  1   
 13   7  29  1   
 14   7  30  1   
 15   8  12  ar  
 16   8  13  1   
 17   9  14  ar  
 18   9  31  1   
 19  10  15  1   
 20  10  32  1   
 21  10  33  1   
 22  11  15  1   
 23  11  34  1   
 24  11  35  1   
 25  12  16  ar  
 26  12  36  1   
 27  13  37  1   
 28  13  38  1   
 29  13  39  1   
 30  14  16  ar  
 31  14  17  1   
 32  15  40  1   
 33  15  41  1   
 34  16  42  1   
 35  17  18  2   
 36  17  19  am  
 37  19  20  1   
 38  19  43  1   
 39  20  21  1   
 40  20  44  1   
 41  20  45  1   
 42  21  22  ar  
 43  21  23  ar  
 44  22  24  ar  
 45  22  46  1   
 46  23  25  ar  
 47  23  47  1   
 48  24  26  ar  
 49  24  48  1   
 50  25  26  ar  
 51  25  49  1   
 52  26  50  1   
@<TRIPOS>SUBSTRUCTURE
  1 ****  14 GROUP 4 **** **** 0

# MOE 2024.06 (io_trps.svl 2023.06)
