@<TRIPOS>MOLECULE
NONAME
56 57 1 0 0 
SMALL
USER_CHARGES


@<TRIPOS>ATOM
  1 O        9.7260    -0.8120     0.9040 O.2   1 <1>  -0.5700 
  2 C        9.4060    -1.7800     0.2440 C.2   1 <1>   0.7800 
  3 O       10.1950    -2.2120    -0.7380 O.3   1 <1>  -0.4300 
  4 N        8.2230    -2.4400     0.4470 N.am  1 <1>  -0.6600 
  5 C       11.4320    -1.5870    -0.9980 C.3   1 <1>   0.1200 
  6 C        7.2560    -1.9960     1.4910 C.3   1 <1>   0.1400 
  7 C        7.6980    -3.4830    -0.4810 C.3   1 <1>   0.1400 
  8 C       12.0890    -2.3080    -2.1710 C.3   1 <1>  -0.2400 
  9 C        5.9590    -1.4980     0.8290 C.3   1 <1>   0.3430 
 10 C        6.3910    -2.9980    -1.1390 C.3   1 <1>   0.3430 
 11 N        5.3870    -2.5170    -0.1240 N.4   1 <1>  -0.9590 
 12 C        4.1010    -2.0670    -0.7430 C.3   1 <1>   0.3430 
 13 C        2.9400    -2.2290     0.2610 C.3   1 <1>   0.2000 
 14 O        3.1740    -3.3620     1.0450 O.3   1 <1>  -0.6800 
 15 C        1.5760    -2.3710    -0.4260 C.3   1 <1>   0.1200 
 16 O        0.6170    -2.6900     0.5580 O.3   1 <1>  -0.3630 
 17 C       -0.6900    -2.8640     0.2370 C.ar  1 <1>   0.0820 
 18 C       -1.1860    -2.7920    -1.0610 C.ar  1 <1>  -0.1500 
 19 C       -1.5600    -3.1280     1.2810 C.ar  1 <1>  -0.1500 
 20 C       -2.5370    -2.9830    -1.2960 C.ar  1 <1>  -0.1500 
 21 C       -2.9090    -3.3180     1.0400 C.ar  1 <1>  -0.1500 
 22 C       -3.4110    -3.2470    -0.2510 C.ar  1 <1>  -0.1440 
 23 C       -4.9040    -3.4590    -0.4990 C.3   1 <1>   0.0630 
 24 C       -5.1420    -4.6780    -1.3960 C.3   1 <1>  -0.2400 
 25 C       -5.5410    -2.2050    -1.1040 C.3   1 <1>  -0.2400 
 26 H       12.0420    -1.6550    -0.1120 H     1 <1>   0.0800 
 27 H       11.2510    -0.5510    -1.2330 H     1 <1>   0.0800 
 28 H        7.6760    -1.2040     2.0880 H     1 <1>   0.0800 
 29 H        7.0390    -2.8180     2.1500 H     1 <1>   0.0800 
 30 H        7.5140    -4.3890     0.0720 H     1 <1>   0.0800 
 31 H        8.4160    -3.7140    -1.2490 H     1 <1>   0.0800 
 32 H       12.2570    -3.3410    -1.9250 H     1 <1>   0.0800 
 33 H       13.0380    -1.8520    -2.3890 H     1 <1>   0.0800 
 34 H       11.4690    -2.2400    -3.0460 H     1 <1>   0.0800 
 35 H        6.1780    -0.5860     0.2990 H     1 <1>   0.0800 
 36 H        5.2390    -1.2730     1.5990 H     1 <1>   0.0800 
 37 H        5.9700    -3.8030    -1.7180 H     1 <1>   0.0800 
 38 H        6.6330    -2.1940    -1.8150 H     1 <1>   0.0800 
 39 H        5.0900    -3.3240     0.4600 H     1 <1>   0.4500 
 40 H        3.8870    -2.6830    -1.6000 H     1 <1>   0.0800 
 41 H        4.1710    -1.0450    -1.0780 H     1 <1>   0.0800 
 42 H        2.9080    -1.3770     0.9190 H     1 <1>   0.0800 
 43 H        2.3290    -3.6030     1.4960 H     1 <1>   0.4000 
 44 H        1.5940    -3.1650    -1.1520 H     1 <1>   0.0800 
 45 H        1.2860    -1.4470    -0.8960 H     1 <1>   0.0800 
 46 H       -0.5510    -2.5910    -1.9000 H     1 <1>   0.1500 
 47 H       -1.1810    -3.1840     2.2850 H     1 <1>   0.1500 
 48 H       -2.9080    -2.9250    -2.3040 H     1 <1>   0.1500 
 49 H       -3.5660    -3.5220     1.8670 H     1 <1>   0.1500 
 50 H       -5.3870    -3.6490     0.4450 H     1 <1>   0.0800 
 51 H       -4.7230    -4.5230    -2.3740 H     1 <1>   0.0800 
 52 H       -6.1960    -4.8640    -1.5000 H     1 <1>   0.0800 
 53 H       -4.6820    -5.5470    -0.9610 H     1 <1>   0.0800 
 54 H       -5.1320    -1.9960    -2.0760 H     1 <1>   0.0800 
 55 H       -5.3570    -1.3590    -0.4660 H     1 <1>   0.0800 
 56 H       -6.6040    -2.3360    -1.2000 H     1 <1>   0.0800 
@<TRIPOS>BOND
  1   1   2  2   
  2   2   3  1   
  3   2   4  am  
  4   3   5  1   
  5   4   6  1   
  6   4   7  1   
  7   5   8  1   
  8   5  26  1   
  9   5  27  1   
 10   6   9  1   
 11   6  28  1   
 12   6  29  1   
 13   7  10  1   
 14   7  30  1   
 15   7  31  1   
 16   8  32  1   
 17   8  33  1   
 18   8  34  1   
 19   9  11  1   
 20   9  35  1   
 21   9  36  1   
 22  10  11  1   
 23  10  37  1   
 24  10  38  1   
 25  11  12  1   
 26  11  39  1   
 27  12  13  1   
 28  12  40  1   
 29  12  41  1   
 30  13  14  1   
 31  13  15  1   
 32  13  42  1   
 33  14  43  1   
 34  15  16  1   
 35  15  44  1   
 36  15  45  1   
 37  16  17  1   
 38  17  18  ar  
 39  17  19  ar  
 40  18  20  ar  
 41  18  46  1   
 42  19  21  ar  
 43  19  47  1   
 44  20  22  ar  
 45  20  48  1   
 46  21  22  ar  
 47  21  49  1   
 48  22  23  1   
 49  23  24  1   
 50  23  25  1   
 51  23  50  1   
 52  24  51  1   
 53  24  52  1   
 54  24  53  1   
 55  25  54  1   
 56  25  55  1   
 57  25  56  1   
@<TRIPOS>SUBSTRUCTURE
  1 ****  13 GROUP 4 **** **** 0

# MOE 2024.06 (io_trps.svl 2023.06)
