@<TRIPOS>MOLECULE
NONAME
40 42 1 0 0 
SMALL
USER_CHARGES


@<TRIPOS>ATOM
  1 S       -0.1550    -0.0310    -0.8310 S.3   1 <1>  -0.0800 
  2 C        0.5380     1.5050    -0.3800 C.2   1 <1>   0.1240 
  3 C       -1.7450     0.4960    -0.2770 C.2   1 <1>  -0.1400 
  4 N        1.8400     1.8420    -0.5330 N.pl3 1 <1>  -0.5340 
  5 C       -0.3730     2.3480     0.1530 C.2   1 <1>  -0.0860 
  6 C       -1.6920     1.7560     0.2080 C.2   1 <1>  -0.1810 
  7 C       -2.8580    -0.5220    -0.4340 C.3   1 <1>  -0.0600 
  8 C        2.2740     3.0860    -0.1480 C.2   1 <1>   0.4140 
  9 C        0.1350     3.6260     0.5520 C.2   1 <1>   0.8670 
 10 C       -2.8630     2.5450     0.7740 C.3   1 <1>  -0.0590 
 11 N        1.4590     3.9470     0.3830 N.2   1 <1>  -0.6610 
 12 C        3.6740     3.4060    -0.3400 C.ar  1 <1>   0.0860 
 13 O       -0.5880     4.4730     1.0600 O.2   1 <1>  -0.5700 
 14 C        4.3740     4.1660     0.5990 C.ar  1 <1>  -0.1500 
 15 C        4.3840     2.9680    -1.4610 C.ar  1 <1>  -0.1500 
 16 C        5.7160     4.4610     0.4450 C.ar  1 <1>  -0.1500 
 17 C        5.7260     3.2570    -1.6210 C.ar  1 <1>  -0.1500 
 18 C        6.4080     4.0000    -0.6720 C.ar  1 <1>   0.0830 
 19 O        7.7200     4.2290    -0.9080 O.3   1 <1>  -0.3630 
 20 C        8.5660     4.9300    -0.0240 C.3   1 <1>   0.2000 
 21 C        9.7680     5.4050    -0.8370 C.3   1 <1>  -0.2400 
 22 C        8.9990     3.9850     1.0990 C.3   1 <1>  -0.2400 
 23 H        2.5060     1.1600    -0.8990 H     1 <1>   0.4000 
 24 H       -2.9690    -0.7820    -1.4710 H     1 <1>   0.0800 
 25 H       -3.7930    -0.1350    -0.0760 H     1 <1>   0.0800 
 26 H       -2.6200    -1.4110     0.1220 H     1 <1>   0.0800 
 27 H       -3.7720     1.9770     0.7440 H     1 <1>   0.0800 
 28 H       -3.0050     3.4470     0.2050 H     1 <1>   0.0800 
 29 H       -2.6620     2.8140     1.7960 H     1 <1>   0.0800 
 30 H        3.8480     4.5300     1.4660 H     1 <1>   0.1500 
 31 H        3.8800     2.4040    -2.2260 H     1 <1>   0.1500 
 32 H        6.2030     5.0470     1.2000 H     1 <1>   0.1500 
 33 H        6.2600     2.9120    -2.4890 H     1 <1>   0.1500 
 34 H        8.0390     5.7870     0.3590 H     1 <1>   0.0800 
 35 H       10.2910     4.5650    -1.2590 H     1 <1>   0.0800 
 36 H       10.4460     5.9520    -0.2080 H     1 <1>   0.0800 
 37 H        9.4400     6.0530    -1.6290 H     1 <1>   0.0800 
 38 H        9.5110     3.1330     0.6910 H     1 <1>   0.0800 
 39 H        8.1490     3.6480     1.6630 H     1 <1>   0.0800 
 40 H        9.6660     4.4960     1.7700 H     1 <1>   0.0800 
@<TRIPOS>BOND
  1   1   2  1   
  2   1   3  1   
  3   2   4  1   
  4   2   5  2   
  5   3   6  2   
  6   3   7  1   
  7   4   8  1   
  8   4  23  1   
  9   5   6  1   
 10   5   9  1   
 11   6  10  1   
 12   7  24  1   
 13   7  25  1   
 14   7  26  1   
 15   8  11  2   
 16   8  12  1   
 17   9  11  1   
 18   9  13  2   
 19  10  27  1   
 20  10  28  1   
 21  10  29  1   
 22  12  14  ar  
 23  12  15  ar  
 24  14  16  ar  
 25  14  30  1   
 26  15  17  ar  
 27  15  31  1   
 28  16  18  ar  
 29  16  32  1   
 30  17  18  ar  
 31  17  33  1   
 32  18  19  1   
 33  19  20  1   
 34  20  21  1   
 35  20  22  1   
 36  20  34  1   
 37  21  35  1   
 38  21  36  1   
 39  21  37  1   
 40  22  38  1   
 41  22  39  1   
 42  22  40  1   
@<TRIPOS>SUBSTRUCTURE
  1 ****   8 GROUP 4 **** **** 0

# MOE 2024.06 (io_trps.svl 2023.06)
