@<TRIPOS>MOLECULE
NONAME
36 37 1 0 0 
SMALL
USER_CHARGES


@<TRIPOS>ATOM
  1 CL       3.6530     1.2460     3.0160 Cl    1 <1>  -0.1770 
  2 C        3.9680    -0.0350     1.8740 C.ar  1 <1>   0.1770 
  3 C        4.0580     0.2640     0.5280 C.ar  1 <1>  -0.1500 
  4 C        4.1250    -1.3290     2.3320 C.ar  1 <1>  -0.1500 
  5 C        4.3100    -0.7540    -0.3770 C.ar  1 <1>  -0.1500 
  6 C        4.3770    -2.3430     1.4240 C.ar  1 <1>  -0.1500 
  7 C        4.4710    -2.0600     0.0680 C.ar  1 <1>  -0.1430 
  8 C        4.7690    -3.1770    -0.9290 C.3   1 <1>   0.0440 
  9 C        6.2560    -3.3930    -1.1650 C.2   1 <1>   0.5690 
 10 O        6.5780    -4.2570    -1.9420 O.2   1 <1>  -0.5700 
 11 N        7.1410    -2.6100    -0.4940 N.am  1 <1>  -0.4930 
 12 C        8.5250    -2.5820    -0.5090 C.2   1 <1>   0.5790 
 13 N        9.3140    -3.3660    -1.2400 N.2   1 <1>  -0.2270 
 14 N        9.1430    -1.7440     0.2310 N.2   1 <1>  -0.7070 
 15 N       10.5080    -3.0150    -0.9590 N.2   1 <1>  -0.4180 
 16 N       10.3940    -2.0390    -0.0750 N.pl3 1 <1>   0.5800 
 17 C       11.5520    -1.3430     0.5180 C.3   1 <1>   0.0960 
 18 C       11.8800    -0.0510    -0.2460 C.3   1 <1>  -0.1600 
 19 C       13.0860     0.6690     0.3700 C.3   1 <1>  -0.1600 
 20 C       13.4070     1.9540    -0.3970 C.3   1 <1>  -0.2400 
 21 H        3.9300     1.2790     0.1970 H     1 <1>   0.1500 
 22 H        4.0500    -1.5350     3.3850 H     1 <1>   0.1500 
 23 H        4.3800    -0.5210    -1.4260 H     1 <1>   0.1500 
 24 H        4.4990    -3.3530     1.7820 H     1 <1>   0.1500 
 25 H        4.3080    -2.9550    -1.8740 H     1 <1>   0.0800 
 26 H        4.3470    -4.1010    -0.5780 H     1 <1>   0.0800 
 27 H        6.7540    -1.9140     0.1370 H     1 <1>   0.3700 
 28 H       12.3930    -2.0120     0.4940 H     1 <1>   0.0800 
 29 H       11.3180    -1.1200     1.5420 H     1 <1>   0.0800 
 30 H       11.0230     0.6020    -0.2210 H     1 <1>   0.0800 
 31 H       12.0950    -0.2930    -1.2740 H     1 <1>   0.0800 
 32 H       13.9480     0.0220     0.3470 H     1 <1>   0.0800 
 33 H       12.8780     0.9150     1.3980 H     1 <1>   0.0800 
 34 H       13.6400     1.7340    -1.4240 H     1 <1>   0.0800 
 35 H       14.2550     2.4460     0.0470 H     1 <1>   0.0800 
 36 H       12.5690     2.6300    -0.3690 H     1 <1>   0.0800 
@<TRIPOS>BOND
  1   1   2  1   
  2   2   3  ar  
  3   2   4  ar  
  4   3   5  ar  
  5   3  21  1   
  6   4   6  ar  
  7   4  22  1   
  8   5   7  ar  
  9   5  23  1   
 10   6   7  ar  
 11   6  24  1   
 12   7   8  1   
 13   8   9  1   
 14   8  25  1   
 15   8  26  1   
 16   9  10  2   
 17   9  11  am  
 18  11  12  1   
 19  11  27  1   
 20  12  13  1   
 21  12  14  2   
 22  13  15  2   
 23  14  16  1   
 24  15  16  1   
 25  16  17  1   
 26  17  18  1   
 27  17  28  1   
 28  17  29  1   
 29  18  19  1   
 30  18  30  1   
 31  18  31  1   
 32  19  20  1   
 33  19  32  1   
 34  19  33  1   
 35  20  34  1   
 36  20  35  1   
 37  20  36  1   
@<TRIPOS>SUBSTRUCTURE
  1 ****  11 GROUP 4 **** **** 0

# MOE 2024.06 (io_trps.svl 2023.06)
