@<TRIPOS>MOLECULE
NONAME
54 56 1 0 0 
SMALL
USER_CHARGES


@<TRIPOS>ATOM
  1 O       -7.6920    -0.7190     1.7500 O.2   1 <1>  -0.5700 
  2 C       -8.2650    -0.3890     0.7370 C.2   1 <1>   0.5690 
  3 N       -7.7800    -0.7900    -0.4720 N.am  1 <1>  -0.7300 
  4 C       -9.5190     0.5080     0.7870 C.3   1 <1>   0.0610 
  5 C       -6.7400    -1.8360    -0.7100 C.3   1 <1>   0.1400 
  6 C       -9.9220     0.8440     2.2470 C.3   1 <1>  -0.1600 
  7 C       -9.2540     1.8410     0.0440 C.3   1 <1>  -0.1600 
  8 C      -10.7170    -0.2040     0.1120 C.3   1 <1>  -0.1600 
  9 C       -5.3040    -1.3170    -0.4780 C.3   1 <1>   0.3430 
 10 C      -11.1730     1.7410     2.2920 C.3   1 <1>   0.0000 
 11 C      -10.5000     2.7470     0.0640 C.3   1 <1>   0.0000 
 12 C      -11.9770     0.6840     0.1320 C.3   1 <1>   0.0000 
 13 N       -5.0730    -0.9410     0.9510 N.4   1 <1>  -0.9590 
 14 C      -10.8770     3.0460     1.5290 C.3   1 <1>  -0.1600 
 15 C      -12.3350     1.0070     1.5960 C.3   1 <1>  -0.1600 
 16 C      -11.5440     2.0540     3.7470 C.3   1 <1>  -0.2400 
 17 C      -11.6700     2.0010    -0.6080 C.3   1 <1>  -0.1600 
 18 C      -10.2120     4.0560    -0.6820 C.3   1 <1>  -0.2400 
 19 C      -13.1450    -0.0430    -0.5470 C.3   1 <1>  -0.2400 
 20 C       -4.0710     0.1510     1.1030 C.3   1 <1>   0.2630 
 21 C       -4.7520    -2.1150     1.8140 C.3   1 <1>   0.2630 
 22 H       -8.3120    -0.5040    -1.2990 H     1 <1>   0.3700 
 23 H       -6.8250    -2.1760    -1.7280 H     1 <1>   0.0800 
 24 H       -6.9300    -2.6800    -0.0700 H     1 <1>   0.0800 
 25 H      -10.1140    -0.0690     2.7850 H     1 <1>   0.0800 
 26 H       -9.1060     1.3420     2.7410 H     1 <1>   0.0800 
 27 H       -8.9780     1.6470    -0.9770 H     1 <1>   0.0800 
 28 H       -8.4310     2.3520     0.5130 H     1 <1>   0.0800 
 29 H      -10.9190    -1.1270     0.6280 H     1 <1>   0.0800 
 30 H      -10.4770    -0.4480    -0.9070 H     1 <1>   0.0800 
 31 H       -5.1550    -0.4580    -1.1100 H     1 <1>   0.0800 
 32 H       -4.5940    -2.0720    -0.7720 H     1 <1>   0.0800 
 33 H       -5.9990    -0.5910     1.2940 H     1 <1>   0.4500 
 34 H      -10.0720     3.5730     2.0110 H     1 <1>   0.0800 
 35 H      -11.7440     3.6830     1.5550 H     1 <1>   0.0800 
 36 H      -13.2180     1.6220     1.6240 H     1 <1>   0.0800 
 37 H      -12.5580     0.0970     2.1250 H     1 <1>   0.0800 
 38 H      -10.7370     2.5650     4.2410 H     1 <1>   0.0800 
 39 H      -11.7530     1.1470     4.2870 H     1 <1>   0.0800 
 40 H      -12.4170     2.6810     3.7860 H     1 <1>   0.0800 
 41 H      -12.5450     2.6280    -0.6030 H     1 <1>   0.0800 
 42 H      -11.4280     1.7940    -1.6360 H     1 <1>   0.0800 
 43 H       -9.9520     3.8590    -1.7070 H     1 <1>   0.0800 
 44 H       -9.3980     4.5840    -0.2180 H     1 <1>   0.0800 
 45 H      -11.0780     4.6930    -0.6690 H     1 <1>   0.0800 
 46 H      -14.0280     0.5710    -0.5330 H     1 <1>   0.0800 
 47 H      -13.3640    -0.9630    -0.0360 H     1 <1>   0.0800 
 48 H      -12.9060    -0.2700    -1.5710 H     1 <1>   0.0800 
 49 H       -3.1030    -0.1760     0.7600 H     1 <1>   0.0800 
 50 H       -3.9920     0.4400     2.1390 H     1 <1>   0.0800 
 51 H       -4.3700     1.0140     0.5300 H     1 <1>   0.0800 
 52 H       -3.8260    -2.5700     1.5050 H     1 <1>   0.0800 
 53 H       -5.5410    -2.8470     1.7530 H     1 <1>   0.0800 
 54 H       -4.6620    -1.8040     2.8420 H     1 <1>   0.0800 
@<TRIPOS>BOND
  1   1   2  2   
  2   2   3  am  
  3   2   4  1   
  4   3   5  1   
  5   3  22  1   
  6   4   6  1   
  7   4   7  1   
  8   4   8  1   
  9   5   9  1   
 10   5  23  1   
 11   5  24  1   
 12   6  10  1   
 13   6  25  1   
 14   6  26  1   
 15   7  11  1   
 16   7  27  1   
 17   7  28  1   
 18   8  12  1   
 19   8  29  1   
 20   8  30  1   
 21   9  13  1   
 22   9  31  1   
 23   9  32  1   
 24  10  14  1   
 25  10  15  1   
 26  10  16  1   
 27  11  14  1   
 28  11  17  1   
 29  11  18  1   
 30  12  15  1   
 31  12  17  1   
 32  12  19  1   
 33  13  20  1   
 34  13  21  1   
 35  13  33  1   
 36  14  34  1   
 37  14  35  1   
 38  15  36  1   
 39  15  37  1   
 40  16  38  1   
 41  16  39  1   
 42  16  40  1   
 43  17  41  1   
 44  17  42  1   
 45  18  43  1   
 46  18  44  1   
 47  18  45  1   
 48  19  46  1   
 49  19  47  1   
 50  19  48  1   
 51  20  49  1   
 52  20  50  1   
 53  20  51  1   
 54  21  52  1   
 55  21  53  1   
 56  21  54  1   
@<TRIPOS>SUBSTRUCTURE
  1 ****   4 GROUP 4 **** **** 0

# MOE 2024.06 (io_trps.svl 2023.06)
