@<TRIPOS>MOLECULE
NONAME
52 53 1 0 0 
SMALL
USER_CHARGES


@<TRIPOS>ATOM
  1 O       -0.8590     0.7500     0.8570 O.2   1 <1>  -0.5700 
  2 C       -1.0880     1.8390     0.3880 C.2   1 <1>   0.5690 
  3 N       -0.1250     2.6760    -0.1000 N.am  1 <1>  -0.5470 
  4 C       -2.5330     2.3350     0.3140 C.3   1 <1>  -0.0190 
  5 C        1.2750     2.5930    -0.2210 C.ar  1 <1>   0.1170 
  6 C       -3.4210     1.7620     1.4380 C.3   1 <1>  -0.1600 
  7 C       -3.1530     2.0150    -1.0590 C.3   1 <1>  -0.1600 
  8 C        1.9380     3.6780    -0.8000 C.ar  1 <1>   0.0830 
  9 C        2.0200     1.4980     0.2010 C.ar  1 <1>  -0.1500 
 10 C       -4.8660     2.2550     1.3220 C.3   1 <1>   0.1400 
 11 C       -4.6030     2.4980    -1.1530 C.3   1 <1>   0.1400 
 12 O        1.1730     4.7390    -1.2050 O.3   1 <1>  -0.3630 
 13 C        3.3190     3.6440    -0.9410 C.ar  1 <1>  -0.1500 
 14 C        3.4040     1.4470     0.0670 C.ar  1 <1>  -0.1430 
 15 N       -5.3950     1.9230    -0.0300 N.am  1 <1>  -0.6600 
 16 C        1.7630     5.8790    -1.7920 C.3   1 <1>   0.0400 
 17 C        4.0360     2.5420    -0.5120 C.ar  1 <1>  -0.1500 
 18 C        4.2510     0.2400     0.5300 C.3   1 <1>   0.1430 
 19 C       -6.4930     1.1370    -0.2760 C.2   1 <1>   0.5690 
 20 C        5.0070    -0.3480    -0.6710 C.3   1 <1>  -0.2400 
 21 C        3.4110    -0.8920     1.1470 C.3   1 <1>  -0.2400 
 22 C        5.2590     0.6980     1.5940 C.3   1 <1>  -0.2400 
 23 O       -6.8980     0.9260    -1.3940 O.2   1 <1>  -0.5700 
 24 C       -7.2530     0.4950     0.8610 C.3   1 <1>  -0.1790 
 25 H       -0.4620     3.5620    -0.4790 H     1 <1>   0.3700 
 26 H       -2.5150     3.4040     0.4320 H     1 <1>   0.0800 
 27 H       -3.0210     2.0490     2.3950 H     1 <1>   0.0800 
 28 H       -3.4190     0.6860     1.3940 H     1 <1>   0.0800 
 29 H       -3.1320     0.9510    -1.2260 H     1 <1>   0.0800 
 30 H       -2.5770     2.4770    -1.8400 H     1 <1>   0.0800 
 31 H        1.4920     0.6770     0.6410 H     1 <1>   0.1500 
 32 H       -4.9000     3.3220     1.4560 H     1 <1>   0.0800 
 33 H       -5.4590     1.8060     2.0980 H     1 <1>   0.0800 
 34 H       -5.0170     2.2030    -2.1030 H     1 <1>   0.0800 
 35 H       -4.6420     3.5720    -1.0940 H     1 <1>   0.0800 
 36 H        3.8600     4.4600    -1.3810 H     1 <1>   0.1500 
 37 H        0.9800     6.5790    -2.0250 H     1 <1>   0.0800 
 38 H        2.2700     5.5860    -2.6940 H     1 <1>   0.0800 
 39 H        2.4480     6.3200    -1.0890 H     1 <1>   0.0800 
 40 H        5.1030     2.5480    -0.6360 H     1 <1>   0.1500 
 41 H        4.3080    -0.6400    -1.4350 H     1 <1>   0.0800 
 42 H        5.5730    -1.2140    -0.3770 H     1 <1>   0.0800 
 43 H        5.6870     0.3680    -1.0910 H     1 <1>   0.0800 
 44 H        2.8780    -0.5400     2.0120 H     1 <1>   0.0800 
 45 H        4.0390    -1.7090     1.4530 H     1 <1>   0.0800 
 46 H        2.7010    -1.2690     0.4320 H     1 <1>   0.0800 
 47 H        5.9410     1.4260     1.1950 H     1 <1>   0.0800 
 48 H        5.8340    -0.1350     1.9560 H     1 <1>   0.0800 
 49 H        4.7390     1.1420     2.4240 H     1 <1>   0.0800 
 50 H       -7.6690     1.2530     1.4970 H     1 <1>   0.0800 
 51 H       -6.5970    -0.1410     1.4240 H     1 <1>   0.0800 
 52 H       -8.0550    -0.1020     0.4680 H     1 <1>   0.0800 
@<TRIPOS>BOND
  1   1   2  2   
  2   2   3  am  
  3   2   4  1   
  4   3   5  1   
  5   3  25  1   
  6   4   6  1   
  7   4   7  1   
  8   4  26  1   
  9   5   8  ar  
 10   5   9  ar  
 11   6  10  1   
 12   6  27  1   
 13   6  28  1   
 14   7  11  1   
 15   7  29  1   
 16   7  30  1   
 17   8  12  1   
 18   8  13  ar  
 19   9  14  ar  
 20   9  31  1   
 21  10  15  1   
 22  10  32  1   
 23  10  33  1   
 24  11  15  1   
 25  11  34  1   
 26  11  35  1   
 27  12  16  1   
 28  13  17  ar  
 29  13  36  1   
 30  14  17  ar  
 31  14  18  1   
 32  15  19  am  
 33  16  37  1   
 34  16  38  1   
 35  16  39  1   
 36  17  40  1   
 37  18  20  1   
 38  18  21  1   
 39  18  22  1   
 40  19  23  2   
 41  19  24  1   
 42  20  41  1   
 43  20  42  1   
 44  20  43  1   
 45  21  44  1   
 46  21  45  1   
 47  21  46  1   
 48  22  47  1   
 49  22  48  1   
 50  22  49  1   
 51  24  50  1   
 52  24  51  1   
 53  24  52  1   
@<TRIPOS>SUBSTRUCTURE
  1 ****   3 GROUP 4 **** **** 0

# MOE 2024.06 (io_trps.svl 2023.06)
