@<TRIPOS>MOLECULE
NONAME
28 28 1 0 0 
SMALL
USER_CHARGES


@<TRIPOS>ATOM
  1 BR       1.8920     0.0390     2.7950 Br    1 <1>  -0.0580 
  2 C        3.0210     0.1310     1.2430 C.2   1 <1>   0.1980 
  3 O        4.2140    -0.4000     1.3180 O.3   1 <1>  -0.2800 
  4 C        2.7630     0.6800     0.0420 C.2   1 <1>  -0.1500 
  5 C        4.8030    -0.2150     0.1350 C.2   1 <1>   0.0550 
  6 C        3.9330     0.4530    -0.6870 C.2   1 <1>  -0.1500 
  7 C        6.1480    -0.6950    -0.0950 C.2   1 <1>   0.7150 
  8 O        6.7480    -1.3660     0.7250 O.2   1 <1>  -0.5700 
  9 N        6.8190    -0.3780    -1.2460 N.am  1 <1>  -0.7300 
 10 C        8.0690    -1.0260    -1.7510 C.3   1 <1>   0.1400 
 11 C        9.3490    -0.4810    -1.0760 C.3   1 <1>   0.3430 
 12 N        9.4180    -0.8330     0.3770 N.4   1 <1>  -0.9590 
 13 C       10.1830     0.1710     1.1720 C.3   1 <1>   0.2630 
 14 C        9.9190    -2.2190     0.6140 C.3   1 <1>   0.2630 
 15 H        1.8710     1.1790    -0.2930 H     1 <1>   0.1500 
 16 H        4.0790     0.7620    -1.7060 H     1 <1>   0.1500 
 17 H        6.3010     0.1700    -1.9380 H     1 <1>   0.3700 
 18 H        8.1390    -0.8500    -2.8110 H     1 <1>   0.0800 
 19 H        8.0060    -2.0910    -1.6040 H     1 <1>   0.0800 
 20 H        9.3570     0.5900    -1.1920 H     1 <1>   0.0800 
 21 H       10.2170    -0.8730    -1.5810 H     1 <1>   0.0800 
 22 H        8.4280    -0.8330     0.7160 H     1 <1>   0.4500 
 23 H       11.2130     0.1960     0.8550 H     1 <1>   0.0800 
 24 H       10.1500    -0.0820     2.2200 H     1 <1>   0.0800 
 25 H        9.7550     1.1520     1.0450 H     1 <1>   0.0800 
 26 H       10.9320    -2.3210     0.2610 H     1 <1>   0.0800 
 27 H        9.2950    -2.9330     0.1010 H     1 <1>   0.0800 
 28 H        9.8940    -2.4470     1.6670 H     1 <1>   0.0800 
@<TRIPOS>BOND
  1   1   2  1   
  2   2   3  1   
  3   2   4  2   
  4   3   5  1   
  5   4   6  1   
  6   4  15  1   
  7   5   6  2   
  8   5   7  1   
  9   6  16  1   
 10   7   8  2   
 11   7   9  am  
 12   9  10  1   
 13   9  17  1   
 14  10  11  1   
 15  10  18  1   
 16  10  19  1   
 17  11  12  1   
 18  11  20  1   
 19  11  21  1   
 20  12  13  1   
 21  12  14  1   
 22  12  22  1   
 23  13  23  1   
 24  13  24  1   
 25  13  25  1   
 26  14  26  1   
 27  14  27  1   
 28  14  28  1   
@<TRIPOS>SUBSTRUCTURE
  1 ****   7 GROUP 4 **** **** 0

# MOE 2024.06 (io_trps.svl 2023.06)
