@<TRIPOS>MOLECULE
NONAME
49 52 1 0 0 
SMALL
USER_CHARGES


@<TRIPOS>ATOM
  1 S       -0.1470    -0.0300    -0.2280 S.3   1 <1>  -0.0800 
  2 C        1.4680     0.6320    -0.0030 C.ar  1 <1>   0.2970 
  3 C       -0.9210     1.3490     0.6090 C.2   1 <1>  -0.0450 
  4 N        2.5470     0.0120    -0.4490 N.ar  1 <1>  -0.5670 
  5 C        1.3940     1.8390     0.6730 C.ar  1 <1>   0.0000 
  6 C        0.0480     2.2220     1.0120 C.2   1 <1>   0.0830 
  7 C       -2.3410     1.3660     0.7530 C.2   1 <1>   0.7150 
  8 C        3.6710     0.6570    -0.2070 C.ar  1 <1>   0.1670 
  9 C        2.5930     2.4940     0.9090 C.ar  1 <1>  -0.1500 
 10 N       -0.2190     3.3930     1.6930 N.pl3 1 <1>  -0.8830 
 11 O       -2.8940     2.2560     1.3800 O.2   1 <1>  -0.5700 
 12 N       -3.1000     0.3640     0.1960 N.am  1 <1>  -0.5470 
 13 C        3.7500     1.8860     0.4570 C.ar  1 <1>  -0.1430 
 14 C        4.9160    -0.0300    -0.7380 C.3   1 <1>  -0.0170 
 15 C       -4.4870     0.1910     0.2300 C.ar  1 <1>   0.1170 
 16 C        5.0830     2.5680     0.6990 C.3   1 <1>   0.4860 
 17 C        6.2090     0.6130    -0.2440 C.3   1 <1>   0.3430 
 18 C       -5.3750     1.0720    -0.3920 C.ar  1 <1>  -0.1440 
 19 C       -4.9950    -0.9210     0.8890 C.ar  1 <1>  -0.1500 
 20 N        6.0960     2.1010    -0.2890 N.4   1 <1>  -0.9590 
 21 C       -6.7380     0.8290    -0.3280 C.ar  1 <1>  -0.1500 
 22 C       -4.8880     2.3010    -1.1500 C.3   1 <1>  -0.0970 
 23 C       -6.3550    -1.1570     0.9440 C.ar  1 <1>  -0.1500 
 24 C        7.4190     2.7600    -0.0670 C.3   1 <1>   0.2630 
 25 C       -7.2360    -0.2800     0.3360 C.ar  1 <1>  -0.1430 
 26 C       -8.7320    -0.5280     0.3930 C.3   1 <1>  -0.0970 
 27 H        2.5890     3.4400     1.4220 H     1 <1>   0.1500 
 28 H        0.4560     3.8090     2.3380 H     1 <1>   0.4000 
 29 H       -1.2030     3.5590     1.9640 H     1 <1>   0.4000 
 30 H       -2.5670    -0.4130    -0.1880 H     1 <1>   0.3700 
 31 H        4.8900    -0.0060    -1.8130 H     1 <1>   0.0800 
 32 H        4.9050    -1.0650    -0.4420 H     1 <1>   0.0800 
 33 H        5.4160     2.3440     1.7000 H     1 <1>   0.0800 
 34 H        4.9570     3.6360     0.6170 H     1 <1>   0.0800 
 35 H        7.0280     0.2790    -0.8620 H     1 <1>   0.0800 
 36 H        6.3990     0.2960     0.7690 H     1 <1>   0.0800 
 37 H       -4.3200    -1.6050     1.3700 H     1 <1>   0.1500 
 38 H        5.7430     2.3630    -1.2220 H     1 <1>   0.4500 
 39 H       -7.4240     1.5090    -0.8010 H     1 <1>   0.1500 
 40 H       -4.0220     2.0630    -1.7390 H     1 <1>   0.0800 
 41 H       -4.6320     3.0790    -0.4530 H     1 <1>   0.0800 
 42 H       -5.6500     2.6720    -1.8100 H     1 <1>   0.0800 
 43 H       -6.7250    -2.0230     1.4630 H     1 <1>   0.1500 
 44 H        7.8070     2.5080     0.9070 H     1 <1>   0.0800 
 45 H        7.3210     3.8320    -0.1320 H     1 <1>   0.0800 
 46 H        8.1280     2.4380    -0.8130 H     1 <1>   0.0800 
 47 H       -9.2630     0.4040     0.4610 H     1 <1>   0.0800 
 48 H       -8.9850    -1.1240     1.2510 H     1 <1>   0.0800 
 49 H       -9.0490    -1.0450    -0.4950 H     1 <1>   0.0800 
@<TRIPOS>BOND
  1   1   2  1   
  2   1   3  1   
  3   2   4  ar  
  4   2   5  ar  
  5   3   6  2   
  6   3   7  1   
  7   4   8  ar  
  8   5   6  1   
  9   5   9  ar  
 10   6  10  1   
 11   7  11  2   
 12   7  12  am  
 13   8  13  ar  
 14   8  14  1   
 15   9  13  ar  
 16   9  27  1   
 17  10  28  1   
 18  10  29  1   
 19  12  15  1   
 20  12  30  1   
 21  13  16  1   
 22  14  17  1   
 23  14  31  1   
 24  14  32  1   
 25  15  18  ar  
 26  15  19  ar  
 27  16  20  1   
 28  16  33  1   
 29  16  34  1   
 30  17  20  1   
 31  17  35  1   
 32  17  36  1   
 33  18  21  ar  
 34  18  22  1   
 35  19  23  ar  
 36  19  37  1   
 37  20  24  1   
 38  20  38  1   
 39  21  25  ar  
 40  21  39  1   
 41  22  40  1   
 42  22  41  1   
 43  22  42  1   
 44  23  25  ar  
 45  23  43  1   
 46  24  44  1   
 47  24  45  1   
 48  24  46  1   
 49  25  26  1   
 50  26  47  1   
 51  26  48  1   
 52  26  49  1   
@<TRIPOS>SUBSTRUCTURE
  1 ****   3 GROUP 4 **** **** 0

# MOE 2024.06 (io_trps.svl 2023.06)
