@<TRIPOS>MOLECULE
NONAME
37 40 1 0 0 
SMALL
USER_CHARGES


@<TRIPOS>ATOM
  1 F        0.4510    -1.1970    -0.1800 F     1 <1>  -0.3400 
  2 C       -0.7590    -1.2640    -0.7260 C.3   1 <1>   1.1640 
  3 F       -1.3810    -0.1440    -0.3780 F     1 <1>  -0.3400 
  4 F       -0.5780    -1.1990    -2.0380 F     1 <1>  -0.3400 
  5 C       -1.5340    -2.5250    -0.3130 C.ar  1 <1>  -0.1440 
  6 C       -2.9250    -2.5380    -0.3350 C.ar  1 <1>  -0.1500 
  7 C       -0.8660    -3.6800     0.0820 C.ar  1 <1>  -0.1500 
  8 C       -3.6540    -3.6660     0.0290 C.ar  1 <1>   0.1170 
  9 C       -1.5740    -4.8100     0.4480 C.ar  1 <1>  -0.1500 
 10 N       -5.0680    -3.6600    -0.0010 N.am  1 <1>  -0.2370 
 11 C       -2.9550    -4.8020     0.4220 C.ar  1 <1>  -0.1500 
 12 C       -5.9080    -4.3230     0.8910 C.2   1 <1>   0.5690 
 13 C       -5.8630    -3.0010    -0.9300 C.2   1 <1>   0.5690 
 14 O       -5.6250    -4.7810     1.9690 O.2   1 <1>  -0.5700 
 15 C       -7.2960    -4.3940     0.2680 C.3   1 <1>   0.0610 
 16 O       -5.5330    -2.4820    -1.9650 O.2   1 <1>  -0.5700 
 17 C       -7.2510    -2.9860    -0.3610 C.3   1 <1>  -0.0190 
 18 C       -8.7230    -4.3670     0.9260 C.3   1 <1>   0.0580 
 19 C       -7.1920    -5.5770    -0.7620 C.3   1 <1>  -0.2400 
 20 C       -8.7310    -2.5460    -0.4320 C.3   1 <1>   0.0580 
 21 C       -9.6840    -4.6400    -0.2260 C.2   1 <1>  -0.2880 
 22 C       -9.0790    -2.8800     1.0370 C.3   1 <1>  -0.1600 
 23 C       -9.6360    -3.5940    -1.0530 C.2   1 <1>  -0.2880 
 24 H       -3.4550    -1.6530    -0.6460 H     1 <1>   0.1500 
 25 H        0.2120    -3.7100     0.1080 H     1 <1>   0.1500 
 26 H       -1.0490    -5.6990     0.7550 H     1 <1>   0.1500 
 27 H       -3.4900    -5.6900     0.7130 H     1 <1>   0.1500 
 28 H       -6.9690    -2.2620     0.3920 H     1 <1>   0.0800 
 29 H       -8.8740    -4.9610     1.8110 H     1 <1>   0.0800 
 30 H       -6.1830    -5.7710    -1.0810 H     1 <1>   0.0800 
 31 H       -7.7570    -5.3920    -1.6580 H     1 <1>   0.0800 
 32 H       -7.5550    -6.4830    -0.3090 H     1 <1>   0.0800 
 33 H       -8.9270    -1.5220    -0.7010 H     1 <1>   0.0800 
 34 H      -10.2210    -5.5710    -0.2890 H     1 <1>   0.1500 
 35 H       -8.5050    -2.3650     1.7890 H     1 <1>   0.0800 
 36 H      -10.1260    -2.7280     1.2500 H     1 <1>   0.0800 
 37 H      -10.1180    -3.4150    -2.0000 H     1 <1>   0.1500 
@<TRIPOS>BOND
  1   1   2  1   
  2   2   3  1   
  3   2   4  1   
  4   2   5  1   
  5   5   6  ar  
  6   5   7  ar  
  7   6   8  ar  
  8   6  24  1   
  9   7   9  ar  
 10   7  25  1   
 11   8  10  1   
 12   8  11  ar  
 13   9  11  ar  
 14   9  26  1   
 15  10  12  am  
 16  10  13  am  
 17  11  27  1   
 18  12  14  2   
 19  12  15  1   
 20  13  16  2   
 21  13  17  1   
 22  15  17  1   
 23  15  18  1   
 24  15  19  1   
 25  17  20  1   
 26  17  28  1   
 27  18  21  1   
 28  18  22  1   
 29  18  29  1   
 30  19  30  1   
 31  19  31  1   
 32  19  32  1   
 33  20  22  1   
 34  20  23  1   
 35  20  33  1   
 36  21  23  2   
 37  21  34  1   
 38  22  35  1   
 39  22  36  1   
 40  23  37  1   
@<TRIPOS>SUBSTRUCTURE
  1 ****  10 GROUP 4 **** **** 0

# MOE 2024.06 (io_trps.svl 2023.06)
