@<TRIPOS>MOLECULE
NONAME
31 32 1 0 0 
SMALL
USER_CHARGES


@<TRIPOS>ATOM
  1 O       -1.5160    -0.2040    -2.1660 O.2   1 <1>  -0.5700 
  2 C       -2.0850    -0.2000    -1.1020 C.2   1 <1>   0.5690 
  3 N       -2.2840    -1.3460    -0.3690 N.am  1 <1>  -0.4200 
  4 C       -2.6610     1.1190    -0.5770 C.3   1 <1>   0.1810 
  5 C       -3.0060    -1.3340     0.8010 C.2   1 <1>   0.5690 
  6 C       -1.5550    -2.5960    -0.7520 C.3   1 <1>   0.2010 
  7 O       -2.8640     1.1120     0.8170 O.3   1 <1>  -0.5600 
  8 O       -3.2430    -2.3420     1.4220 O.2   1 <1>  -0.5700 
  9 C       -3.5760    -0.0020     1.3000 C.3   1 <1>   0.1810 
 10 C       -0.2020    -2.7520    -0.0460 C.2   1 <1>   0.5690 
 11 O        0.2290    -1.8210     0.5990 O.2   1 <1>  -0.5700 
 12 N        0.5070    -3.9250    -0.1520 N.am  1 <1>  -0.6600 
 13 C        1.8180    -4.1060     0.5450 C.3   1 <1>   0.1400 
 14 C        0.0870    -5.1470    -0.9050 C.3   1 <1>   0.1400 
 15 C        1.8260    -5.4130     1.3540 C.3   1 <1>   0.1200 
 16 C        0.1850    -6.3920    -0.0080 C.3   1 <1>   0.1200 
 17 O        1.4650    -6.4990     0.5460 O.3   1 <1>  -0.5600 
 18 H       -3.6020     1.3200    -1.0560 H     1 <1>   0.0800 
 19 H       -1.9790     1.9190    -0.8020 H     1 <1>   0.0800 
 20 H       -1.3870    -2.6090    -1.8130 H     1 <1>   0.0800 
 21 H       -2.1700    -3.4410    -0.5070 H     1 <1>   0.0800 
 22 H       -3.5300     0.0230     2.3740 H     1 <1>   0.0800 
 23 H       -4.6020     0.0910     0.9940 H     1 <1>   0.0800 
 24 H        2.0170    -3.2820     1.2080 H     1 <1>   0.0800 
 25 H        2.6070    -4.1370    -0.1860 H     1 <1>   0.0800 
 26 H        0.7370    -5.2770    -1.7530 H     1 <1>   0.0800 
 27 H       -0.9190    -5.0580    -1.2710 H     1 <1>   0.0800 
 28 H        1.1360    -5.3500     2.1780 H     1 <1>   0.0800 
 29 H        2.8110    -5.6040     1.7410 H     1 <1>   0.0800 
 30 H        0.0030    -7.2820    -0.5840 H     1 <1>   0.0800 
 31 H       -0.5340    -6.3440     0.7920 H     1 <1>   0.0800 
@<TRIPOS>BOND
  1   1   2  2   
  2   2   3  am  
  3   2   4  1   
  4   3   5  am  
  5   3   6  1   
  6   4   7  1   
  7   4  18  1   
  8   4  19  1   
  9   5   8  2   
 10   5   9  1   
 11   6  10  1   
 12   6  20  1   
 13   6  21  1   
 14   7   9  1   
 15   9  22  1   
 16   9  23  1   
 17  10  11  2   
 18  10  12  am  
 19  12  13  1   
 20  12  14  1   
 21  13  15  1   
 22  13  24  1   
 23  13  25  1   
 24  14  16  1   
 25  14  26  1   
 26  14  27  1   
 27  15  17  1   
 28  15  28  1   
 29  15  29  1   
 30  16  17  1   
 31  16  30  1   
 32  16  31  1   
@<TRIPOS>SUBSTRUCTURE
  1 ****  10 GROUP 4 **** **** 0

# MOE 2024.06 (io_trps.svl 2023.06)
