@<TRIPOS>MOLECULE
NONAME
46 48 1 0 0 
SMALL
USER_CHARGES


@<TRIPOS>ATOM
  1 O       -0.0550     0.6810     1.3210 O.2   1 <1>  -0.5700 
  2 C       -0.0350     1.8220     0.8380 C.2   1 <1>   0.5330 
  3 C        1.2660     2.4450     0.6790 C.ar  1 <1>   0.0860 
  4 C       -1.2810     2.4500     0.5040 C.cat 1 <1>   0.7510 
  5 C        2.3640     1.6860     0.2700 C.ar  1 <1>  -0.1500 
  6 C        1.4970     3.7920     0.9620 C.ar  1 <1>  -0.1500 
  7 N       -2.5030     1.9420     0.8890 N.pl3 1 <1>  -0.7000 
  8 N       -1.5470     3.5790    -0.2110 N.pl3 1 <1>  -0.8080 
  9 C        3.6350     2.2350     0.1420 C.ar  1 <1>   0.0830 
 10 C        2.7500     4.3590     0.8350 C.ar  1 <1>  -0.1500 
 11 C       -3.4850     2.7530     0.4140 C.2   1 <1>   0.1820 
 12 O       -0.7250     4.3260    -0.8420 O.3   1 <1>  -0.4420 
 13 C       -2.9020     3.7600    -0.2530 C.2   1 <1>   0.1820 
 14 O        4.7160     1.5010    -0.2520 O.3   1 <1>  -0.3630 
 15 C        3.8330     3.5890     0.4230 C.ar  1 <1>   0.0830 
 16 C       -4.9810     2.5860     0.5800 C.3   1 <1>   0.0080 
 17 C       -3.6260     4.8910    -0.9450 C.3   1 <1>   0.0080 
 18 C        4.6180     0.1300    -0.5540 C.3   1 <1>   0.1200 
 19 O        5.0850     4.1030     0.2820 O.3   1 <1>  -0.3630 
 20 C       -5.7260     3.5060    -0.4140 C.3   1 <1>  -0.1600 
 21 C       -5.1040     4.9190    -0.4980 C.3   1 <1>  -0.1600 
 22 C        6.0070    -0.3650    -0.9480 C.3   1 <1>  -0.2400 
 23 C        5.3380     5.4840     0.3760 C.3   1 <1>   0.1200 
 24 C        6.8140     5.7140     0.0670 C.3   1 <1>  -0.2400 
 25 H        2.1950     0.6480     0.0590 H     1 <1>   0.1500 
 26 H        0.6760     4.4160     1.2740 H     1 <1>   0.1500 
 27 H       -2.5630     1.0670     1.4100 H     1 <1>   0.4500 
 28 H        2.8590     5.4030     1.0580 H     1 <1>   0.1500 
 29 H       -5.2460     2.8460     1.5890 H     1 <1>   0.0800 
 30 H       -5.2590     1.5620     0.4040 H     1 <1>   0.0800 
 31 H       -3.5530     4.7370    -2.0070 H     1 <1>   0.0800 
 32 H       -3.1430     5.8220    -0.7070 H     1 <1>   0.0800 
 33 H        3.9260     0.0090    -1.3700 H     1 <1>   0.0800 
 34 H        4.2650    -0.3880     0.3210 H     1 <1>   0.0800 
 35 H       -6.7600     3.5790    -0.1260 H     1 <1>   0.0800 
 36 H       -5.6910     3.0590    -1.3930 H     1 <1>   0.0800 
 37 H       -5.6690     5.5280    -1.1820 H     1 <1>   0.0800 
 38 H       -5.1610     5.3810     0.4730 H     1 <1>   0.0800 
 39 H        6.3570     0.1740    -1.8110 H     1 <1>   0.0800 
 40 H        5.9690    -1.4120    -1.1860 H     1 <1>   0.0800 
 41 H        6.6940    -0.2200    -0.1330 H     1 <1>   0.0800 
 42 H        5.1040     5.8060     1.3760 H     1 <1>   0.0800 
 43 H        4.7140     5.9930    -0.3390 H     1 <1>   0.0800 
 44 H        7.4250     5.1840     0.7760 H     1 <1>   0.0800 
 45 H        7.0420     6.7620     0.1290 H     1 <1>   0.0800 
 46 H        7.0380     5.3690    -0.9270 H     1 <1>   0.0800 
@<TRIPOS>BOND
  1   1   2  2   
  2   2   3  1   
  3   2   4  1   
  4   3   5  ar  
  5   3   6  ar  
  6   4   7  ar  
  7   4   8  ar  
  8   5   9  ar  
  9   5  25  1   
 10   6  10  ar  
 11   6  26  1   
 12   7  11  1   
 13   7  27  1   
 14   8  12  1   
 15   8  13  1   
 16   9  14  1   
 17   9  15  ar  
 18  10  15  ar  
 19  10  28  1   
 20  11  13  2   
 21  11  16  1   
 22  13  17  1   
 23  14  18  1   
 24  15  19  1   
 25  16  20  1   
 26  16  29  1   
 27  16  30  1   
 28  17  21  1   
 29  17  31  1   
 30  17  32  1   
 31  18  22  1   
 32  18  33  1   
 33  18  34  1   
 34  19  23  1   
 35  20  21  1   
 36  20  35  1   
 37  20  36  1   
 38  21  37  1   
 39  21  38  1   
 40  22  39  1   
 41  22  40  1   
 42  22  41  1   
 43  23  24  1   
 44  23  42  1   
 45  23  43  1   
 46  24  44  1   
 47  24  45  1   
 48  24  46  1   
@<TRIPOS>SUBSTRUCTURE
  1 ****   3 GROUP 4 **** **** 0

# MOE 2024.06 (io_trps.svl 2023.06)
