@<TRIPOS>MOLECULE
NONAME
44 45 1 0 0 
SMALL
USER_CHARGES


@<TRIPOS>ATOM
  1 O       -1.1250    -0.3650     2.2080 O.2   1 <1>  -0.5700 
  2 C       -1.8010    -1.3010     1.8250 C.2   1 <1>   0.6900 
  3 N       -1.2830    -2.4510     1.3390 N.am  1 <1>  -0.6600 
  4 N       -3.1530    -1.3180     1.8770 N.am  1 <1>  -0.6600 
  5 C       -2.3550    -3.4460     1.1170 C.3   1 <1>   0.3000 
  6 C        0.1700    -2.6710     1.1240 C.3   1 <1>   0.2840 
  7 C       -3.6640    -2.5960     1.3240 C.3   1 <1>   0.4900 
  8 C       -3.9530    -0.4790     2.8070 C.3   1 <1>   0.0600 
  9 C       -2.2390    -4.5200     2.2080 C.3   1 <1>  -0.2400 
 10 C       -2.1970    -4.1010    -0.2670 C.3   1 <1>  -0.2400 
 11 C        0.5440    -2.4590    -0.3380 C.ar  1 <1>  -0.1440 
 12 N       -4.4350    -2.3620     0.0370 N.3   1 <1>  -0.3790 
 13 C        0.2630    -1.2520    -0.9620 C.ar  1 <1>  -0.1500 
 14 C        1.1710    -3.4630    -1.0620 C.ar  1 <1>  -0.1500 
 15 O       -5.3630    -3.3730    -0.0770 O.3   1 <1>  -0.3000 
 16 N       -5.2690    -1.1590     0.0660 N.am  1 <1>  -0.4210 
 17 C        0.5940    -1.0540    -2.2910 C.ar  1 <1>  -0.1500 
 18 C        1.5030    -3.2670    -2.3910 C.ar  1 <1>  -0.1500 
 19 C       -4.9810     0.0400    -0.4830 C.2   1 <1>   0.5690 
 20 C        1.2140    -2.0620    -3.0070 C.ar  1 <1>  -0.1500 
 21 O       -5.7530     0.9690    -0.3780 O.2   1 <1>  -0.5700 
 22 C       -3.6810     0.2520    -1.2250 C.3   1 <1>  -0.1790 
 23 H        0.4340    -3.6640     1.4380 H     1 <1>   0.0800 
 24 H        0.7300    -1.9770     1.7280 H     1 <1>   0.0800 
 25 H       -4.3070    -3.0750     2.0410 H     1 <1>   0.0800 
 26 H       -3.3020     0.0080     3.5130 H     1 <1>   0.0800 
 27 H       -4.6580    -1.0870     3.3450 H     1 <1>   0.0800 
 28 H       -4.4800     0.2780     2.2550 H     1 <1>   0.0800 
 29 H       -2.2750    -4.0680     3.1830 H     1 <1>   0.0800 
 30 H       -1.3200    -5.0670     2.1100 H     1 <1>   0.0800 
 31 H       -3.0540    -5.2160     2.1250 H     1 <1>   0.0800 
 32 H       -2.1670    -3.3490    -1.0360 H     1 <1>   0.0800 
 33 H       -3.0190    -4.7630    -0.4630 H     1 <1>   0.0800 
 34 H       -1.2930    -4.6790    -0.3150 H     1 <1>   0.0800 
 35 H       -0.2170    -0.4620    -0.4090 H     1 <1>   0.1500 
 36 H        1.4030    -4.4040    -0.5950 H     1 <1>   0.1500 
 37 H       -5.3360    -3.7430    -0.9840 H     1 <1>   0.4000 
 38 H       -6.1490    -1.2270     0.5810 H     1 <1>   0.3700 
 39 H        0.3690    -0.1140    -2.7640 H     1 <1>   0.1500 
 40 H        1.9880    -4.0510    -2.9460 H     1 <1>   0.1500 
 41 H        1.4710    -1.9080    -4.0400 H     1 <1>   0.1500 
 42 H       -2.8780     0.3310    -0.5160 H     1 <1>   0.0800 
 43 H       -3.7320     1.1560    -1.8010 H     1 <1>   0.0800 
 44 H       -3.4920    -0.5760    -1.8810 H     1 <1>   0.0800 
@<TRIPOS>BOND
  1   1   2  2   
  2   2   3  am  
  3   2   4  am  
  4   3   5  1   
  5   3   6  1   
  6   4   7  1   
  7   4   8  1   
  8   5   7  1   
  9   5   9  1   
 10   5  10  1   
 11   6  11  1   
 12   6  23  1   
 13   6  24  1   
 14   7  12  1   
 15   7  25  1   
 16   8  26  1   
 17   8  27  1   
 18   8  28  1   
 19   9  29  1   
 20   9  30  1   
 21   9  31  1   
 22  10  32  1   
 23  10  33  1   
 24  10  34  1   
 25  11  13  ar  
 26  11  14  ar  
 27  12  15  1   
 28  12  16  1   
 29  13  17  ar  
 30  13  35  1   
 31  14  18  ar  
 32  14  36  1   
 33  15  37  1   
 34  16  19  am  
 35  16  38  1   
 36  17  20  ar  
 37  17  39  1   
 38  18  20  ar  
 39  18  40  1   
 40  19  21  2   
 41  19  22  1   
 42  20  41  1   
 43  22  42  1   
 44  22  43  1   
 45  22  44  1   
@<TRIPOS>SUBSTRUCTURE
  1 ****   3 GROUP 4 **** **** 0

# MOE 2024.06 (io_trps.svl 2023.06)
