@<TRIPOS>MOLECULE
NONAME
45 46 1 0 0 
SMALL
USER_CHARGES


@<TRIPOS>ATOM
  1 CL       2.3980    -1.4960     1.6790 Cl    1 <1>  -0.1770 
  2 C        2.4280    -0.0420     0.7100 C.ar  1 <1>   0.1770 
  3 C        2.7690    -0.0580    -0.6400 C.ar  1 <1>  -0.1440 
  4 C        2.0910     1.1330     1.3570 C.ar  1 <1>  -0.1500 
  5 C        2.7660     1.1540    -1.3230 C.ar  1 <1>  -0.1500 
  6 C        3.1390    -1.3260    -1.4150 C.3   1 <1>   0.5020 
  7 C        2.0900     2.3270     0.6600 C.ar  1 <1>  -0.1500 
  8 C        2.4290     2.3340    -0.6810 C.ar  1 <1>  -0.1500 
  9 N        1.9040    -2.0780    -1.6260 N.am  1 <1>  -0.7300 
 10 C        4.2590    -2.1710    -0.7970 C.2   1 <1>  -0.1240 
 11 C        1.6750    -3.3020    -1.1340 C.2   1 <1>   0.6900 
 12 C        3.9730    -3.4320    -0.3440 C.2   1 <1>  -0.0290 
 13 C        5.5130    -1.4640    -0.8320 C.2   1 <1>   0.7060 
 14 O        0.5440    -3.7380    -1.2150 O.2   1 <1>  -0.5700 
 15 N        2.7140    -4.0140    -0.5580 N.am  1 <1>  -0.4690 
 16 C        4.9760    -4.2980     0.4270 C.3   1 <1>  -0.1020 
 17 O        5.6240    -0.3230    -1.2390 O.2   1 <1>  -0.5700 
 18 O        6.6390    -2.0900    -0.4770 O.3   1 <1>  -0.4300 
 19 C        2.4290    -5.4410    -0.2030 C.3   1 <1>   0.0600 
 20 C        7.9050    -1.4580    -0.5370 C.3   1 <1>   0.1200 
 21 C        8.9630    -2.4470    -0.0580 C.3   1 <1>   0.1200 
 22 O       10.2080    -1.8310    -0.1330 O.3   1 <1>  -0.5600 
 23 C       11.2620    -2.6320     0.2800 C.3   1 <1>   0.1200 
 24 C       12.5410    -1.8160     0.1370 C.3   1 <1>  -0.2400 
 25 H        1.8300     1.1090     2.3990 H     1 <1>   0.1500 
 26 H        3.0320     1.1910    -2.3650 H     1 <1>   0.1500 
 27 H        3.4790    -1.0330    -2.3950 H     1 <1>   0.0800 
 28 H        1.8290     3.2450     1.1570 H     1 <1>   0.1500 
 29 H        2.4350     3.2620    -1.2270 H     1 <1>   0.1500 
 30 H        1.0780    -1.5370    -1.8700 H     1 <1>   0.3700 
 31 H        4.4880    -4.8470     1.2110 H     1 <1>   0.0800 
 32 H        5.7190    -3.7130     0.9290 H     1 <1>   0.0800 
 33 H        5.4600    -4.9880    -0.2400 H     1 <1>   0.0800 
 34 H        1.5790    -5.8130    -0.7480 H     1 <1>   0.0800 
 35 H        2.2180    -5.5120     0.8490 H     1 <1>   0.0800 
 36 H        3.2680    -6.0640    -0.4500 H     1 <1>   0.0800 
 37 H        7.8830    -0.5900     0.0980 H     1 <1>   0.0800 
 38 H        8.0930    -1.1690    -1.5560 H     1 <1>   0.0800 
 39 H        8.9720    -3.3180    -0.6910 H     1 <1>   0.0800 
 40 H        8.7770    -2.7230     0.9660 H     1 <1>   0.0800 
 41 H       11.3000    -3.5090    -0.3440 H     1 <1>   0.0800 
 42 H       11.1050    -2.9150     1.3080 H     1 <1>   0.0800 
 43 H       12.6800    -1.5280    -0.8890 H     1 <1>   0.0800 
 44 H       13.3860    -2.4030     0.4490 H     1 <1>   0.0800 
 45 H       12.4860    -0.9360     0.7530 H     1 <1>   0.0800 
@<TRIPOS>BOND
  1   1   2  1   
  2   2   3  ar  
  3   2   4  ar  
  4   3   5  ar  
  5   3   6  1   
  6   4   7  ar  
  7   4  25  1   
  8   5   8  ar  
  9   5  26  1   
 10   6   9  1   
 11   6  10  1   
 12   6  27  1   
 13   7   8  ar  
 14   7  28  1   
 15   8  29  1   
 16   9  11  am  
 17   9  30  1   
 18  10  12  2   
 19  10  13  1   
 20  11  14  2   
 21  11  15  am  
 22  12  15  1   
 23  12  16  1   
 24  13  17  2   
 25  13  18  1   
 26  15  19  1   
 27  16  31  1   
 28  16  32  1   
 29  16  33  1   
 30  18  20  1   
 31  19  34  1   
 32  19  35  1   
 33  19  36  1   
 34  20  21  1   
 35  20  37  1   
 36  20  38  1   
 37  21  22  1   
 38  21  39  1   
 39  21  40  1   
 40  22  23  1   
 41  23  24  1   
 42  23  41  1   
 43  23  42  1   
 44  24  43  1   
 45  24  44  1   
 46  24  45  1   
@<TRIPOS>SUBSTRUCTURE
  1 ****  10 GROUP 4 **** **** 0

# MOE 2024.06 (io_trps.svl 2023.06)
