@<TRIPOS>MOLECULE
NONAME
29 30 1 0 0 
SMALL
USER_CHARGES


@<TRIPOS>ATOM
  1 BR      -1.0220    -0.0870    -0.7920 Br    1 <1>  -0.1110 
  2 C       -0.4050     1.6750    -0.3240 C.ar  1 <1>   0.1110 
  3 C        0.8050     2.1090    -0.8300 C.ar  1 <1>  -0.1500 
  4 C       -1.1860     2.4570     0.5030 C.ar  1 <1>  -0.1500 
  5 C        1.2530     3.3780    -0.4920 C.ar  1 <1>  -0.1440 
  6 C       -0.7370     3.7220     0.8380 C.ar  1 <1>  -0.1500 
  7 C        0.4830     4.1870     0.3440 C.ar  1 <1>   0.0830 
  8 C        2.5720     3.8860    -1.0360 C.3   1 <1>   0.4870 
  9 O        0.9790     5.4180     0.6480 O.3   1 <1>  -0.3630 
 10 N        3.4440     4.1600     0.1180 N.4   1 <1>  -0.7990 
 11 C        0.1720     6.3910     1.2850 C.3   1 <1>   0.0400 
 12 C        4.6950     4.8310    -0.2360 C.3   1 <1>   0.2960 
 13 C        5.3310     5.6930     0.7970 C.3   1 <1>  -0.2000 
 14 C        4.6690     6.3110    -0.4000 C.3   1 <1>  -0.2000 
 15 H        1.3650     1.4520    -1.4740 H     1 <1>   0.1500 
 16 H       -2.1240     2.0810     0.8750 H     1 <1>   0.1500 
 17 H       -1.3510     4.3220     1.4850 H     1 <1>   0.1500 
 18 H        2.4020     4.7920    -1.5940 H     1 <1>   0.0800 
 19 H        3.0220     3.1530    -1.6850 H     1 <1>   0.0800 
 20 H        3.6100     3.2960     0.6420 H     1 <1>   0.4500 
 21 H        2.8830     4.7720     0.7310 H     1 <1>   0.4500 
 22 H        0.7260     7.3120     1.3360 H     1 <1>   0.0800 
 23 H       -0.0680     6.0580     2.2790 H     1 <1>   0.0800 
 24 H       -0.7230     6.5400     0.7060 H     1 <1>   0.0800 
 25 H        5.3400     4.2490    -0.8810 H     1 <1>   0.1000 
 26 H        6.4060     5.7410     0.8520 H     1 <1>   0.1000 
 27 H        4.8670     5.8190     1.7600 H     1 <1>   0.1000 
 28 H        3.7530     6.8570    -0.2510 H     1 <1>   0.1000 
 29 H        5.3050     6.7710    -1.1370 H     1 <1>   0.1000 
@<TRIPOS>BOND
  1   1   2  1   
  2   2   3  ar  
  3   2   4  ar  
  4   3   5  ar  
  5   3  15  1   
  6   4   6  ar  
  7   4  16  1   
  8   5   7  ar  
  9   5   8  1   
 10   6   7  ar  
 11   6  17  1   
 12   7   9  1   
 13   8  10  1   
 14   8  18  1   
 15   8  19  1   
 16   9  11  1   
 17  10  12  1   
 18  10  20  1   
 19  10  21  1   
 20  11  22  1   
 21  11  23  1   
 22  11  24  1   
 23  12  13  1   
 24  12  14  1   
 25  12  25  1   
 26  13  14  1   
 27  13  26  1   
 28  13  27  1   
 29  14  28  1   
 30  14  29  1   
@<TRIPOS>SUBSTRUCTURE
  1 ****   5 GROUP 4 **** **** 0

# MOE 2024.06 (io_trps.svl 2023.06)
