@<TRIPOS>MOLECULE
NONAME
57 59 1 0 0 
SMALL
USER_CHARGES


@<TRIPOS>ATOM
  1 O       -4.1530    -3.2680     0.2750 O.3   1 <1>  -0.3630 
  2 C       -5.4720    -2.9820     0.4350 C.ar  1 <1>   0.0820 
  3 C       -3.1970    -2.2560     0.0250 C.3   1 <1>   0.1200 
  4 C       -6.3440    -4.0490     0.6270 C.ar  1 <1>  -0.1440 
  5 C       -5.9720    -1.6820     0.4140 C.ar  1 <1>  -0.1500 
  6 C       -1.8160    -2.9040    -0.1210 C.3   1 <1>   0.2000 
  7 C       -7.6980    -3.8060     0.7940 C.ar  1 <1>  -0.1500 
  8 C       -5.8250    -5.4800     0.6550 C.3   1 <1>  -0.0960 
  9 C       -7.3260    -1.4540     0.5820 C.ar  1 <1>  -0.1500 
 10 O       -1.5920    -3.7120     0.9890 O.3   1 <1>  -0.6800 
 11 C       -0.6920    -1.8510    -0.2700 C.3   1 <1>   0.1100 
 12 C       -8.1950    -2.5140     0.7740 C.ar  1 <1>  -0.1430 
 13 N        0.6750    -2.4050    -0.1360 N.3   1 <1>  -0.8100 
 14 C       -9.6820    -2.2650     0.9560 C.3   1 <1>  -0.0970 
 15 C        1.0330    -3.4150    -1.1630 C.3   1 <1>   0.1100 
 16 C        1.7260    -1.3760     0.0040 C.3   1 <1>   0.1100 
 17 C        2.4490    -3.9970    -0.9320 C.3   1 <1>   0.3430 
 18 C        3.0830    -2.0140     0.3980 C.3   1 <1>   0.3430 
 19 N        2.9980    -3.5100     0.3770 N.4   1 <1>  -0.9590 
 20 C        4.2190    -4.2130     0.8430 C.3   1 <1>   0.4860 
 21 C        3.9580    -5.7070     0.8570 C.ar  1 <1>  -0.1430 
 22 C        3.0540    -6.2570     1.7560 C.ar  1 <1>  -0.1500 
 23 C        4.6170    -6.5360    -0.0400 C.ar  1 <1>  -0.1500 
 24 C        2.8060    -7.6180     1.7510 C.ar  1 <1>  -0.1500 
 25 C        4.3680    -7.8970    -0.0430 C.ar  1 <1>  -0.1500 
 26 C        3.4620    -8.4380     0.8510 C.ar  1 <1>  -0.1500 
 27 H       -3.2030    -1.5690     0.8530 H     1 <1>   0.0800 
 28 H       -3.4710    -1.7440    -0.8810 H     1 <1>   0.0800 
 29 H       -5.3310    -0.8350     0.2710 H     1 <1>   0.1500 
 30 H       -1.8300    -3.5390    -0.9890 H     1 <1>   0.0800 
 31 H       -8.3750    -4.6290     0.9400 H     1 <1>   0.1500 
 32 H       -5.3170    -5.7020    -0.2660 H     1 <1>   0.0800 
 33 H       -6.6290    -6.1830     0.7800 H     1 <1>   0.0800 
 34 H       -5.1350    -5.6000     1.4700 H     1 <1>   0.0800 
 35 H       -7.7000    -0.4460     0.5630 H     1 <1>   0.1500 
 36 H       -2.4390    -4.1560     1.2120 H     1 <1>   0.4000 
 37 H       -0.8370    -1.1090     0.4960 H     1 <1>   0.0800 
 38 H       -0.7910    -1.3580    -1.2220 H     1 <1>   0.0800 
 39 H      -10.1000    -2.9850     1.6370 H     1 <1>   0.0800 
 40 H      -10.1830    -2.3490     0.0090 H     1 <1>   0.0800 
 41 H       -9.8540    -1.2820     1.3560 H     1 <1>   0.0800 
 42 H        0.9770    -2.9820    -2.1480 H     1 <1>   0.0800 
 43 H        0.3300    -4.2290    -1.1230 H     1 <1>   0.0800 
 44 H        1.4420    -0.6710     0.7670 H     1 <1>   0.0800 
 45 H        1.8340    -0.8340    -0.9200 H     1 <1>   0.0800 
 46 H        3.0980    -3.7020    -1.7390 H     1 <1>   0.0800 
 47 H        2.3840    -5.0740    -0.9350 H     1 <1>   0.0800 
 48 H        3.3470    -1.6790     1.3880 H     1 <1>   0.0800 
 49 H        3.8470    -1.6730    -0.2800 H     1 <1>   0.0800 
 50 H        2.2210    -3.7240     1.0240 H     1 <1>   0.4500 
 51 H        4.4760    -3.8870     1.8370 H     1 <1>   0.0800 
 52 H        5.0440    -3.9950     0.1860 H     1 <1>   0.0800 
 53 H        2.5330    -5.6390     2.4690 H     1 <1>   0.1500 
 54 H        5.3290    -6.1390    -0.7430 H     1 <1>   0.1500 
 55 H        2.1040    -8.0430     2.4480 H     1 <1>   0.1500 
 56 H        4.8800    -8.5410    -0.7390 H     1 <1>   0.1500 
 57 H        3.2690    -9.4980     0.8490 H     1 <1>   0.1500 
@<TRIPOS>BOND
  1   1   2  1   
  2   1   3  1   
  3   2   4  ar  
  4   2   5  ar  
  5   3   6  1   
  6   3  27  1   
  7   3  28  1   
  8   4   7  ar  
  9   4   8  1   
 10   5   9  ar  
 11   5  29  1   
 12   6  10  1   
 13   6  11  1   
 14   6  30  1   
 15   7  12  ar  
 16   7  31  1   
 17   8  32  1   
 18   8  33  1   
 19   8  34  1   
 20   9  12  ar  
 21   9  35  1   
 22  10  36  1   
 23  11  13  1   
 24  11  37  1   
 25  11  38  1   
 26  12  14  1   
 27  13  15  1   
 28  13  16  1   
 29  14  39  1   
 30  14  40  1   
 31  14  41  1   
 32  15  17  1   
 33  15  42  1   
 34  15  43  1   
 35  16  18  1   
 36  16  44  1   
 37  16  45  1   
 38  17  19  1   
 39  17  46  1   
 40  17  47  1   
 41  18  19  1   
 42  18  48  1   
 43  18  49  1   
 44  19  20  1   
 45  19  50  1   
 46  20  21  1   
 47  20  51  1   
 48  20  52  1   
 49  21  22  ar  
 50  21  23  ar  
 51  22  24  ar  
 52  22  53  1   
 53  23  25  ar  
 54  23  54  1   
 55  24  26  ar  
 56  24  55  1   
 57  25  26  ar  
 58  25  56  1   
 59  26  57  1   
@<TRIPOS>SUBSTRUCTURE
  1 ****  10 GROUP 4 **** **** 0

# MOE 2024.06 (io_trps.svl 2023.06)
