@<TRIPOS>MOLECULE
NONAME
42 43 1 0 0 
SMALL
USER_CHARGES


@<TRIPOS>ATOM
  1 F       -3.9050     1.6160     1.0970 F     1 <1>  -0.1900 
  2 C       -4.4780     2.7350     0.7400 C.ar  1 <1>   0.1900 
  3 C       -4.8280     3.6480     1.7150 C.ar  1 <1>  -0.1500 
  4 C       -4.7160     2.9640    -0.6010 C.ar  1 <1>  -0.1500 
  5 C       -5.4340     4.8310     1.3280 C.ar  1 <1>  -0.1500 
  6 C       -5.3220     4.1520    -0.9730 C.ar  1 <1>  -0.1500 
  7 C       -5.6840     5.1010    -0.0180 C.ar  1 <1>   0.1170 
  8 N       -6.3050     6.2840    -0.4530 N.am  1 <1>  -0.5470 
  9 C       -6.3280     7.5240     0.1170 C.2   1 <1>   0.5690 
 10 O       -5.7680     7.7990     1.1490 O.2   1 <1>  -0.5700 
 11 C       -7.0740     8.6240    -0.6060 C.3   1 <1>  -0.0990 
 12 C       -6.8330    10.0110     0.0060 C.3   1 <1>   0.3430 
 13 N       -5.5770    10.6680    -0.4790 N.4   1 <1>  -0.9590 
 14 C       -4.3050    10.0100    -0.0160 C.3   1 <1>   0.3430 
 15 C       -5.5330    12.1210    -0.0830 C.3   1 <1>   0.3430 
 16 C       -3.0630    10.6710    -0.6670 C.3   1 <1>   0.2000 
 17 C       -4.1540    12.7840    -0.3470 C.3   1 <1>   0.2000 
 18 O       -3.3540    11.9580    -1.1500 O.3   1 <1>  -0.5600 
 19 C       -2.5660     9.8710    -1.8700 C.3   1 <1>  -0.2400 
 20 C       -3.3950    13.1440     0.9370 C.3   1 <1>  -0.2400 
 21 H       -4.6300     3.4340     2.7500 H     1 <1>   0.1500 
 22 H       -4.4300     2.2270    -1.3300 H     1 <1>   0.1500 
 23 H       -5.7160     5.5400     2.0850 H     1 <1>   0.1500 
 24 H       -5.5090     4.3380    -2.0150 H     1 <1>   0.1500 
 25 H       -6.7980     6.1830    -1.3390 H     1 <1>   0.3700 
 26 H       -8.1210     8.4020    -0.5140 H     1 <1>   0.0800 
 27 H       -6.8270     8.6270    -1.6510 H     1 <1>   0.0800 
 28 H       -6.8130     9.9280     1.0820 H     1 <1>   0.0800 
 29 H       -7.6700    10.6380    -0.2550 H     1 <1>   0.0800 
 30 H       -5.5300    10.6630    -1.5070 H     1 <1>   0.4500 
 31 H       -4.3020     8.9620    -0.2620 H     1 <1>   0.0800 
 32 H       -4.2260    10.0840     1.0560 H     1 <1>   0.0800 
 33 H       -5.7630    12.2220     0.9650 H     1 <1>   0.0800 
 34 H       -6.2860    12.6670    -0.6280 H     1 <1>   0.0800 
 35 H       -2.2670    10.7490     0.0550 H     1 <1>   0.0800 
 36 H       -4.3120    13.6920    -0.9040 H     1 <1>   0.0800 
 37 H       -3.3270     9.8040    -2.6270 H     1 <1>   0.0800 
 38 H       -2.2880     8.8770    -1.5690 H     1 <1>   0.0800 
 39 H       -1.6970    10.3490    -2.2890 H     1 <1>   0.0800 
 40 H       -3.2720    12.2960     1.5850 H     1 <1>   0.0800 
 41 H       -3.9350    13.9010     1.4780 H     1 <1>   0.0800 
 42 H       -2.4280    13.5450     0.6870 H     1 <1>   0.0800 
@<TRIPOS>BOND
  1   1   2  1   
  2   2   3  ar  
  3   2   4  ar  
  4   3   5  ar  
  5   3  21  1   
  6   4   6  ar  
  7   4  22  1   
  8   5   7  ar  
  9   5  23  1   
 10   6   7  ar  
 11   6  24  1   
 12   7   8  1   
 13   8   9  am  
 14   8  25  1   
 15   9  10  2   
 16   9  11  1   
 17  11  12  1   
 18  11  26  1   
 19  11  27  1   
 20  12  13  1   
 21  12  28  1   
 22  12  29  1   
 23  13  14  1   
 24  13  15  1   
 25  13  30  1   
 26  14  16  1   
 27  14  31  1   
 28  14  32  1   
 29  15  17  1   
 30  15  33  1   
 31  15  34  1   
 32  16  18  1   
 33  16  19  1   
 34  16  35  1   
 35  17  18  1   
 36  17  20  1   
 37  17  36  1   
 38  19  37  1   
 39  19  38  1   
 40  19  39  1   
 41  20  40  1   
 42  20  41  1   
 43  20  42  1   
@<TRIPOS>SUBSTRUCTURE
  1 ****  10 GROUP 4 **** **** 0

# MOE 2024.06 (io_trps.svl 2023.06)
