@<TRIPOS>MOLECULE
NONAME
43 44 1 0 0 
SMALL
USER_CHARGES


@<TRIPOS>ATOM
  1 S        0.1060    -0.0810    -0.1220 S.3   1 <1>  -0.0800 
  2 C       -0.1900     1.6330     0.2250 C.2   1 <1>  -0.0450 
  3 C       -1.5520    -0.5080     0.2090 C.2   1 <1>  -0.1400 
  4 C       -1.5010     1.7900     0.5750 C.2   1 <1>   0.0830 
  5 C        0.8860     2.5610     0.1270 C.2   1 <1>   0.8050 
  6 C       -2.2910     0.5780     0.5530 C.2   1 <1>  -0.0860 
  7 C       -1.8960    -1.9780     0.0460 C.3   1 <1>  -0.0600 
  8 N       -2.0260     3.0130     0.9450 N.pl3 1 <1>  -0.8830 
  9 O        0.7750     3.7450     0.4140 O.2   1 <1>  -0.5700 
 10 O        2.0790     2.1200    -0.2940 O.3   1 <1>  -0.4300 
 11 C       -3.7090     0.5680     0.8490 C.2   1 <1>   0.7160 
 12 C        3.1850     2.9860    -0.4130 C.3   1 <1>   0.1200 
 13 O       -4.2270    -0.3480     1.4580 O.2   1 <1>  -0.5700 
 14 N       -4.4960     1.5910     0.4130 N.am  1 <1>  -0.7300 
 15 C        4.3710     2.1690    -0.9140 C.3   1 <1>  -0.2400 
 16 C       -5.9630     1.7070     0.5860 C.3   1 <1>   0.1400 
 17 C       -6.6750     1.2220    -0.6750 C.3   1 <1>  -0.0170 
 18 C       -8.1800     1.3690    -0.5190 C.ar  1 <1>  -0.1440 
 19 C       -8.9090     0.3890     0.1360 C.ar  1 <1>  -0.1500 
 20 C       -8.8350     2.4820    -1.0240 C.ar  1 <1>  -0.1500 
 21 C      -10.2790     0.5190     0.2850 C.ar  1 <1>  -0.1500 
 22 C      -10.2060     2.6130    -0.8750 C.ar  1 <1>  -0.1500 
 23 C      -10.9280     1.6310    -0.2200 C.ar  1 <1>  -0.1500 
 24 H       -1.6360    -2.3070    -0.9440 H     1 <1>   0.0800 
 25 H       -2.9450    -2.1520     0.1980 H     1 <1>   0.0800 
 26 H       -1.3450    -2.5620     0.7610 H     1 <1>   0.0800 
 27 H       -2.7810     3.0450     1.6410 H     1 <1>   0.4000 
 28 H       -1.3630     3.8000     1.0370 H     1 <1>   0.4000 
 29 H        3.3910     3.4120     0.5550 H     1 <1>   0.0800 
 30 H        2.9340     3.7690    -1.1090 H     1 <1>   0.0800 
 31 H       -4.0130     2.3510    -0.0760 H     1 <1>   0.3700 
 32 H        4.6040     1.3850    -0.2160 H     1 <1>   0.0800 
 33 H        5.2320     2.8040    -1.0150 H     1 <1>   0.0800 
 34 H        4.1470     1.7400    -1.8750 H     1 <1>   0.0800 
 35 H       -6.2210     2.7340     0.7830 H     1 <1>   0.0800 
 36 H       -6.2790     1.1130     1.4280 H     1 <1>   0.0800 
 37 H       -6.4330     0.1870    -0.8450 H     1 <1>   0.0800 
 38 H       -6.3410     1.7910    -1.5240 H     1 <1>   0.0800 
 39 H       -8.4130    -0.4800     0.5330 H     1 <1>   0.1500 
 40 H       -8.2850     3.2520    -1.5350 H     1 <1>   0.1500 
 41 H      -10.8400    -0.2460     0.7940 H     1 <1>   0.1500 
 42 H      -10.7090     3.4780    -1.2690 H     1 <1>   0.1500 
 43 H      -11.9930     1.7330    -0.1050 H     1 <1>   0.1500 
@<TRIPOS>BOND
  1   1   2  1   
  2   1   3  1   
  3   2   4  2   
  4   2   5  1   
  5   3   6  2   
  6   3   7  1   
  7   4   6  1   
  8   4   8  1   
  9   5   9  2   
 10   5  10  1   
 11   6  11  1   
 12   7  24  1   
 13   7  25  1   
 14   7  26  1   
 15   8  27  1   
 16   8  28  1   
 17  10  12  1   
 18  11  13  2   
 19  11  14  am  
 20  12  15  1   
 21  12  29  1   
 22  12  30  1   
 23  14  16  1   
 24  14  31  1   
 25  15  32  1   
 26  15  33  1   
 27  15  34  1   
 28  16  17  1   
 29  16  35  1   
 30  16  36  1   
 31  17  18  1   
 32  17  37  1   
 33  17  38  1   
 34  18  19  ar  
 35  18  20  ar  
 36  19  21  ar  
 37  19  39  1   
 38  20  22  ar  
 39  20  40  1   
 40  21  23  ar  
 41  21  41  1   
 42  22  23  ar  
 43  22  42  1   
 44  23  43  1   
@<TRIPOS>SUBSTRUCTURE
  1 ****  14 GROUP 4 **** **** 0

# MOE 2024.06 (io_trps.svl 2023.06)
