@<TRIPOS>MOLECULE
NONAME
54 56 1 0 0 
SMALL
USER_CHARGES


@<TRIPOS>ATOM
  1 S        0.2320    -1.4490    -1.0660 S.o2  1 <1>   1.4470 
  2 O        1.0180    -2.6570    -0.9260 O.2   1 <1>  -0.6500 
  3 O        0.5630    -0.5250    -2.1290 O.2   1 <1>  -0.6500 
  4 N        0.4020    -0.6020     0.3940 N.am  1 <1>  -0.8490 
  5 C       -1.5470    -1.8460    -1.1700 C.ar  1 <1>  -0.0090 
  6 C        1.6540     0.1670     0.4370 C.3   1 <1>   0.1960 
  7 C        0.3310    -1.4770     1.5780 C.3   1 <1>   0.1960 
  8 C       -2.0450    -2.8320    -2.0250 C.ar  1 <1>  -0.1440 
  9 C       -2.4660    -1.1430    -0.3970 C.ar  1 <1>  -0.1500 
 10 C        1.7860     0.9370     1.7650 C.3   1 <1>   0.1200 
 11 C        0.4770    -0.6580     2.8730 C.3   1 <1>   0.1200 
 12 C       -3.4040    -3.1050    -2.0590 C.ar  1 <1>  -0.1500 
 13 C       -1.1240    -3.6310    -2.9400 C.3   1 <1>  -0.0960 
 14 C       -3.8340    -1.3990    -0.4100 C.ar  1 <1>   0.0860 
 15 O        1.6740     0.0680     2.8570 O.3   1 <1>  -0.5600 
 16 C       -4.2840    -2.4040    -1.2600 C.ar  1 <1>  -0.1500 
 17 C       -4.7350    -0.6440     0.4410 C.2   1 <1>   0.5440 
 18 O       -4.3660    -0.2590     1.5330 O.2   1 <1>  -0.5700 
 19 N       -5.9990    -0.3460     0.0210 N.am  1 <1>  -0.7300 
 20 C       -6.9990     0.4250     0.7810 C.3   1 <1>   0.2200 
 21 C       -8.2750    -0.4200     0.8580 C.3   1 <1>  -0.1600 
 22 C       -7.1650     1.7880     0.0960 C.3   1 <1>  -0.1600 
 23 C       -9.4680     0.2620     1.5490 C.3   1 <1>  -0.1600 
 24 C       -7.9270     2.7950     0.9710 C.3   1 <1>  -0.1600 
 25 C      -10.0980     1.3620     0.6820 C.3   1 <1>  -0.1600 
 26 C       -9.4560     2.7510     0.8310 C.3   1 <1>  -0.1600 
 27 H        1.6730     0.8750    -0.3750 H     1 <1>   0.0800 
 28 H        2.4980    -0.4930     0.3230 H     1 <1>   0.0800 
 29 H        1.1150    -2.2160     1.5470 H     1 <1>   0.0800 
 30 H       -0.6130    -1.9940     1.5950 H     1 <1>   0.0800 
 31 H       -2.1200    -0.3550     0.2500 H     1 <1>   0.1500 
 32 H        1.0170     1.6860     1.8410 H     1 <1>   0.0800 
 33 H        2.7460     1.4180     1.8230 H     1 <1>   0.0800 
 34 H        0.5000    -1.3110     3.7270 H     1 <1>   0.0800 
 35 H       -0.3450     0.0290     2.9810 H     1 <1>   0.0800 
 36 H       -3.7850    -3.8730    -2.7110 H     1 <1>   0.1500 
 37 H       -0.4790    -2.9730    -3.4960 H     1 <1>   0.0800 
 38 H       -1.6880    -4.2120    -3.6470 H     1 <1>   0.0800 
 39 H       -0.5180    -4.3040    -2.3600 H     1 <1>   0.0800 
 40 H       -5.3320    -2.6450    -1.2920 H     1 <1>   0.1500 
 41 H       -6.2680    -0.5590    -0.9380 H     1 <1>   0.3700 
 42 H       -6.6320     0.5840     1.7830 H     1 <1>   0.0800 
 43 H       -8.0400    -1.3120     1.4120 H     1 <1>   0.0800 
 44 H       -8.5700    -0.7200    -0.1320 H     1 <1>   0.0800 
 45 H       -7.6430     1.6820    -0.8610 H     1 <1>   0.0800 
 46 H       -6.1800     2.1900    -0.0670 H     1 <1>   0.0800 
 47 H       -9.1810     0.6500     2.5120 H     1 <1>   0.0800 
 48 H      -10.2170    -0.4920     1.7200 H     1 <1>   0.0800 
 49 H       -7.6030     3.7890     0.7130 H     1 <1>   0.0800 
 50 H       -7.6570     2.6440     2.0030 H     1 <1>   0.0800 
 51 H      -11.1380     1.4540     0.9470 H     1 <1>   0.0800 
 52 H      -10.0700     1.0640    -0.3520 H     1 <1>   0.0800 
 53 H       -9.7410     3.3380    -0.0250 H     1 <1>   0.0800 
 54 H       -9.8800     3.2350     1.6940 H     1 <1>   0.0800 
@<TRIPOS>BOND
  1   1   2  2   
  2   1   3  2   
  3   1   4  am  
  4   1   5  1   
  5   4   6  1   
  6   4   7  1   
  7   5   8  ar  
  8   5   9  ar  
  9   6  10  1   
 10   6  27  1   
 11   6  28  1   
 12   7  11  1   
 13   7  29  1   
 14   7  30  1   
 15   8  12  ar  
 16   8  13  1   
 17   9  14  ar  
 18   9  31  1   
 19  10  15  1   
 20  10  32  1   
 21  10  33  1   
 22  11  15  1   
 23  11  34  1   
 24  11  35  1   
 25  12  16  ar  
 26  12  36  1   
 27  13  37  1   
 28  13  38  1   
 29  13  39  1   
 30  14  16  ar  
 31  14  17  1   
 32  16  40  1   
 33  17  18  2   
 34  17  19  am  
 35  19  20  1   
 36  19  41  1   
 37  20  21  1   
 38  20  22  1   
 39  20  42  1   
 40  21  23  1   
 41  21  43  1   
 42  21  44  1   
 43  22  24  1   
 44  22  45  1   
 45  22  46  1   
 46  23  25  1   
 47  23  47  1   
 48  23  48  1   
 49  24  26  1   
 50  24  49  1   
 51  24  50  1   
 52  25  26  1   
 53  25  51  1   
 54  25  52  1   
 55  26  53  1   
 56  26  54  1   
@<TRIPOS>SUBSTRUCTURE
  1 ****   9 GROUP 4 **** **** 0

# MOE 2024.06 (io_trps.svl 2023.06)
