@<TRIPOS>MOLECULE
NONAME
49 51 1 0 0 
SMALL
USER_CHARGES


@<TRIPOS>ATOM
  1 S       -0.0640    -0.1790     0.1000 S.o2  1 <1>   1.4470 
  2 O       -0.1700    -0.9140     1.3440 O.2   1 <1>  -0.6500 
  3 O       -0.2980    -0.8510    -1.1600 O.2   1 <1>  -0.6500 
  4 N       -1.1260     1.1490     0.2370 N.am  1 <1>  -0.8490 
  5 C        1.5810     0.5820    -0.0170 C.ar  1 <1>  -0.0090 
  6 C       -2.5690     0.8170     0.3890 C.3   1 <1>   0.2760 
  7 C       -0.7090     2.0180     1.3580 C.3   1 <1>   0.1160 
  8 C        1.9250     1.3670    -1.1110 C.ar  1 <1>  -0.1500 
  9 C        2.5350     0.4220     0.9820 C.ar  1 <1>  -0.1500 
 10 C       -3.0500    -0.4100    -0.4180 C.3   1 <1>  -0.1600 
 11 C       -3.4070     2.0410    -0.0450 C.3   1 <1>  -0.1600 
 12 C        3.1670     1.9690    -1.2050 C.ar  1 <1>  -0.1500 
 13 C        3.7770     1.0240     0.8940 C.ar  1 <1>  -0.1500 
 14 C       -4.5610    -0.6520    -0.2880 C.3   1 <1>  -0.1600 
 15 C       -4.9200     1.8070     0.0870 C.3   1 <1>  -0.1600 
 16 C        4.1160     1.8080    -0.2040 C.ar  1 <1>   0.1170 
 17 C       -5.3610     0.5810    -0.7130 C.3   1 <1>  -0.1600 
 18 N        5.3530     2.4540    -0.3360 N.am  1 <1>  -0.5470 
 19 C        6.5780     2.1960     0.2380 C.2   1 <1>   0.5440 
 20 O        6.7500     1.1840     0.8840 O.2   1 <1>  -0.5700 
 21 C        7.6710     3.1240     0.0400 C.ar  1 <1>   0.0860 
 22 C        8.9900     2.6700     0.0490 C.ar  1 <1>   0.1600 
 23 C        7.4770     4.4870    -0.1640 C.ar  1 <1>  -0.1500 
 24 N       10.0700     3.4150    -0.1400 N.ar  1 <1>  -0.6200 
 25 C        8.5880     5.2790    -0.3580 C.ar  1 <1>  -0.1500 
 26 C        9.8460     4.7030    -0.3390 C.ar  1 <1>   0.1600 
 27 H       -2.7690     0.6050     1.4270 H     1 <1>   0.0800 
 28 H        0.3000     2.3620     1.2200 H     1 <1>   0.0800 
 29 H       -0.7650     1.4790     2.2900 H     1 <1>   0.0800 
 30 H       -1.3220     2.8950     1.4310 H     1 <1>   0.0800 
 31 H        1.2020     1.5020    -1.9000 H     1 <1>   0.1500 
 32 H        2.3040    -0.1850     1.8420 H     1 <1>   0.1500 
 33 H       -2.5650    -1.3020    -0.0660 H     1 <1>   0.0800 
 34 H       -2.8110    -0.2690    -1.4580 H     1 <1>   0.0800 
 35 H       -3.1780     2.2670    -1.0720 H     1 <1>   0.0800 
 36 H       -3.1710     2.9050     0.5430 H     1 <1>   0.0800 
 37 H        3.3960     2.5650    -2.0700 H     1 <1>   0.1500 
 38 H        4.4850     0.8800     1.6900 H     1 <1>   0.1500 
 39 H       -4.7970    -0.8990     0.7330 H     1 <1>   0.0800 
 40 H       -4.8420    -1.4910    -0.9020 H     1 <1>   0.0800 
 41 H       -5.4500     2.6750    -0.2670 H     1 <1>   0.0800 
 42 H       -5.1720     1.6670     1.1250 H     1 <1>   0.0800 
 43 H       -6.4110     0.4030    -0.5590 H     1 <1>   0.0800 
 44 H       -5.2060     0.7630    -1.7640 H     1 <1>   0.0800 
 45 H        5.3700     3.1880    -1.0410 H     1 <1>   0.3700 
 46 H        9.1560     1.6190     0.2210 H     1 <1>   0.1500 
 47 H        6.4930     4.9210    -0.1610 H     1 <1>   0.1500 
 48 H        8.4870     6.3380    -0.5200 H     1 <1>   0.1500 
 49 H       10.7090     5.3290    -0.4930 H     1 <1>   0.1500 
@<TRIPOS>BOND
  1   1   2  2   
  2   1   3  2   
  3   1   4  am  
  4   1   5  1   
  5   4   6  1   
  6   4   7  1   
  7   5   8  ar  
  8   5   9  ar  
  9   6  10  1   
 10   6  11  1   
 11   6  27  1   
 12   7  28  1   
 13   7  29  1   
 14   7  30  1   
 15   8  12  ar  
 16   8  31  1   
 17   9  13  ar  
 18   9  32  1   
 19  10  14  1   
 20  10  33  1   
 21  10  34  1   
 22  11  15  1   
 23  11  35  1   
 24  11  36  1   
 25  12  16  ar  
 26  12  37  1   
 27  13  16  ar  
 28  13  38  1   
 29  14  17  1   
 30  14  39  1   
 31  14  40  1   
 32  15  17  1   
 33  15  41  1   
 34  15  42  1   
 35  16  18  1   
 36  17  43  1   
 37  17  44  1   
 38  18  19  am  
 39  18  45  1   
 40  19  20  2   
 41  19  21  1   
 42  21  22  ar  
 43  21  23  ar  
 44  22  24  ar  
 45  22  46  1   
 46  23  25  ar  
 47  23  47  1   
 48  24  26  ar  
 49  25  26  ar  
 50  25  48  1   
 51  26  49  1   
@<TRIPOS>SUBSTRUCTURE
  1 ****   8 GROUP 4 **** **** 0

# MOE 2024.06 (io_trps.svl 2023.06)
