@<TRIPOS>MOLECULE
NONAME
50 52 1 0 0 
SMALL
USER_CHARGES


@<TRIPOS>ATOM
  1 N        0.0470     0.1830    -0.3950 N.4   1 <1>  -0.9590 
  2 C        1.2500     0.9390    -0.8780 C.3   1 <1>   0.4230 
  3 C       -0.1060    -1.2070    -0.9320 C.3   1 <1>   0.3430 
  4 C       -1.2470     0.8860    -0.6450 C.3   1 <1>   0.3430 
  5 C        2.5390     0.1370    -0.6300 C.3   1 <1>  -0.1600 
  6 C        1.3450     2.2890    -0.1450 C.3   1 <1>  -0.1600 
  7 C       -0.7980    -2.1060     0.0980 C.3   1 <1>  -0.1600 
  8 C       -2.0560     0.9460     0.6500 C.3   1 <1>  -0.1600 
  9 C        3.7950     0.9350    -0.9820 C.3   1 <1>   0.3430 
 10 C        2.6140     3.0610    -0.5090 C.3   1 <1>   0.3430 
 11 C       -2.1720    -1.6330     0.6100 C.3   1 <1>  -0.1600 
 12 C       -2.1040    -0.3590     1.4670 C.3   1 <1>  -0.1600 
 13 N        3.8070     2.2220    -0.2340 N.4   1 <1>  -0.9590 
 14 C        5.0720     2.9790    -0.4920 C.3   1 <1>   0.4860 
 15 C        6.2260     2.1570     0.0440 C.ar  1 <1>  -0.1430 
 16 C        6.4370     2.0550     1.4120 C.ar  1 <1>  -0.1500 
 17 C        7.0740     1.4900    -0.8300 C.ar  1 <1>  -0.1500 
 18 C        7.4740     1.2790     1.9000 C.ar  1 <1>  -0.1500 
 19 C        8.1100     0.7150    -0.3390 C.ar  1 <1>  -0.1500 
 20 C        8.3080     0.6070     1.0250 C.ar  1 <1>  -0.1500 
 21 H        0.1060     0.0750     0.6260 H     1 <1>   0.4500 
 22 H        1.1520     1.1200    -1.9380 H     1 <1>   0.0800 
 23 H        0.8500    -1.6440    -1.1570 H     1 <1>   0.0800 
 24 H       -0.6810    -1.1910    -1.8450 H     1 <1>   0.0800 
 25 H       -1.8180     0.3500    -1.3880 H     1 <1>   0.0800 
 26 H       -1.0910     1.8830    -1.0190 H     1 <1>   0.0800 
 27 H        2.5600    -0.7430    -1.2460 H     1 <1>   0.0800 
 28 H        2.6010    -0.1710     0.3990 H     1 <1>   0.0800 
 29 H        1.3270     2.1380     0.9200 H     1 <1>   0.0800 
 30 H        0.5130     2.9180    -0.4030 H     1 <1>   0.0800 
 31 H       -0.1370    -2.2610     0.9330 H     1 <1>   0.0800 
 32 H       -0.9340    -3.0710    -0.3600 H     1 <1>   0.0800 
 33 H       -3.0650     1.2140     0.3820 H     1 <1>   0.0800 
 34 H       -1.6860     1.7420     1.2720 H     1 <1>   0.0800 
 35 H        3.8220     1.1280    -2.0430 H     1 <1>   0.0800 
 36 H        4.6680     0.3520    -0.7280 H     1 <1>   0.0800 
 37 H        2.6610     3.9700     0.0720 H     1 <1>   0.0800 
 38 H        2.5900     3.3330    -1.5530 H     1 <1>   0.0800 
 39 H       -2.5720    -2.4200     1.2300 H     1 <1>   0.0800 
 40 H       -2.8640    -1.5050    -0.2060 H     1 <1>   0.0800 
 41 H       -2.9810    -0.3220     2.0930 H     1 <1>   0.0800 
 42 H       -1.2600    -0.4170     2.1340 H     1 <1>   0.0800 
 43 H        3.8510     1.9960     0.7700 H     1 <1>   0.4500 
 44 H        5.0520     3.9300     0.0160 H     1 <1>   0.0800 
 45 H        5.2020     3.1560    -1.5470 H     1 <1>   0.0800 
 46 H        5.8130     2.5760     2.1170 H     1 <1>   0.1500 
 47 H        6.9490     1.5640    -1.8980 H     1 <1>   0.1500 
 48 H        7.6400     1.1980     2.9610 H     1 <1>   0.1500 
 49 H        8.7690     0.1970    -1.0160 H     1 <1>   0.1500 
 50 H        9.1160     0.0050     1.4060 H     1 <1>   0.1500 
@<TRIPOS>BOND
  1   1   2  1   
  2   1   3  1   
  3   1   4  1   
  4   1  21  1   
  5   2   5  1   
  6   2   6  1   
  7   2  22  1   
  8   3   7  1   
  9   3  23  1   
 10   3  24  1   
 11   4   8  1   
 12   4  25  1   
 13   4  26  1   
 14   5   9  1   
 15   5  27  1   
 16   5  28  1   
 17   6  10  1   
 18   6  29  1   
 19   6  30  1   
 20   7  11  1   
 21   7  31  1   
 22   7  32  1   
 23   8  12  1   
 24   8  33  1   
 25   8  34  1   
 26   9  13  1   
 27   9  35  1   
 28   9  36  1   
 29  10  13  1   
 30  10  37  1   
 31  10  38  1   
 32  11  12  1   
 33  11  39  1   
 34  11  40  1   
 35  12  41  1   
 36  12  42  1   
 37  13  14  1   
 38  13  43  1   
 39  14  15  1   
 40  14  44  1   
 41  14  45  1   
 42  15  16  ar  
 43  15  17  ar  
 44  16  18  ar  
 45  16  46  1   
 46  17  19  ar  
 47  17  47  1   
 48  18  20  ar  
 49  18  48  1   
 50  19  20  ar  
 51  19  49  1   
 52  20  50  1   
@<TRIPOS>SUBSTRUCTURE
  1 ****   5 GROUP 4 **** **** 0

# MOE 2024.06 (io_trps.svl 2023.06)
