@<TRIPOS>MOLECULE
NONAME
27 27 1 0 0 
SMALL
USER_CHARGES


@<TRIPOS>ATOM
  1 O       -2.5180    -1.4710    -0.5430 O.co2 1 <1>  -0.9000 
  2 C       -1.9350    -1.3970     0.5500 C.2   1 <1>   0.9060 
  3 O       -2.4930    -1.1450     1.6100 O.co2 1 <1>  -0.9000 
  4 C       -0.4970    -1.8440     0.5670 C.3   1 <1>  -0.1860 
  5 C       -0.6680    -3.3270     0.2160 C.3   1 <1>   0.4230 
  6 C        0.3230    -0.8850    -0.3590 C.3   1 <1>  -0.1600 
  7 N       -0.8320    -3.4170    -1.2300 N.4   1 <1>  -0.8530 
  8 C        0.3740    -4.3420     0.7280 C.3   1 <1>  -0.1600 
  9 C        1.8210    -1.1580    -0.5220 C.3   1 <1>  -0.0220 
 10 C        1.8580    -4.0520     0.4720 C.3   1 <1>  -0.0220 
 11 C        2.0810    -2.3760    -1.3950 C.2   1 <1>  -0.2880 
 12 C        2.1070    -3.6390    -0.9650 C.2   1 <1>  -0.2880 
 13 H       -0.1490    -1.7560     1.5790 H     1 <1>   0.0800 
 14 H       -1.6040    -3.6320     0.6620 H     1 <1>   0.0800 
 15 H       -0.1250    -0.8260    -1.3360 H     1 <1>   0.0800 
 16 H        0.2270     0.1030     0.0620 H     1 <1>   0.0800 
 17 H        0.0520    -3.1250    -1.6610 H     1 <1>   0.4500 
 18 H       -1.5650    -2.6920    -1.4240 H     1 <1>   0.4500 
 19 H       -1.1560    -4.3250    -1.5500 H     1 <1>   0.4500 
 20 H        0.2450    -4.4190     1.7930 H     1 <1>   0.0800 
 21 H        0.1330    -5.3090     0.3240 H     1 <1>   0.0800 
 22 H        2.2780    -1.2550     0.4450 H     1 <1>   0.0800 
 23 H        2.2840    -0.3040    -0.9890 H     1 <1>   0.0800 
 24 H        2.4470    -4.9240     0.7020 H     1 <1>   0.0800 
 25 H        2.1800    -3.2840     1.1500 H     1 <1>   0.0800 
 26 H        2.2530    -2.1110    -2.4280 H     1 <1>   0.1500 
 27 H        2.3040    -4.4760    -1.6180 H     1 <1>   0.1500 
@<TRIPOS>BOND
  1   1   2  ar  
  2   2   3  ar  
  3   2   4  1   
  4   4   5  1   
  5   4   6  1   
  6   4  13  1   
  7   5   7  1   
  8   5   8  1   
  9   5  14  1   
 10   6   9  1   
 11   6  15  1   
 12   6  16  1   
 13   7  17  1   
 14   7  18  1   
 15   7  19  1   
 16   8  10  1   
 17   8  20  1   
 18   8  21  1   
 19   9  11  1   
 20   9  22  1   
 21   9  23  1   
 22  10  12  1   
 23  10  24  1   
 24  10  25  1   
 25  11  12  2   
 26  11  26  1   
 27  12  27  1   
@<TRIPOS>SUBSTRUCTURE
  1 ****   4 GROUP 4 **** **** 0

# MOE 2024.06 (io_trps.svl 2023.06)
