@<TRIPOS>MOLECULE
NONAME
35 36 1 0 0 
SMALL
USER_CHARGES


@<TRIPOS>ATOM
  1 CL       0.4870    -0.7370    -0.8460 Cl    1 <1>  -0.1770 
  2 C        2.1740    -0.3510    -0.6090 C.ar  1 <1>   0.1770 
  3 C        3.1320    -1.3160    -0.8590 C.ar  1 <1>  -0.1500 
  4 C        2.5280     0.9110    -0.1730 C.ar  1 <1>  -0.1500 
  5 C        4.4680    -1.0060    -0.6700 C.ar  1 <1>  -0.1500 
  6 C        3.8670     1.2110     0.0140 C.ar  1 <1>  -0.1500 
  7 C        4.8540     0.2590    -0.2340 C.ar  1 <1>   0.1170 
  8 N        6.2180     0.5190    -0.0440 N.am  1 <1>  -0.5470 
  9 C        6.9270     1.6860    -0.0750 C.2   1 <1>   0.6900 
 10 O        6.4010     2.7250    -0.4280 O.2   1 <1>  -0.5700 
 11 N        8.2580     1.6640     0.2650 N.am  1 <1>  -0.6600 
 12 C        8.9230     0.5810     1.0390 C.3   1 <1>   0.1400 
 13 C        9.1430     2.8280    -0.0200 C.3   1 <1>   0.1400 
 14 C       10.1170     0.0580     0.2370 C.3   1 <1>  -0.1600 
 15 C       10.3520     2.3500    -0.8280 C.3   1 <1>  -0.1600 
 16 C       11.0920     1.1970    -0.1200 C.3   1 <1>  -0.0190 
 17 C       12.2760     0.6800    -0.9320 C.2   1 <1>   0.5690 
 18 O       13.3640     0.6190    -0.4240 O.2   1 <1>  -0.5700 
 19 N       12.1070     0.2830    -2.2070 N.am  1 <1>  -0.8000 
 20 H        2.8300    -2.2900    -1.1970 H     1 <1>   0.1500 
 21 H        1.7680     1.6470     0.0160 H     1 <1>   0.1500 
 22 H        5.2150    -1.7530    -0.8670 H     1 <1>   0.1500 
 23 H        4.1430     2.1920     0.3570 H     1 <1>   0.1500 
 24 H        6.8170    -0.2950     0.0120 H     1 <1>   0.3700 
 25 H        8.2420    -0.2220     1.2580 H     1 <1>   0.0800 
 26 H        9.2640     0.9850     1.9770 H     1 <1>   0.0800 
 27 H        9.4640     3.2630     0.9110 H     1 <1>   0.0800 
 28 H        8.6160     3.5850    -0.5770 H     1 <1>   0.0800 
 29 H        9.7580    -0.4170    -0.6590 H     1 <1>   0.0800 
 30 H       10.6350    -0.6850     0.8180 H     1 <1>   0.0800 
 31 H       11.0270     3.1750    -0.9740 H     1 <1>   0.0800 
 32 H       10.0060     2.0360    -1.7970 H     1 <1>   0.0800 
 33 H       11.4920     1.5860     0.8010 H     1 <1>   0.0800 
 34 H       12.9140    -0.0550    -2.7340 H     1 <1>   0.3700 
 35 H       11.2170     0.3210    -2.7020 H     1 <1>   0.3700 
@<TRIPOS>BOND
  1   1   2  1   
  2   2   3  ar  
  3   2   4  ar  
  4   3   5  ar  
  5   3  20  1   
  6   4   6  ar  
  7   4  21  1   
  8   5   7  ar  
  9   5  22  1   
 10   6   7  ar  
 11   6  23  1   
 12   7   8  1   
 13   8   9  am  
 14   8  24  1   
 15   9  10  2   
 16   9  11  am  
 17  11  12  1   
 18  11  13  1   
 19  12  14  1   
 20  12  25  1   
 21  12  26  1   
 22  13  15  1   
 23  13  27  1   
 24  13  28  1   
 25  14  16  1   
 26  14  29  1   
 27  14  30  1   
 28  15  16  1   
 29  15  31  1   
 30  15  32  1   
 31  16  17  1   
 32  16  33  1   
 33  17  18  2   
 34  17  19  am  
 35  19  34  1   
 36  19  35  1   
@<TRIPOS>SUBSTRUCTURE
  1 ****   9 GROUP 4 **** **** 0

# MOE 2024.06 (io_trps.svl 2023.06)
