@<TRIPOS>MOLECULE
NONAME
47 47 1 0 0 
SMALL
USER_CHARGES


@<TRIPOS>ATOM
  1 CL       0.3220     0.5040    -1.8970 Cl    1 <1>  -0.1770 
  2 C        1.7860     1.0950    -1.1490 C.ar  1 <1>   0.1770 
  3 C        2.2610     2.3470    -1.4910 C.ar  1 <1>  -0.1500 
  4 C        2.4400     0.3020    -0.2260 C.ar  1 <1>  -0.1500 
  5 C        3.4230     2.8220    -0.9050 C.ar  1 <1>  -0.1440 
  6 C        3.6040     0.7610     0.3700 C.ar  1 <1>  -0.1440 
  7 C        4.0980     2.0160     0.0130 C.ar  1 <1>   0.0830 
  8 C        3.9290     4.2110    -1.2710 C.3   1 <1>  -0.0960 
  9 C        4.3070    -0.1100     1.4010 C.3   1 <1>  -0.0960 
 10 O        5.2430     2.4640     0.5750 O.3   1 <1>  -0.3630 
 11 C        6.4310     2.1430    -0.1130 C.3   1 <1>   0.1200 
 12 C        7.6030     2.7300     0.6680 C.3   1 <1>   0.1200 
 13 O        8.7910     2.4210    -0.0020 O.3   1 <1>  -0.5600 
 14 C        9.9370     2.9030     0.6130 C.3   1 <1>   0.1200 
 15 C       11.1270     2.4740    -0.2510 C.3   1 <1>   0.3430 
 16 N       12.4290     2.9440     0.3220 N.4   1 <1>  -0.9060 
 17 C       13.6350     2.5860    -0.4300 C.3   1 <1>   0.5030 
 18 C       14.8100     3.1700     0.3460 C.3   1 <1>  -0.2400 
 19 C       13.7680     1.0660    -0.5050 C.3   1 <1>  -0.2400 
 20 C       13.5770     3.2030    -1.8270 C.3   1 <1>  -0.2400 
 21 H        1.7180     2.9350    -2.2080 H     1 <1>   0.1500 
 22 H        2.0330    -0.6620     0.0180 H     1 <1>   0.1500 
 23 H        3.1420     4.8010    -1.7040 H     1 <1>   0.0800 
 24 H        4.7320     4.1340    -1.9810 H     1 <1>   0.0800 
 25 H        4.2850     4.7200    -0.3930 H     1 <1>   0.0800 
 26 H        3.6370    -0.8530     1.7930 H     1 <1>   0.0800 
 27 H        4.6550     0.4930     2.2210 H     1 <1>   0.0800 
 28 H        5.1470    -0.6060     0.9510 H     1 <1>   0.0800 
 29 H        6.3790     2.5680    -1.0990 H     1 <1>   0.0800 
 30 H        6.5110     1.0730    -0.1730 H     1 <1>   0.0800 
 31 H        7.6370     2.3010     1.6540 H     1 <1>   0.0800 
 32 H        7.5040     3.8010     0.7260 H     1 <1>   0.0800 
 33 H       10.0000     2.4720     1.5980 H     1 <1>   0.0800 
 34 H        9.8670     3.9760     0.6680 H     1 <1>   0.0800 
 35 H       10.9940     2.8820    -1.2390 H     1 <1>   0.0800 
 36 H       11.1260     1.3990    -0.3220 H     1 <1>   0.0800 
 37 H       12.5450     2.5670     1.2680 H     1 <1>   0.4500 
 38 H       12.4200     3.9650     0.4030 H     1 <1>   0.4500 
 39 H       14.8710     2.7530     1.3360 H     1 <1>   0.0800 
 40 H       14.7390     4.2420     0.4150 H     1 <1>   0.0800 
 41 H       15.7330     2.9400    -0.1600 H     1 <1>   0.0800 
 42 H       14.7040     0.8070    -0.9690 H     1 <1>   0.0800 
 43 H       13.7570     0.6250     0.4760 H     1 <1>   0.0800 
 44 H       12.9880     0.6270    -1.1010 H     1 <1>   0.0800 
 45 H       13.4330     4.2680    -1.7770 H     1 <1>   0.0800 
 46 H       12.7980     2.7660    -2.4240 H     1 <1>   0.0800 
 47 H       14.5070     3.0240    -2.3400 H     1 <1>   0.0800 
@<TRIPOS>BOND
  1   1   2  1   
  2   2   3  ar  
  3   2   4  ar  
  4   3   5  ar  
  5   3  21  1   
  6   4   6  ar  
  7   4  22  1   
  8   5   7  ar  
  9   5   8  1   
 10   6   7  ar  
 11   6   9  1   
 12   7  10  1   
 13   8  23  1   
 14   8  24  1   
 15   8  25  1   
 16   9  26  1   
 17   9  27  1   
 18   9  28  1   
 19  10  11  1   
 20  11  12  1   
 21  11  29  1   
 22  11  30  1   
 23  12  13  1   
 24  12  31  1   
 25  12  32  1   
 26  13  14  1   
 27  14  15  1   
 28  14  33  1   
 29  14  34  1   
 30  15  16  1   
 31  15  35  1   
 32  15  36  1   
 33  16  17  1   
 34  16  37  1   
 35  16  38  1   
 36  17  18  1   
 37  17  19  1   
 38  17  20  1   
 39  18  39  1   
 40  18  40  1   
 41  18  41  1   
 42  19  42  1   
 43  19  43  1   
 44  19  44  1   
 45  20  45  1   
 46  20  46  1   
 47  20  47  1   
@<TRIPOS>SUBSTRUCTURE
  1 ****  11 GROUP 4 **** **** 0

# MOE 2024.06 (io_trps.svl 2023.06)
