@<TRIPOS>MOLECULE
NONAME
37 36 1 0 0 
SMALL
USER_CHARGES


@<TRIPOS>ATOM
  1 O       -1.1730     1.4770     0.7420 O.2   1 <1>  -0.5700 
  2 C       -1.9550     1.1230    -0.1030 C.2   1 <1>   0.6590 
  3 O       -2.8210     1.9300    -0.6980 O.3   1 <1>  -0.4300 
  4 C       -1.9990    -0.3100    -0.5650 C.3   1 <1>  -0.1790 
  5 C       -3.0500     3.2880    -0.3940 C.3   1 <1>   0.4800 
  6 C       -1.7680     4.0600    -0.4460 C.1   1 <1>  -0.2000 
  7 C       -3.7040     3.3860     0.9860 C.3   1 <1>  -0.2400 
  8 C       -4.0010     3.8090    -1.4680 C.3   1 <1>  -0.2400 
  9 C       -0.7100     4.5980    -0.3840 C.1   1 <1>  -0.2000 
 10 C        0.6570     5.1460    -0.1870 C.3   1 <1>   0.5430 
 11 N        1.6400     4.2030    -0.7840 N.4   1 <1>  -0.9590 
 12 C        1.6080     2.8770    -0.0960 C.3   1 <1>   0.3430 
 13 C        2.9910     4.8250    -0.8120 C.3   1 <1>   0.3430 
 14 C        1.4150     1.7920    -1.1480 C.3   1 <1>  -0.2400 
 15 C        3.9270     4.0430    -1.7260 C.3   1 <1>  -0.2400 
 16 H       -1.7870    -0.3570    -1.6170 H     1 <1>   0.0800 
 17 H       -2.9760    -0.7160    -0.3810 H     1 <1>   0.0800 
 18 H       -1.2710    -0.8910    -0.0300 H     1 <1>   0.0800 
 19 H       -4.6030     2.7970     1.0170 H     1 <1>   0.0800 
 20 H       -3.9600     4.4080     1.1980 H     1 <1>   0.0800 
 21 H       -3.0310     3.0470     1.7520 H     1 <1>   0.0800 
 22 H       -3.5510     3.7180    -2.4400 H     1 <1>   0.0800 
 23 H       -4.2250     4.8460    -1.2940 H     1 <1>   0.0800 
 24 H       -4.9220     3.2550    -1.4530 H     1 <1>   0.0800 
 25 H        0.8500     5.2700     0.8660 H     1 <1>   0.0800 
 26 H        0.7240     6.1090    -0.6670 H     1 <1>   0.0800 
 27 H        1.3180     4.0420    -1.7450 H     1 <1>   0.4500 
 28 H        0.7880     2.8320     0.6050 H     1 <1>   0.0800 
 29 H        2.5240     2.7090     0.4480 H     1 <1>   0.0800 
 30 H        3.4020     4.8660     0.1840 H     1 <1>   0.0800 
 31 H        2.9140     5.8340    -1.1850 H     1 <1>   0.0800 
 32 H        1.3610     0.8370    -0.6560 H     1 <1>   0.0800 
 33 H        2.2320     1.7600    -1.8440 H     1 <1>   0.0800 
 34 H        0.4910     1.9410    -1.6780 H     1 <1>   0.0800 
 35 H        4.1490     3.0740    -1.3190 H     1 <1>   0.0800 
 36 H        4.8570     4.5770    -1.8140 H     1 <1>   0.0800 
 37 H        3.5080     3.9420    -2.7110 H     1 <1>   0.0800 
@<TRIPOS>BOND
  1   1   2  2   
  2   2   3  1   
  3   2   4  1   
  4   3   5  1   
  5   4  16  1   
  6   4  17  1   
  7   4  18  1   
  8   5   6  1   
  9   5   7  1   
 10   5   8  1   
 11   6   9  3   
 12   7  19  1   
 13   7  20  1   
 14   7  21  1   
 15   8  22  1   
 16   8  23  1   
 17   8  24  1   
 18   9  10  1   
 19  10  11  1   
 20  10  25  1   
 21  10  26  1   
 22  11  12  1   
 23  11  13  1   
 24  11  27  1   
 25  12  14  1   
 26  12  28  1   
 27  12  29  1   
 28  13  15  1   
 29  13  30  1   
 30  13  31  1   
 31  14  32  1   
 32  14  33  1   
 33  14  34  1   
 34  15  35  1   
 35  15  36  1   
 36  15  37  1   
@<TRIPOS>SUBSTRUCTURE
  1 ****   9 GROUP 4 **** **** 0

# MOE 2024.06 (io_trps.svl 2023.06)
