@<TRIPOS>MOLECULE
NONAME
37 38 1 0 0 
SMALL
USER_CHARGES


@<TRIPOS>ATOM
  1 O        2.1430    -3.3570     0.9690 O.3   1 <1>  -0.5600 
  2 C        1.7900    -3.6290    -0.3640 C.3   1 <1>   0.1200 
  3 C        2.0550    -2.0070     1.3310 C.3   1 <1>   0.1200 
  4 C        2.5020    -2.6870    -1.3650 C.3   1 <1>   0.3430 
  5 C        3.0480    -1.1520     0.5130 C.3   1 <1>   0.3430 
  6 N        3.5660    -1.8890    -0.6870 N.4   1 <1>  -0.9590 
  7 C        4.4010    -1.0550    -1.5890 C.3   1 <1>   0.4860 
  8 C        5.6190    -0.5880    -0.8150 C.ar  1 <1>  -0.1440 
  9 C        6.5060    -1.5270    -0.2980 C.ar  1 <1>   0.0820 
 10 C        5.8520     0.7630    -0.6080 C.ar  1 <1>  -0.1500 
 11 O        6.2260    -2.8340    -0.5190 O.3   1 <1>  -0.3630 
 12 C        7.6200    -1.1110     0.4220 C.ar  1 <1>  -0.1500 
 13 C        6.9600     1.1740     0.1140 C.ar  1 <1>  -0.1500 
 14 C        6.6330    -3.8260     0.3940 C.3   1 <1>   0.2580 
 15 C        7.8410     0.2390     0.6280 C.ar  1 <1>  -0.1500 
 16 C        5.7550    -5.0320     0.1300 C.2   1 <1>  -0.2880 
 17 C        4.7920    -5.4820     0.9400 C.2   1 <1>  -0.3000 
 18 H        0.7210    -3.5440    -0.4600 H     1 <1>   0.0800 
 19 H        2.0630    -4.6510    -0.5640 H     1 <1>   0.0800 
 20 H        2.2740    -1.9280     2.3820 H     1 <1>   0.0800 
 21 H        1.0430    -1.6750     1.1720 H     1 <1>   0.0800 
 22 H        1.7720    -2.0270    -1.8020 H     1 <1>   0.0800 
 23 H        2.9280    -3.2780    -2.1600 H     1 <1>   0.0800 
 24 H        3.8750    -0.8760     1.1480 H     1 <1>   0.0800 
 25 H        2.5570    -0.2420     0.2110 H     1 <1>   0.0800 
 26 H        4.2270    -2.5910    -0.3040 H     1 <1>   0.4500 
 27 H        3.8380    -0.2110    -1.9510 H     1 <1>   0.0800 
 28 H        4.7290    -1.6420    -2.4320 H     1 <1>   0.0800 
 29 H        5.1840     1.5100    -1.0030 H     1 <1>   0.1500 
 30 H        8.3250    -1.8190     0.8180 H     1 <1>   0.1500 
 31 H        7.1420     2.2240     0.2750 H     1 <1>   0.1500 
 32 H        6.4860    -3.4590     1.3960 H     1 <1>   0.0800 
 33 H        7.6730    -4.0520     0.2290 H     1 <1>   0.0800 
 34 H        8.7050     0.5650     1.1840 H     1 <1>   0.1500 
 35 H        5.9920    -5.5070    -0.8070 H     1 <1>   0.1500 
 36 H        4.1850    -6.3460     0.7310 H     1 <1>   0.1500 
 37 H        4.5220    -5.0330     1.8820 H     1 <1>   0.1500 
@<TRIPOS>BOND
  1   1   2  1   
  2   1   3  1   
  3   2   4  1   
  4   2  18  1   
  5   2  19  1   
  6   3   5  1   
  7   3  20  1   
  8   3  21  1   
  9   4   6  1   
 10   4  22  1   
 11   4  23  1   
 12   5   6  1   
 13   5  24  1   
 14   5  25  1   
 15   6   7  1   
 16   6  26  1   
 17   7   8  1   
 18   7  27  1   
 19   7  28  1   
 20   8   9  ar  
 21   8  10  ar  
 22   9  11  1   
 23   9  12  ar  
 24  10  13  ar  
 25  10  29  1   
 26  11  14  1   
 27  12  15  ar  
 28  12  30  1   
 29  13  15  ar  
 30  13  31  1   
 31  14  16  1   
 32  14  32  1   
 33  14  33  1   
 34  15  34  1   
 35  16  17  2   
 36  16  35  1   
 37  17  36  1   
 38  17  37  1   
@<TRIPOS>SUBSTRUCTURE
  1 ****   6 GROUP 4 **** **** 0

# MOE 2024.06 (io_trps.svl 2023.06)
