@<TRIPOS>MOLECULE
NONAME
51 53 1 0 0 
SMALL
USER_CHARGES


@<TRIPOS>ATOM
  1 O        0.0040     0.1540    -1.2580 O.2   1 <1>  -0.5700 
  2 C        0.3410     1.1740    -0.6890 C.2   1 <1>   0.5440 
  3 N       -0.6010     2.0900    -0.2840 N.am  1 <1>  -0.5470 
  4 C        1.7360     1.4520    -0.4060 C.ar  1 <1>   0.0860 
  5 C       -1.9950     2.1220    -0.4570 C.ar  1 <1>   0.1170 
  6 C        2.5430     0.5980     0.3590 C.ar  1 <1>  -0.1440 
  7 C        2.3090     2.6270    -0.8950 C.ar  1 <1>  -0.1500 
  8 C       -2.8000     2.7480     0.4970 C.ar  1 <1>  -0.1430 
  9 C       -2.6000     1.5600    -1.5780 C.ar  1 <1>  -0.1500 
 10 C        3.8640     0.9290     0.6160 C.ar  1 <1>  -0.1500 
 11 C        1.9880    -0.7050     0.9230 C.3   1 <1>  -0.0970 
 12 C        3.6260     2.9530    -0.6350 C.ar  1 <1>  -0.1500 
 13 C       -4.1740     2.7860     0.3200 C.ar  1 <1>  -0.1500 
 14 C       -2.2000     3.3900     1.7420 C.3   1 <1>  -0.0970 
 15 C       -3.9710     1.6000    -1.7510 C.ar  1 <1>  -0.1500 
 16 C        4.4060     2.1020     0.1240 C.ar  1 <1>  -0.1500 
 17 C       -4.7690     2.2100    -0.7900 C.ar  1 <1>   0.0830 
 18 O       -6.1230     2.2740    -0.8630 O.3   1 <1>  -0.3620 
 19 C       -6.8340     1.4710    -1.7960 C.3   1 <1>   0.1810 
 20 C       -8.3310     1.4420    -1.4900 C.2   1 <1>   0.5690 
 21 O       -9.0800     1.7810    -2.3780 O.2   1 <1>  -0.5700 
 22 N       -8.8110     1.0120    -0.2750 N.am  1 <1>  -0.6600 
 23 C       -7.9690     0.5590     0.8750 C.3   1 <1>   0.1400 
 24 C      -10.2720     1.0220     0.0380 C.3   1 <1>   0.1400 
 25 C       -8.5320    -0.7340     1.4900 C.3   1 <1>   0.1200 
 26 C      -10.6980    -0.3000     0.6960 C.3   1 <1>   0.1200 
 27 O       -9.8880    -0.5880     1.8020 O.3   1 <1>  -0.5600 
 28 H       -0.2360     2.8230     0.3190 H     1 <1>   0.3700 
 29 H        1.7120     3.2910    -1.4950 H     1 <1>   0.1500 
 30 H       -1.9920     1.0880    -2.3280 H     1 <1>   0.1500 
 31 H        4.4840     0.2730     1.2010 H     1 <1>   0.1500 
 32 H        1.0800    -0.5200     1.4680 H     1 <1>   0.0800 
 33 H        2.6910    -1.1740     1.5860 H     1 <1>   0.0800 
 34 H        1.7720    -1.3860     0.1190 H     1 <1>   0.0800 
 35 H        4.0470     3.8640    -1.0240 H     1 <1>   0.1500 
 36 H       -4.8080     3.2630     1.0460 H     1 <1>   0.1500 
 37 H       -1.5790     4.2220     1.4660 H     1 <1>   0.0800 
 38 H       -1.6100     2.6690     2.2810 H     1 <1>   0.0800 
 39 H       -2.9720     3.7480     2.4000 H     1 <1>   0.0800 
 40 H       -4.3890     1.1580    -2.6350 H     1 <1>   0.1500 
 41 H        5.4340     2.3490     0.3280 H     1 <1>   0.1500 
 42 H       -6.4500     0.4700    -1.7530 H     1 <1>   0.0800 
 43 H       -6.6750     1.8810    -2.7770 H     1 <1>   0.0800 
 44 H       -7.9560     1.3300     1.6250 H     1 <1>   0.0800 
 45 H       -6.9560     0.3790     0.5680 H     1 <1>   0.0800 
 46 H      -10.8500     1.1740    -0.8560 H     1 <1>   0.0800 
 47 H      -10.4820     1.8360     0.7100 H     1 <1>   0.0800 
 48 H       -8.0100    -0.9690     2.4000 H     1 <1>   0.0800 
 49 H       -8.4230    -1.5570     0.8060 H     1 <1>   0.0800 
 50 H      -10.6250    -1.1120    -0.0070 H     1 <1>   0.0800 
 51 H      -11.7140    -0.2320     1.0410 H     1 <1>   0.0800 
@<TRIPOS>BOND
  1   1   2  2   
  2   2   3  am  
  3   2   4  1   
  4   3   5  1   
  5   3  28  1   
  6   4   6  ar  
  7   4   7  ar  
  8   5   8  ar  
  9   5   9  ar  
 10   6  10  ar  
 11   6  11  1   
 12   7  12  ar  
 13   7  29  1   
 14   8  13  ar  
 15   8  14  1   
 16   9  15  ar  
 17   9  30  1   
 18  10  16  ar  
 19  10  31  1   
 20  11  32  1   
 21  11  33  1   
 22  11  34  1   
 23  12  16  ar  
 24  12  35  1   
 25  13  17  ar  
 26  13  36  1   
 27  14  37  1   
 28  14  38  1   
 29  14  39  1   
 30  15  17  ar  
 31  15  40  1   
 32  16  41  1   
 33  17  18  1   
 34  18  19  1   
 35  19  20  1   
 36  19  42  1   
 37  19  43  1   
 38  20  21  2   
 39  20  22  am  
 40  22  23  1   
 41  22  24  1   
 42  23  25  1   
 43  23  44  1   
 44  23  45  1   
 45  24  26  1   
 46  24  46  1   
 47  24  47  1   
 48  25  27  1   
 49  25  48  1   
 50  25  49  1   
 51  26  27  1   
 52  26  50  1   
 53  26  51  1   
@<TRIPOS>SUBSTRUCTURE
  1 ****   5 GROUP 4 **** **** 0

# MOE 2024.06 (io_trps.svl 2023.06)
