@<TRIPOS>MOLECULE
NONAME
41 42 1 0 0 
SMALL
USER_CHARGES


@<TRIPOS>ATOM
  1 CL       0.0880     0.5900    -0.2850 Cl    1 <1>  -0.1770 
  2 C        1.8130     0.3170    -0.3180 C.ar  1 <1>   0.1770 
  3 C        2.6660     1.3870    -0.5150 C.ar  1 <1>  -0.1500 
  4 C        2.3030    -0.9630    -0.1490 C.ar  1 <1>  -0.1500 
  5 C        4.0320     1.1660    -0.5400 C.ar  1 <1>  -0.1500 
  6 C        3.6700    -1.1750    -0.1780 C.ar  1 <1>  -0.1500 
  7 C        4.5550    -0.1140    -0.3700 C.ar  1 <1>   0.1170 
  8 N        5.9490    -0.2790    -0.4160 N.am  1 <1>  -0.5470 
  9 C        6.7410    -1.2630     0.1060 C.2   1 <1>   0.5690 
 10 O        6.3280    -2.1900     0.7550 O.2   1 <1>  -0.5700 
 11 C        8.2330    -1.1780    -0.1330 C.3   1 <1>  -0.0990 
 12 C        8.8870    -2.5080     0.2560 C.3   1 <1>   0.3430 
 13 N       10.3640    -2.4860     0.0360 N.4   1 <1>  -0.9590 
 14 C       10.9020    -3.8740     0.0500 C.3   1 <1>   0.3430 
 15 C       11.0750    -1.6650     1.0520 C.3   1 <1>   0.3430 
 16 C       12.1970    -3.9720    -0.7610 C.3   1 <1>  -0.1600 
 17 C       12.1660    -0.8270     0.3860 C.3   1 <1>  -0.1600 
 18 C       13.3310    -3.0110    -0.3550 C.3   1 <1>  -0.1600 
 19 C       13.0200    -1.5410    -0.6780 C.3   1 <1>  -0.1600 
 20 H        2.2590     2.3740    -0.6440 H     1 <1>   0.1500 
 21 H        1.6210    -1.7810     0.0020 H     1 <1>   0.1500 
 22 H        4.6920     2.0010    -0.6900 H     1 <1>   0.1500 
 23 H        4.0400    -2.1760    -0.0520 H     1 <1>   0.1500 
 24 H        6.4330     0.4900    -0.8760 H     1 <1>   0.3700 
 25 H        8.6200    -0.3750     0.4650 H     1 <1>   0.0800 
 26 H        8.4080    -0.9760    -1.1730 H     1 <1>   0.0800 
 27 H        8.4420    -3.2890    -0.3410 H     1 <1>   0.0800 
 28 H        8.6700    -2.7280     1.2900 H     1 <1>   0.0800 
 29 H       10.5730    -2.0920    -0.8900 H     1 <1>   0.4500 
 30 H       10.1810    -4.5500    -0.3810 H     1 <1>   0.0800 
 31 H       11.0820    -4.1880     1.0660 H     1 <1>   0.0800 
 32 H       11.5210    -2.3090     1.7920 H     1 <1>   0.0800 
 33 H       10.3880    -1.0080     1.5600 H     1 <1>   0.0800 
 34 H       11.9700    -3.8410    -1.8050 H     1 <1>   0.0800 
 35 H       12.5640    -4.9780    -0.6560 H     1 <1>   0.0800 
 36 H       12.8190    -0.4790     1.1680 H     1 <1>   0.0800 
 37 H       11.7230     0.0510    -0.0520 H     1 <1>   0.0800 
 38 H       14.2070    -3.2910    -0.9170 H     1 <1>   0.0800 
 39 H       13.5810    -3.1290     0.6860 H     1 <1>   0.0800 
 40 H       13.9520    -1.0060    -0.7640 H     1 <1>   0.0800 
 41 H       12.5450    -1.4770    -1.6420 H     1 <1>   0.0800 
@<TRIPOS>BOND
  1   1   2  1   
  2   2   3  ar  
  3   2   4  ar  
  4   3   5  ar  
  5   3  20  1   
  6   4   6  ar  
  7   4  21  1   
  8   5   7  ar  
  9   5  22  1   
 10   6   7  ar  
 11   6  23  1   
 12   7   8  1   
 13   8   9  am  
 14   8  24  1   
 15   9  10  2   
 16   9  11  1   
 17  11  12  1   
 18  11  25  1   
 19  11  26  1   
 20  12  13  1   
 21  12  27  1   
 22  12  28  1   
 23  13  14  1   
 24  13  15  1   
 25  13  29  1   
 26  14  16  1   
 27  14  30  1   
 28  14  31  1   
 29  15  17  1   
 30  15  32  1   
 31  15  33  1   
 32  16  18  1   
 33  16  34  1   
 34  16  35  1   
 35  17  19  1   
 36  17  36  1   
 37  17  37  1   
 38  18  19  1   
 39  18  38  1   
 40  18  39  1   
 41  19  40  1   
 42  19  41  1   
@<TRIPOS>SUBSTRUCTURE
  1 ****   9 GROUP 4 **** **** 0

# MOE 2024.06 (io_trps.svl 2023.06)
