@<TRIPOS>MOLECULE
NONAME
49 50 1 0 0 
SMALL
USER_CHARGES


@<TRIPOS>ATOM
  1 CL       1.3580    -1.5670     4.4500 Cl    1 <1>  -0.1770 
  2 C        2.4960    -1.9720     3.1870 C.ar  1 <1>   0.1770 
  3 C        2.0320    -2.2010     1.9050 C.ar  1 <1>  -0.1500 
  4 C        3.8430    -2.0580     3.4880 C.ar  1 <1>  -0.1500 
  5 C        2.9360    -2.5210     0.9070 C.ar  1 <1>  -0.1500 
  6 C        4.7390    -2.3820     2.4840 C.ar  1 <1>  -0.1500 
  7 C        4.2960    -2.6160     1.1860 C.ar  1 <1>   0.1990 
  8 N        5.1860    -2.9440     0.1730 N.am  1 <1>  -0.6930 
  9 S        5.6340    -4.5980    -0.0800 S.o2  1 <1>   1.4470 
 10 C        6.1590    -1.9000    -0.2780 C.3   1 <1>   0.2570 
 11 O        6.0380    -5.1180     1.2050 O.2   1 <1>  -0.6500 
 12 O        6.5830    -4.5800    -1.1750 O.2   1 <1>  -0.6500 
 13 C        4.0730    -5.3350    -0.6280 C.ar  1 <1>  -0.0090 
 14 C        7.5010    -1.9140     0.4630 C.2   1 <1>   0.5690 
 15 C        3.7060    -5.3350    -1.9680 C.ar  1 <1>  -0.1500 
 16 C        3.1830    -5.8850     0.2870 C.ar  1 <1>  -0.1500 
 17 O        7.7120    -1.0660     1.2980 O.2   1 <1>  -0.5700 
 18 N        8.4220    -2.8670     0.1610 N.am  1 <1>  -0.7300 
 19 C        2.4970    -5.8680    -2.3820 C.ar  1 <1>  -0.1500 
 20 C        1.9720    -6.4190    -0.1190 C.ar  1 <1>  -0.1500 
 21 C        9.7370    -3.0320     0.8160 C.3   1 <1>   0.1400 
 22 C        1.6230    -6.4140    -1.4580 C.ar  1 <1>  -0.1430 
 23 C       10.8140    -3.3960    -0.2190 C.3   1 <1>  -0.0800 
 24 C        0.2970    -6.9980    -1.9100 C.3   1 <1>  -0.0970 
 25 C       12.1500    -3.6640     0.4860 C.3   1 <1>  -0.2400 
 26 C       11.0010    -2.2910    -1.2700 C.3   1 <1>  -0.2400 
 27 H        0.9790    -2.1280     1.6960 H     1 <1>   0.1500 
 28 H        4.1810    -1.8770     4.4920 H     1 <1>   0.1500 
 29 H        2.5900    -2.7030    -0.0950 H     1 <1>   0.1500 
 30 H        5.7900    -2.4580     2.7080 H     1 <1>   0.1500 
 31 H        5.7150    -0.9300    -0.1400 H     1 <1>   0.0800 
 32 H        6.3470    -2.0220    -1.3290 H     1 <1>   0.0800 
 33 H        4.3740    -4.9140    -2.7010 H     1 <1>   0.1500 
 34 H        3.4390    -5.8940     1.3340 H     1 <1>   0.1500 
 35 H        8.1640    -3.6160    -0.4970 H     1 <1>   0.3700 
 36 H        2.2390    -5.8560    -3.4270 H     1 <1>   0.1500 
 37 H        1.3040    -6.8370     0.6130 H     1 <1>   0.1500 
 38 H        9.6580    -3.8150     1.5510 H     1 <1>   0.0800 
 39 H       10.0080    -2.1210     1.3240 H     1 <1>   0.0800 
 40 H       10.5140    -4.3040    -0.7160 H     1 <1>   0.0800 
 41 H       -0.4470    -6.2220    -1.9560 H     1 <1>   0.0800 
 42 H       -0.0360    -7.7560    -1.2240 H     1 <1>   0.0800 
 43 H        0.3950    -7.4430    -2.8840 H     1 <1>   0.0800 
 44 H       12.4920    -2.7820     0.9990 H     1 <1>   0.0800 
 45 H       12.8980    -3.9560    -0.2300 H     1 <1>   0.0800 
 46 H       12.0420    -4.4590     1.2030 H     1 <1>   0.0800 
 47 H       11.2710    -1.3630    -0.7960 H     1 <1>   0.0800 
 48 H       10.0920    -2.1380    -1.8240 H     1 <1>   0.0800 
 49 H       11.7750    -2.5610    -1.9660 H     1 <1>   0.0800 
@<TRIPOS>BOND
  1   1   2  1   
  2   2   3  ar  
  3   2   4  ar  
  4   3   5  ar  
  5   3  27  1   
  6   4   6  ar  
  7   4  28  1   
  8   5   7  ar  
  9   5  29  1   
 10   6   7  ar  
 11   6  30  1   
 12   7   8  1   
 13   8   9  am  
 14   8  10  1   
 15   9  11  2   
 16   9  12  2   
 17   9  13  1   
 18  10  14  1   
 19  10  31  1   
 20  10  32  1   
 21  13  15  ar  
 22  13  16  ar  
 23  14  17  2   
 24  14  18  am  
 25  15  19  ar  
 26  15  33  1   
 27  16  20  ar  
 28  16  34  1   
 29  18  21  1   
 30  18  35  1   
 31  19  22  ar  
 32  19  36  1   
 33  20  22  ar  
 34  20  37  1   
 35  21  23  1   
 36  21  38  1   
 37  21  39  1   
 38  22  24  1   
 39  23  25  1   
 40  23  26  1   
 41  23  40  1   
 42  24  41  1   
 43  24  42  1   
 44  24  43  1   
 45  25  44  1   
 46  25  45  1   
 47  25  46  1   
 48  26  47  1   
 49  26  48  1   
 50  26  49  1   
@<TRIPOS>SUBSTRUCTURE
  1 ****   8 GROUP 4 **** **** 0

# MOE 2024.06 (io_trps.svl 2023.06)
