@<TRIPOS>MOLECULE
NONAME
41 42 1 0 0 
SMALL
USER_CHARGES


@<TRIPOS>ATOM
  1 O        0.5450    -0.7460     0.3750 O.3   1 <1>  -0.3630 
  2 C        0.4100    -2.0510     0.0230 C.ar  1 <1>   0.0830 
  3 C        1.7200    -0.2230     0.9580 C.3   1 <1>   0.1200 
  4 C        1.3600    -3.0360     0.2820 C.ar  1 <1>  -0.1500 
  5 C       -0.7610    -2.3950    -0.6320 C.ar  1 <1>  -0.1500 
  6 C        2.7720     0.0110    -0.1330 C.3   1 <1>  -0.1600 
  7 C        1.1390    -4.3460    -0.1130 C.ar  1 <1>  -0.1440 
  8 C       -0.9860    -3.7000    -1.0290 C.ar  1 <1>  -0.1500 
  9 C        4.0510     0.6210     0.4560 C.3   1 <1>  -0.1600 
 10 C       -0.0360    -4.6740    -0.7700 C.ar  1 <1>  -0.1500 
 11 C        2.1760    -5.4190     0.1680 C.3   1 <1>  -0.0970 
 12 C        5.1070     0.8710    -0.6260 C.3   1 <1>   0.0210 
 13 C        6.3510     1.4900    -0.0130 C.2   1 <1>  -0.1810 
 14 C        6.6040     2.8500     0.1620 C.2   1 <1>   0.1080 
 15 C        7.4470     0.8710     0.4790 C.2   1 <1>  -0.3320 
 16 N        7.7550     3.0690     0.7130 N.2   1 <1>  -0.7070 
 17 C        5.6810     3.9810    -0.2320 C.3   1 <1>  -0.0590 
 18 N        8.2760     1.8460     0.9080 N.pl3 1 <1>   0.3000 
 19 C        7.7830    -0.6070     0.5840 C.3   1 <1>  -0.0600 
 20 H        2.0630    -0.8890     1.7290 H     1 <1>   0.0800 
 21 H        1.4520     0.7140     1.4140 H     1 <1>   0.0800 
 22 H        2.2750    -2.8000     0.7870 H     1 <1>   0.1500 
 23 H       -1.4940    -1.6330    -0.8280 H     1 <1>   0.1500 
 24 H        2.3620     0.6800    -0.8690 H     1 <1>   0.0800 
 25 H        3.0100    -0.9210    -0.6140 H     1 <1>   0.0800 
 26 H       -1.8980    -3.9590    -1.5380 H     1 <1>   0.1500 
 27 H        4.4640    -0.0430     1.1960 H     1 <1>   0.0800 
 28 H        3.8180     1.5530     0.9420 H     1 <1>   0.0800 
 29 H       -0.2180    -5.6870    -1.0830 H     1 <1>   0.1500 
 30 H        2.7360    -5.1790     1.0540 H     1 <1>   0.0800 
 31 H        2.8540    -5.4960    -0.6630 H     1 <1>   0.0800 
 32 H        1.7000    -6.3710     0.3180 H     1 <1>   0.0800 
 33 H        4.7150     1.5280    -1.3820 H     1 <1>   0.0800 
 34 H        5.3670    -0.0560    -1.1040 H     1 <1>   0.0800 
 35 H        4.6840     3.7810     0.1100 H     1 <1>   0.0800 
 36 H        5.6800     4.0900    -1.3000 H     1 <1>   0.0800 
 37 H        6.0220     4.8990     0.2120 H     1 <1>   0.0800 
 38 H        9.1990     1.7110     1.3360 H     1 <1>   0.2700 
 39 H        6.9670    -1.2070     0.2240 H     1 <1>   0.0800 
 40 H        7.9710    -0.8720     1.6090 H     1 <1>   0.0800 
 41 H        8.6560    -0.8300    -0.0020 H     1 <1>   0.0800 
@<TRIPOS>BOND
  1   1   2  1   
  2   1   3  1   
  3   2   4  ar  
  4   2   5  ar  
  5   3   6  1   
  6   3  20  1   
  7   3  21  1   
  8   4   7  ar  
  9   4  22  1   
 10   5   8  ar  
 11   5  23  1   
 12   6   9  1   
 13   6  24  1   
 14   6  25  1   
 15   7  10  ar  
 16   7  11  1   
 17   8  10  ar  
 18   8  26  1   
 19   9  12  1   
 20   9  27  1   
 21   9  28  1   
 22  10  29  1   
 23  11  30  1   
 24  11  31  1   
 25  11  32  1   
 26  12  13  1   
 27  12  33  1   
 28  12  34  1   
 29  13  14  1   
 30  13  15  2   
 31  14  16  2   
 32  14  17  1   
 33  15  18  1   
 34  15  19  1   
 35  16  18  1   
 36  17  35  1   
 37  17  36  1   
 38  17  37  1   
 39  18  38  1   
 40  19  39  1   
 41  19  40  1   
 42  19  41  1   
@<TRIPOS>SUBSTRUCTURE
  1 ****   6 GROUP 4 **** **** 0

# MOE 2024.06 (io_trps.svl 2023.06)
