@<TRIPOS>MOLECULE
NONAME
48 50 1 0 0 
SMALL
USER_CHARGES


@<TRIPOS>ATOM
  1 O       -0.6070     0.6860    -1.0300 O.2   1 <1>  -0.5700 
  2 C       -0.2770     1.8240    -0.8020 C.2   1 <1>   0.5690 
  3 N       -1.0370     2.8000    -0.2200 N.am  1 <1>  -0.4770 
  4 C        1.0950     2.3330    -1.1530 C.3   1 <1>  -0.0990 
  5 C       -2.3820     2.7240     0.1990 C.ar  1 <1>   0.1170 
  6 C       -0.2680     4.0560    -0.0960 C.3   1 <1>   0.1400 
  7 C        0.9720     3.8500    -0.9730 C.3   1 <1>  -0.1600 
  8 C       -3.3100     1.9570    -0.4990 C.ar  1 <1>  -0.1500 
  9 C       -2.8270     3.4210     1.3190 C.ar  1 <1>  -0.1500 
 10 C       -4.6300     1.8830    -0.0930 C.ar  1 <1>  -0.1500 
 11 C       -4.1470     3.3520     1.7280 C.ar  1 <1>  -0.1500 
 12 C       -5.0590     2.5780     1.0270 C.ar  1 <1>  -0.1430 
 13 C       -6.5060     2.4870     1.4780 C.3   1 <1>   0.2840 
 14 N       -7.2810     3.5090     0.7620 N.am  1 <1>  -0.7300 
 15 C       -8.6250     3.5830     0.8020 C.2   1 <1>   0.6900 
 16 O       -9.2650     2.8290     1.5070 O.2   1 <1>  -0.5700 
 17 N       -9.2270     4.5170     0.0360 N.am  1 <1>  -0.7300 
 18 C      -10.6770     4.7510    -0.0320 C.3   1 <1>   0.2200 
 19 C      -11.1260     4.6620    -1.4940 C.3   1 <1>  -0.1600 
 20 C      -10.9860     6.1300     0.5620 C.3   1 <1>  -0.1600 
 21 C      -12.6160     5.0040    -1.6390 C.3   1 <1>  -0.1600 
 22 C      -12.4760     6.4740     0.4210 C.3   1 <1>  -0.1600 
 23 C      -12.9300     6.3830    -1.0430 C.3   1 <1>  -0.1600 
 24 H        1.3540     2.0650    -2.1610 H     1 <1>   0.0800 
 25 H        1.8060     1.9140    -0.4650 H     1 <1>   0.0800 
 26 H        0.0180     4.1960     0.9320 H     1 <1>   0.0800 
 27 H       -0.8540     4.8940    -0.4320 H     1 <1>   0.0800 
 28 H        0.8030     4.3150    -1.9290 H     1 <1>   0.0800 
 29 H        1.8520     4.2810    -0.5280 H     1 <1>   0.0800 
 30 H       -2.9950     1.4080    -1.3680 H     1 <1>   0.1500 
 31 H       -2.1380     4.0160     1.8870 H     1 <1>   0.1500 
 32 H       -5.3220     1.2770    -0.6520 H     1 <1>   0.1500 
 33 H       -4.4650     3.9000     2.5980 H     1 <1>   0.1500 
 34 H       -6.5860     2.6560     2.5380 H     1 <1>   0.0800 
 35 H       -6.9080     1.5120     1.2590 H     1 <1>   0.0800 
 36 H       -6.7580     4.0380     0.0700 H     1 <1>   0.3700 
 37 H       -8.6510     5.1810    -0.4710 H     1 <1>   0.3700 
 38 H      -11.1960     3.9980     0.5400 H     1 <1>   0.0800 
 39 H      -10.9530     3.6640    -1.8570 H     1 <1>   0.0800 
 40 H      -10.5510     5.3480    -2.0910 H     1 <1>   0.0800 
 41 H      -10.4040     6.8800     0.0560 H     1 <1>   0.0800 
 42 H      -10.7180     6.1330     1.6040 H     1 <1>   0.0800 
 43 H      -13.2030     4.2560    -1.1340 H     1 <1>   0.0800 
 44 H      -12.8910     4.9890    -2.6800 H     1 <1>   0.0800 
 45 H      -12.6540     7.4680     0.7930 H     1 <1>   0.0800 
 46 H      -13.0560     5.7900     1.0170 H     1 <1>   0.0800 
 47 H      -13.9890     6.5680    -1.1030 H     1 <1>   0.0800 
 48 H      -12.4310     7.1430    -1.6190 H     1 <1>   0.0800 
@<TRIPOS>BOND
  1   1   2  2   
  2   2   3  am  
  3   2   4  1   
  4   3   5  1   
  5   3   6  1   
  6   4   7  1   
  7   4  24  1   
  8   4  25  1   
  9   5   8  ar  
 10   5   9  ar  
 11   6   7  1   
 12   6  26  1   
 13   6  27  1   
 14   7  28  1   
 15   7  29  1   
 16   8  10  ar  
 17   8  30  1   
 18   9  11  ar  
 19   9  31  1   
 20  10  12  ar  
 21  10  32  1   
 22  11  12  ar  
 23  11  33  1   
 24  12  13  1   
 25  13  14  1   
 26  13  34  1   
 27  13  35  1   
 28  14  15  am  
 29  14  36  1   
 30  15  16  2   
 31  15  17  am  
 32  17  18  1   
 33  17  37  1   
 34  18  19  1   
 35  18  20  1   
 36  18  38  1   
 37  19  21  1   
 38  19  39  1   
 39  19  40  1   
 40  20  22  1   
 41  20  41  1   
 42  20  42  1   
 43  21  23  1   
 44  21  43  1   
 45  21  44  1   
 46  22  23  1   
 47  22  45  1   
 48  22  46  1   
 49  23  47  1   
 50  23  48  1   
@<TRIPOS>SUBSTRUCTURE
  1 ****  12 GROUP 4 **** **** 0

# MOE 2024.06 (io_trps.svl 2023.06)
