@<TRIPOS>MOLECULE
NONAME
38 38 1 0 0 
SMALL
USER_CHARGES


@<TRIPOS>ATOM
  1 CL       0.2220    -1.2100    -0.0050 Cl    1 <1>  -0.1770 
  2 C        1.9670    -1.3930     0.0330 C.ar  1 <1>   0.1770 
  3 C        2.7510    -0.3220     0.4430 C.ar  1 <1>  -0.1440 
  4 C        2.5280    -2.6050    -0.3470 C.ar  1 <1>  -0.1440 
  5 C        4.1290    -0.4740     0.4710 C.ar  1 <1>  -0.1500 
  6 C        2.1190     1.0000     0.8560 C.3   1 <1>  -0.0960 
  7 C        3.9070    -2.7360    -0.3120 C.ar  1 <1>  -0.1500 
  8 C        1.6600    -3.7730    -0.7940 C.3   1 <1>  -0.0960 
  9 C        4.7110    -1.6830     0.0930 C.ar  1 <1>   0.0830 
 10 O        6.0480    -1.9080     0.0930 O.3   1 <1>  -0.3630 
 11 C        6.9660    -0.8950     0.4920 C.3   1 <1>   0.1810 
 12 C        8.4100    -1.3770     0.4110 C.2   1 <1>   0.5690 
 13 O        9.2820    -0.6030     0.7250 O.2   1 <1>  -0.5700 
 14 N        8.6570    -2.6500    -0.0080 N.am  1 <1>  -0.7300 
 15 C        9.9310    -3.3510    -0.1730 C.3   1 <1>   0.3000 
 16 C       10.7850    -2.6270    -1.2130 C.3   1 <1>  -0.2400 
 17 C        9.5940    -4.7550    -0.6700 C.3   1 <1>  -0.2400 
 18 C       10.6470    -3.4390     1.1750 C.3   1 <1>  -0.2400 
 19 H        4.7320     0.3550     0.7870 H     1 <1>   0.1500 
 20 H        1.5530     1.4070     0.0370 H     1 <1>   0.0800 
 21 H        2.8660     1.7170     1.1430 H     1 <1>   0.0800 
 22 H        1.4580     0.8450     1.6900 H     1 <1>   0.0800 
 23 H        4.3740    -3.6610    -0.6000 H     1 <1>   0.1500 
 24 H        0.9880    -4.0540    -0.0040 H     1 <1>   0.0800 
 25 H        2.2610    -4.6260    -1.0510 H     1 <1>   0.0800 
 26 H        1.0830    -3.4910    -1.6570 H     1 <1>   0.0800 
 27 H        6.7460    -0.6160     1.5050 H     1 <1>   0.0800 
 28 H        6.8430    -0.0490    -0.1590 H     1 <1>   0.0800 
 29 H        7.8380    -3.2120    -0.2460 H     1 <1>   0.3700 
 30 H       10.2510    -2.5340    -2.1410 H     1 <1>   0.0800 
 31 H       11.6930    -3.1740    -1.3930 H     1 <1>   0.0800 
 32 H       11.0540    -1.6460    -0.8650 H     1 <1>   0.0800 
 33 H        9.0770    -4.7090    -1.6120 H     1 <1>   0.0800 
 34 H        8.9810    -5.2730     0.0460 H     1 <1>   0.0800 
 35 H       10.4960    -5.3220    -0.8110 H     1 <1>   0.0800 
 36 H       10.9150    -2.4590     1.5250 H     1 <1>   0.0800 
 37 H       11.5490    -4.0150     1.0780 H     1 <1>   0.0800 
 38 H       10.0170    -3.9110     1.9060 H     1 <1>   0.0800 
@<TRIPOS>BOND
  1   1   2  1   
  2   2   3  ar  
  3   2   4  ar  
  4   3   5  ar  
  5   3   6  1   
  6   4   7  ar  
  7   4   8  1   
  8   5   9  ar  
  9   5  19  1   
 10   6  20  1   
 11   6  21  1   
 12   6  22  1   
 13   7   9  ar  
 14   7  23  1   
 15   8  24  1   
 16   8  25  1   
 17   8  26  1   
 18   9  10  1   
 19  10  11  1   
 20  11  12  1   
 21  11  27  1   
 22  11  28  1   
 23  12  13  2   
 24  12  14  am  
 25  14  15  1   
 26  14  29  1   
 27  15  16  1   
 28  15  17  1   
 29  15  18  1   
 30  16  30  1   
 31  16  31  1   
 32  16  32  1   
 33  17  33  1   
 34  17  34  1   
 35  17  35  1   
 36  18  36  1   
 37  18  37  1   
 38  18  38  1   
@<TRIPOS>SUBSTRUCTURE
  1 ****  10 GROUP 4 **** **** 0

# MOE 2024.06 (io_trps.svl 2023.06)
