@<TRIPOS>MOLECULE
NONAME
37 37 1 0 0 
SMALL
USER_CHARGES


@<TRIPOS>ATOM
  1 CL      -0.4280    -0.0430     2.0150 Cl    1 <1>  -0.1770 
  2 C       -1.3530     0.8180     0.8040 C.ar  1 <1>   0.1770 
  3 C       -0.8200     1.9460     0.1930 C.ar  1 <1>   0.0830 
  4 C       -2.6100     0.3470     0.4660 C.ar  1 <1>  -0.1500 
  5 O        0.4010     2.4160     0.5460 O.3   1 <1>  -0.3630 
  6 C       -1.5810     2.5940    -0.7720 C.ar  1 <1>   0.1770 
  7 C       -3.3560     1.0080    -0.4990 C.ar  1 <1>  -0.1500 
  8 C        1.4950     1.9160    -0.1770 C.3   1 <1>   0.1200 
  9 CL      -0.9480     4.0120    -1.5820 Cl    1 <1>  -0.1770 
 10 C       -2.8390     2.1350    -1.1210 C.ar  1 <1>  -0.1500 
 11 C        2.7460     2.5830     0.3920 C.3   1 <1>  -0.1600 
 12 C        3.9970     2.1030    -0.3320 C.3   1 <1>   0.3430 
 13 N        5.1760     2.7800     0.2580 N.4   1 <1>  -0.9060 
 14 C        6.4500     2.3780    -0.3820 C.3   1 <1>   0.3430 
 15 C        7.5980     3.1250     0.2910 C.3   1 <1>  -0.1600 
 16 C        8.9420     2.7400    -0.3400 C.3   1 <1>  -0.1600 
 17 C       10.0960     3.4890     0.3330 C.3   1 <1>  -0.2400 
 18 H       -2.9990    -0.5290     0.9550 H     1 <1>   0.1500 
 19 H       -4.3360     0.6460    -0.7650 H     1 <1>   0.1500 
 20 H        1.3530     2.1610    -1.2160 H     1 <1>   0.0800 
 21 H        1.5230     0.8460    -0.0490 H     1 <1>   0.0800 
 22 H       -3.4070     2.6570    -1.8710 H     1 <1>   0.1500 
 23 H        2.8130     2.3390     1.4380 H     1 <1>   0.0800 
 24 H        2.6430     3.6480     0.2760 H     1 <1>   0.0800 
 25 H        3.9220     2.3380    -1.3820 H     1 <1>   0.0800 
 26 H        4.0920     1.0330    -0.2240 H     1 <1>   0.0800 
 27 H        5.2220     2.5730     1.2640 H     1 <1>   0.4500 
 28 H        5.0620     3.7990     0.1760 H     1 <1>   0.4500 
 29 H        6.4300     2.6180    -1.4340 H     1 <1>   0.0800 
 30 H        6.6000     1.3150    -0.2760 H     1 <1>   0.0800 
 31 H        7.6260     2.8830     1.3390 H     1 <1>   0.0800 
 32 H        7.4560     4.1870     0.1810 H     1 <1>   0.0800 
 33 H        8.9410     2.9780    -1.3910 H     1 <1>   0.0800 
 34 H        9.1100     1.6810    -0.2380 H     1 <1>   0.0800 
 35 H        9.9770     4.5530     0.2240 H     1 <1>   0.0800 
 36 H       11.0310     3.2080    -0.1210 H     1 <1>   0.0800 
 37 H       10.1470     3.2510     1.3810 H     1 <1>   0.0800 
@<TRIPOS>BOND
  1   1   2  1   
  2   2   3  ar  
  3   2   4  ar  
  4   3   5  1   
  5   3   6  ar  
  6   4   7  ar  
  7   4  18  1   
  8   5   8  1   
  9   6   9  1   
 10   6  10  ar  
 11   7  10  ar  
 12   7  19  1   
 13   8  11  1   
 14   8  20  1   
 15   8  21  1   
 16  10  22  1   
 17  11  12  1   
 18  11  23  1   
 19  11  24  1   
 20  12  13  1   
 21  12  25  1   
 22  12  26  1   
 23  13  14  1   
 24  13  27  1   
 25  13  28  1   
 26  14  15  1   
 27  14  29  1   
 28  14  30  1   
 29  15  16  1   
 30  15  31  1   
 31  15  32  1   
 32  16  17  1   
 33  16  33  1   
 34  16  34  1   
 35  17  35  1   
 36  17  36  1   
 37  17  37  1   
@<TRIPOS>SUBSTRUCTURE
  1 ****   8 GROUP 4 **** **** 0

# MOE 2024.06 (io_trps.svl 2023.06)
