@<TRIPOS>MOLECULE
NONAME
51 53 1 0 0 
SMALL
USER_CHARGES


@<TRIPOS>ATOM
  1 O       -0.8500     0.5000     1.3800 O.2   1 <1>  -0.5700 
  2 C       -1.3270     1.0380     0.4080 C.2   1 <1>   0.5690 
  3 N       -0.7300     2.1060    -0.2070 N.am  1 <1>  -0.5470 
  4 C       -2.6720     0.5020    -0.1520 C.3   1 <1>   0.0610 
  5 C        0.4840     2.7620     0.0550 C.ar  1 <1>   0.1170 
  6 C       -2.5030    -0.9660    -0.5880 C.3   1 <1>  -0.2400 
  7 C       -3.1860     1.2990    -1.3720 C.3   1 <1>  -0.2400 
  8 C       -3.7560     0.5660     0.9400 C.3   1 <1>  -0.2400 
  9 C        0.6230     4.0920    -0.3220 C.ar  1 <1>  -0.1500 
 10 C        1.5680     2.1330     0.6580 C.ar  1 <1>  -0.1500 
 11 C        1.8070     4.7740    -0.1040 C.ar  1 <1>  -0.1500 
 12 C        2.7510     2.8140     0.8770 C.ar  1 <1>  -0.1500 
 13 C        2.8900     4.1440     0.4960 C.ar  1 <1>   0.1000 
 14 N        4.0700     4.8670     0.7180 N.pl3 1 <1>  -0.6000 
 15 C        5.3910     4.4220     0.7340 C.ar  1 <1>   0.4100 
 16 N        5.7060     3.2850     0.1090 N.ar  1 <1>  -0.3100 
 17 C        6.3460     5.1880     1.3800 C.ar  1 <1>  -0.1500 
 18 N        6.9480     2.8520     0.1010 N.ar  1 <1>  -0.3100 
 19 C        7.6420     4.7390     1.3680 C.ar  1 <1>  -0.1500 
 20 C        7.9070     3.5520     0.7120 C.ar  1 <1>   0.4100 
 21 N        9.2120     3.0770     0.6730 N.pl3 1 <1>  -0.8380 
 22 C       10.0470     3.5650    -0.4650 C.3   1 <1>   0.2090 
 23 C        9.4230     1.6190     0.9480 C.3   1 <1>   0.2090 
 24 C        9.9840     2.6090    -1.6710 C.3   1 <1>   0.1200 
 25 C        9.4290     0.7740    -0.3420 C.3   1 <1>   0.1200 
 26 O       10.3160     1.3050    -1.2880 O.3   1 <1>  -0.5600 
 27 H       -1.2700     2.5040    -0.9710 H     1 <1>   0.3700 
 28 H       -1.7510    -1.0440    -1.3540 H     1 <1>   0.0800 
 29 H       -3.4260    -1.3650    -0.9680 H     1 <1>   0.0800 
 30 H       -2.1910    -1.5680     0.2480 H     1 <1>   0.0800 
 31 H       -4.1170     0.8870    -1.7220 H     1 <1>   0.0800 
 32 H       -3.3590     2.3280    -1.1110 H     1 <1>   0.0800 
 33 H       -2.4800     1.2540    -2.1830 H     1 <1>   0.0800 
 34 H       -3.4600    -0.0210     1.7930 H     1 <1>   0.0800 
 35 H       -4.6940     0.1860     0.5760 H     1 <1>   0.0800 
 36 H       -3.8970     1.5810     1.2670 H     1 <1>   0.0800 
 37 H       -0.2000     4.6010    -0.7880 H     1 <1>   0.1500 
 38 H        1.4920     1.1040     0.9580 H     1 <1>   0.1500 
 39 H        1.8920     5.8010    -0.4060 H     1 <1>   0.1500 
 40 H        3.5730     2.3070     1.3480 H     1 <1>   0.1500 
 41 H        3.9550     5.8740     0.8060 H     1 <1>   0.4000 
 42 H        6.0760     6.0990     1.8780 H     1 <1>   0.1500 
 43 H        8.4400     5.2710     1.8490 H     1 <1>   0.1500 
 44 H       11.0690     3.6550    -0.1400 H     1 <1>   0.0800 
 45 H        9.7110     4.5410    -0.7710 H     1 <1>   0.0800 
 46 H        8.6480     1.2590     1.6030 H     1 <1>   0.0800 
 47 H       10.3630     1.4920     1.4530 H     1 <1>   0.0800 
 48 H       10.6840     2.9170    -2.4270 H     1 <1>   0.0800 
 49 H        8.9950     2.6050    -2.0960 H     1 <1>   0.0800 
 50 H        8.4440     0.7400    -0.7740 H     1 <1>   0.0800 
 51 H        9.7420    -0.2300    -0.1240 H     1 <1>   0.0800 
@<TRIPOS>BOND
  1   1   2  2   
  2   2   3  am  
  3   2   4  1   
  4   3   5  1   
  5   3  27  1   
  6   4   6  1   
  7   4   7  1   
  8   4   8  1   
  9   5   9  ar  
 10   5  10  ar  
 11   6  28  1   
 12   6  29  1   
 13   6  30  1   
 14   7  31  1   
 15   7  32  1   
 16   7  33  1   
 17   8  34  1   
 18   8  35  1   
 19   8  36  1   
 20   9  11  ar  
 21   9  37  1   
 22  10  12  ar  
 23  10  38  1   
 24  11  13  ar  
 25  11  39  1   
 26  12  13  ar  
 27  12  40  1   
 28  13  14  1   
 29  14  15  1   
 30  14  41  1   
 31  15  16  ar  
 32  15  17  ar  
 33  16  18  ar  
 34  17  19  ar  
 35  17  42  1   
 36  18  20  ar  
 37  19  20  ar  
 38  19  43  1   
 39  20  21  1   
 40  21  22  1   
 41  21  23  1   
 42  22  24  1   
 43  22  44  1   
 44  22  45  1   
 45  23  25  1   
 46  23  46  1   
 47  23  47  1   
 48  24  26  1   
 49  24  48  1   
 50  24  49  1   
 51  25  26  1   
 52  25  50  1   
 53  25  51  1   
@<TRIPOS>SUBSTRUCTURE
  1 ****  12 GROUP 4 **** **** 0

# MOE 2024.06 (io_trps.svl 2023.06)
