@<TRIPOS>MOLECULE
NONAME
36 37 1 0 0 
SMALL
USER_CHARGES


@<TRIPOS>ATOM
  1 CL      -0.1930     1.3140    -2.7600 Cl    1 <1>  -0.1770 
  2 C       -0.9390     2.1610    -1.4220 C.ar  1 <1>   0.1770 
  3 C       -0.1950     3.0160    -0.6180 C.ar  1 <1>   0.0820 
  4 C       -2.2860     1.9500    -1.1970 C.ar  1 <1>  -0.1500 
  5 O        1.1240     3.1830    -0.8870 O.3   1 <1>  -0.3630 
  6 C       -0.8430     3.6630     0.4310 C.ar  1 <1>  -0.1500 
  7 C       -2.9380     2.5930    -0.1520 C.ar  1 <1>  -0.0090 
  8 C        1.9420     4.0330    -0.0800 C.3   1 <1>   0.0140 
  9 C       -2.1920     3.4490     0.6520 C.ar  1 <1>  -0.1500 
 10 S       -4.7020     2.3360     0.1610 S.o2  1 <1>   1.4470 
 11 C        3.3980     4.0720    -0.5140 C.2   1 <1>   0.9060 
 12 O       -5.2950     1.5860    -0.9210 O.2   1 <1>  -0.6500 
 13 O       -4.8930     1.9300     1.5350 O.2   1 <1>  -0.6500 
 14 N       -5.3330     3.8790    -0.0110 N.am  1 <1>  -0.9140 
 15 O        3.7630     4.9580    -1.2970 O.co2 1 <1>  -0.9000 
 16 O        4.1940     3.2760     0.0000 O.co2 1 <1>  -0.9000 
 17 C       -6.4600     4.1850     0.8440 C.3   1 <1>   0.2760 
 18 C       -7.7230     3.4760     0.3570 C.3   1 <1>  -0.1600 
 19 C       -6.8070     5.6530     0.6300 C.3   1 <1>  -0.1600 
 20 C       -8.2260     4.2940    -0.8370 C.3   1 <1>  -0.1600 
 21 C       -7.6530     5.7050    -0.6490 C.3   1 <1>  -0.1600 
 22 H       -2.8240     1.2790    -1.8440 H     1 <1>   0.1500 
 23 H       -0.3130     4.3340     1.0810 H     1 <1>   0.1500 
 24 H        1.9090     3.6740     0.9300 H     1 <1>   0.0800 
 25 H        1.5520     5.0300    -0.1370 H     1 <1>   0.0800 
 26 H       -2.6810     3.9560     1.4680 H     1 <1>   0.1500 
 27 H       -5.7010     3.8910    -0.9590 H     1 <1>   0.4200 
 28 H       -6.2330     3.9790     1.8790 H     1 <1>   0.0800 
 29 H       -8.4570     3.5290     1.1420 H     1 <1>   0.0800 
 30 H       -7.5740     2.4380     0.1170 H     1 <1>   0.0800 
 31 H       -5.9310     6.2760     0.5750 H     1 <1>   0.0800 
 32 H       -7.4090     5.9840     1.4590 H     1 <1>   0.0800 
 33 H       -9.3020     4.3050    -0.8690 H     1 <1>   0.0800 
 34 H       -7.8570     3.8690    -1.7550 H     1 <1>   0.0800 
 35 H       -7.0320     5.9610    -1.4910 H     1 <1>   0.0800 
 36 H       -8.4360     6.4390    -0.5600 H     1 <1>   0.0800 
@<TRIPOS>BOND
  1   1   2  1   
  2   2   3  ar  
  3   2   4  ar  
  4   3   5  1   
  5   3   6  ar  
  6   4   7  ar  
  7   4  22  1   
  8   5   8  1   
  9   6   9  ar  
 10   6  23  1   
 11   7   9  ar  
 12   7  10  1   
 13   8  11  1   
 14   8  24  1   
 15   8  25  1   
 16   9  26  1   
 17  10  12  2   
 18  10  13  2   
 19  10  14  am  
 20  11  15  ar  
 21  11  16  ar  
 22  14  17  1   
 23  14  27  1   
 24  17  18  1   
 25  17  19  1   
 26  17  28  1   
 27  18  20  1   
 28  18  29  1   
 29  18  30  1   
 30  19  21  1   
 31  19  31  1   
 32  19  32  1   
 33  20  21  1   
 34  20  33  1   
 35  20  34  1   
 36  21  35  1   
 37  21  36  1   
@<TRIPOS>SUBSTRUCTURE
  1 ****   7 GROUP 4 **** **** 0

# MOE 2024.06 (io_trps.svl 2023.06)
