@<TRIPOS>MOLECULE
NONAME
47 49 1 0 0 
SMALL
USER_CHARGES


@<TRIPOS>ATOM
  1 S       -1.7770     2.7590    -2.1000 S.3   1 <1>  -0.0800 
  2 C       -1.8180     1.6630    -0.7250 C.2   1 <1>  -0.1400 
  3 C       -0.3340     3.5410    -1.4890 C.2   1 <1>  -0.1100 
  4 C       -0.7890     1.9100     0.1110 C.2   1 <1>  -0.1810 
  5 C       -2.9580     0.6700    -0.6990 C.3   1 <1>   0.5230 
  6 C        0.0520     2.9820    -0.3290 C.2   1 <1>  -0.1500 
  7 C       -0.4560     1.1900     1.4070 C.3   1 <1>  -0.0590 
  8 N       -4.2290     1.4330    -0.6400 N.4   1 <1>  -0.9590 
  9 C       -4.3340     2.2450     0.6280 C.3   1 <1>   0.3430 
 10 C       -5.4410     0.5600    -0.8280 C.3   1 <1>   0.3430 
 11 C       -5.6390     3.0620     0.6910 C.3   1 <1>   0.2090 
 12 C       -6.7540     1.3670    -0.7760 C.3   1 <1>   0.2090 
 13 N       -6.8320     2.1910     0.4670 N.pl3 1 <1>  -0.8380 
 14 C       -8.0610     2.8440     0.6450 C.ar  1 <1>   0.1000 
 15 C       -8.5290     3.8760    -0.1890 C.ar  1 <1>   0.0830 
 16 C       -8.8500     2.4370     1.7110 C.ar  1 <1>  -0.1500 
 17 O       -7.7400     4.2710    -1.2380 O.3   1 <1>  -0.3620 
 18 C       -9.7650     4.4620     0.0690 C.ar  1 <1>  -0.1500 
 19 C      -10.0760     3.0240     1.9610 C.ar  1 <1>  -0.1500 
 20 C       -8.1080     5.3480    -2.0680 C.3   1 <1>   0.1200 
 21 C      -10.5340     4.0370     1.1400 C.ar  1 <1>  -0.1500 
 22 C       -6.9960     5.5540    -3.0920 C.3   1 <1>  -0.2400 
 23 H        0.0820     4.3470    -2.0710 H     1 <1>   0.1500 
 24 H       -2.8690     0.0240     0.1580 H     1 <1>   0.0800 
 25 H       -2.9240     0.0680    -1.5930 H     1 <1>   0.0800 
 26 H        0.9140     3.2840     0.2430 H     1 <1>   0.1500 
 27 H       -1.1630     0.4090     1.6170 H     1 <1>   0.0800 
 28 H       -0.4600     1.8880     2.2260 H     1 <1>   0.0800 
 29 H        0.5240     0.7530     1.3380 H     1 <1>   0.0800 
 30 H       -4.1950     2.1100    -1.4150 H     1 <1>   0.4500 
 31 H       -3.4970     2.9200     0.7030 H     1 <1>   0.0800 
 32 H       -4.3090     1.5890     1.4820 H     1 <1>   0.0800 
 33 H       -5.4770    -0.1820    -0.0480 H     1 <1>   0.0800 
 34 H       -5.3850     0.0480    -1.7740 H     1 <1>   0.0800 
 35 H       -5.6070     3.8440    -0.0480 H     1 <1>   0.0800 
 36 H       -5.7220     3.5290     1.6580 H     1 <1>   0.0800 
 37 H       -7.5910     0.6910    -0.8010 H     1 <1>   0.0800 
 38 H       -6.8200     2.0010    -1.6430 H     1 <1>   0.0800 
 39 H       -8.4940     1.6500     2.3490 H     1 <1>   0.1500 
 40 H      -10.1570     5.2490    -0.5450 H     1 <1>   0.1500 
 41 H      -10.6730     2.6940     2.7940 H     1 <1>   0.1500 
 42 H       -8.2290     6.2260    -1.4570 H     1 <1>   0.0800 
 43 H       -9.0350     5.1020    -2.5580 H     1 <1>   0.0800 
 44 H      -11.4890     4.4950     1.3330 H     1 <1>   0.1500 
 45 H       -6.0720     5.7880    -2.5950 H     1 <1>   0.0800 
 46 H       -7.2500     6.3730    -3.7410 H     1 <1>   0.0800 
 47 H       -6.8740     4.6700    -3.6910 H     1 <1>   0.0800 
@<TRIPOS>BOND
  1   1   2  1   
  2   1   3  1   
  3   2   4  2   
  4   2   5  1   
  5   3   6  2   
  6   3  23  1   
  7   4   6  1   
  8   4   7  1   
  9   5   8  1   
 10   5  24  1   
 11   5  25  1   
 12   6  26  1   
 13   7  27  1   
 14   7  28  1   
 15   7  29  1   
 16   8   9  1   
 17   8  10  1   
 18   8  30  1   
 19   9  11  1   
 20   9  31  1   
 21   9  32  1   
 22  10  12  1   
 23  10  33  1   
 24  10  34  1   
 25  11  13  1   
 26  11  35  1   
 27  11  36  1   
 28  12  13  1   
 29  12  37  1   
 30  12  38  1   
 31  13  14  1   
 32  14  15  ar  
 33  14  16  ar  
 34  15  17  1   
 35  15  18  ar  
 36  16  19  ar  
 37  16  39  1   
 38  17  20  1   
 39  18  21  ar  
 40  18  40  1   
 41  19  21  ar  
 42  19  41  1   
 43  20  22  1   
 44  20  42  1   
 45  20  43  1   
 46  21  44  1   
 47  22  45  1   
 48  22  46  1   
 49  22  47  1   
@<TRIPOS>SUBSTRUCTURE
  1 ****  11 GROUP 4 **** **** 0

# MOE 2024.06 (io_trps.svl 2023.06)
