@<TRIPOS>MOLECULE
NONAME
36 36 1 0 0 
SMALL
USER_CHARGES


@<TRIPOS>ATOM
  1 S        0.1850     0.0750    -0.5090 S.o2  1 <1>   1.4470 
  2 O        0.3670     1.2320     0.3430 O.2   1 <1>  -0.6500 
  3 O        0.4560     0.2420    -1.9210 O.2   1 <1>  -0.6500 
  4 N        1.3350    -1.0420     0.0660 N.am  1 <1>  -0.8490 
  5 C       -1.4240    -0.7860    -0.2700 C.ar  1 <1>  -0.0090 
  6 C        2.7030    -0.5830    -0.2210 C.3   1 <1>   0.1960 
  7 C        1.1540    -1.3240     1.4990 C.3   1 <1>   0.1160 
  8 C       -1.7090    -1.9630    -0.9810 C.ar  1 <1>  -0.1440 
  9 C       -2.4030    -0.3260     0.6260 C.ar  1 <1>  -0.1440 
 10 C        3.6750    -1.7630    -0.2850 C.3   1 <1>   0.0400 
 11 C       -2.9010    -2.6440    -0.7880 C.ar  1 <1>  -0.1500 
 12 C       -0.7470    -2.5600    -2.0060 C.3   1 <1>  -0.0960 
 13 C       -3.5880    -1.0250     0.8040 C.ar  1 <1>  -0.1500 
 14 C       -2.2520     0.9490     1.4490 C.3   1 <1>  -0.0970 
 15 C        5.0380    -1.2780    -0.6210 C.1   1 <1>   0.3570 
 16 C       -3.8440    -2.1850     0.1060 C.ar  1 <1>  -0.1440 
 17 N        6.0810    -0.8980    -0.8640 N.1   1 <1>  -0.5570 
 18 C       -5.1460    -2.9390     0.3100 C.3   1 <1>  -0.0970 
 19 H        3.0170     0.1350     0.5190 H     1 <1>   0.0800 
 20 H        2.7310    -0.0900    -1.1800 H     1 <1>   0.0800 
 21 H        0.1560    -1.6840     1.6830 H     1 <1>   0.0800 
 22 H        1.3120    -0.4330     2.0840 H     1 <1>   0.0800 
 23 H        1.8400    -2.0840     1.8280 H     1 <1>   0.0800 
 24 H        3.3560    -2.4510    -1.0460 H     1 <1>   0.0800 
 25 H        3.7230    -2.2730     0.6570 H     1 <1>   0.0800 
 26 H       -3.1060    -3.5440    -1.3410 H     1 <1>   0.1500 
 27 H       -0.6170    -1.8840    -2.8320 H     1 <1>   0.0800 
 28 H       -1.1240    -3.4850    -2.4020 H     1 <1>   0.0800 
 29 H        0.2090    -2.7650    -1.5620 H     1 <1>   0.0800 
 30 H       -4.3300    -0.6640     1.4950 H     1 <1>   0.1500 
 31 H       -1.4280     0.8590     2.1340 H     1 <1>   0.0800 
 32 H       -3.1360     1.1530     2.0270 H     1 <1>   0.0800 
 33 H       -2.0880     1.7930     0.8030 H     1 <1>   0.0800 
 34 H       -5.0020    -3.9910     0.1430 H     1 <1>   0.0800 
 35 H       -5.8870    -2.5750    -0.3780 H     1 <1>   0.0800 
 36 H       -5.5070    -2.8030     1.3140 H     1 <1>   0.0800 
@<TRIPOS>BOND
  1   1   2  2   
  2   1   3  2   
  3   1   4  am  
  4   1   5  1   
  5   4   6  1   
  6   4   7  1   
  7   5   8  ar  
  8   5   9  ar  
  9   6  10  1   
 10   6  19  1   
 11   6  20  1   
 12   7  21  1   
 13   7  22  1   
 14   7  23  1   
 15   8  11  ar  
 16   8  12  1   
 17   9  13  ar  
 18   9  14  1   
 19  10  15  1   
 20  10  24  1   
 21  10  25  1   
 22  11  16  ar  
 23  11  26  1   
 24  12  27  1   
 25  12  28  1   
 26  12  29  1   
 27  13  16  ar  
 28  13  30  1   
 29  14  31  1   
 30  14  32  1   
 31  14  33  1   
 32  15  17  3   
 33  16  18  1   
 34  18  34  1   
 35  18  35  1   
 36  18  36  1   
@<TRIPOS>SUBSTRUCTURE
  1 ****   1 GROUP 4 **** **** 0

# MOE 2024.06 (io_trps.svl 2023.06)
