@<TRIPOS>MOLECULE
NONAME
27 28 1 0 0 
SMALL
USER_CHARGES


@<TRIPOS>ATOM
  1 O       -0.1850     0.4730    -1.1380 O.2   1 <1>  -0.1620 
  2 N       -1.1960     0.8940    -0.7040 N.2   1 <1>  -0.1320 
  3 C       -2.3250     0.0830    -0.6970 C.2   1 <1>   0.1560 
  4 C       -3.5280     0.4550    -0.2150 C.2   1 <1>  -0.2540 
  5 C       -2.1880    -1.3400    -1.2670 C.3   1 <1>  -0.0220 
  6 C       -3.8850     1.7980     0.4070 C.3   1 <1>  -0.1020 
  7 C       -4.6810    -0.5510    -0.2890 C.3   1 <1>   0.1160 
  8 C       -3.5410    -2.0930    -1.1820 C.3   1 <1>   0.0000 
  9 C       -4.2630    -1.9830     0.2110 C.3   1 <1>   0.0000 
 10 C       -4.6830    -1.1720    -1.7220 C.3   1 <1>   0.0000 
 11 C       -3.3670    -2.0420     1.4680 C.3   1 <1>  -0.2400 
 12 C       -5.4330    -2.9750     0.4130 C.3   1 <1>  -0.2400 
 13 H       -1.4380    -1.8820    -0.7200 H     1 <1>   0.0800 
 14 H       -1.8790    -1.2830    -2.2960 H     1 <1>   0.0800 
 15 H       -4.2300     1.6550     1.4150 H     1 <1>   0.0800 
 16 H       -4.6640     2.2720    -0.1630 H     1 <1>   0.0800 
 17 H       -3.0340     2.4560     0.4290 H     1 <1>   0.0800 
 18 H       -5.6410    -0.2010     0.0480 H     1 <1>   0.0000 
 19 H       -3.5310    -3.0800    -1.6090 H     1 <1>   0.0000 
 20 H       -4.3760    -0.4930    -2.4990 H     1 <1>   0.0000 
 21 H       -5.5890    -1.6870    -1.9870 H     1 <1>   0.0000 
 22 H       -3.9490    -1.7980     2.3390 H     1 <1>   0.0800 
 23 H       -2.9780    -3.0370     1.5910 H     1 <1>   0.0800 
 24 H       -2.5350    -1.3670     1.4410 H     1 <1>   0.0800 
 25 H       -5.9970    -2.6980     1.2860 H     1 <1>   0.0800 
 26 H       -6.1150    -3.0150    -0.4150 H     1 <1>   0.0800 
 27 H       -5.0460    -3.9670     0.5630 H     1 <1>   0.0800 
@<TRIPOS>BOND
  1   1   2  2   
  2   2   3  1   
  3   3   4  2   
  4   3   5  1   
  5   4   6  1   
  6   4   7  1   
  7   5   8  1   
  8   5  13  1   
  9   5  14  1   
 10   6  15  1   
 11   6  16  1   
 12   6  17  1   
 13   7   9  1   
 14   7  10  1   
 15   7  18  1   
 16   8   9  1   
 17   8  10  1   
 18   8  19  1   
 19   9  11  1   
 20   9  12  1   
 21  10  20  1   
 22  10  21  1   
 23  11  22  1   
 24  11  23  1   
 25  11  24  1   
 26  12  25  1   
 27  12  26  1   
 28  12  27  1   
@<TRIPOS>SUBSTRUCTURE
  1 ****   4 GROUP 4 **** **** 0

# MOE 2024.06 (io_trps.svl 2023.06)
