@<TRIPOS>MOLECULE
NONAME
38 39 1 0 0 
SMALL
USER_CHARGES


@<TRIPOS>ATOM
  1 O       -0.5110    -0.2330    -0.2360 O.2   1 <1>  -0.5700 
  2 C       -0.2960    -1.3150     0.2790 C.2   1 <1>   0.6900 
  3 N       -1.3440    -2.0870     0.7120 N.am  1 <1>  -0.6600 
  4 N        0.9720    -1.7960     0.4340 N.am  1 <1>  -0.5470 
  5 C       -2.7050    -1.4930     0.8510 C.3   1 <1>   0.1400 
  6 C       -1.3540    -3.5740     0.6480 C.3   1 <1>   0.1400 
  7 C        2.2330    -1.3300     0.0290 C.ar  1 <1>   0.1170 
  8 C       -3.5550    -1.8820    -0.3630 C.3   1 <1>  -0.0190 
  9 C       -2.1990    -4.0230    -0.5510 C.3   1 <1>  -0.1600 
 10 C        3.2910    -2.2360    -0.0950 C.ar  1 <1>  -0.1440 
 11 C        2.4750     0.0150    -0.2360 C.ar  1 <1>  -0.1500 
 12 C       -4.9390    -1.2680    -0.2260 C.2   1 <1>   0.5690 
 13 C       -3.6130    -3.4170    -0.5150 C.3   1 <1>  -0.1600 
 14 C        4.5450    -1.7890    -0.4790 C.ar  1 <1>  -0.1500 
 15 C        3.0950    -3.7230     0.1780 C.3   1 <1>  -0.0970 
 16 C        3.7280     0.4540    -0.6210 C.ar  1 <1>  -0.1500 
 17 O       -5.6680    -1.6050     0.6720 O.2   1 <1>  -0.5700 
 18 N       -5.3470    -0.3380    -1.1080 N.am  1 <1>  -0.8000 
 19 C        4.7660    -0.4490    -0.7430 C.ar  1 <1>  -0.1500 
 20 H        0.9910    -2.6720     0.9380 H     1 <1>   0.3700 
 21 H       -2.6410    -0.4210     0.9260 H     1 <1>   0.0800 
 22 H       -3.1630    -1.8600     1.7530 H     1 <1>   0.0800 
 23 H       -1.7770    -3.9610     1.5600 H     1 <1>   0.0800 
 24 H       -0.3570    -3.9660     0.5480 H     1 <1>   0.0800 
 25 H       -3.0860    -1.4650    -1.2360 H     1 <1>   0.0800 
 26 H       -2.2680    -5.0960    -0.5570 H     1 <1>   0.0800 
 27 H       -1.7010    -3.7220    -1.4560 H     1 <1>   0.0800 
 28 H        1.6830     0.7330    -0.1380 H     1 <1>   0.1500 
 29 H       -4.1430    -3.6730    -1.4170 H     1 <1>   0.0800 
 30 H       -4.1560    -3.8360     0.3160 H     1 <1>   0.0800 
 31 H        5.3640    -2.4800    -0.5790 H     1 <1>   0.1500 
 32 H        2.8560    -3.8790     1.2140 H     1 <1>   0.0800 
 33 H        3.9890    -4.2760    -0.0490 H     1 <1>   0.0800 
 34 H        2.3000    -4.1080    -0.4340 H     1 <1>   0.0800 
 35 H        3.8920     1.4980    -0.8240 H     1 <1>   0.1500 
 36 H       -6.2730     0.0780    -1.0020 H     1 <1>   0.3700 
 37 H       -4.7650     0.0240    -1.8640 H     1 <1>   0.3700 
 38 H        5.7430    -0.1100    -1.0430 H     1 <1>   0.1500 
@<TRIPOS>BOND
  1   1   2  2   
  2   2   3  am  
  3   2   4  am  
  4   3   5  1   
  5   3   6  1   
  6   4   7  1   
  7   4  20  1   
  8   5   8  1   
  9   5  21  1   
 10   5  22  1   
 11   6   9  1   
 12   6  23  1   
 13   6  24  1   
 14   7  10  ar  
 15   7  11  ar  
 16   8  12  1   
 17   8  13  1   
 18   8  25  1   
 19   9  13  1   
 20   9  26  1   
 21   9  27  1   
 22  10  14  ar  
 23  10  15  1   
 24  11  16  ar  
 25  11  28  1   
 26  12  17  2   
 27  12  18  am  
 28  13  29  1   
 29  13  30  1   
 30  14  19  ar  
 31  14  31  1   
 32  15  32  1   
 33  15  33  1   
 34  15  34  1   
 35  16  19  ar  
 36  16  35  1   
 37  18  36  1   
 38  18  37  1   
 39  19  38  1   
@<TRIPOS>SUBSTRUCTURE
  1 ****   2 GROUP 4 **** **** 0

# MOE 2024.06 (io_trps.svl 2023.06)
