@<TRIPOS>MOLECULE
NONAME
53 55 1 0 0 
SMALL
USER_CHARGES


@<TRIPOS>ATOM
  1 N        0.2070     0.0960    -0.5080 N.4   1 <1>  -0.9590 
  2 C        1.4590     0.8990    -0.6620 C.3   1 <1>   0.4230 
  3 C       -0.9880     0.9650    -0.2590 C.3   1 <1>   0.3430 
  4 C        0.2630    -1.0220     0.4920 C.3   1 <1>   0.3430 
  5 C        2.5610     0.0540    -1.3050 C.3   1 <1>  -0.1600 
  6 C        1.9520     1.4910     0.6640 C.3   1 <1>  -0.1600 
  7 C       -2.2660     0.1390    -0.3960 C.3   1 <1>  -0.1600 
  8 C       -0.9890    -1.8890     0.3690 C.3   1 <1>  -0.1600 
  9 C        3.8290     0.8870    -1.5070 C.3   1 <1>   0.3430 
 10 C        3.2280     2.3080     0.4480 C.3   1 <1>   0.3430 
 11 C       -2.2700    -1.0640     0.5560 C.3   1 <1>  -0.0800 
 12 N        4.2780     1.4670    -0.2060 N.4   1 <1>  -0.9590 
 13 C       -3.5110    -1.9330     0.3240 C.3   1 <1>  -0.2400 
 14 C        5.5470     2.2430    -0.4270 C.3   1 <1>   0.3430 
 15 C        6.2650     2.5790     0.8820 C.3   1 <1>  -0.0170 
 16 C        7.5750     3.2590     0.5390 C.ar  1 <1>  -0.1430 
 17 C        7.6340     4.6380     0.4060 C.ar  1 <1>  -0.1500 
 18 C        8.7220     2.5050     0.3420 C.ar  1 <1>  -0.1500 
 19 C        8.8270     5.2560     0.0710 C.ar  1 <1>  -0.1500 
 20 C        9.9140     3.1230     0.0070 C.ar  1 <1>  -0.1500 
 21 C        9.9670     4.4990    -0.1300 C.ar  1 <1>  -0.1500 
 22 H        0.0140    -0.3590    -1.4120 H     1 <1>   0.4500 
 23 H        1.2470     1.7180    -1.3320 H     1 <1>   0.0800 
 24 H       -1.0150     1.7760    -0.9690 H     1 <1>   0.0800 
 25 H       -0.9400     1.3830     0.7340 H     1 <1>   0.0800 
 26 H        0.3190    -0.6200     1.4910 H     1 <1>   0.0800 
 27 H        1.1310    -1.6370     0.3220 H     1 <1>   0.0800 
 28 H        2.2330    -0.2970    -2.2680 H     1 <1>   0.0800 
 29 H        2.8050    -0.8000    -0.7000 H     1 <1>   0.0800 
 30 H        2.1610     0.7200     1.3840 H     1 <1>   0.0800 
 31 H        1.2050     2.1440     1.0770 H     1 <1>   0.0800 
 32 H       -2.3730    -0.1900    -1.4160 H     1 <1>   0.0800 
 33 H       -3.1110     0.7690    -0.1750 H     1 <1>   0.0800 
 34 H       -0.9530    -2.6610     1.1180 H     1 <1>   0.0800 
 35 H       -0.9960    -2.3760    -0.5910 H     1 <1>   0.0800 
 36 H        3.6340     1.6810    -2.2120 H     1 <1>   0.0800 
 37 H        4.6070     0.2620    -1.9190 H     1 <1>   0.0800 
 38 H        3.5840     2.6700     1.4000 H     1 <1>   0.0800 
 39 H        3.0110     3.1640    -0.1720 H     1 <1>   0.0800 
 40 H       -2.3030    -0.7010     1.5720 H     1 <1>   0.0800 
 41 H        4.5230     0.6890     0.4260 H     1 <1>   0.4500 
 42 H       -3.5300    -2.3230    -0.6790 H     1 <1>   0.0800 
 43 H       -4.4070    -1.3580     0.4820 H     1 <1>   0.0800 
 44 H       -3.5240    -2.7610     1.0110 H     1 <1>   0.0800 
 45 H        5.3380     3.1570    -0.9600 H     1 <1>   0.0800 
 46 H        6.2240     1.6620    -1.0340 H     1 <1>   0.0800 
 47 H        6.4680     1.6830     1.4410 H     1 <1>   0.0800 
 48 H        5.6760     3.2420     1.4900 H     1 <1>   0.0800 
 49 H        6.7630     5.2490     0.5620 H     1 <1>   0.1500 
 50 H        8.7080     1.4340     0.4480 H     1 <1>   0.1500 
 51 H        8.8710     6.3270    -0.0310 H     1 <1>   0.1500 
 52 H       10.8040     2.5370    -0.1440 H     1 <1>   0.1500 
 53 H       10.8940     4.9800    -0.3890 H     1 <1>   0.1500 
@<TRIPOS>BOND
  1   1   2  1   
  2   1   3  1   
  3   1   4  1   
  4   1  22  1   
  5   2   5  1   
  6   2   6  1   
  7   2  23  1   
  8   3   7  1   
  9   3  24  1   
 10   3  25  1   
 11   4   8  1   
 12   4  26  1   
 13   4  27  1   
 14   5   9  1   
 15   5  28  1   
 16   5  29  1   
 17   6  10  1   
 18   6  30  1   
 19   6  31  1   
 20   7  11  1   
 21   7  32  1   
 22   7  33  1   
 23   8  11  1   
 24   8  34  1   
 25   8  35  1   
 26   9  12  1   
 27   9  36  1   
 28   9  37  1   
 29  10  12  1   
 30  10  38  1   
 31  10  39  1   
 32  11  13  1   
 33  11  40  1   
 34  12  14  1   
 35  12  41  1   
 36  13  42  1   
 37  13  43  1   
 38  13  44  1   
 39  14  15  1   
 40  14  45  1   
 41  14  46  1   
 42  15  16  1   
 43  15  47  1   
 44  15  48  1   
 45  16  17  ar  
 46  16  18  ar  
 47  17  19  ar  
 48  17  49  1   
 49  18  20  ar  
 50  18  50  1   
 51  19  21  ar  
 52  19  51  1   
 53  20  21  ar  
 54  20  52  1   
 55  21  53  1   
@<TRIPOS>SUBSTRUCTURE
  1 ****  12 GROUP 4 **** **** 0

# MOE 2024.06 (io_trps.svl 2023.06)
