@<TRIPOS>MOLECULE
NONAME
38 39 1 0 0 
SMALL
USER_CHARGES


@<TRIPOS>ATOM
  1 F        0.7050    -0.3030    -0.9910 F     1 <1>  -0.1900 
  2 C        0.5410    -1.5040    -0.4930 C.ar  1 <1>   0.1900 
  3 C        1.6500    -2.2390    -0.0850 C.ar  1 <1>   0.0820 
  4 C       -0.7490    -1.9900    -0.3970 C.ar  1 <1>  -0.1500 
  5 O        2.8870    -1.6840    -0.2160 O.3   1 <1>  -0.3630 
  6 C        1.4310    -3.5120     0.4380 C.ar  1 <1>  -0.1500 
  7 C       -0.9470    -3.2570     0.1260 C.ar  1 <1>  -0.1500 
  8 C        4.0510    -2.3680     0.1740 C.3   1 <1>   0.1200 
  9 C        0.1410    -4.0110     0.5410 C.ar  1 <1>  -0.1500 
 10 C        5.2390    -1.4480    -0.1160 C.3   1 <1>  -0.1600 
 11 C        6.5770    -2.0950     0.2670 C.3   1 <1>  -0.1600 
 12 C        7.7340    -1.1400    -0.0320 C.3   1 <1>   0.3430 
 13 N        9.0260    -1.7330     0.4060 N.4   1 <1>  -0.9590 
 14 C       10.1450    -0.7600     0.3590 C.3   1 <1>   0.3430 
 15 C        9.4720    -2.8950    -0.4050 C.3   1 <1>   0.3430 
 16 C       11.3980    -1.6240     0.3800 C.3   1 <1>  -0.1600 
 17 C       10.9650    -3.0030    -0.1260 C.3   1 <1>  -0.1600 
 18 H       -1.5760    -1.3880    -0.7240 H     1 <1>   0.1500 
 19 H        2.2440    -4.1280     0.7710 H     1 <1>   0.1500 
 20 H       -1.9430    -3.6550     0.2110 H     1 <1>   0.1500 
 21 H        4.1170    -3.2780    -0.3980 H     1 <1>   0.0800 
 22 H        3.9790    -2.5880     1.2250 H     1 <1>   0.0800 
 23 H       -0.0200    -4.9960     0.9470 H     1 <1>   0.1500 
 24 H        5.1040    -0.5350     0.4410 H     1 <1>   0.0800 
 25 H        5.2370    -1.2110    -1.1660 H     1 <1>   0.0800 
 26 H        6.6930    -3.0060    -0.2950 H     1 <1>   0.0800 
 27 H        6.5640    -2.3300     1.3180 H     1 <1>   0.0800 
 28 H        7.5660    -0.2140     0.4960 H     1 <1>   0.0800 
 29 H        7.7660    -0.9220    -1.0880 H     1 <1>   0.0800 
 30 H        8.9390    -2.0490     1.3810 H     1 <1>   0.4500 
 31 H       10.1170    -0.0750     1.1920 H     1 <1>   0.0800 
 32 H       10.1080    -0.2050    -0.5650 H     1 <1>   0.0800 
 33 H        9.3160    -2.6910    -1.4520 H     1 <1>   0.0800 
 34 H        8.9490    -3.7980    -0.1330 H     1 <1>   0.0800 
 35 H       11.7760    -1.6950     1.3860 H     1 <1>   0.0800 
 36 H       12.1640    -1.1920    -0.2410 H     1 <1>   0.0800 
 37 H       11.4930    -3.2850    -1.0210 H     1 <1>   0.0800 
 38 H       11.1440    -3.7530     0.6250 H     1 <1>   0.0800 
@<TRIPOS>BOND
  1   1   2  1   
  2   2   3  ar  
  3   2   4  ar  
  4   3   5  1   
  5   3   6  ar  
  6   4   7  ar  
  7   4  18  1   
  8   5   8  1   
  9   6   9  ar  
 10   6  19  1   
 11   7   9  ar  
 12   7  20  1   
 13   8  10  1   
 14   8  21  1   
 15   8  22  1   
 16   9  23  1   
 17  10  11  1   
 18  10  24  1   
 19  10  25  1   
 20  11  12  1   
 21  11  26  1   
 22  11  27  1   
 23  12  13  1   
 24  12  28  1   
 25  12  29  1   
 26  13  14  1   
 27  13  15  1   
 28  13  30  1   
 29  14  16  1   
 30  14  31  1   
 31  14  32  1   
 32  15  17  1   
 33  15  33  1   
 34  15  34  1   
 35  16  17  1   
 36  16  35  1   
 37  16  36  1   
 38  17  37  1   
 39  17  38  1   
@<TRIPOS>SUBSTRUCTURE
  1 ****   8 GROUP 4 **** **** 0

# MOE 2024.06 (io_trps.svl 2023.06)
