@<TRIPOS>MOLECULE
NONAME
47 50 1 0 0 
SMALL
USER_CHARGES


@<TRIPOS>ATOM
  1 BR       0.8480     0.6350    -2.7350 Br    1 <1>  -0.1110 
  2 C        2.1790    -0.4080    -1.8150 C.ar  1 <1>   0.1110 
  3 C        3.3350     0.2190    -1.3910 C.ar  1 <1>  -0.1500 
  4 C        1.9420    -1.7540    -1.6050 C.ar  1 <1>  -0.1500 
  5 C        4.2910    -0.5300    -0.7250 C.ar  1 <1>  -0.0320 
  6 C        2.9030    -2.4970    -0.9410 C.ar  1 <1>  -0.1500 
  7 C        4.0700    -1.8860    -0.5020 C.ar  1 <1>   0.0830 
  8 C        5.5760     0.1090    -0.2500 C.3   1 <1>  -0.0680 
  9 O        4.9760    -2.6480     0.1610 O.3   1 <1>  -0.2330 
 10 C        6.5190    -0.7690     0.5240 C.3   1 <1>   0.0000 
 11 C        5.8460     0.4080     1.1980 C.3   1 <1>  -0.0950 
 12 C        6.0930    -2.2080     0.7420 C.2   1 <1>   0.7200 
 13 C        7.9770    -0.7510     0.1240 C.2   1 <1>   0.7200 
 14 C        6.7540     1.5870     1.5630 C.2   1 <1>   0.4840 
 15 C        4.7880     0.1310     2.2920 C.3   1 <1>  -0.0650 
 16 O        6.7270    -2.9550     1.4380 O.2   1 <1>  -0.5700 
 17 O        8.3020    -0.5800    -1.0240 O.2   1 <1>  -0.5700 
 18 O        8.8700    -0.9100     1.0900 O.3   1 <1>  -0.4300 
 19 O        7.5210     1.4100     2.4730 O.2   1 <1>  -0.5700 
 20 C        6.6960     2.8390     0.8330 C.ar  1 <1>   0.0860 
 21 C        3.7650     1.2620     2.4340 C.3   1 <1>  -0.2400 
 22 C       10.2590    -0.8760     0.8460 C.3   1 <1>   0.0400 
 23 C        5.5590     3.2800     0.1500 C.ar  1 <1>  -0.1500 
 24 C        7.8150     3.6720     0.7910 C.ar  1 <1>  -0.1500 
 25 C        5.5470     4.4750    -0.5460 C.ar  1 <1>  -0.1500 
 26 C        7.8090     4.8680     0.0980 C.ar  1 <1>  -0.1500 
 27 C        6.6730     5.2770    -0.5780 C.ar  1 <1>  -0.1430 
 28 C        6.6650     6.5880    -1.3430 C.3   1 <1>  -0.0970 
 29 H        3.4790     1.2670    -1.5840 H     1 <1>   0.1500 
 30 H        1.0300    -2.2060    -1.9540 H     1 <1>   0.1500 
 31 H        2.7510    -3.5480    -0.7610 H     1 <1>   0.1500 
 32 H        6.0210     0.7380    -1.0040 H     1 <1>   0.1000 
 33 H        5.2930    -0.0030     3.2340 H     1 <1>   0.0800 
 34 H        4.2500    -0.7790     2.0930 H     1 <1>   0.0800 
 35 H        3.2140     1.3910     1.5200 H     1 <1>   0.0800 
 36 H        4.2480     2.1880     2.6940 H     1 <1>   0.0800 
 37 H        3.0660     1.0200     3.2160 H     1 <1>   0.0800 
 38 H       10.7700    -1.0240     1.7800 H     1 <1>   0.0800 
 39 H       10.5150     0.0830     0.4310 H     1 <1>   0.0800 
 40 H       10.5100    -1.6620     0.1550 H     1 <1>   0.0800 
 41 H        4.6630     2.6910     0.1620 H     1 <1>   0.1500 
 42 H        8.7080     3.3710     1.3130 H     1 <1>   0.1500 
 43 H        4.6550     4.7830    -1.0640 H     1 <1>   0.1500 
 44 H        8.6950     5.4790     0.0860 H     1 <1>   0.1500 
 45 H        5.6760     7.0100    -1.3600 H     1 <1>   0.0800 
 46 H        6.9890     6.4220    -2.3540 H     1 <1>   0.0800 
 47 H        7.3270     7.2980    -0.8790 H     1 <1>   0.0800 
@<TRIPOS>BOND
  1   1   2  1   
  2   2   3  ar  
  3   2   4  ar  
  4   3   5  ar  
  5   3  29  1   
  6   4   6  ar  
  7   4  30  1   
  8   5   7  ar  
  9   5   8  1   
 10   6   7  ar  
 11   6  31  1   
 12   7   9  1   
 13   8  10  1   
 14   8  11  1   
 15   8  32  1   
 16   9  12  1   
 17  10  11  1   
 18  10  12  1   
 19  10  13  1   
 20  11  14  1   
 21  11  15  1   
 22  12  16  2   
 23  13  17  2   
 24  13  18  1   
 25  14  19  2   
 26  14  20  1   
 27  15  21  1   
 28  15  33  1   
 29  15  34  1   
 30  18  22  1   
 31  20  23  ar  
 32  20  24  ar  
 33  21  35  1   
 34  21  36  1   
 35  21  37  1   
 36  22  38  1   
 37  22  39  1   
 38  22  40  1   
 39  23  25  ar  
 40  23  41  1   
 41  24  26  ar  
 42  24  42  1   
 43  25  27  ar  
 44  25  43  1   
 45  26  27  ar  
 46  26  44  1   
 47  27  28  1   
 48  28  45  1   
 49  28  46  1   
 50  28  47  1   
@<TRIPOS>SUBSTRUCTURE
  1 ****   8 GROUP 4 **** **** 0

# MOE 2024.06 (io_trps.svl 2023.06)
