@<TRIPOS>MOLECULE
NONAME
36 37 1 0 0 
SMALL
USER_CHARGES


@<TRIPOS>ATOM
  1 CL       2.4950     1.4250     3.1620 Cl    1 <1>  -0.1770 
  2 C        3.5510     1.6070     1.7840 C.ar  1 <1>   0.1770 
  3 C        4.1200     0.4790     1.2180 C.ar  1 <1>  -0.1500 
  4 C        3.7960     2.8830     1.2860 C.ar  1 <1>  -0.1500 
  5 C        4.9480     0.6740     0.1290 C.ar  1 <1>   0.0830 
  6 C        4.6320     3.0550     0.1920 C.ar  1 <1>  -0.1500 
  7 O        5.6130    -0.2530    -0.5880 O.3   1 <1>  -0.2320 
  8 C        5.2080     1.9290    -0.3830 C.ar  1 <1>   0.1170 
  9 C        6.2880     0.4020    -1.5340 C.2   1 <1>   0.7800 
 10 N        6.0660     1.7440    -1.4480 N.am  1 <1>  -0.4770 
 11 O        6.9950    -0.1570    -2.3480 O.2   1 <1>  -0.5700 
 12 C        6.7260     2.7470    -2.2930 C.3   1 <1>   0.3700 
 13 S        7.6440     3.8550    -1.2110 S.3   1 <1>  -0.4780 
 14 P        9.3070     2.7580    -0.7960 P.3   1 <1>   1.4680 
 15 S       10.3390     2.3280    -2.3790 S.2   1 <1>  -0.6770 
 16 O        8.7650     1.4930     0.0170 O.3   1 <1>  -0.5510 
 17 O       10.1070     3.6190     0.2890 O.3   1 <1>  -0.5510 
 18 C        9.6450     0.5200     0.4470 C.3   1 <1>   0.1200 
 19 C       10.7300     4.7970    -0.0790 C.3   1 <1>   0.1200 
 20 C        8.8330    -0.5490     1.1690 C.3   1 <1>  -0.2400 
 21 C       11.3920     5.3770     1.1650 C.3   1 <1>  -0.2400 
 22 H        3.9260    -0.5040     1.6070 H     1 <1>   0.1500 
 23 H        3.3330     3.7310     1.7600 H     1 <1>   0.1500 
 24 H        4.8360     4.0340    -0.2040 H     1 <1>   0.1500 
 25 H        5.9970     3.3360    -2.8220 H     1 <1>   0.0800 
 26 H        7.4180     2.2950    -2.9850 H     1 <1>   0.0800 
 27 H       10.3640     0.9700     1.1110 H     1 <1>   0.0800 
 28 H       10.1480     0.1000    -0.4100 H     1 <1>   0.0800 
 29 H        9.9930     5.4790    -0.4700 H     1 <1>   0.0800 
 30 H       11.4670     4.5810    -0.8360 H     1 <1>   0.0800 
 31 H        8.2950    -0.1160     1.9930 H     1 <1>   0.0800 
 32 H        9.4910    -1.3080     1.5490 H     1 <1>   0.0800 
 33 H        8.1410    -1.0110     0.4880 H     1 <1>   0.0800 
 34 H       10.6520     5.5800     1.9190 H     1 <1>   0.0800 
 35 H       11.8890     6.2970     0.9170 H     1 <1>   0.0800 
 36 H       12.1210     4.6880     1.5540 H     1 <1>   0.0800 
@<TRIPOS>BOND
  1   1   2  1   
  2   2   3  ar  
  3   2   4  ar  
  4   3   5  ar  
  5   3  22  1   
  6   4   6  ar  
  7   4  23  1   
  8   5   7  1   
  9   5   8  ar  
 10   6   8  ar  
 11   6  24  1   
 12   7   9  1   
 13   8  10  1   
 14   9  10  am  
 15   9  11  2   
 16  10  12  1   
 17  12  13  1   
 18  12  25  1   
 19  12  26  1   
 20  13  14  1   
 21  14  15  2   
 22  14  16  1   
 23  14  17  1   
 24  16  18  1   
 25  17  19  1   
 26  18  20  1   
 27  18  27  1   
 28  18  28  1   
 29  19  21  1   
 30  19  29  1   
 31  19  30  1   
 32  20  31  1   
 33  20  32  1   
 34  20  33  1   
 35  21  34  1   
 36  21  35  1   
 37  21  36  1   
@<TRIPOS>SUBSTRUCTURE
  1 ****  10 GROUP 4 **** **** 0

# MOE 2024.06 (io_trps.svl 2023.06)
