@<TRIPOS>MOLECULE
NONAME
42 46 1 0 0 
SMALL
USER_CHARGES


@<TRIPOS>ATOM
  1 S       -0.2220    -0.6520     0.9100 S.3   1 <1>  -0.0800 
  2 C        1.3770    -1.2270     0.4360 C.ar  1 <1>   0.2970 
  3 C       -1.0370    -1.5840    -0.3830 C.2   1 <1>  -0.0450 
  4 N        2.4670    -0.8480     1.0860 N.ar  1 <1>  -0.5670 
  5 C        1.2640    -2.0810    -0.6570 C.ar  1 <1>   0.0000 
  6 C       -0.0950    -2.2650    -1.0990 C.2   1 <1>   0.0830 
  7 C       -2.4590    -1.5100    -0.4900 C.2   1 <1>   0.7150 
  8 C        3.5570    -1.3900     0.5710 C.ar  1 <1>   0.1670 
  9 C        2.4390    -2.6220    -1.1610 C.ar  1 <1>  -0.1500 
 10 N       -0.3870    -3.0780    -2.1740 N.pl3 1 <1>  -0.8830 
 11 O       -3.0630    -2.1740    -1.3200 O.2   1 <1>  -0.5700 
 12 N       -3.1650    -0.6890     0.3480 N.am  1 <1>  -0.4930 
 13 C        3.6090    -2.2640    -0.5250 C.ar  1 <1>   0.1000 
 14 C        4.9450    -1.1140     1.1350 C.3   1 <1>   0.0630 
 15 C       -4.5310    -0.4380     0.4500 C.2   1 <1>   0.3520 
 16 N        4.8820    -2.7200    -0.9010 N.pl3 1 <1>  -0.8380 
 17 C        5.7810    -0.5570    -0.0390 C.3   1 <1>  -0.1600 
 18 C        5.5430    -2.4930     1.4950 C.3   1 <1>  -0.1600 
 19 N       -4.9880     0.3810     1.3310 N.2   1 <1>  -0.4100 
 20 C       -5.5740    -0.9740    -0.3100 C.2   1 <1>  -0.1500 
 21 C        5.7450    -1.5410    -1.2390 C.3   1 <1>   0.2090 
 22 C        5.5130    -3.4310     0.2590 C.3   1 <1>   0.2090 
 23 O       -6.2880     0.3970     1.1720 O.3   1 <1>  -0.0190 
 24 C       -6.6670    -0.3970     0.2050 C.2   1 <1>  -0.0400 
 25 C       -8.1360    -0.5210    -0.1390 C.3   1 <1>  -0.0600 
 26 H        2.4550    -3.2860    -2.0030 H     1 <1>   0.1500 
 27 H        0.3010    -3.7220    -2.5750 H     1 <1>   0.4000 
 28 H       -1.3730    -3.2710    -2.4090 H     1 <1>   0.4000 
 29 H       -2.6120    -0.1640     1.0210 H     1 <1>   0.3700 
 30 H        4.9130    -0.4440     1.9760 H     1 <1>   0.0800 
 31 H        6.7990    -0.3930     0.2670 H     1 <1>   0.0800 
 32 H        5.3770     0.3900    -0.3490 H     1 <1>   0.0800 
 33 H        4.9670    -2.9370     2.2880 H     1 <1>   0.0800 
 34 H        6.5530    -2.3850     1.8460 H     1 <1>   0.0800 
 35 H       -5.4830    -1.6810    -1.1120 H     1 <1>   0.1500 
 36 H        5.3390    -1.0480    -2.1070 H     1 <1>   0.0800 
 37 H        6.7390    -1.8780    -1.4810 H     1 <1>   0.0800 
 38 H        6.5100    -3.7390    -0.0050 H     1 <1>   0.0800 
 39 H        4.9380    -4.3150     0.4820 H     1 <1>   0.0800 
 40 H       -8.2690    -1.2110    -0.9520 H     1 <1>   0.0800 
 41 H       -8.5250     0.4390    -0.4270 H     1 <1>   0.0800 
 42 H       -8.6820    -0.8770     0.7150 H     1 <1>   0.0800 
@<TRIPOS>BOND
  1   1   2  1   
  2   1   3  1   
  3   2   4  ar  
  4   2   5  ar  
  5   3   6  2   
  6   3   7  1   
  7   4   8  ar  
  8   5   6  1   
  9   5   9  ar  
 10   6  10  1   
 11   7  11  2   
 12   7  12  am  
 13   8  13  ar  
 14   8  14  1   
 15   9  13  ar  
 16   9  26  1   
 17  10  27  1   
 18  10  28  1   
 19  12  15  1   
 20  12  29  1   
 21  13  16  1   
 22  14  17  1   
 23  14  18  1   
 24  14  30  1   
 25  15  19  2   
 26  15  20  1   
 27  16  21  1   
 28  16  22  1   
 29  17  21  1   
 30  17  31  1   
 31  17  32  1   
 32  18  22  1   
 33  18  33  1   
 34  18  34  1   
 35  19  23  1   
 36  20  24  2   
 37  20  35  1   
 38  21  36  1   
 39  21  37  1   
 40  22  38  1   
 41  22  39  1   
 42  23  24  1   
 43  24  25  1   
 44  25  40  1   
 45  25  41  1   
 46  25  42  1   
@<TRIPOS>SUBSTRUCTURE
  1 ****   3 GROUP 4 **** **** 0

# MOE 2024.06 (io_trps.svl 2023.06)
