@<TRIPOS>MOLECULE
NONAME
28 29 1 0 0 
SMALL
USER_CHARGES


@<TRIPOS>ATOM
  1 F        0.5810     0.0760     0.5870 F     1 <1>  -0.1900 
  2 C        1.6250    -0.6500     0.2880 C.ar  1 <1>   0.1900 
  3 C        2.8770    -0.0780     0.3790 C.ar  1 <1>  -0.1500 
  4 C        1.4310    -1.9590    -0.1070 C.ar  1 <1>  -0.1500 
  5 C        3.9970    -0.8380     0.0640 C.ar  1 <1>   0.1170 
  6 C        2.5430    -2.7190    -0.4240 C.ar  1 <1>  -0.1500 
  7 N        5.2630    -0.2410     0.1470 N.am  1 <1>  -0.5470 
  8 C        3.8090    -2.1600    -0.3400 C.ar  1 <1>  -0.1500 
  9 C        6.5070    -0.7760     0.3270 C.2   1 <1>   0.6900 
 10 O        6.6610    -1.9630     0.5440 O.2   1 <1>  -0.5700 
 11 N        7.5910     0.0590     0.2770 N.am  1 <1>  -0.6600 
 12 C        7.5870     1.4710    -0.1660 C.3   1 <1>   0.1400 
 13 C        8.9730    -0.4450     0.4300 C.3   1 <1>   0.1400 
 14 C        9.0430     1.9140    -0.0710 C.3   1 <1>  -0.1600 
 15 C        9.8510     0.6270    -0.2040 C.3   1 <1>  -0.1600 
 16 H        2.9730     0.9430     0.6950 H     1 <1>   0.1500 
 17 H        0.4380    -2.3680    -0.1640 H     1 <1>   0.1500 
 18 H        2.4290    -3.7430    -0.7360 H     1 <1>   0.1500 
 19 H        5.2730     0.7710     0.1670 H     1 <1>   0.3700 
 20 H        4.6620    -2.7630    -0.5950 H     1 <1>   0.1500 
 21 H        6.9570     2.0730     0.4660 H     1 <1>   0.0800 
 22 H        7.2470     1.5200    -1.1870 H     1 <1>   0.0800 
 23 H        9.0950    -1.3980    -0.0570 H     1 <1>   0.0800 
 24 H        9.1930    -0.5470     1.4790 H     1 <1>   0.0800 
 25 H        9.2130     2.3520     0.8970 H     1 <1>   0.0800 
 26 H        9.2930     2.6350    -0.8300 H     1 <1>   0.0800 
 27 H        9.9940     0.3890    -1.2440 H     1 <1>   0.0800 
 28 H       10.8120     0.6910     0.2760 H     1 <1>   0.0800 
@<TRIPOS>BOND
  1   1   2  1   
  2   2   3  ar  
  3   2   4  ar  
  4   3   5  ar  
  5   3  16  1   
  6   4   6  ar  
  7   4  17  1   
  8   5   7  1   
  9   5   8  ar  
 10   6   8  ar  
 11   6  18  1   
 12   7   9  am  
 13   7  19  1   
 14   8  20  1   
 15   9  10  2   
 16   9  11  am  
 17  11  12  1   
 18  11  13  1   
 19  12  14  1   
 20  12  21  1   
 21  12  22  1   
 22  13  15  1   
 23  13  23  1   
 24  13  24  1   
 25  14  15  1   
 26  14  25  1   
 27  14  26  1   
 28  15  27  1   
 29  15  28  1   
@<TRIPOS>SUBSTRUCTURE
  1 ****   7 GROUP 4 **** **** 0

# MOE 2024.06 (io_trps.svl 2023.06)
