@<TRIPOS>MOLECULE
NONAME
47 48 1 0 0 
SMALL
USER_CHARGES


@<TRIPOS>ATOM
  1 O       -0.0310     0.1730    -1.3510 O.2   1 <1>  -0.5700 
  2 C       -0.1440    -0.9140    -0.8410 C.2   1 <1>   0.5690 
  3 N        0.8770    -1.5730    -0.2140 N.am  1 <1>  -0.5470 
  4 C       -1.4880    -1.6060    -0.9000 C.3   1 <1>  -0.0990 
  5 C        2.2070    -1.1860     0.0290 C.ar  1 <1>   0.1170 
  6 C       -2.2850    -1.4380     0.4040 C.3   1 <1>   0.0640 
  7 C        3.1620    -2.1770     0.2160 C.ar  1 <1>  -0.1500 
  8 C        2.5960     0.1460     0.1070 C.ar  1 <1>  -0.1500 
  9 C       -3.4770    -2.3920     0.4180 C.ar  1 <1>  -0.1440 
 10 C       -2.7540     0.0080     0.6140 C.3   1 <1>  -0.2400 
 11 C        4.4900    -1.8530     0.4760 C.ar  1 <1>   0.0830 
 12 C        3.9180     0.4950     0.3600 C.ar  1 <1>   0.0830 
 13 C       -3.5780    -3.3600     1.4080 C.ar  1 <1>  -0.1500 
 14 C       -4.4700    -2.3150    -0.5490 C.ar  1 <1>  -0.1500 
 15 O        5.4560    -2.8010     0.6570 O.3   1 <1>  -0.3630 
 16 C        4.8640    -0.5120     0.5490 C.ar  1 <1>   0.0830 
 17 O        4.3350     1.7940     0.4270 O.3   1 <1>  -0.3630 
 18 C       -4.6480    -4.2370     1.4280 C.ar  1 <1>  -0.1500 
 19 C       -5.5400    -3.1920    -0.5310 C.ar  1 <1>  -0.1500 
 20 C        5.1440    -4.1730     0.7540 C.3   1 <1>   0.0400 
 21 O        6.1580    -0.1880     0.8260 O.3   1 <1>  -0.3630 
 22 C        3.4530     2.8640     0.1670 C.3   1 <1>   0.0400 
 23 C       -5.6300    -4.1550     0.4580 C.ar  1 <1>  -0.1500 
 24 C        6.9660     0.0330    -0.3040 C.3   1 <1>   0.0400 
 25 H        0.6500    -2.5160     0.0940 H     1 <1>   0.3700 
 26 H       -1.3310    -2.6510    -1.0930 H     1 <1>   0.0800 
 27 H       -2.0460    -1.2060    -1.7260 H     1 <1>   0.0800 
 28 H       -1.6400    -1.6920     1.2280 H     1 <1>   0.0800 
 29 H        2.8530    -3.2000     0.1480 H     1 <1>   0.1500 
 30 H        1.8510     0.9030    -0.0260 H     1 <1>   0.1500 
 31 H       -3.3620     0.3380    -0.2090 H     1 <1>   0.0800 
 32 H       -1.9120     0.6710     0.7030 H     1 <1>   0.0800 
 33 H       -3.3360     0.0770     1.5160 H     1 <1>   0.0800 
 34 H       -2.8260    -3.4380     2.1740 H     1 <1>   0.1500 
 35 H       -4.4190    -1.5710    -1.3240 H     1 <1>   0.1500 
 36 H       -4.7180    -4.9840     2.2000 H     1 <1>   0.1500 
 37 H       -6.3040    -3.1240    -1.2860 H     1 <1>   0.1500 
 38 H        6.0550    -4.7060     0.9600 H     1 <1>   0.0800 
 39 H        4.7320    -4.5050    -0.1820 H     1 <1>   0.0800 
 40 H        4.4470    -4.3160     1.5610 H     1 <1>   0.0800 
 41 H        4.0110     3.7800     0.2370 H     1 <1>   0.0800 
 42 H        2.6690     2.8570     0.9020 H     1 <1>   0.0800 
 43 H        3.0530     2.7550    -0.8260 H     1 <1>   0.0800 
 44 H       -6.4620    -4.8370     0.4730 H     1 <1>   0.1500 
 45 H        7.9570     0.2730     0.0340 H     1 <1>   0.0800 
 46 H        6.5580     0.8520    -0.8680 H     1 <1>   0.0800 
 47 H        6.9830    -0.8650    -0.8970 H     1 <1>   0.0800 
@<TRIPOS>BOND
  1   1   2  2   
  2   2   3  am  
  3   2   4  1   
  4   3   5  1   
  5   3  25  1   
  6   4   6  1   
  7   4  26  1   
  8   4  27  1   
  9   5   7  ar  
 10   5   8  ar  
 11   6   9  1   
 12   6  10  1   
 13   6  28  1   
 14   7  11  ar  
 15   7  29  1   
 16   8  12  ar  
 17   8  30  1   
 18   9  13  ar  
 19   9  14  ar  
 20  10  31  1   
 21  10  32  1   
 22  10  33  1   
 23  11  15  1   
 24  11  16  ar  
 25  12  16  ar  
 26  12  17  1   
 27  13  18  ar  
 28  13  34  1   
 29  14  19  ar  
 30  14  35  1   
 31  15  20  1   
 32  16  21  1   
 33  17  22  1   
 34  18  23  ar  
 35  18  36  1   
 36  19  23  ar  
 37  19  37  1   
 38  20  38  1   
 39  20  39  1   
 40  20  40  1   
 41  21  24  1   
 42  22  41  1   
 43  22  42  1   
 44  22  43  1   
 45  23  44  1   
 46  24  45  1   
 47  24  46  1   
 48  24  47  1   
@<TRIPOS>SUBSTRUCTURE
  1 ****   3 GROUP 4 **** **** 0

# MOE 2024.06 (io_trps.svl 2023.06)
