@<TRIPOS>MOLECULE
NONAME
29 29 1 0 0 
SMALL
USER_CHARGES


@<TRIPOS>ATOM
  1 CL       1.1210     1.0610    -1.9020 Cl    1 <1>  -0.1770 
  2 C        0.6160     2.2110    -0.6850 C.ar  1 <1>   0.1770 
  3 C        1.5110     2.6850     0.2610 C.ar  1 <1>   0.1900 
  4 C       -0.6940     2.6510    -0.6720 C.ar  1 <1>  -0.1500 
  5 F        2.7540     2.2730     0.2530 F     1 <1>  -0.1900 
  6 C        1.1220     3.5940     1.2270 C.ar  1 <1>  -0.1500 
  7 C       -1.1080     3.5720     0.2880 C.ar  1 <1>   0.1990 
  8 C       -0.1930     4.0320     1.2320 C.ar  1 <1>  -0.1500 
  9 N       -2.4160     4.0380     0.3310 N.am  1 <1>  -0.6930 
 10 S       -3.0800     4.9680    -0.9710 S.o2  1 <1>   1.3330 
 11 C       -3.4140     3.1750     1.0400 C.3   1 <1>   0.2570 
 12 O       -4.3620     5.4430    -0.5140 O.2   1 <1>  -0.6500 
 13 O       -2.9560     4.1770    -2.1690 O.2   1 <1>  -0.6500 
 14 C       -1.9710     6.3580    -1.0490 C.3   1 <1>  -0.1350 
 15 C       -3.9650     2.0310     0.1870 C.2   1 <1>   0.6590 
 16 O       -3.4330     0.9490     0.1660 O.2   1 <1>  -0.5700 
 17 O       -5.0530     2.2950    -0.5250 O.3   1 <1>  -0.4300 
 18 C       -5.6000     1.3600    -1.4290 C.3   1 <1>   0.0400 
 19 H       -1.3870     2.2750    -1.4040 H     1 <1>   0.1500 
 20 H        1.8340     3.9460     1.9530 H     1 <1>   0.1500 
 21 H       -0.5200     4.7370     1.9760 H     1 <1>   0.1500 
 22 H       -4.2370     3.7800     1.3770 H     1 <1>   0.0800 
 23 H       -2.9480     2.7450     1.9080 H     1 <1>   0.0800 
 24 H       -1.9570     6.8740    -0.1090 H     1 <1>   0.0800 
 25 H       -2.2940     7.0400    -1.8110 H     1 <1>   0.0800 
 26 H       -0.9770     6.0290    -1.2820 H     1 <1>   0.0800 
 27 H       -6.4720     1.7960    -1.8830 H     1 <1>   0.0800 
 28 H       -5.8670     0.4670    -0.8910 H     1 <1>   0.0800 
 29 H       -4.8640     1.1370    -2.1820 H     1 <1>   0.0800 
@<TRIPOS>BOND
  1   1   2  1   
  2   2   3  ar  
  3   2   4  ar  
  4   3   5  1   
  5   3   6  ar  
  6   4   7  ar  
  7   4  19  1   
  8   6   8  ar  
  9   6  20  1   
 10   7   8  ar  
 11   7   9  1   
 12   8  21  1   
 13   9  10  am  
 14   9  11  1   
 15  10  12  2   
 16  10  13  2   
 17  10  14  1   
 18  11  15  1   
 19  11  22  1   
 20  11  23  1   
 21  14  24  1   
 22  14  25  1   
 23  14  26  1   
 24  15  16  2   
 25  15  17  1   
 26  17  18  1   
 27  18  27  1   
 28  18  28  1   
 29  18  29  1   
@<TRIPOS>SUBSTRUCTURE
  1 ****   7 GROUP 4 **** **** 0

# MOE 2024.06 (io_trps.svl 2023.06)
