@<TRIPOS>MOLECULE
NONAME
42 45 1 0 0 
SMALL
USER_CHARGES


@<TRIPOS>ATOM
  1 CL       0.8060     1.0710    -2.5740 Cl    1 <1>  -0.1770 
  2 C        0.4250     2.4090    -1.5220 C.ar  1 <1>   0.1770 
  3 C       -0.6380     2.3020    -0.6460 C.ar  1 <1>  -0.1500 
  4 C        1.1910     3.5580    -1.5820 C.ar  1 <1>  -0.1500 
  5 C       -0.9380     3.3660     0.1870 C.ar  1 <1>  -0.1500 
  6 C        0.8870     4.6200    -0.7460 C.ar  1 <1>  -0.1500 
  7 C       -0.1790     4.5280     0.1410 C.ar  1 <1>  -0.1430 
  8 C       -0.5230     5.6900     1.0610 C.3   1 <1>   0.2840 
  9 N       -1.7100     6.4010     0.5370 N.am  1 <1>  -0.4200 
 10 C       -2.9560     6.1920     1.0760 C.2   1 <1>   0.7150 
 11 C       -1.5660     7.2540    -0.5380 C.2   1 <1>   0.4500 
 12 O       -3.1020     5.4190     2.0130 O.2   1 <1>  -0.5700 
 13 C       -4.0280     6.9140     0.4890 C.2   1 <1>  -0.2370 
 14 N       -2.5150     7.9160    -1.0860 N.2   1 <1>  -0.5750 
 15 N       -5.3730     6.9620     0.7660 N.pl3 1 <1>   0.0480 
 16 C       -3.7750     7.7470    -0.5650 C.2   1 <1>   0.1250 
 17 C       -5.9400     7.8210    -0.1220 C.2   1 <1>  -0.3320 
 18 C       -6.1040     6.2190     1.8230 C.3   1 <1>   0.0960 
 19 C       -4.9840     8.3300    -0.9620 C.2   1 <1>   0.0190 
 20 C       -7.4310     8.1240    -0.1410 C.3   1 <1>   0.0200 
 21 C       -7.1230     5.2420     1.2190 C.3   1 <1>  -0.1600 
 22 C       -5.1150     9.2600    -2.0450 C.1   1 <1>   0.5380 
 23 C       -8.2510     6.8670    -0.4560 C.3   1 <1>  -0.1600 
 24 C       -8.4200     5.9120     0.7370 C.3   1 <1>  -0.1600 
 25 N       -5.2720    10.0060    -2.8960 N.1   1 <1>  -0.5570 
 26 H       -1.2200     1.3980    -0.6180 H     1 <1>   0.1500 
 27 H        2.0120     3.6140    -2.2740 H     1 <1>   0.1500 
 28 H       -1.7680     3.2870     0.8710 H     1 <1>   0.1500 
 29 H        1.4860     5.5130    -0.7950 H     1 <1>   0.1500 
 30 H        0.3040     6.3750     1.1190 H     1 <1>   0.0800 
 31 H       -0.7080     5.3220     2.0560 H     1 <1>   0.0800 
 32 H       -0.5680     7.3570    -0.9280 H     1 <1>   0.0600 
 33 H       -6.5990     6.9250     2.4640 H     1 <1>   0.0800 
 34 H       -5.4070     5.6690     2.4230 H     1 <1>   0.0800 
 35 H       -7.6330     8.8610    -0.9000 H     1 <1>   0.0800 
 36 H       -7.7370     8.5460     0.8010 H     1 <1>   0.0800 
 37 H       -7.3870     4.5330     1.9840 H     1 <1>   0.0800 
 38 H       -6.6640     4.6890     0.4170 H     1 <1>   0.0800 
 39 H       -7.8030     6.3450    -1.2840 H     1 <1>   0.0800 
 40 H       -9.2320     7.1810    -0.7690 H     1 <1>   0.0800 
 41 H       -8.8770     6.4410     1.5570 H     1 <1>   0.0800 
 42 H       -9.1050     5.1350     0.4440 H     1 <1>   0.0800 
@<TRIPOS>BOND
  1   1   2  1   
  2   2   3  ar  
  3   2   4  ar  
  4   3   5  ar  
  5   3  26  1   
  6   4   6  ar  
  7   4  27  1   
  8   5   7  ar  
  9   5  28  1   
 10   6   7  ar  
 11   6  29  1   
 12   7   8  1   
 13   8   9  1   
 14   8  30  1   
 15   8  31  1   
 16   9  10  am  
 17   9  11  1   
 18  10  12  2   
 19  10  13  1   
 20  11  14  2   
 21  11  32  1   
 22  13  15  1   
 23  13  16  2   
 24  14  16  1   
 25  15  17  1   
 26  15  18  1   
 27  16  19  1   
 28  17  19  2   
 29  17  20  1   
 30  18  21  1   
 31  18  33  1   
 32  18  34  1   
 33  19  22  1   
 34  20  23  1   
 35  20  35  1   
 36  20  36  1   
 37  21  24  1   
 38  21  37  1   
 39  21  38  1   
 40  22  25  3   
 41  23  24  1   
 42  23  39  1   
 43  23  40  1   
 44  24  41  1   
 45  24  42  1   
@<TRIPOS>SUBSTRUCTURE
  1 ****  13 GROUP 4 **** **** 0

# MOE 2024.06 (io_trps.svl 2023.06)
