@<TRIPOS>MOLECULE
NONAME
46 48 1 0 0 
SMALL
USER_CHARGES


@<TRIPOS>ATOM
  1 F       -2.6490     0.0380     0.0640 F     1 <1>  -0.1900 
  2 C       -3.1770    -0.9800     0.6890 C.ar  1 <1>   0.1900 
  3 C       -2.8070    -2.2560     0.3080 C.ar  1 <1>  -0.1500 
  4 C       -4.0840    -0.7420     1.7020 C.ar  1 <1>  -0.1500 
  5 C       -3.3700    -3.3410     0.9640 C.ar  1 <1>  -0.1440 
  6 C       -4.6410    -1.8280     2.3570 C.ar  1 <1>  -0.1500 
  7 C       -4.2840    -3.1170     1.9870 C.ar  1 <1>  -0.1500 
  8 C       -2.9950    -4.7630     0.5710 C.3   1 <1>   0.2540 
  9 N       -4.1670    -5.4800     0.0310 N.3   1 <1>  -0.8100 
 10 C       -4.7090    -4.8370    -1.1940 C.3   1 <1>   0.1100 
 11 C       -3.8590    -6.9080    -0.2220 C.3   1 <1>   0.1100 
 12 C       -5.9590    -5.5680    -1.7400 C.3   1 <1>   0.3430 
 13 C       -5.0650    -7.6820    -0.8120 C.3   1 <1>   0.3430 
 14 N       -6.2680    -6.7920    -0.9350 N.4   1 <1>  -0.9590 
 15 C       -7.5080    -7.4980    -1.3490 C.3   1 <1>   0.4860 
 16 C       -7.7640    -8.6430    -0.3910 C.ar  1 <1>  -0.1430 
 17 C       -8.1660    -8.3910     0.9140 C.ar  1 <1>  -0.1500 
 18 C       -7.5880    -9.9540    -0.8090 C.ar  1 <1>  -0.1500 
 19 C       -8.3780    -9.4340     1.7990 C.ar  1 <1>  -0.1430 
 20 C       -7.8020   -10.9980     0.0720 C.ar  1 <1>  -0.1500 
 21 C       -8.1940   -10.7380     1.3720 C.ar  1 <1>  -0.1500 
 22 C       -8.8180    -9.1580     3.2260 C.3   1 <1>  -0.0970 
 23 H       -2.0930    -2.3820    -0.4860 H     1 <1>   0.1500 
 24 H       -4.3440     0.2660     1.9700 H     1 <1>   0.1500 
 25 H       -5.3490    -1.6710     3.1530 H     1 <1>   0.1500 
 26 H       -4.7220    -3.9550     2.5000 H     1 <1>   0.1500 
 27 H       -2.6340    -5.2740     1.4480 H     1 <1>   0.0800 
 28 H       -2.2010    -4.7500    -0.1580 H     1 <1>   0.0800 
 29 H       -3.9510    -4.8080    -1.9580 H     1 <1>   0.0800 
 30 H       -4.9850    -3.8180    -0.9790 H     1 <1>   0.0800 
 31 H       -3.5710    -7.3780     0.7030 H     1 <1>   0.0800 
 32 H       -3.0250    -6.9910    -0.8990 H     1 <1>   0.0800 
 33 H       -5.7890    -5.8340    -2.7700 H     1 <1>   0.0800 
 34 H       -6.7950    -4.8890    -1.7100 H     1 <1>   0.0800 
 35 H       -5.2870    -8.5170    -0.1680 H     1 <1>   0.0800 
 36 H       -4.7970    -8.0760    -1.7780 H     1 <1>   0.0800 
 37 H       -6.3950    -6.4440     0.0270 H     1 <1>   0.4500 
 38 H       -7.4010    -7.8790    -2.3510 H     1 <1>   0.0800 
 39 H       -8.3460    -6.8210    -1.3270 H     1 <1>   0.0800 
 40 H       -8.3210    -7.3810     1.2530 H     1 <1>   0.1500 
 41 H       -7.2870   -10.1810    -1.8180 H     1 <1>   0.1500 
 42 H       -7.6680   -12.0170    -0.2510 H     1 <1>   0.1500 
 43 H       -8.3600   -11.5580     2.0500 H     1 <1>   0.1500 
 44 H       -8.4700    -8.1950     3.5540 H     1 <1>   0.0800 
 45 H       -8.4230    -9.9040     3.8920 H     1 <1>   0.0800 
 46 H       -9.8920    -9.1770     3.2860 H     1 <1>   0.0800 
@<TRIPOS>BOND
  1   1   2  1   
  2   2   3  ar  
  3   2   4  ar  
  4   3   5  ar  
  5   3  23  1   
  6   4   6  ar  
  7   4  24  1   
  8   5   7  ar  
  9   5   8  1   
 10   6   7  ar  
 11   6  25  1   
 12   7  26  1   
 13   8   9  1   
 14   8  27  1   
 15   8  28  1   
 16   9  10  1   
 17   9  11  1   
 18  10  12  1   
 19  10  29  1   
 20  10  30  1   
 21  11  13  1   
 22  11  31  1   
 23  11  32  1   
 24  12  14  1   
 25  12  33  1   
 26  12  34  1   
 27  13  14  1   
 28  13  35  1   
 29  13  36  1   
 30  14  15  1   
 31  14  37  1   
 32  15  16  1   
 33  15  38  1   
 34  15  39  1   
 35  16  17  ar  
 36  16  18  ar  
 37  17  19  ar  
 38  17  40  1   
 39  18  20  ar  
 40  18  41  1   
 41  19  21  ar  
 42  19  22  1   
 43  20  21  ar  
 44  20  42  1   
 45  21  43  1   
 46  22  44  1   
 47  22  45  1   
 48  22  46  1   
@<TRIPOS>SUBSTRUCTURE
  1 ****   9 GROUP 4 **** **** 0

# MOE 2024.06 (io_trps.svl 2023.06)
