@<TRIPOS>MOLECULE
NONAME
40 42 1 0 0 
SMALL
USER_CHARGES


@<TRIPOS>ATOM
  1 BR       1.3130    -1.0420    -2.7940 Br    1 <1>  -0.1110 
  2 C       -0.1450    -0.7820    -1.5550 C.ar  1 <1>   0.1110 
  3 C       -0.2700    -1.6290    -0.4540 C.ar  1 <1>   0.1170 
  4 C       -1.0270     0.2470    -1.8190 C.ar  1 <1>  -0.1500 
  5 N        0.6730    -2.6500    -0.2260 N.am  1 <1>  -0.5470 
  6 C       -1.3470    -1.3960     0.3960 C.ar  1 <1>  -0.1500 
  7 C       -2.0890     0.4530    -0.9550 C.ar  1 <1>  -0.1500 
  8 C        0.5520    -3.8420     0.4290 C.2   1 <1>   0.5690 
  9 C       -2.2450    -0.3700     0.1490 C.ar  1 <1>  -0.1500 
 10 O       -0.4570    -4.2100     0.9750 O.2   1 <1>  -0.5700 
 11 C        1.7560    -4.7570     0.4810 C.3   1 <1>  -0.0990 
 12 C        2.7800    -4.2520     1.5060 C.3   1 <1>   0.1400 
 13 N        4.0920    -3.9640     0.8740 N.am  1 <1>  -0.4200 
 14 C        4.3040    -3.0490    -0.1170 C.2   1 <1>   0.5690 
 15 C        5.2720    -4.5290     1.2690 C.2   1 <1>   0.5690 
 16 O        3.4760    -2.3120    -0.5880 O.2   1 <1>  -0.5700 
 17 C        5.7360    -3.1470    -0.5870 C.3   1 <1>  -0.0190 
 18 O        5.4010    -5.4510     2.0320 O.2   1 <1>  -0.5700 
 19 C        6.4180    -3.7810     0.6270 C.3   1 <1>  -0.0190 
 20 C        6.5330    -1.9230    -1.0460 C.3   1 <1>  -0.0220 
 21 C        7.7080    -4.4780     0.1870 C.3   1 <1>  -0.0220 
 22 C        7.9970    -2.3520    -1.1790 C.2   1 <1>  -0.2880 
 23 C        8.5060    -3.4800    -0.6560 C.2   1 <1>  -0.2880 
 24 H       -0.8880     0.8730    -2.6820 H     1 <1>   0.1500 
 25 H        1.6020    -2.4610    -0.6300 H     1 <1>   0.3700 
 26 H       -1.4900    -2.0160     1.2620 H     1 <1>   0.1500 
 27 H       -2.7910     1.2490    -1.1400 H     1 <1>   0.1500 
 28 H       -3.0710    -0.2120     0.8210 H     1 <1>   0.1500 
 29 H        2.1790    -4.8440    -0.5030 H     1 <1>   0.0800 
 30 H        1.4200    -5.7340     0.7780 H     1 <1>   0.0800 
 31 H        2.9100    -4.9980     2.2730 H     1 <1>   0.0800 
 32 H        2.4240    -3.3550     1.9840 H     1 <1>   0.0800 
 33 H        5.7330    -3.8570    -1.3960 H     1 <1>   0.0800 
 34 H        6.6880    -3.0040     1.3220 H     1 <1>   0.0800 
 35 H        6.4470    -1.1170    -0.3380 H     1 <1>   0.0800 
 36 H        6.1540    -1.5870    -1.9960 H     1 <1>   0.0800 
 37 H        7.4930    -5.3610    -0.3890 H     1 <1>   0.0800 
 38 H        8.2720    -4.7660     1.0580 H     1 <1>   0.0800 
 39 H        8.5920    -1.6530    -1.7460 H     1 <1>   0.1500 
 40 H        9.5360    -3.7700    -0.7900 H     1 <1>   0.1500 
@<TRIPOS>BOND
  1   1   2  1   
  2   2   3  ar  
  3   2   4  ar  
  4   3   5  1   
  5   3   6  ar  
  6   4   7  ar  
  7   4  24  1   
  8   5   8  am  
  9   5  25  1   
 10   6   9  ar  
 11   6  26  1   
 12   7   9  ar  
 13   7  27  1   
 14   8  10  2   
 15   8  11  1   
 16   9  28  1   
 17  11  12  1   
 18  11  29  1   
 19  11  30  1   
 20  12  13  1   
 21  12  31  1   
 22  12  32  1   
 23  13  14  am  
 24  13  15  am  
 25  14  16  2   
 26  14  17  1   
 27  15  18  2   
 28  15  19  1   
 29  17  19  1   
 30  17  20  1   
 31  17  33  1   
 32  19  21  1   
 33  19  34  1   
 34  20  22  1   
 35  20  35  1   
 36  20  36  1   
 37  21  23  1   
 38  21  37  1   
 39  21  38  1   
 40  22  23  2   
 41  22  39  1   
 42  23  40  1   
@<TRIPOS>SUBSTRUCTURE
  1 ****  16 GROUP 4 **** **** 0

# MOE 2024.06 (io_trps.svl 2023.06)
