@<TRIPOS>MOLECULE
NONAME
60 63 1 0 0 
SMALL
USER_CHARGES


@<TRIPOS>ATOM
  1 O        0.2130     1.1080    -0.1520 O.2   1 <1>  -0.5740 
  2 C        0.8000     2.0900     0.2540 C.2   1 <1>   0.6870 
  3 N        0.0880     3.1670     0.7690 N.am  1 <1>  -0.4250 
  4 N        2.1870     2.1390     0.1880 N.am  1 <1>  -0.4400 
  5 C        0.7260     4.3370     1.1560 C.2   1 <1>   0.7000 
  6 C       -1.4010     3.0640     0.8890 C.3   1 <1>   0.1340 
  7 C        2.8180     3.3030     0.5830 C.2   1 <1>   0.4220 
  8 C        2.9640     0.9730    -0.3310 C.3   1 <1>   0.0540 
  9 O        0.0880     5.2940     1.5580 O.2   1 <1>  -0.5740 
 10 C        2.1490     4.3840     1.0550 C.2   1 <1>   0.2720 
 11 C       -2.0790     3.5140    -0.4100 C.3   1 <1>   0.1040 
 12 N        4.1570     3.5700     0.5610 N.pl3 1 <1>  -0.7030 
 13 N        3.1260     5.3550     1.3370 N.pl3 1 <1>  -0.6320 
 14 N       -3.5390     3.4250    -0.2920 N.3   1 <1>  -0.8120 
 15 C        4.2960     4.8190     1.0230 C.cat 1 <1>   1.0690 
 16 C        3.3810     6.6380     1.7780 C.2   1 <1>   0.2350 
 17 C       -4.0260     2.0350    -0.4410 C.3   1 <1>   0.1040 
 18 C       -4.2000     4.2730    -1.3040 C.3   1 <1>   0.1040 
 19 N        5.3070     5.6650     1.2370 N.pl3 1 <1>  -0.5710 
 20 C        4.7220     6.8290     1.7160 C.2   1 <1>   0.1590 
 21 C        2.2480     7.5450     2.2160 C.3   1 <1>  -0.1080 
 22 C       -5.5640     1.9730    -0.3920 C.3   1 <1>   0.1140 
 23 C       -5.7330     4.1470    -1.2240 C.3   1 <1>   0.1140 
 24 C        6.7460     5.4170     0.9780 C.3   1 <1>   0.1620 
 25 C        5.5500     8.0520     2.0740 C.3   1 <1>  -0.1080 
 26 O       -6.1240     2.8110    -1.3620 O.3   1 <1>  -0.5640 
 27 C        7.0580     5.7080    -0.4900 C.3   1 <1>  -0.1660 
 28 C        8.5350     5.4400    -0.8010 C.3   1 <1>  -0.1660 
 29 C        8.8430     5.7220    -2.2730 C.3   1 <1>  -0.2450 
 30 H       -1.7520     3.6800     1.6990 H     1 <1>   0.0740 
 31 H       -1.6720     2.0470     1.1100 H     1 <1>   0.0740 
 32 H        2.4060     0.0600    -0.2010 H     1 <1>   0.0740 
 33 H        3.8930     0.8700     0.2010 H     1 <1>   0.0740 
 34 H        3.1610     1.1060    -1.3810 H     1 <1>   0.0740 
 35 H       -1.7430     2.9130    -1.2390 H     1 <1>   0.0740 
 36 H       -1.8060     4.5400    -0.5910 H     1 <1>   0.0740 
 37 H        4.9150     2.9780     0.2320 H     1 <1>   0.4460 
 38 H       -3.6330     1.4230     0.3510 H     1 <1>   0.0740 
 39 H       -3.6920     1.6250    -1.3790 H     1 <1>   0.0740 
 40 H       -3.8780     3.9890    -2.2910 H     1 <1>   0.0740 
 41 H       -3.9280     5.3010    -1.1410 H     1 <1>   0.0740 
 42 H        1.7120     7.0960     3.0340 H     1 <1>   0.0740 
 43 H        1.5620     7.6980     1.4020 H     1 <1>   0.0740 
 44 H        2.6180     8.5010     2.5350 H     1 <1>   0.0740 
 45 H       -5.9220     2.2790     0.5760 H     1 <1>   0.0740 
 46 H       -5.9030     0.9720    -0.5880 H     1 <1>   0.0740 
 47 H       -6.1950     4.7080    -2.0150 H     1 <1>   0.0740 
 48 H       -6.0920     4.5150    -0.2780 H     1 <1>   0.0740 
 49 H        6.9840     4.3920     1.2080 H     1 <1>   0.0740 
 50 H        7.3470     6.0450     1.6130 H     1 <1>   0.0740 
 51 H        6.1100     8.3840     1.2190 H     1 <1>   0.0740 
 52 H        6.2360     7.8150     2.8680 H     1 <1>   0.0740 
 53 H        4.9220     8.8600     2.4010 H     1 <1>   0.0740 
 54 H        6.8380     6.7390    -0.7060 H     1 <1>   0.0740 
 55 H        6.4510     5.0870    -1.1260 H     1 <1>   0.0740 
 56 H        8.7800     4.4140    -0.5830 H     1 <1>   0.0740 
 57 H        9.1580     6.0690    -0.1870 H     1 <1>   0.0740 
 58 H        8.2570     5.0880    -2.9140 H     1 <1>   0.0740 
 59 H        9.8840     5.5360    -2.4720 H     1 <1>   0.0740 
 60 H        8.6310     6.7500    -2.5140 H     1 <1>   0.0740 
@<TRIPOS>BOND
  1   1   2  2   
  2   2   3  am  
  3   2   4  am  
  4   3   5  am  
  5   3   6  1   
  6   4   7  1   
  7   4   8  1   
  8   5   9  2   
  9   5  10  1   
 10   6  11  1   
 11   6  30  1   
 12   6  31  1   
 13   7  10  2   
 14   7  12  1   
 15   8  32  1   
 16   8  33  1   
 17   8  34  1   
 18  10  13  1   
 19  11  14  1   
 20  11  35  1   
 21  11  36  1   
 22  12  15  ar  
 23  12  37  1   
 24  13  15  ar  
 25  13  16  1   
 26  14  17  1   
 27  14  18  1   
 28  15  19  ar  
 29  16  20  2   
 30  16  21  1   
 31  17  22  1   
 32  17  38  1   
 33  17  39  1   
 34  18  23  1   
 35  18  40  1   
 36  18  41  1   
 37  19  20  1   
 38  19  24  1   
 39  20  25  1   
 40  21  42  1   
 41  21  43  1   
 42  21  44  1   
 43  22  26  1   
 44  22  45  1   
 45  22  46  1   
 46  23  26  1   
 47  23  47  1   
 48  23  48  1   
 49  24  27  1   
 50  24  49  1   
 51  24  50  1   
 52  25  51  1   
 53  25  52  1   
 54  25  53  1   
 55  27  28  1   
 56  27  54  1   
 57  27  55  1   
 58  28  29  1   
 59  28  56  1   
 60  28  57  1   
 61  29  58  1   
 62  29  59  1   
 63  29  60  1   
@<TRIPOS>SUBSTRUCTURE
  1 ****  10 GROUP 4 **** **** 0

# MOE 2024.06 (io_trps.svl 2023.06)
