@<TRIPOS>MOLECULE
NONAME
34 34 1 0 0 
SMALL
USER_CHARGES


@<TRIPOS>ATOM
  1 O       -1.2380     2.6650     1.2830 O.2   1 <1>  -0.5700 
  2 C       -0.8130     2.3300     0.1910 C.2   1 <1>   0.7200 
  3 O        0.2170     1.4720     0.1500 O.3   1 <1>  -0.4300 
  4 C       -1.3580     2.8050    -1.0870 C.2   1 <1>   0.6300 
  5 C        0.8010     0.9530     1.3230 C.3   1 <1>   0.1200 
  6 O       -0.6550     3.2870    -1.9590 O.2   1 <1>  -0.5700 
  7 N       -2.6900     2.7200    -1.3980 N.am  1 <1>  -0.5470 
  8 C        1.9170    -0.0010     0.9110 C.3   1 <1>  -0.2400 
  9 C       -3.6660     1.9720    -0.7330 C.ar  1 <1>   0.1170 
 10 C       -3.7850     0.6020    -0.9740 C.ar  1 <1>  -0.1440 
 11 C       -4.5270     2.5890     0.1750 C.ar  1 <1>  -0.1430 
 12 C       -4.7550    -0.1300    -0.3100 C.ar  1 <1>  -0.1500 
 13 C       -2.8670    -0.1150    -1.9580 C.3   1 <1>  -0.0970 
 14 C       -5.4890     1.8380     0.8280 C.ar  1 <1>  -0.1500 
 15 C       -4.4210     4.0800     0.4720 C.3   1 <1>  -0.0970 
 16 C       -5.6090     0.4800     0.5920 C.ar  1 <1>  -0.1430 
 17 C       -6.6680    -0.3310     1.3160 C.3   1 <1>  -0.0970 
 18 H        0.0400     0.4390     1.8860 H     1 <1>   0.0800 
 19 H        1.1890     1.7740     1.9040 H     1 <1>   0.0800 
 20 H       -2.9300     3.0960    -2.3140 H     1 <1>   0.3700 
 21 H        1.5170    -0.8090     0.3250 H     1 <1>   0.0800 
 22 H        2.3850    -0.4120     1.7870 H     1 <1>   0.0800 
 23 H        2.6610     0.5240     0.3390 H     1 <1>   0.0800 
 24 H       -4.8500    -1.1850    -0.4920 H     1 <1>   0.1500 
 25 H       -2.8630     0.3950    -2.9040 H     1 <1>   0.0800 
 26 H       -3.1940    -1.1250    -2.1250 H     1 <1>   0.0800 
 27 H       -1.8640    -0.1440    -1.5720 H     1 <1>   0.0800 
 28 H       -6.1530     2.3110     1.5300 H     1 <1>   0.1500 
 29 H       -3.4740     4.2930     0.9340 H     1 <1>   0.0800 
 30 H       -5.2010     4.3980     1.1390 H     1 <1>   0.0800 
 31 H       -4.5010     4.6460    -0.4380 H     1 <1>   0.0800 
 32 H       -6.3520    -1.3530     1.4250 H     1 <1>   0.0800 
 33 H       -7.5870    -0.3080     0.7580 H     1 <1>   0.0800 
 34 H       -6.8460     0.0740     2.2960 H     1 <1>   0.0800 
@<TRIPOS>BOND
  1   1   2  2   
  2   2   3  1   
  3   2   4  1   
  4   3   5  1   
  5   4   6  2   
  6   4   7  am  
  7   5   8  1   
  8   5  18  1   
  9   5  19  1   
 10   7   9  1   
 11   7  20  1   
 12   8  21  1   
 13   8  22  1   
 14   8  23  1   
 15   9  10  ar  
 16   9  11  ar  
 17  10  12  ar  
 18  10  13  1   
 19  11  14  ar  
 20  11  15  1   
 21  12  16  ar  
 22  12  24  1   
 23  13  25  1   
 24  13  26  1   
 25  13  27  1   
 26  14  16  ar  
 27  14  28  1   
 28  15  29  1   
 29  15  30  1   
 30  15  31  1   
 31  16  17  1   
 32  17  32  1   
 33  17  33  1   
 34  17  34  1   
@<TRIPOS>SUBSTRUCTURE
  1 ****   9 GROUP 4 **** **** 0

# MOE 2024.06 (io_trps.svl 2023.06)
