@<TRIPOS>MOLECULE
NONAME
30 31 1 0 0 
SMALL
USER_CHARGES


@<TRIPOS>ATOM
  1 O       -0.0040     2.9400     1.5950 O.2   1 <1>  -0.5700 
  2 C        0.1070     2.8150     0.3810 C.2   1 <1>   0.5440 
  3 N        1.3620     2.7820    -0.1790 N.am  1 <1>  -0.3510 
  4 C       -1.0810     2.7400    -0.4400 C.ar  1 <1>   0.0860 
  5 N        1.6960     2.4900    -1.6000 N.3   1 <1>  -0.5490 
  6 C        2.5550     3.0780     0.6160 C.3   1 <1>   0.5000 
  7 C       -1.9060     1.6100    -0.4610 C.ar  1 <1>   0.0820 
  8 C       -1.4460     3.8190    -1.2460 C.ar  1 <1>  -0.1500 
  9 C        3.1910     2.5780    -1.6320 C.3   1 <1>   0.1100 
 10 C        1.3410     1.0580    -1.8320 C.3   1 <1>   0.0300 
 11 O        2.7020     4.4400     0.5550 O.3   1 <1>  -0.6800 
 12 C        3.6720     2.4560    -0.1890 C.3   1 <1>  -0.1600 
 13 O       -1.5920     0.5220     0.2610 O.3   1 <1>  -0.5320 
 14 C       -3.0560     1.5750    -1.2350 C.ar  1 <1>  -0.1500 
 15 C       -2.5880     3.7850    -2.0250 C.ar  1 <1>  -0.1500 
 16 C       -3.3980     2.6620    -2.0170 C.ar  1 <1>  -0.1500 
 17 H        2.4910     2.7500     1.6400 H     1 <1>   0.0800 
 18 H       -0.8180     4.6920    -1.2540 H     1 <1>   0.1500 
 19 H        3.4610     3.5430    -2.0260 H     1 <1>   0.0800 
 20 H        3.6330     1.8210    -2.2580 H     1 <1>   0.0800 
 21 H        0.2810     0.9710    -1.9830 H     1 <1>   0.0800 
 22 H        1.6230     0.4490    -0.9890 H     1 <1>   0.0800 
 23 H        1.8290     0.6890    -2.7170 H     1 <1>   0.0800 
 24 H        2.2630     4.7070    -0.2730 H     1 <1>   0.4000 
 25 H        3.7600     1.4200     0.0770 H     1 <1>   0.0800 
 26 H        4.6170     2.9390    -0.0190 H     1 <1>   0.0800 
 27 H       -2.2820    -0.1640     0.2710 H     1 <1>   0.4500 
 28 H       -3.6860     0.7040    -1.2370 H     1 <1>   0.1500 
 29 H       -2.8480     4.6320    -2.6360 H     1 <1>   0.1500 
 30 H       -4.2890     2.6390    -2.6210 H     1 <1>   0.1500 
@<TRIPOS>BOND
  1   1   2  2   
  2   2   3  am  
  3   2   4  1   
  4   3   5  1   
  5   3   6  1   
  6   4   7  ar  
  7   4   8  ar  
  8   5   9  1   
  9   5  10  1   
 10   6  11  1   
 11   6  12  1   
 12   6  17  1   
 13   7  13  1   
 14   7  14  ar  
 15   8  15  ar  
 16   8  18  1   
 17   9  12  1   
 18   9  19  1   
 19   9  20  1   
 20  10  21  1   
 21  10  22  1   
 22  10  23  1   
 23  11  24  1   
 24  12  25  1   
 25  12  26  1   
 26  13  27  1   
 27  14  16  ar  
 28  14  28  1   
 29  15  16  ar  
 30  15  29  1   
 31  16  30  1   
@<TRIPOS>SUBSTRUCTURE
  1 ****   2 GROUP 4 **** **** 0

# MOE 2024.06 (io_trps.svl 2023.06)
