@<TRIPOS>MOLECULE
NONAME
42 44 1 0 0 
SMALL
USER_CHARGES


@<TRIPOS>ATOM
  1 F       -0.8560     0.3610    -1.2850 F     1 <1>  -0.3400 
  2 C       -0.9090     1.4020    -0.4550 C.3   1 <1>   1.0200 
  3 F        0.3420     1.5760    -0.0250 F     1 <1>  -0.3400 
  4 F       -1.1590     2.4560    -1.2320 F     1 <1>  -0.3400 
  5 C       -1.9480     1.2400     0.7040 C.3   1 <1>   0.8600 
  6 F       -1.8210     2.2120     1.6100 F     1 <1>  -0.3400 
  7 F       -1.6560     0.1500     1.4250 F     1 <1>  -0.3400 
  8 C       -3.4120     1.1530     0.2390 C.2   1 <1>   0.0060 
  9 N       -3.8900     0.0160    -0.1500 N.2   1 <1>  -0.3380 
 10 N       -4.3620     2.1210     0.1820 N.pl3 1 <1>   0.0480 
 11 N       -5.1700     0.1820    -0.4170 N.2   1 <1>  -0.3380 
 12 C       -5.4600     1.4230    -0.1830 C.2   1 <1>   0.1340 
 13 C       -4.4550     3.6080     0.4800 C.3   1 <1>   0.2560 
 14 C       -6.7800     2.0010    -0.2380 C.ar  1 <1>   0.0530 
 15 C       -5.6520     4.2260    -0.2920 C.3   1 <1>  -0.0160 
 16 C       -4.6750     3.7940     1.9910 C.3   1 <1>  -0.2400 
 17 C       -3.2190     4.4090     0.0240 C.3   1 <1>  -0.2400 
 18 C       -6.9160     3.3860    -0.2500 C.ar  1 <1>  -0.1440 
 19 C       -7.9370     1.2250    -0.2440 C.ar  1 <1>  -0.1500 
 20 C       -8.1680     3.9780    -0.2610 C.ar  1 <1>  -0.1500 
 21 C       -9.1910     1.8060    -0.2410 C.ar  1 <1>   0.0830 
 22 C       -9.3120     3.1990    -0.2690 C.ar  1 <1>   0.0830 
 23 O      -10.2650     0.9810    -0.2000 O.3   1 <1>  -0.3630 
 24 O      -10.5020     3.8450    -0.3110 O.3   1 <1>  -0.3630 
 25 C      -10.9830     0.9700     1.0130 C.3   1 <1>   0.0400 
 26 C      -11.3310     3.5920    -1.4250 C.3   1 <1>   0.0400 
 27 H       -5.3850     4.3420    -1.3290 H     1 <1>   0.0800 
 28 H       -5.8600     5.2110     0.0890 H     1 <1>   0.0800 
 29 H       -5.5760     3.2960     2.3050 H     1 <1>   0.0800 
 30 H       -4.7710     4.8380     2.2310 H     1 <1>   0.0800 
 31 H       -3.8510     3.4000     2.5560 H     1 <1>   0.0800 
 32 H       -2.9890     4.2000    -1.0050 H     1 <1>   0.0800 
 33 H       -2.3550     4.2400     0.6310 H     1 <1>   0.0800 
 34 H       -3.4240     5.4630     0.0990 H     1 <1>   0.0800 
 35 H       -7.8560     0.1530    -0.2370 H     1 <1>   0.1500 
 36 H       -8.2750     5.0480    -0.2750 H     1 <1>   0.1500 
 37 H      -11.7760     0.2490     0.9280 H     1 <1>   0.0800 
 38 H      -11.3920     1.9480     1.1930 H     1 <1>   0.0800 
 39 H      -10.3150     0.6910     1.8080 H     1 <1>   0.0800 
 40 H      -10.7470     3.6890    -2.3230 H     1 <1>   0.0800 
 41 H      -12.1270     4.3130    -1.4220 H     1 <1>   0.0800 
 42 H      -11.7380     2.6000    -1.3510 H     1 <1>   0.0800 
@<TRIPOS>BOND
  1   1   2  1   
  2   2   3  1   
  3   2   4  1   
  4   2   5  1   
  5   5   6  1   
  6   5   7  1   
  7   5   8  1   
  8   8   9  2   
  9   8  10  1   
 10   9  11  1   
 11  10  12  1   
 12  10  13  1   
 13  11  12  2   
 14  12  14  1   
 15  13  15  1   
 16  13  16  1   
 17  13  17  1   
 18  14  18  ar  
 19  14  19  ar  
 20  15  18  1   
 21  15  27  1   
 22  15  28  1   
 23  16  29  1   
 24  16  30  1   
 25  16  31  1   
 26  17  32  1   
 27  17  33  1   
 28  17  34  1   
 29  18  20  ar  
 30  19  21  ar  
 31  19  35  1   
 32  20  22  ar  
 33  20  36  1   
 34  21  22  ar  
 35  21  23  1   
 36  22  24  1   
 37  23  25  1   
 38  24  26  1   
 39  25  37  1   
 40  25  38  1   
 41  25  39  1   
 42  26  40  1   
 43  26  41  1   
 44  26  42  1   
@<TRIPOS>SUBSTRUCTURE
  1 ****  12 GROUP 4 **** **** 0

# MOE 2024.06 (io_trps.svl 2023.06)
