@<TRIPOS>MOLECULE
NONAME
43 44 1 0 0 
SMALL
USER_CHARGES


@<TRIPOS>ATOM
  1 S        0.4340     0.1250    -1.4450 S.o2  1 <1>   1.3330 
  2 O       -0.6340     1.0340    -1.7900 O.2   1 <1>  -0.6500 
  3 O        1.0190    -0.7350    -2.4460 O.2   1 <1>  -0.6500 
  4 N        1.6840     1.0300    -0.7430 N.am  1 <1>  -0.8490 
  5 C       -0.1550    -0.9140    -0.1220 C.3   1 <1>  -0.1350 
  6 C        2.8420     0.2330    -0.3190 C.3   1 <1>   0.1960 
  7 C        1.2440     2.0040     0.2580 C.3   1 <1>   0.1960 
  8 C        4.0350     1.1410     0.0090 C.3   1 <1>  -0.0190 
  9 C        2.3920     2.9590     0.6010 C.3   1 <1>  -0.1600 
 10 C        5.2080     0.2990     0.4850 C.2   1 <1>   0.5690 
 11 C        3.6460     2.2000     1.0560 C.3   1 <1>  -0.1600 
 12 O        5.0170    -0.5940     1.2760 O.2   1 <1>  -0.5700 
 13 N        6.4470     0.5760     0.0170 N.am  1 <1>  -0.7300 
 14 C        7.6690    -0.1250     0.4370 C.3   1 <1>   0.2840 
 15 C        8.8560     0.7430     0.0650 C.ar  1 <1>  -0.1440 
 16 C        9.2690     1.7600     0.9110 C.ar  1 <1>  -0.1500 
 17 C        9.5350     0.5350    -1.1260 C.ar  1 <1>  -0.1500 
 18 C       10.3490     2.5570     0.5720 C.ar  1 <1>  -0.1500 
 19 C       10.6150     1.3320    -1.4640 C.ar  1 <1>  -0.1500 
 20 C       11.0290     2.3470    -0.6160 C.ar  1 <1>  -0.1440 
 21 C       12.2120     3.2210    -0.9870 C.3   1 <1>  -0.0970 
 22 H       -0.9630    -1.5240    -0.4770 H     1 <1>   0.0800 
 23 H       -0.5140    -0.3180     0.6940 H     1 <1>   0.0800 
 24 H        0.6260    -1.5580     0.2280 H     1 <1>   0.0800 
 25 H        3.1300    -0.4400    -1.1100 H     1 <1>   0.0800 
 26 H        2.5850    -0.3540     0.5460 H     1 <1>   0.0800 
 27 H        0.9130     1.4950     1.1480 H     1 <1>   0.0800 
 28 H        0.4200     2.5800    -0.1320 H     1 <1>   0.0800 
 29 H        4.3210     1.6370    -0.9010 H     1 <1>   0.0800 
 30 H        2.0740     3.6330     1.3770 H     1 <1>   0.0800 
 31 H        2.6190     3.5490    -0.2700 H     1 <1>   0.0800 
 32 H        4.4600     2.8900     1.2000 H     1 <1>   0.0800 
 33 H        3.4500     1.7160     1.9980 H     1 <1>   0.0800 
 34 H        6.6150     1.3520    -0.6250 H     1 <1>   0.3700 
 35 H        7.7260    -1.0780    -0.0610 H     1 <1>   0.0800 
 36 H        7.6460    -0.2970     1.5000 H     1 <1>   0.0800 
 37 H        8.7500     1.9360     1.8370 H     1 <1>   0.1500 
 38 H        9.2280    -0.2490    -1.7960 H     1 <1>   0.1500 
 39 H       10.6580     3.3430     1.2390 H     1 <1>   0.1500 
 40 H       11.1330     1.1590    -2.3910 H     1 <1>   0.1500 
 41 H       11.8710     4.0800    -1.5370 H     1 <1>   0.0800 
 42 H       12.9100     2.6740    -1.5950 H     1 <1>   0.0800 
 43 H       12.7250     3.5550    -0.1030 H     1 <1>   0.0800 
@<TRIPOS>BOND
  1   1   2  2   
  2   1   3  2   
  3   1   4  am  
  4   1   5  1   
  5   4   6  1   
  6   4   7  1   
  7   5  22  1   
  8   5  23  1   
  9   5  24  1   
 10   6   8  1   
 11   6  25  1   
 12   6  26  1   
 13   7   9  1   
 14   7  27  1   
 15   7  28  1   
 16   8  10  1   
 17   8  11  1   
 18   8  29  1   
 19   9  11  1   
 20   9  30  1   
 21   9  31  1   
 22  10  12  2   
 23  10  13  am  
 24  11  32  1   
 25  11  33  1   
 26  13  14  1   
 27  13  34  1   
 28  14  15  1   
 29  14  35  1   
 30  14  36  1   
 31  15  16  ar  
 32  15  17  ar  
 33  16  18  ar  
 34  16  37  1   
 35  17  19  ar  
 36  17  38  1   
 37  18  20  ar  
 38  18  39  1   
 39  19  20  ar  
 40  19  40  1   
 41  20  21  1   
 42  21  41  1   
 43  21  42  1   
 44  21  43  1   
@<TRIPOS>SUBSTRUCTURE
  1 ****  10 GROUP 4 **** **** 0

# MOE 2024.06 (io_trps.svl 2023.06)
