@<TRIPOS>MOLECULE
NONAME
62 65 1 0 0 
SMALL
USER_CHARGES


@<TRIPOS>ATOM
  1 O        0.9670    -0.7920    -1.0950 O.2   1 <1>  -0.5700 
  2 C        2.1490    -0.6460    -1.0360 C.2   1 <1>   0.4480 
  3 C        3.0550    -1.7040    -0.4390 C.3   1 <1>  -0.0990 
  4 C        2.8190     0.6080    -1.5580 C.3   1 <1>  -0.0990 
  5 C        4.1460    -1.0720     0.4470 C.3   1 <1>  -0.0800 
  6 C        4.3480     0.4560    -1.6240 C.3   1 <1>  -0.1600 
  7 C        4.9990     0.0370    -0.2730 C.3   1 <1>   0.0000 
  8 C        4.9780    -2.2050     1.0790 C.3   1 <1>  -0.1600 
  9 C        6.4520    -0.4830    -0.5490 C.3   1 <1>  -0.0800 
 10 C        5.0240     1.2930     0.6340 C.3   1 <1>  -0.2400 
 11 C        6.2500    -1.6650     1.7320 C.3   1 <1>  -0.1600 
 12 C        7.2110    -1.0490     0.6900 C.3   1 <1>  -0.0800 
 13 C        7.3250     0.4530    -1.4180 C.3   1 <1>  -0.1600 
 14 C        8.2360    -0.0820     1.3550 C.3   1 <1>  -0.0800 
 15 C        8.8220     0.3400    -1.1020 C.3   1 <1>  -0.1600 
 16 C        9.1630     0.7060     0.3690 C.3   1 <1>   0.0000 
 17 C        9.1900    -0.8600     2.2810 C.3   1 <1>  -0.1600 
 18 C       10.6380     0.2810     0.7310 C.3   1 <1>   0.3410 
 19 C        8.9400     2.2340     0.5490 C.3   1 <1>  -0.2400 
 20 C       10.4630    -1.0510     1.4640 C.3   1 <1>  -0.1600 
 21 O       11.1600     1.1470     1.6980 O.3   1 <1>  -0.6800 
 22 C       11.6280     0.3100    -0.4610 C.2   1 <1>   0.4480 
 23 O       12.0270     1.3530    -0.9000 O.2   1 <1>  -0.5700 
 24 C       12.0780    -0.9910    -1.1160 C.3   1 <1>   0.1810 
 25 O       12.8430    -1.7790    -0.2220 O.3   1 <1>  -0.4300 
 26 C       13.4030    -2.9430    -0.5240 C.2   1 <1>   0.6590 
 27 O       13.7900    -3.6690     0.3470 O.2   1 <1>  -0.5700 
 28 C       13.5500    -3.3440    -1.9760 C.3   1 <1>  -0.1790 
 29 H        3.5020    -2.2630    -1.2400 H     1 <1>   0.0800 
 30 H        2.4540    -2.3800     0.1420 H     1 <1>   0.0800 
 31 H        2.5490     1.4290    -0.9190 H     1 <1>   0.0800 
 32 H        2.4320     0.8190    -2.5390 H     1 <1>   0.0800 
 33 H        3.6190    -0.6030     1.2610 H     1 <1>   0.0800 
 34 H        4.7680     1.3820    -1.9740 H     1 <1>   0.0800 
 35 H        4.5700    -0.2880    -2.3700 H     1 <1>   0.0800 
 36 H        5.2540    -2.9310     0.3330 H     1 <1>   0.0800 
 37 H        4.3840    -2.7130     1.8200 H     1 <1>   0.0800 
 38 H        6.3070    -1.3500    -1.1720 H     1 <1>   0.0800 
 39 H        4.0270     1.6370     0.8410 H     1 <1>   0.0800 
 40 H        5.5530     2.1060     0.1750 H     1 <1>   0.0800 
 41 H        5.4890     1.0860     1.5770 H     1 <1>   0.0800 
 42 H        6.7380    -2.4750     2.2450 H     1 <1>   0.0800 
 43 H        5.9760    -0.9360     2.4740 H     1 <1>   0.0800 
 44 H        7.7880    -1.8730     0.3050 H     1 <1>   0.0800 
 45 H        7.0230     1.4750    -1.3160 H     1 <1>   0.0800 
 46 H        7.1750     0.2020    -2.4540 H     1 <1>   0.0800 
 47 H        7.6880     0.6170     1.9620 H     1 <1>   0.0800 
 48 H        9.3590     0.9880    -1.7750 H     1 <1>   0.0800 
 49 H        9.1230    -0.6700    -1.3100 H     1 <1>   0.0800 
 50 H        8.8100    -1.8010     2.6310 H     1 <1>   0.0800 
 51 H        9.4170    -0.2520     3.1430 H     1 <1>   0.0800 
 52 H        7.9300     2.5190     0.3300 H     1 <1>   0.0800 
 53 H        9.5970     2.7910    -0.0960 H     1 <1>   0.0800 
 54 H        9.1230     2.5370     1.5650 H     1 <1>   0.0800 
 55 H       10.2990    -1.8510     0.7660 H     1 <1>   0.0800 
 56 H       11.3130    -1.2920     2.0790 H     1 <1>   0.0800 
 57 H       11.4780     1.9500     1.2360 H     1 <1>   0.4000 
 58 H       12.6920    -0.7530    -1.9660 H     1 <1>   0.0800 
 59 H       11.2290    -1.5650    -1.4360 H     1 <1>   0.0800 
 60 H       12.5850    -3.4640    -2.4290 H     1 <1>   0.0800 
 61 H       14.0750    -4.2800    -2.0320 H     1 <1>   0.0800 
 62 H       14.1180    -2.6030    -2.5060 H     1 <1>   0.0800 
@<TRIPOS>BOND
  1   1   2  2   
  2   2   3  1   
  3   2   4  1   
  4   3   5  1   
  5   3  29  1   
  6   3  30  1   
  7   4   6  1   
  8   4  31  1   
  9   4  32  1   
 10   5   7  1   
 11   5   8  1   
 12   5  33  1   
 13   6   7  1   
 14   6  34  1   
 15   6  35  1   
 16   7   9  1   
 17   7  10  1   
 18   8  11  1   
 19   8  36  1   
 20   8  37  1   
 21   9  12  1   
 22   9  13  1   
 23   9  38  1   
 24  10  39  1   
 25  10  40  1   
 26  10  41  1   
 27  11  12  1   
 28  11  42  1   
 29  11  43  1   
 30  12  14  1   
 31  12  44  1   
 32  13  15  1   
 33  13  45  1   
 34  13  46  1   
 35  14  16  1   
 36  14  17  1   
 37  14  47  1   
 38  15  16  1   
 39  15  48  1   
 40  15  49  1   
 41  16  18  1   
 42  16  19  1   
 43  17  20  1   
 44  17  50  1   
 45  17  51  1   
 46  18  20  1   
 47  18  21  1   
 48  18  22  1   
 49  19  52  1   
 50  19  53  1   
 51  19  54  1   
 52  20  55  1   
 53  20  56  1   
 54  21  57  1   
 55  22  23  2   
 56  22  24  1   
 57  24  25  1   
 58  24  58  1   
 59  24  59  1   
 60  25  26  1   
 61  26  27  2   
 62  26  28  1   
 63  28  60  1   
 64  28  61  1   
 65  28  62  1   
@<TRIPOS>SUBSTRUCTURE
  1 ****  12 GROUP 4 **** **** 0

# MOE 2024.06 (io_trps.svl 2023.06)
