@<TRIPOS>MOLECULE
NONAME
27 27 1 0 0 
SMALL
USER_CHARGES


@<TRIPOS>ATOM
  1 CL      -0.5510     0.0020    -2.3690 Cl    1 <1>  -0.1770 
  2 C       -1.7360    -0.7890    -1.3490 C.ar  1 <1>   0.1770 
  3 C       -2.9500    -0.1480    -1.1620 C.ar  1 <1>   0.1770 
  4 C       -1.4630    -2.0100    -0.7400 C.ar  1 <1>  -0.0090 
  5 CL      -3.2490     1.3920    -1.9500 Cl    1 <1>  -0.1770 
  6 C       -3.9370    -0.7010    -0.3570 C.ar  1 <1>   0.0830 
  7 S        0.1090    -2.8960    -0.9220 S.o2  1 <1>   1.4470 
  8 C       -2.4600    -2.5490     0.0710 C.ar  1 <1>  -0.1500 
  9 O       -5.1080    -0.0290    -0.2110 O.3   1 <1>  -0.3630 
 10 C       -3.6770    -1.9180     0.2640 C.ar  1 <1>  -0.1500 
 11 O       -0.1440    -4.2860    -0.6070 O.2   1 <1>  -0.6500 
 12 O        0.7930    -2.5990    -2.1600 O.2   1 <1>  -0.6500 
 13 N        1.0690    -2.2870     0.3450 N.am  1 <1>  -0.8490 
 14 C       -6.1620    -0.5250     0.5850 C.3   1 <1>   0.0400 
 15 C        2.1730    -3.1950     0.6730 C.3   1 <1>   0.1160 
 16 C        1.5970    -0.9430     0.0910 C.3   1 <1>   0.1160 
 17 H       -2.2790    -3.4910     0.5660 H     1 <1>   0.1500 
 18 H       -4.4050    -2.3880     0.9000 H     1 <1>   0.1500 
 19 H       -6.9740     0.1790     0.5390 H     1 <1>   0.0800 
 20 H       -5.8210    -0.6200     1.6010 H     1 <1>   0.0800 
 21 H       -6.4810    -1.4740     0.1930 H     1 <1>   0.0800 
 22 H        1.7880    -4.1550     0.9720 H     1 <1>   0.0800 
 23 H        2.7520    -2.7990     1.4900 H     1 <1>   0.0800 
 24 H        2.8140    -3.3300    -0.1830 H     1 <1>   0.0800 
 25 H        2.2030    -0.6200     0.9210 H     1 <1>   0.0800 
 26 H        2.1970    -0.9320    -0.8050 H     1 <1>   0.0800 
 27 H        0.7900    -0.2410    -0.0190 H     1 <1>   0.0800 
@<TRIPOS>BOND
  1   1   2  1   
  2   2   3  ar  
  3   2   4  ar  
  4   3   5  1   
  5   3   6  ar  
  6   4   7  1   
  7   4   8  ar  
  8   6   9  1   
  9   6  10  ar  
 10   7  11  2   
 11   7  12  2   
 12   7  13  am  
 13   8  10  ar  
 14   8  17  1   
 15   9  14  1   
 16  10  18  1   
 17  13  15  1   
 18  13  16  1   
 19  14  19  1   
 20  14  20  1   
 21  14  21  1   
 22  15  22  1   
 23  15  23  1   
 24  15  24  1   
 25  16  25  1   
 26  16  26  1   
 27  16  27  1   
@<TRIPOS>SUBSTRUCTURE
  1 ****   4 GROUP 4 **** **** 0

# MOE 2024.06 (io_trps.svl 2023.06)
