@<TRIPOS>MOLECULE
NONAME
43 45 1 0 0 
SMALL
USER_CHARGES


@<TRIPOS>ATOM
  1 BR       0.0910    -0.2980     0.1490 Br    1 <1>  -0.1110 
  2 C        1.9940    -0.1240    -0.0650 C.ar  1 <1>   0.1110 
  3 C        2.4930     0.2910    -1.2840 C.ar  1 <1>  -0.1500 
  4 C        2.8160    -0.4190     1.0050 C.ar  1 <1>  -0.1500 
  5 C        3.8640     0.4170    -1.4310 C.ar  1 <1>  -0.1500 
  6 C        4.1850    -0.2900     0.8430 C.ar  1 <1>  -0.1500 
  7 C        4.7200     0.1340    -0.3710 C.ar  1 <1>  -0.1430 
  8 C        6.2320     0.2850    -0.5630 C.3   1 <1>   0.3440 
  9 O        6.8700    -0.7560     0.1370 O.3   1 <1>  -0.4300 
 10 C        6.8160     1.6510    -0.1220 C.3   1 <1>   0.0610 
 11 C        8.1420    -0.7180     0.5050 C.2   1 <1>   0.6590 
 12 C        8.3300     1.5900    -0.3940 C.2   1 <1>   0.4480 
 13 C        6.5670     1.9670     1.3720 C.3   1 <1>  -0.2400 
 14 C        6.1600     2.7890    -0.9430 C.3   1 <1>  -0.2400 
 15 O        8.4990    -1.4380     1.3980 O.2   1 <1>  -0.5700 
 16 C        9.0830     0.2620    -0.2170 C.3   1 <1>   0.1220 
 17 O        8.9130     2.5670    -0.7710 O.2   1 <1>  -0.5700 
 18 C       10.3980     0.5190     0.5820 C.3   1 <1>  -0.1600 
 19 C        9.4540    -0.2900    -1.6210 C.3   1 <1>  -0.1600 
 20 C       11.3790    -0.6680     0.6010 C.3   1 <1>  -0.1600 
 21 C       10.3750    -1.5170    -1.5570 C.3   1 <1>  -0.1600 
 22 C       11.6700    -1.1820    -0.8120 C.3   1 <1>  -0.1600 
 23 H        1.8220     0.5090    -2.0950 H     1 <1>   0.1500 
 24 H        2.3940    -0.7450     1.9390 H     1 <1>   0.1500 
 25 H        4.2570     0.7380    -2.3800 H     1 <1>   0.1500 
 26 H        4.8330    -0.5260     1.6710 H     1 <1>   0.1500 
 27 H        6.4500     0.1320    -1.6060 H     1 <1>   0.0800 
 28 H        7.0530     2.8900     1.6390 H     1 <1>   0.0800 
 29 H        5.5150     2.0770     1.5700 H     1 <1>   0.0800 
 30 H        6.9500     1.1940     2.0150 H     1 <1>   0.0800 
 31 H        5.1030     2.8510    -0.7510 H     1 <1>   0.0800 
 32 H        6.5950     3.7390    -0.6830 H     1 <1>   0.0800 
 33 H        6.3120     2.6350    -1.9970 H     1 <1>   0.0800 
 34 H       10.1560     0.7960     1.5940 H     1 <1>   0.0800 
 35 H       10.9190     1.3530     0.1420 H     1 <1>   0.0800 
 36 H        9.9590     0.4820    -2.1780 H     1 <1>   0.0800 
 37 H        8.5670    -0.5500    -2.1700 H     1 <1>   0.0800 
 38 H       10.9810    -1.4730     1.1950 H     1 <1>   0.0800 
 39 H       12.3000    -0.3600     1.0650 H     1 <1>   0.0800 
 40 H       10.6140    -1.8400    -2.5560 H     1 <1>   0.0800 
 41 H        9.8750    -2.3320    -1.0610 H     1 <1>   0.0800 
 42 H       12.2900    -2.0600    -0.7530 H     1 <1>   0.0800 
 43 H       12.2150    -0.4310    -1.3590 H     1 <1>   0.0800 
@<TRIPOS>BOND
  1   1   2  1   
  2   2   3  ar  
  3   2   4  ar  
  4   3   5  ar  
  5   3  23  1   
  6   4   6  ar  
  7   4  24  1   
  8   5   7  ar  
  9   5  25  1   
 10   6   7  ar  
 11   6  26  1   
 12   7   8  1   
 13   8   9  1   
 14   8  10  1   
 15   8  27  1   
 16   9  11  1   
 17  10  12  1   
 18  10  13  1   
 19  10  14  1   
 20  11  15  2   
 21  11  16  1   
 22  12  16  1   
 23  12  17  2   
 24  13  28  1   
 25  13  29  1   
 26  13  30  1   
 27  14  31  1   
 28  14  32  1   
 29  14  33  1   
 30  16  18  1   
 31  16  19  1   
 32  18  20  1   
 33  18  34  1   
 34  18  35  1   
 35  19  21  1   
 36  19  36  1   
 37  19  37  1   
 38  20  22  1   
 39  20  38  1   
 40  20  39  1   
 41  21  22  1   
 42  21  40  1   
 43  21  41  1   
 44  22  42  1   
 45  22  43  1   
@<TRIPOS>SUBSTRUCTURE
  1 ****   8 GROUP 4 **** **** 0

# MOE 2024.06 (io_trps.svl 2023.06)
