@<TRIPOS>MOLECULE
NONAME
42 42 1 0 0 
SMALL
USER_CHARGES


@<TRIPOS>ATOM
  1 O        0.3550     0.0550    -0.1550 O.2   1 <1>  -0.5700 
  2 C        0.2210     1.2590    -0.2750 C.2   1 <1>   0.6900 
  3 N        1.3030     2.0550    -0.5650 N.am  1 <1>  -0.6600 
  4 N       -0.9940     1.8580    -0.0950 N.am  1 <1>  -0.5470 
  5 C        1.1730     3.4140    -1.1580 C.3   1 <1>   0.1400 
  6 C        2.6810     1.4880    -0.5310 C.3   1 <1>   0.1400 
  7 C       -2.2820     1.3420     0.1040 C.ar  1 <1>   0.1170 
  8 C        1.3080     4.4800    -0.0670 C.3   1 <1>  -0.1600 
  9 C        3.2050     1.4730     0.9070 C.3   1 <1>  -0.1600 
 10 C       -2.6490     0.0550    -0.2740 C.ar  1 <1>  -0.1500 
 11 C       -3.2440     2.1590     0.6850 C.ar  1 <1>  -0.1500 
 12 C        1.0320     5.8820    -0.6200 C.3   1 <1>  -0.2400 
 13 C        4.6330     0.9200     0.9750 C.3   1 <1>  -0.2400 
 14 C       -3.9370    -0.4090    -0.0740 C.ar  1 <1>  -0.1430 
 15 C       -4.5380     1.7100     0.8890 C.ar  1 <1>  -0.1430 
 16 C       -4.8790     0.4240     0.5080 C.ar  1 <1>  -0.1500 
 17 C       -4.3200    -1.8180    -0.4880 C.3   1 <1>  -0.0970 
 18 C       -5.5840     2.6070     1.5270 C.3   1 <1>  -0.0970 
 19 H       -0.9080     2.8620     0.0050 H     1 <1>   0.3700 
 20 H        0.2180     3.5070    -1.6480 H     1 <1>   0.0800 
 21 H        1.9300     3.5590    -1.9090 H     1 <1>   0.0800 
 22 H        3.3370     2.0700    -1.1530 H     1 <1>   0.0800 
 23 H        2.6650     0.4830    -0.9200 H     1 <1>   0.0800 
 24 H        2.3060     4.4530     0.3340 H     1 <1>   0.0800 
 25 H        0.6180     4.2730     0.7320 H     1 <1>   0.0800 
 26 H        2.5600     0.8540     1.5080 H     1 <1>   0.0800 
 27 H        3.1930     2.4690     1.3090 H     1 <1>   0.0800 
 28 H       -1.9200    -0.5880    -0.7320 H     1 <1>   0.1500 
 29 H       -2.9740     3.1540     0.9830 H     1 <1>   0.1500 
 30 H        1.7270     6.1200    -1.4060 H     1 <1>   0.0800 
 31 H        1.1410     6.6130     0.1620 H     1 <1>   0.0800 
 32 H        0.0320     5.9460    -1.0100 H     1 <1>   0.0800 
 33 H        4.6620    -0.0870     0.5990 H     1 <1>   0.0800 
 34 H        4.9740     0.9120     1.9950 H     1 <1>   0.0800 
 35 H        5.3030     1.5290     0.3940 H     1 <1>   0.0800 
 36 H       -5.8820     0.0680     0.6640 H     1 <1>   0.1500 
 37 H       -3.4440    -2.4300    -0.6040 H     1 <1>   0.0800 
 38 H       -4.8500    -1.7910    -1.4230 H     1 <1>   0.0800 
 39 H       -4.9510    -2.2660     0.2580 H     1 <1>   0.0800 
 40 H       -5.1740     3.5720     1.7630 H     1 <1>   0.0800 
 41 H       -5.9450     2.1560     2.4340 H     1 <1>   0.0800 
 42 H       -6.4100     2.7400     0.8510 H     1 <1>   0.0800 
@<TRIPOS>BOND
  1   1   2  2   
  2   2   3  am  
  3   2   4  am  
  4   3   5  1   
  5   3   6  1   
  6   4   7  1   
  7   4  19  1   
  8   5   8  1   
  9   5  20  1   
 10   5  21  1   
 11   6   9  1   
 12   6  22  1   
 13   6  23  1   
 14   7  10  ar  
 15   7  11  ar  
 16   8  12  1   
 17   8  24  1   
 18   8  25  1   
 19   9  13  1   
 20   9  26  1   
 21   9  27  1   
 22  10  14  ar  
 23  10  28  1   
 24  11  15  ar  
 25  11  29  1   
 26  12  30  1   
 27  12  31  1   
 28  12  32  1   
 29  13  33  1   
 30  13  34  1   
 31  13  35  1   
 32  14  16  ar  
 33  14  17  1   
 34  15  16  ar  
 35  15  18  1   
 36  16  36  1   
 37  17  37  1   
 38  17  38  1   
 39  17  39  1   
 40  18  40  1   
 41  18  41  1   
 42  18  42  1   
@<TRIPOS>SUBSTRUCTURE
  1 ****   4 GROUP 4 **** **** 0

# MOE 2024.06 (io_trps.svl 2023.06)
