@<TRIPOS>MOLECULE
NONAME
37 37 1 0 0 
SMALL
USER_CHARGES


@<TRIPOS>ATOM
  1 CL      -0.9300    -0.2330    -0.6290 Cl    1 <1>  -0.1770 
  2 C       -2.5440    -0.7810    -0.2490 C.ar  1 <1>   0.1770 
  3 C       -3.4330     0.0930     0.3490 C.ar  1 <1>  -0.1500 
  4 C       -2.9070    -2.0800    -0.5530 C.ar  1 <1>  -0.1500 
  5 C       -4.7110    -0.3470     0.6470 C.ar  1 <1>  -0.1500 
  6 C       -4.1860    -2.5170    -0.2530 C.ar  1 <1>  -0.1500 
  7 C       -5.0950    -1.6470     0.3500 C.ar  1 <1>   0.0830 
  8 O       -6.3650    -1.9940     0.6740 O.3   1 <1>  -0.3630 
  9 C       -6.8750    -3.2870     0.3710 C.3   1 <1>   0.1810 
 10 C       -8.3330    -3.4160     0.7880 C.2   1 <1>   0.5690 
 11 O       -8.8450    -4.5150     0.7520 O.2   1 <1>  -0.5700 
 12 N       -9.0100    -2.3070     1.1900 N.am  1 <1>  -0.4300 
 13 N      -10.4660    -2.2250     1.4040 N.am  1 <1>  -0.4300 
 14 C      -11.3920    -1.8920     0.4690 C.2   1 <1>   0.7800 
 15 O      -11.0900    -1.4470    -0.6250 O.2   1 <1>  -0.5700 
 16 O      -12.6650    -2.0650     0.8320 O.3   1 <1>  -0.4300 
 17 C      -13.8120    -1.8190     0.0460 C.3   1 <1>   0.2800 
 18 C      -13.8050    -2.7140    -1.1980 C.3   1 <1>  -0.2400 
 19 C      -13.9070    -0.3290    -0.3040 C.3   1 <1>  -0.2400 
 20 C      -14.9950    -2.2030     0.9360 C.3   1 <1>  -0.2400 
 21 H       -3.1260     1.0980     0.5750 H     1 <1>   0.1500 
 22 H       -2.1930    -2.7360    -1.0180 H     1 <1>   0.1500 
 23 H       -5.4170     0.3190     1.1120 H     1 <1>   0.1500 
 24 H       -4.4490    -3.5300    -0.4960 H     1 <1>   0.1500 
 25 H       -6.2890    -4.0170     0.8990 H     1 <1>   0.0800 
 26 H       -6.7980    -3.4460    -0.6890 H     1 <1>   0.0800 
 27 H       -8.4950    -1.4180     1.1970 H     1 <1>   0.3700 
 28 H      -10.8270    -2.6200     2.2740 H     1 <1>   0.3700 
 29 H      -13.0290    -2.4240    -1.8820 H     1 <1>   0.0800 
 30 H      -14.7420    -2.6280    -1.7170 H     1 <1>   0.0800 
 31 H      -13.6630    -3.7430    -0.9190 H     1 <1>   0.0800 
 32 H      -13.1300    -0.0390    -0.9870 H     1 <1>   0.0800 
 33 H      -13.8390     0.2710     0.5860 H     1 <1>   0.0800 
 34 H      -14.8480    -0.1250    -0.7800 H     1 <1>   0.0800 
 35 H      -14.9320    -3.2400     1.2120 H     1 <1>   0.0800 
 36 H      -15.9210    -2.0480     0.4140 H     1 <1>   0.0800 
 37 H      -15.0030    -1.6020     1.8270 H     1 <1>   0.0800 
@<TRIPOS>BOND
  1   1   2  1   
  2   2   3  ar  
  3   2   4  ar  
  4   3   5  ar  
  5   3  21  1   
  6   4   6  ar  
  7   4  22  1   
  8   5   7  ar  
  9   5  23  1   
 10   6   7  ar  
 11   6  24  1   
 12   7   8  1   
 13   8   9  1   
 14   9  10  1   
 15   9  25  1   
 16   9  26  1   
 17  10  11  2   
 18  10  12  am  
 19  12  13  1   
 20  12  27  1   
 21  13  14  am  
 22  13  28  1   
 23  14  15  2   
 24  14  16  1   
 25  16  17  1   
 26  17  18  1   
 27  17  19  1   
 28  17  20  1   
 29  18  29  1   
 30  18  30  1   
 31  18  31  1   
 32  19  32  1   
 33  19  33  1   
 34  19  34  1   
 35  20  35  1   
 36  20  36  1   
 37  20  37  1   
@<TRIPOS>SUBSTRUCTURE
  1 ****  12 GROUP 4 **** **** 0

# MOE 2024.06 (io_trps.svl 2023.06)
