@<TRIPOS>MOLECULE
NONAME
56 59 1 0 0 
SMALL
USER_CHARGES


@<TRIPOS>ATOM
  1 O       -0.3100    -0.4670    -0.2350 O.2   1 <1>  -0.5700 
  2 C       -1.4990    -0.6010    -0.4190 C.2   1 <1>   0.5690 
  3 N       -2.4790     0.3310    -0.1800 N.am  1 <1>  -0.4690 
  4 C       -2.1420    -1.9010    -0.9420 C.3   1 <1>   0.4790 
  5 C       -3.7220    -0.1990    -0.5220 C.2   1 <1>   0.0810 
  6 C       -2.3330     1.7190     0.3590 C.3   1 <1>   0.3000 
  7 O       -1.9400    -2.9410    -0.0320 O.3   1 <1>  -0.6800 
  8 C       -3.6050    -1.4950    -0.9190 C.2   1 <1>  -0.1240 
  9 C       -1.6080    -2.3170    -2.3320 C.3   1 <1>  -0.0220 
 10 C       -4.9060     0.6340    -0.4160 C.ar  1 <1>   0.0280 
 11 C       -3.6000     2.0680     1.1720 C.3   1 <1>  -0.0170 
 12 C       -1.1210     1.8680     1.2920 C.3   1 <1>  -0.2400 
 13 C       -2.1720     2.6680    -0.8350 C.3   1 <1>  -0.2400 
 14 C       -4.6070    -2.4470    -1.2560 C.2   1 <1>   0.6160 
 15 C       -0.1500    -2.7670    -2.3400 C.2   1 <1>  -0.2880 
 16 C       -4.8820     1.7550     0.4160 C.ar  1 <1>  -0.1430 
 17 C       -6.0810     0.3850    -1.1260 C.ar  1 <1>  -0.1500 
 18 O       -4.6230    -2.9380    -2.3720 O.2   1 <1>  -0.5700 
 19 N       -5.6030    -2.7900    -0.3670 N.am  1 <1>  -0.6600 
 20 C        0.8510    -2.1000    -2.9210 C.2   1 <1>  -0.3000 
 21 C       -5.9930     2.5680     0.5550 C.ar  1 <1>  -0.1500 
 22 C       -7.1930     1.1950    -0.9900 C.ar  1 <1>  -0.1500 
 23 C       -6.7740    -3.6050    -0.8080 C.3   1 <1>   0.1400 
 24 C       -5.5180    -2.4370     1.0830 C.3   1 <1>   0.1400 
 25 C       -7.1520     2.2880    -0.1450 C.ar  1 <1>  -0.1500 
 26 C       -7.9980    -3.2860     0.0570 C.3   1 <1>  -0.1600 
 27 C       -6.2670    -3.4660     1.9360 C.3   1 <1>  -0.1600 
 28 C       -7.7530    -3.5740     1.5490 C.3   1 <1>  -0.1600 
 29 H       -0.9750    -3.0210     0.1060 H     1 <1>   0.4000 
 30 H       -1.7300    -1.4840    -3.0010 H     1 <1>   0.0800 
 31 H       -2.2010    -3.1230    -2.7210 H     1 <1>   0.0800 
 32 H       -3.5770     3.1090     1.4390 H     1 <1>   0.0800 
 33 H       -3.6010     1.5000     2.0860 H     1 <1>   0.0800 
 34 H       -1.1330     1.1070     2.0510 H     1 <1>   0.0800 
 35 H       -1.1360     2.8290     1.7730 H     1 <1>   0.0800 
 36 H       -0.1990     1.8020     0.7430 H     1 <1>   0.0800 
 37 H       -3.0220     2.6060    -1.4900 H     1 <1>   0.0800 
 38 H       -1.2860     2.4160    -1.3910 H     1 <1>   0.0800 
 39 H       -2.0800     3.6840    -0.4960 H     1 <1>   0.0800 
 40 H        0.0040    -3.7020    -1.8260 H     1 <1>   0.1500 
 41 H       -6.1380    -0.4470    -1.8030 H     1 <1>   0.1500 
 42 H        1.8740    -2.4330    -2.9200 H     1 <1>   0.1500 
 43 H        0.7360    -1.1650    -3.4410 H     1 <1>   0.1500 
 44 H       -5.9650     3.4250     1.2060 H     1 <1>   0.1500 
 45 H       -8.0890     0.9770    -1.5440 H     1 <1>   0.1500 
 46 H       -6.5230    -4.6490    -0.7250 H     1 <1>   0.0800 
 47 H       -6.9970    -3.3930    -1.8400 H     1 <1>   0.0800 
 48 H       -5.9490    -1.4620     1.2330 H     1 <1>   0.0800 
 49 H       -4.4860    -2.4070     1.3920 H     1 <1>   0.0800 
 50 H       -8.0170     2.9200    -0.0360 H     1 <1>   0.1500 
 51 H       -8.8420    -3.8560    -0.2880 H     1 <1>   0.0800 
 52 H       -8.2350    -2.2450    -0.0750 H     1 <1>   0.0800 
 53 H       -6.1830    -3.2040     2.9760 H     1 <1>   0.0800 
 54 H       -5.7880    -4.4210     1.8040 H     1 <1>   0.0800 
 55 H       -8.0990    -4.5650     1.7890 H     1 <1>   0.0800 
 56 H       -8.3300    -2.8770     2.1320 H     1 <1>   0.0800 
@<TRIPOS>BOND
  1   1   2  2   
  2   2   3  am  
  3   2   4  1   
  4   3   5  1   
  5   3   6  1   
  6   4   7  1   
  7   4   8  1   
  8   4   9  1   
  9   5   8  2   
 10   5  10  1   
 11   6  11  1   
 12   6  12  1   
 13   6  13  1   
 14   7  29  1   
 15   8  14  1   
 16   9  15  1   
 17   9  30  1   
 18   9  31  1   
 19  10  16  ar  
 20  10  17  ar  
 21  11  16  1   
 22  11  32  1   
 23  11  33  1   
 24  12  34  1   
 25  12  35  1   
 26  12  36  1   
 27  13  37  1   
 28  13  38  1   
 29  13  39  1   
 30  14  18  2   
 31  14  19  am  
 32  15  20  2   
 33  15  40  1   
 34  16  21  ar  
 35  17  22  ar  
 36  17  41  1   
 37  19  23  1   
 38  19  24  1   
 39  20  42  1   
 40  20  43  1   
 41  21  25  ar  
 42  21  44  1   
 43  22  25  ar  
 44  22  45  1   
 45  23  26  1   
 46  23  46  1   
 47  23  47  1   
 48  24  27  1   
 49  24  48  1   
 50  24  49  1   
 51  25  50  1   
 52  26  28  1   
 53  26  51  1   
 54  26  52  1   
 55  27  28  1   
 56  27  53  1   
 57  27  54  1   
 58  28  55  1   
 59  28  56  1   
@<TRIPOS>SUBSTRUCTURE
  1 ****   5 GROUP 4 **** **** 0

# MOE 2024.06 (io_trps.svl 2023.06)
