@<TRIPOS>MOLECULE
NONAME
31 31 1 0 0 
SMALL
USER_CHARGES


@<TRIPOS>ATOM
  1 CL       0.1080     0.1950    -0.3850 Cl    1 <1>  -0.1770 
  2 C        0.7940    -1.4110    -0.3130 C.ar  1 <1>   0.1770 
  3 C        0.0090    -2.5150    -0.0050 C.ar  1 <1>  -0.0090 
  4 C        2.1460    -1.5240    -0.5790 C.ar  1 <1>  -0.1500 
  5 S       -1.7560    -2.3490     0.3360 S.o2  1 <1>   1.4470 
  6 C        0.6280    -3.7630     0.0330 C.ar  1 <1>  -0.1500 
  7 C        2.7330    -2.7710    -0.5360 C.ar  1 <1>   0.1770 
  8 O       -1.9900    -1.3750     1.3770 O.2   1 <1>  -0.6500 
  9 O       -2.3550    -3.6580     0.4500 O.2   1 <1>  -0.6500 
 10 N       -2.4080    -1.7760    -1.0990 N.am  1 <1>  -0.9140 
 11 C        1.9890    -3.9060    -0.2310 C.ar  1 <1>   0.0830 
 12 CL       4.4440    -2.8940    -0.8760 Cl    1 <1>  -0.1770 
 13 C       -3.5210    -0.8320    -0.9470 C.3   1 <1>   0.1960 
 14 O        2.6270    -5.1050    -0.2040 O.3   1 <1>  -0.3620 
 15 C       -4.7370    -1.4620    -0.2520 C.3   1 <1>   0.1200 
 16 C        1.9590    -6.3040     0.1280 C.3   1 <1>   0.0400 
 17 O       -5.8350    -0.6310    -0.4540 O.3   1 <1>  -0.5600 
 18 C       -6.9870    -1.0530     0.2040 C.3   1 <1>   0.0400 
 19 H        2.7320    -0.6540    -0.8160 H     1 <1>   0.1500 
 20 H        0.0260    -4.6210     0.2730 H     1 <1>   0.1500 
 21 H       -2.7690    -2.6120    -1.5560 H     1 <1>   0.4200 
 22 H       -3.8200    -0.5030    -1.9280 H     1 <1>   0.0800 
 23 H       -3.1940     0.0310    -0.3900 H     1 <1>   0.0800 
 24 H       -4.5630    -1.5510     0.8070 H     1 <1>   0.0800 
 25 H       -4.9630    -2.4240    -0.6780 H     1 <1>   0.0800 
 26 H        2.6760    -7.1050     0.0910 H     1 <1>   0.0800 
 27 H        1.1780    -6.4820    -0.5900 H     1 <1>   0.0800 
 28 H        1.5600    -6.2200     1.1230 H     1 <1>   0.0800 
 29 H       -7.7740    -0.3550    -0.0190 H     1 <1>   0.0800 
 30 H       -6.8050    -1.0660     1.2650 H     1 <1>   0.0800 
 31 H       -7.2600    -2.0330    -0.1470 H     1 <1>   0.0800 
@<TRIPOS>BOND
  1   1   2  1   
  2   2   3  ar  
  3   2   4  ar  
  4   3   5  1   
  5   3   6  ar  
  6   4   7  ar  
  7   4  19  1   
  8   5   8  2   
  9   5   9  2   
 10   5  10  am  
 11   6  11  ar  
 12   6  20  1   
 13   7  11  ar  
 14   7  12  1   
 15  10  13  1   
 16  10  21  1   
 17  11  14  1   
 18  13  15  1   
 19  13  22  1   
 20  13  23  1   
 21  14  16  1   
 22  15  17  1   
 23  15  24  1   
 24  15  25  1   
 25  16  26  1   
 26  16  27  1   
 27  16  28  1   
 28  17  18  1   
 29  18  29  1   
 30  18  30  1   
 31  18  31  1   
@<TRIPOS>SUBSTRUCTURE
  1 ****   3 GROUP 4 **** **** 0

# MOE 2024.06 (io_trps.svl 2023.06)
