@<TRIPOS>MOLECULE
NONAME
41 41 1 0 0 
SMALL
USER_CHARGES


@<TRIPOS>ATOM
  1 O        0.1150     1.1770     1.8890 O.2   1 <1>  -0.5700 
  2 C        0.0170     1.8430     0.8740 C.2   1 <1>   0.5440 
  3 N        1.0940     1.8950     0.0380 N.am  1 <1>  -0.7300 
  4 C       -1.2240     2.5400     0.5630 C.ar  1 <1>   0.0860 
  5 C        2.4230     1.2760     0.2500 C.3   1 <1>   0.2200 
  6 C       -1.3230     3.6320    -0.3220 C.ar  1 <1>   0.0830 
  7 C       -2.4050     2.1080     1.1760 C.ar  1 <1>  -0.1500 
  8 C        3.4900     2.4080     0.2760 C.3   1 <1>  -0.0800 
  9 C        2.7020     0.1720    -0.8180 C.3   1 <1>  -0.0800 
 10 O       -0.1980     4.0970    -0.9290 O.3   1 <1>  -0.3630 
 11 C       -2.5610     4.2290    -0.5660 C.ar  1 <1>  -0.1500 
 12 C       -3.6260     2.7060     0.9320 C.ar  1 <1>  -0.1500 
 13 C        4.9110     1.8910     0.5580 C.3   1 <1>  -0.2400 
 14 C        3.1610     3.4870     1.3260 C.3   1 <1>  -0.2400 
 15 C        1.4630    -0.3190    -1.5950 C.3   1 <1>  -0.2400 
 16 C        3.3520    -1.0610    -0.1640 C.3   1 <1>  -0.2400 
 17 C       -0.1700     5.2710    -1.7110 C.3   1 <1>   0.0400 
 18 C       -3.7040     3.7710     0.0560 C.ar  1 <1>  -0.1500 
 19 H        1.0300     2.5460    -0.7470 H     1 <1>   0.3700 
 20 H        2.4150     0.8090     1.2210 H     1 <1>   0.0800 
 21 H       -2.3610     1.2790     1.8610 H     1 <1>   0.1500 
 22 H        3.5010     2.8780    -0.6930 H     1 <1>   0.0800 
 23 H        3.3930     0.5650    -1.5440 H     1 <1>   0.0800 
 24 H       -2.6590     5.0570    -1.2410 H     1 <1>   0.1500 
 25 H       -4.5120     2.3430     1.4230 H     1 <1>   0.1500 
 26 H        4.9380     1.3580     1.4920 H     1 <1>   0.0800 
 27 H        5.6040     2.7120     0.6150 H     1 <1>   0.0800 
 28 H        5.2480     1.2390    -0.2270 H     1 <1>   0.0800 
 29 H        3.0700     3.0430     2.3010 H     1 <1>   0.0800 
 30 H        2.2350     3.9830     1.0930 H     1 <1>   0.0800 
 31 H        3.9330     4.2350     1.3570 H     1 <1>   0.0800 
 32 H        0.7170    -0.6920    -0.9140 H     1 <1>   0.0800 
 33 H        1.7310    -1.1080    -2.2740 H     1 <1>   0.0800 
 34 H        1.0350     0.4800    -2.1730 H     1 <1>   0.0800 
 35 H        2.6680    -1.5150     0.5320 H     1 <1>   0.0800 
 36 H        4.2460    -0.7970     0.3690 H     1 <1>   0.0800 
 37 H        3.6120    -1.7900    -0.9110 H     1 <1>   0.0800 
 38 H        0.8480     5.4490    -2.0120 H     1 <1>   0.0800 
 39 H       -0.5230     6.0960    -1.1170 H     1 <1>   0.0800 
 40 H       -0.7860     5.1290    -2.5810 H     1 <1>   0.0800 
 41 H       -4.6540     4.2390    -0.1380 H     1 <1>   0.1500 
@<TRIPOS>BOND
  1   1   2  2   
  2   2   3  am  
  3   2   4  1   
  4   3   5  1   
  5   3  19  1   
  6   4   6  ar  
  7   4   7  ar  
  8   5   8  1   
  9   5   9  1   
 10   5  20  1   
 11   6  10  1   
 12   6  11  ar  
 13   7  12  ar  
 14   7  21  1   
 15   8  13  1   
 16   8  14  1   
 17   8  22  1   
 18   9  15  1   
 19   9  16  1   
 20   9  23  1   
 21  10  17  1   
 22  11  18  ar  
 23  11  24  1   
 24  12  18  ar  
 25  12  25  1   
 26  13  26  1   
 27  13  27  1   
 28  13  28  1   
 29  14  29  1   
 30  14  30  1   
 31  14  31  1   
 32  15  32  1   
 33  15  33  1   
 34  15  34  1   
 35  16  35  1   
 36  16  36  1   
 37  16  37  1   
 38  17  38  1   
 39  17  39  1   
 40  17  40  1   
 41  18  41  1   
@<TRIPOS>SUBSTRUCTURE
  1 ****   3 GROUP 4 **** **** 0

# MOE 2024.06 (io_trps.svl 2023.06)
