@<TRIPOS>MOLECULE
NONAME
45 46 1 0 0 
SMALL
USER_CHARGES


@<TRIPOS>ATOM
  1 BR      -0.6170    -1.7600    -4.0340 Br    1 <1>  -0.1110 
  2 C       -0.7180    -2.7150    -2.3590 C.ar  1 <1>   0.1110 
  3 C        0.3480    -2.6710    -1.4710 C.ar  1 <1>   0.0820 
  4 C       -1.8750    -3.4220    -2.0990 C.ar  1 <1>  -0.1500 
  5 O        1.4430    -1.9440    -1.8180 O.3   1 <1>  -0.3630 
  6 C        0.2330    -3.3710    -0.2740 C.ar  1 <1>  -0.1500 
  7 C       -1.9830    -4.1110    -0.9000 C.ar  1 <1>  -0.1430 
  8 C        2.5930    -1.8890    -1.0030 C.3   1 <1>   0.0400 
  9 C       -0.9290    -4.0880     0.0100 C.ar  1 <1>   0.0830 
 10 C       -3.2450    -4.8870    -0.5790 C.3   1 <1>   0.4870 
 11 O       -1.1080    -4.7810     1.1660 O.3   1 <1>  -0.3630 
 12 N       -4.2960    -3.9230    -0.1510 N.4   1 <1>  -0.9590 
 13 C       -0.0370    -5.0050     2.0620 C.3   1 <1>   0.0400 
 14 C       -3.9630    -3.3390     1.1730 C.3   1 <1>   0.4380 
 15 C       -5.6640    -4.5050    -0.1680 C.3   1 <1>   0.3430 
 16 C       -4.6490    -1.9790     1.2630 C.3   1 <1>  -0.1950 
 17 C       -6.1510    -4.6750    -1.6080 C.3   1 <1>  -0.1600 
 18 C       -4.1680    -0.8200     0.4440 C.3   1 <1>  -0.2000 
 19 C       -3.9560    -0.8320     1.9300 C.3   1 <1>  -0.2000 
 20 C       -7.6010    -5.1700    -1.6380 C.3   1 <1>  -0.2400 
 21 H       -2.6620    -3.4230    -2.8330 H     1 <1>   0.1500 
 22 H        1.0410    -3.3510     0.4290 H     1 <1>   0.1500 
 23 H        3.3230    -1.2760    -1.5010 H     1 <1>   0.0800 
 24 H        2.9810    -2.8840    -0.8750 H     1 <1>   0.0800 
 25 H        2.3330    -1.4480    -0.0570 H     1 <1>   0.0800 
 26 H       -3.0550    -5.6080     0.2000 H     1 <1>   0.0800 
 27 H       -3.5590    -5.4180    -1.4620 H     1 <1>   0.0800 
 28 H       -4.2650    -3.1320    -0.8050 H     1 <1>   0.4500 
 29 H        0.2800    -4.0640     2.4760 H     1 <1>   0.0800 
 30 H        0.7700    -5.4840     1.5350 H     1 <1>   0.0800 
 31 H       -0.3850    -5.6480     2.8510 H     1 <1>   0.0800 
 32 H       -2.9000    -3.1860     1.2530 H     1 <1>   0.0800 
 33 H       -4.2750    -3.9870     1.9770 H     1 <1>   0.0800 
 34 H       -6.3440    -3.8440     0.3450 H     1 <1>   0.0800 
 35 H       -5.6730    -5.4550     0.3420 H     1 <1>   0.0800 
 36 H       -5.7040    -2.0570     1.4630 H     1 <1>   0.1000 
 37 H       -5.5410    -5.3870    -2.1340 H     1 <1>   0.0800 
 38 H       -6.1030    -3.7300    -2.1220 H     1 <1>   0.0800 
 39 H       -4.8850    -0.1220     0.0430 H     1 <1>   0.1000 
 40 H       -3.2920    -0.9060    -0.1780 H     1 <1>   0.1000 
 41 H       -2.9490    -0.9450     2.2970 H     1 <1>   0.1000 
 42 H       -4.5320    -0.1480     2.5320 H     1 <1>   0.1000 
 43 H       -7.6910    -6.1270    -1.1520 H     1 <1>   0.0800 
 44 H       -7.9310    -5.2810    -2.6570 H     1 <1>   0.0800 
 45 H       -8.2560    -4.4700    -1.1480 H     1 <1>   0.0800 
@<TRIPOS>BOND
  1   1   2  1   
  2   2   3  ar  
  3   2   4  ar  
  4   3   5  1   
  5   3   6  ar  
  6   4   7  ar  
  7   4  21  1   
  8   5   8  1   
  9   6   9  ar  
 10   6  22  1   
 11   7   9  ar  
 12   7  10  1   
 13   8  23  1   
 14   8  24  1   
 15   8  25  1   
 16   9  11  1   
 17  10  12  1   
 18  10  26  1   
 19  10  27  1   
 20  11  13  1   
 21  12  14  1   
 22  12  15  1   
 23  12  28  1   
 24  13  29  1   
 25  13  30  1   
 26  13  31  1   
 27  14  16  1   
 28  14  32  1   
 29  14  33  1   
 30  15  17  1   
 31  15  34  1   
 32  15  35  1   
 33  16  18  1   
 34  16  19  1   
 35  16  36  1   
 36  17  20  1   
 37  17  37  1   
 38  17  38  1   
 39  18  19  1   
 40  18  39  1   
 41  18  40  1   
 42  19  41  1   
 43  19  42  1   
 44  20  43  1   
 45  20  44  1   
 46  20  45  1   
@<TRIPOS>SUBSTRUCTURE
  1 ****   7 GROUP 4 **** **** 0

# MOE 2024.06 (io_trps.svl 2023.06)
