@<TRIPOS>MOLECULE
NONAME
53 55 1 0 0 
SMALL
USER_CHARGES


@<TRIPOS>ATOM
  1 S       -0.8710    -0.0960    -1.2260 S.o2  1 <1>   1.4470 
  2 O       -0.0240     0.8120    -0.4860 O.2   1 <1>  -0.6500 
  3 O       -0.7850    -0.1560    -2.6660 O.2   1 <1>  -0.6500 
  4 N       -0.4190    -1.6420    -0.6840 N.am  1 <1>  -0.8490 
  5 C       -2.6000     0.0380    -0.7000 C.ar  1 <1>  -0.0090 
  6 C        0.8590    -2.0530    -1.3090 C.3   1 <1>   0.1960 
  7 C       -0.3140    -1.7190     0.7900 C.3   1 <1>   0.1960 
  8 C       -3.6080    -0.6420    -1.3740 C.ar  1 <1>  -0.1500 
  9 C       -2.9620     0.7960     0.4080 C.ar  1 <1>  -0.1500 
 10 C        1.3880    -3.4110    -0.7830 C.3   1 <1>   0.3430 
 11 C        0.0480    -3.1440     1.2840 C.3   1 <1>   0.3430 
 12 C       -4.9230    -0.5760    -0.9520 C.ar  1 <1>  -0.1500 
 13 C       -4.2760     0.8620     0.8340 C.ar  1 <1>  -0.1500 
 14 N        0.4090    -4.0700     0.1510 N.4   1 <1>  -0.9590 
 15 C       -5.2780     0.1710     0.1630 C.ar  1 <1>   0.1170 
 16 C        0.8600    -5.4150     0.6170 C.3   1 <1>   0.2630 
 17 N       -6.6230     0.2060     0.5460 N.am  1 <1>  -0.5470 
 18 C       -7.2370     0.5570     1.7190 C.2   1 <1>   0.5690 
 19 O       -6.6400     0.8860     2.7140 O.2   1 <1>  -0.5700 
 20 C       -8.7560     0.5220     1.7700 C.3   1 <1>   0.0440 
 21 C       -9.3770     0.0590     0.4490 C.ar  1 <1>  -0.1430 
 22 C       -9.5600     0.9240    -0.6270 C.ar  1 <1>  -0.1430 
 23 C       -9.7340    -1.2760     0.3210 C.ar  1 <1>  -0.1500 
 24 C      -10.0970     0.4360    -1.8090 C.ar  1 <1>  -0.1500 
 25 C       -9.1880     2.4000    -0.5520 C.3   1 <1>  -0.0970 
 26 C      -10.2680    -1.7530    -0.8610 C.ar  1 <1>  -0.1500 
 27 C      -10.4490    -0.8960    -1.9290 C.ar  1 <1>  -0.1500 
 28 H        1.6090    -1.2970    -1.1440 H     1 <1>   0.0800 
 29 H        0.7230    -2.1320    -2.3760 H     1 <1>   0.0800 
 30 H       -1.2480    -1.4270     1.2410 H     1 <1>   0.0800 
 31 H        0.4380    -1.0310     1.1420 H     1 <1>   0.0800 
 32 H       -3.3580    -1.2290    -2.2430 H     1 <1>   0.1500 
 33 H       -2.2100     1.3480     0.9470 H     1 <1>   0.1500 
 34 H        2.3230    -3.2460    -0.2740 H     1 <1>   0.0800 
 35 H        1.5870    -4.0560    -1.6240 H     1 <1>   0.0800 
 36 H       -0.7940    -3.5470     1.8230 H     1 <1>   0.0800 
 37 H        0.8700    -3.0710     1.9770 H     1 <1>   0.0800 
 38 H       -5.6820    -1.1120    -1.4950 H     1 <1>   0.1500 
 39 H       -4.5200     1.4630     1.6920 H     1 <1>   0.1500 
 40 H       -0.4590    -4.1610    -0.4030 H     1 <1>   0.4500 
 41 H        1.7660    -5.3290     1.1940 H     1 <1>   0.0800 
 42 H        1.0480    -6.0600    -0.2270 H     1 <1>   0.0800 
 43 H        0.1010    -5.8710     1.2320 H     1 <1>   0.0800 
 44 H       -7.2890    -0.0890    -0.1740 H     1 <1>   0.3700 
 45 H       -9.1150     1.4990     2.0320 H     1 <1>   0.0800 
 46 H       -9.0470    -0.1400     2.5640 H     1 <1>   0.0800 
 47 H       -9.5990    -1.9580     1.1430 H     1 <1>   0.1500 
 48 H      -10.2470     1.0910    -2.6500 H     1 <1>   0.1500 
 49 H       -8.1520     2.5180    -0.2920 H     1 <1>   0.0800 
 50 H       -9.7940     2.8950     0.1860 H     1 <1>   0.0800 
 51 H       -9.3510     2.8880    -1.4960 H     1 <1>   0.0800 
 52 H      -10.5430    -2.7900    -0.9500 H     1 <1>   0.1500 
 53 H      -10.8650    -1.2630    -2.8510 H     1 <1>   0.1500 
@<TRIPOS>BOND
  1   1   2  2   
  2   1   3  2   
  3   1   4  am  
  4   1   5  1   
  5   4   6  1   
  6   4   7  1   
  7   5   8  ar  
  8   5   9  ar  
  9   6  10  1   
 10   6  28  1   
 11   6  29  1   
 12   7  11  1   
 13   7  30  1   
 14   7  31  1   
 15   8  12  ar  
 16   8  32  1   
 17   9  13  ar  
 18   9  33  1   
 19  10  14  1   
 20  10  34  1   
 21  10  35  1   
 22  11  14  1   
 23  11  36  1   
 24  11  37  1   
 25  12  15  ar  
 26  12  38  1   
 27  13  15  ar  
 28  13  39  1   
 29  14  16  1   
 30  14  40  1   
 31  15  17  1   
 32  16  41  1   
 33  16  42  1   
 34  16  43  1   
 35  17  18  am  
 36  17  44  1   
 37  18  19  2   
 38  18  20  1   
 39  20  21  1   
 40  20  45  1   
 41  20  46  1   
 42  21  22  ar  
 43  21  23  ar  
 44  22  24  ar  
 45  22  25  1   
 46  23  26  ar  
 47  23  47  1   
 48  24  27  ar  
 49  24  48  1   
 50  25  49  1   
 51  25  50  1   
 52  25  51  1   
 53  26  27  ar  
 54  26  52  1   
 55  27  53  1   
@<TRIPOS>SUBSTRUCTURE
  1 ****  12 GROUP 4 **** **** 0

# MOE 2024.06 (io_trps.svl 2023.06)
