@<TRIPOS>MOLECULE
NONAME
44 47 1 0 0 
SMALL
USER_CHARGES


@<TRIPOS>ATOM
  1 O        2.6200    -1.4750     2.4510 O.2   1 <1>  -0.5700 
  2 C        1.6780    -1.9240     1.8430 C.2   1 <1>   0.5690 
  3 N        1.2100    -1.4550     0.6680 N.am  1 <1>  -0.6600 
  4 C        0.9090    -3.1390     2.2780 C.3   1 <1>  -0.0990 
  5 C        0.1730    -2.3150     0.0770 C.3   1 <1>   0.1400 
  6 C        1.8530    -0.3640    -0.1300 C.3   1 <1>   0.2010 
  7 C        0.1100    -3.5260     1.0200 C.3   1 <1>  -0.1600 
  8 C        3.1430    -0.8120    -0.8150 C.2   1 <1>   0.5690 
  9 O        3.2370    -0.7280    -2.0180 O.2   1 <1>  -0.5700 
 10 N        4.1410    -1.3050    -0.0410 N.am  1 <1>  -0.7300 
 11 C        5.4070    -1.8950    -0.5090 C.3   1 <1>   0.2200 
 12 C        5.3100    -3.4360    -0.4990 C.3   1 <1>  -0.0800 
 13 C        6.5710    -1.4470     0.4000 C.3   1 <1>  -0.0800 
 14 C        5.1200    -3.9650     0.9420 C.3   1 <1>  -0.1600 
 15 C        6.6240    -4.0120    -1.0650 C.3   1 <1>  -0.1600 
 16 C        6.3800    -1.9790     1.8390 C.3   1 <1>  -0.1600 
 17 C        7.8840    -2.0260    -0.1680 C.3   1 <1>  -0.1600 
 18 C        6.3000    -3.5180     1.8270 C.3   1 <1>  -0.0800 
 19 C        7.8150    -3.5660    -0.1930 C.3   1 <1>  -0.0800 
 20 C        7.6080    -4.0850     1.2430 C.3   1 <1>  -0.1600 
 21 H        0.2560    -2.8670     3.0870 H     1 <1>   0.0800 
 22 H        1.5770    -3.9210     2.5860 H     1 <1>   0.0800 
 23 H        0.4490    -2.6110    -0.9220 H     1 <1>   0.0800 
 24 H       -0.7660    -1.7870     0.0590 H     1 <1>   0.0800 
 25 H        2.0890     0.4540     0.5260 H     1 <1>   0.0800 
 26 H        1.1650    -0.0080    -0.8750 H     1 <1>   0.0800 
 27 H       -0.9070    -3.7870     1.2540 H     1 <1>   0.0800 
 28 H        0.5790    -4.3660     0.5370 H     1 <1>   0.0800 
 29 H        3.9530    -1.4220     0.9650 H     1 <1>   0.3700 
 30 H        5.5910    -1.5590    -1.5160 H     1 <1>   0.0800 
 31 H        4.4880    -3.7450    -1.1210 H     1 <1>   0.0800 
 32 H        6.6270    -0.3730     0.4040 H     1 <1>   0.0800 
 33 H        5.0630    -5.0390     0.9280 H     1 <1>   0.0800 
 34 H        4.1970    -3.6000     1.3540 H     1 <1>   0.0800 
 35 H        6.7650    -3.6710    -2.0760 H     1 <1>   0.0800 
 36 H        6.5710    -5.0870    -1.0890 H     1 <1>   0.0800 
 37 H        5.4860    -1.5710     2.2760 H     1 <1>   0.0800 
 38 H        7.2060    -1.6650     2.4530 H     1 <1>   0.0800 
 39 H        8.0460    -1.6530    -1.1640 H     1 <1>   0.0800 
 40 H        8.7140    -1.7080     0.4380 H     1 <1>   0.0800 
 41 H        6.1600    -3.8830     2.8300 H     1 <1>   0.0800 
 42 H        8.7310    -3.9660    -0.5950 H     1 <1>   0.0800 
 43 H        7.5700    -5.1600     1.2410 H     1 <1>   0.0800 
 44 H        8.4390    -3.7900     1.8600 H     1 <1>   0.0800 
@<TRIPOS>BOND
  1   1   2  2   
  2   2   3  am  
  3   2   4  1   
  4   3   5  1   
  5   3   6  1   
  6   4   7  1   
  7   4  21  1   
  8   4  22  1   
  9   5   7  1   
 10   5  23  1   
 11   5  24  1   
 12   6   8  1   
 13   6  25  1   
 14   6  26  1   
 15   7  27  1   
 16   7  28  1   
 17   8   9  2   
 18   8  10  am  
 19  10  11  1   
 20  10  29  1   
 21  11  12  1   
 22  11  13  1   
 23  11  30  1   
 24  12  14  1   
 25  12  15  1   
 26  12  31  1   
 27  13  16  1   
 28  13  17  1   
 29  13  32  1   
 30  14  18  1   
 31  14  33  1   
 32  14  34  1   
 33  15  19  1   
 34  15  35  1   
 35  15  36  1   
 36  16  18  1   
 37  16  37  1   
 38  16  38  1   
 39  17  19  1   
 40  17  39  1   
 41  17  40  1   
 42  18  20  1   
 43  18  41  1   
 44  19  20  1   
 45  19  42  1   
 46  20  43  1   
 47  20  44  1   
@<TRIPOS>SUBSTRUCTURE
  1 ****  10 GROUP 4 **** **** 0

# MOE 2024.06 (io_trps.svl 2023.06)
