@<TRIPOS>MOLECULE
NONAME
46 47 1 0 0 
SMALL
USER_CHARGES


@<TRIPOS>ATOM
  1 O       -0.0870    -1.1350    -2.4130 O.2   1 <1>  -0.5700 
  2 C       -0.1360    -1.7580    -1.3810 C.2   1 <1>   0.5690 
  3 N        0.9090    -1.8510    -0.4970 N.am  1 <1>  -0.5470 
  4 C       -1.4440    -2.4790    -1.0250 C.3   1 <1>   0.1710 
  5 C        2.1640    -1.2200    -0.4730 C.ar  1 <1>   0.1170 
  6 N       -2.5220    -1.5850    -0.5050 N.3   1 <1>  -0.8100 
  7 C        3.1490    -1.7360     0.3600 C.ar  1 <1>  -0.1500 
  8 C        2.4670    -0.0900    -1.2230 C.ar  1 <1>  -0.1500 
  9 C       -3.8050    -2.2890    -0.2860 C.3   1 <1>   0.1100 
 10 C       -2.1310    -0.7850     0.6820 C.3   1 <1>   0.1100 
 11 C        4.4030    -1.1530     0.4540 C.ar  1 <1>  -0.1430 
 12 C        3.7140     0.4990    -1.1380 C.ar  1 <1>  -0.1500 
 13 C       -4.9380    -1.3130     0.1230 C.3   1 <1>   0.3430 
 14 C       -3.2560     0.1810     1.1310 C.3   1 <1>   0.3430 
 15 C        4.6890    -0.0220    -0.3030 C.ar  1 <1>  -0.1440 
 16 C        5.4410    -1.7660     1.3830 C.3   1 <1>  -0.0970 
 17 N       -4.4380     0.1000     0.2070 N.4   1 <1>  -0.9590 
 18 C        6.0500     0.6580    -0.2410 C.3   1 <1>  -0.0970 
 19 C       -5.5150     1.0830     0.4780 C.3   1 <1>   0.3430 
 20 C       -5.0210     2.4890     0.1590 C.3   1 <1>  -0.2400 
 21 H        0.7800    -2.5160     0.2610 H     1 <1>   0.3700 
 22 H       -1.2370    -3.2510    -0.3060 H     1 <1>   0.0800 
 23 H       -1.7940    -2.9550    -1.9240 H     1 <1>   0.0800 
 24 H        2.9330    -2.6110     0.9430 H     1 <1>   0.1500 
 25 H        1.7350     0.3420    -1.8780 H     1 <1>   0.1500 
 26 H       -3.6880    -3.0390     0.4780 H     1 <1>   0.0800 
 27 H       -4.0950    -2.7920    -1.1940 H     1 <1>   0.0800 
 28 H       -1.2590    -0.1960     0.4490 H     1 <1>   0.0800 
 29 H       -1.8740    -1.4370     1.5000 H     1 <1>   0.0800 
 30 H        3.9180     1.3720    -1.7330 H     1 <1>   0.1500 
 31 H       -5.3430    -1.6180     1.0730 H     1 <1>   0.0800 
 32 H       -5.7290    -1.3770    -0.6060 H     1 <1>   0.0800 
 33 H       -2.8620     1.1830     1.1410 H     1 <1>   0.0800 
 34 H       -3.5560    -0.0640     2.1360 H     1 <1>   0.0800 
 35 H        5.0530    -2.6380     1.8780 H     1 <1>   0.0800 
 36 H        5.7290    -1.0520     2.1340 H     1 <1>   0.0800 
 37 H        6.3100    -2.0570     0.8230 H     1 <1>   0.0800 
 38 H       -4.0300     0.2730    -0.7260 H     1 <1>   0.4500 
 39 H        6.2540     0.9830     0.7640 H     1 <1>   0.0800 
 40 H        6.0810     1.5180    -0.8850 H     1 <1>   0.0800 
 41 H        6.8180    -0.0260    -0.5530 H     1 <1>   0.0800 
 42 H       -5.8260     1.0230     1.5090 H     1 <1>   0.0800 
 43 H       -6.3670     0.8650    -0.1460 H     1 <1>   0.0800 
 44 H       -4.2370     2.7930     0.8280 H     1 <1>   0.0800 
 45 H       -5.8350     3.1820     0.2750 H     1 <1>   0.0800 
 46 H       -4.6760     2.5510    -0.8580 H     1 <1>   0.0800 
@<TRIPOS>BOND
  1   1   2  2   
  2   2   3  am  
  3   2   4  1   
  4   3   5  1   
  5   3  21  1   
  6   4   6  1   
  7   4  22  1   
  8   4  23  1   
  9   5   7  ar  
 10   5   8  ar  
 11   6   9  1   
 12   6  10  1   
 13   7  11  ar  
 14   7  24  1   
 15   8  12  ar  
 16   8  25  1   
 17   9  13  1   
 18   9  26  1   
 19   9  27  1   
 20  10  14  1   
 21  10  28  1   
 22  10  29  1   
 23  11  15  ar  
 24  11  16  1   
 25  12  15  ar  
 26  12  30  1   
 27  13  17  1   
 28  13  31  1   
 29  13  32  1   
 30  14  17  1   
 31  14  33  1   
 32  14  34  1   
 33  15  18  1   
 34  16  35  1   
 35  16  36  1   
 36  16  37  1   
 37  17  19  1   
 38  17  38  1   
 39  18  39  1   
 40  18  40  1   
 41  18  41  1   
 42  19  20  1   
 43  19  42  1   
 44  19  43  1   
 45  20  44  1   
 46  20  45  1   
 47  20  46  1   
@<TRIPOS>SUBSTRUCTURE
  1 ****   3 GROUP 4 **** **** 0

# MOE 2024.06 (io_trps.svl 2023.06)
