@<TRIPOS>MOLECULE
NONAME
33 34 1 0 0 
SMALL
USER_CHARGES


@<TRIPOS>ATOM
  1 O        0.9170    -1.6940     1.5580 O.2   1 <1>  -0.5200 
  2 N       -0.2590    -1.8390     1.9270 N.pl3 1 <1>   0.8000 
  3 O       -0.5540    -1.9330     3.1300 O.2   1 <1>  -0.5200 
  4 C       -1.3360    -1.9450     0.8750 C.3   1 <1>   0.3780 
  5 C       -1.3750    -0.6670     0.0100 C.2   1 <1>  -0.2880 
  6 C       -1.0170    -3.1720    -0.0280 C.3   1 <1>   0.1100 
  7 C       -2.7430    -2.1160     1.4960 C.3   1 <1>  -0.1600 
  8 C       -2.4960    -0.0840    -0.4340 C.2   1 <1>  -0.2880 
  9 N       -2.2120    -3.9170    -0.5330 N.3   1 <1>  -0.8100 
 10 C       -3.7980    -2.1100     0.3530 C.3   1 <1>   0.2400 
 11 C       -3.8870    -0.6490    -0.1680 C.3   1 <1>  -0.0220 
 12 C       -3.3650    -3.0360    -0.8270 C.3   1 <1>   0.1100 
 13 C       -2.5610    -5.1260     0.2660 C.3   1 <1>   0.1100 
 14 N       -5.1390    -2.5810     0.8390 N.pl3 1 <1>   0.8000 
 15 C       -2.1000    -6.4110    -0.4380 C.3   1 <1>   0.1200 
 16 O       -5.1970    -3.4950     1.6750 O.2   1 <1>  -0.5200 
 17 O       -6.1650    -2.0950     0.3410 O.2   1 <1>  -0.5200 
 18 O       -0.8290    -6.2140    -0.9430 O.3   1 <1>  -0.6800 
 19 H       -0.3940    -0.2750    -0.2100 H     1 <1>   0.1500 
 20 H       -0.3800    -3.8620     0.5030 H     1 <1>   0.0800 
 21 H       -0.4550    -2.8260    -0.8790 H     1 <1>   0.0800 
 22 H       -2.9450    -1.3090     2.1790 H     1 <1>   0.0800 
 23 H       -2.7720    -3.0370     2.0510 H     1 <1>   0.0800 
 24 H       -2.5000     0.8250    -1.0170 H     1 <1>   0.1500 
 25 H       -4.4620    -0.6170    -1.0780 H     1 <1>   0.0800 
 26 H       -4.3770    -0.0210     0.5580 H     1 <1>   0.0800 
 27 H       -4.1960    -3.6340    -1.1670 H     1 <1>   0.0800 
 28 H       -3.0760    -2.4250    -1.6660 H     1 <1>   0.0800 
 29 H       -3.6250    -5.1930     0.4150 H     1 <1>   0.0800 
 30 H       -2.1050    -5.0850     1.2400 H     1 <1>   0.0800 
 31 H       -2.7540    -6.6360    -1.2620 H     1 <1>   0.0800 
 32 H       -2.0790    -7.2470     0.2390 H     1 <1>   0.0800 
 33 H       -0.8330    -5.3170    -1.3420 H     1 <1>   0.4000 
@<TRIPOS>BOND
  1   1   2  2   
  2   2   3  2   
  3   2   4  1   
  4   4   5  1   
  5   4   6  1   
  6   4   7  1   
  7   5   8  2   
  8   5  19  1   
  9   6   9  1   
 10   6  20  1   
 11   6  21  1   
 12   7  10  1   
 13   7  22  1   
 14   7  23  1   
 15   8  11  1   
 16   8  24  1   
 17   9  12  1   
 18   9  13  1   
 19  10  11  1   
 20  10  12  1   
 21  10  14  1   
 22  11  25  1   
 23  11  26  1   
 24  12  27  1   
 25  12  28  1   
 26  13  15  1   
 27  13  29  1   
 28  13  30  1   
 29  14  16  2   
 30  14  17  2   
 31  15  18  1   
 32  15  31  1   
 33  15  32  1   
 34  18  33  1   
@<TRIPOS>SUBSTRUCTURE
  1 ****   7 GROUP 4 **** **** 0

# MOE 2024.06 (io_trps.svl 2023.06)
