@<TRIPOS>MOLECULE
NONAME
41 45 1 0 0 
SMALL
USER_CHARGES


@<TRIPOS>ATOM
  1 O       -0.5100     0.6680     1.9960 O.2   1 <1>  -0.5700 
  2 C       -0.4570     1.4430     1.0770 C.2   1 <1>   0.5690 
  3 N        0.5600     1.6000     0.1630 N.am  1 <1>  -0.4200 
  4 C       -1.4780     2.5000     0.7670 C.3   1 <1>  -0.0190 
  5 C        0.1500     2.4270    -0.8630 C.2   1 <1>   0.5690 
  6 C        1.8860     0.9580     0.3110 C.3   1 <1>   0.2200 
  7 C       -2.9500     2.8820     1.0010 C.3   1 <1>   0.1530 
  8 C       -1.3460     2.5280    -0.7630 C.3   1 <1>  -0.0190 
  9 O        0.8180     2.9480    -1.7180 O.2   1 <1>  -0.5700 
 10 C        2.9750     2.0130     0.5540 C.3   1 <1>  -0.1600 
 11 C        2.2120     0.0860    -0.9110 C.3   1 <1>  -0.1600 
 12 C       -3.9120     2.1250     0.0930 C.2   1 <1>  -0.2880 
 13 C       -2.8820     4.1480     0.1320 C.3   1 <1>  -0.1900 
 14 C       -2.5070     3.4630    -1.1830 C.3   1 <1>   0.1530 
 15 C        4.3550     1.3550     0.7000 C.3   1 <1>  -0.1600 
 16 C        3.5910    -0.5730    -0.7630 C.3   1 <1>  -0.1600 
 17 C       -3.6930     2.5040    -1.1710 C.2   1 <1>  -0.2880 
 18 C       -2.3970     5.4940     0.5620 C.3   1 <1>  -0.2000 
 19 C       -3.8550     5.2760     0.2210 C.3   1 <1>  -0.2000 
 20 C        4.6820     0.4790    -0.5170 C.3   1 <1>  -0.1600 
 21 H       -0.9550     3.3500     1.1780 H     1 <1>   0.0800 
 22 H        1.8530     0.3140     1.1740 H     1 <1>   0.0800 
 23 H       -3.2650     3.0590     2.0150 H     1 <1>   0.0800 
 24 H       -1.6180     1.5610    -1.1570 H     1 <1>   0.0800 
 25 H        2.7490     2.5650     1.4490 H     1 <1>   0.0800 
 26 H        3.0070     2.7010    -0.2730 H     1 <1>   0.0800 
 27 H        2.2140     0.6900    -1.8010 H     1 <1>   0.0800 
 28 H        1.4630    -0.6790    -1.0170 H     1 <1>   0.0800 
 29 H       -4.6200     1.4300     0.5110 H     1 <1>   0.1500 
 30 H       -2.3910     4.0800    -2.0580 H     1 <1>   0.0800 
 31 H        4.3700     0.7490     1.5900 H     1 <1>   0.0800 
 32 H        5.1080     2.1170     0.8080 H     1 <1>   0.0800 
 33 H        3.8220    -1.1290    -1.6550 H     1 <1>   0.0800 
 34 H        3.5710    -1.2660     0.0610 H     1 <1>   0.0800 
 35 H       -4.1740     2.2160    -2.0900 H     1 <1>   0.1500 
 36 H       -1.7950     6.0760    -0.1150 H     1 <1>   0.1000 
 37 H       -2.1410     5.6650     1.5930 H     1 <1>   0.1000 
 38 H       -4.5800     5.2720     1.0160 H     1 <1>   0.1000 
 39 H       -4.2450     5.6960    -0.6900 H     1 <1>   0.1000 
 40 H        5.6280    -0.0120    -0.3640 H     1 <1>   0.0800 
 41 H        4.7750     1.1040    -1.3890 H     1 <1>   0.0800 
@<TRIPOS>BOND
  1   1   2  2   
  2   2   3  am  
  3   2   4  1   
  4   3   5  am  
  5   3   6  1   
  6   4   7  1   
  7   4   8  1   
  8   4  21  1   
  9   5   8  1   
 10   5   9  2   
 11   6  10  1   
 12   6  11  1   
 13   6  22  1   
 14   7  12  1   
 15   7  13  1   
 16   7  23  1   
 17   8  14  1   
 18   8  24  1   
 19  10  15  1   
 20  10  25  1   
 21  10  26  1   
 22  11  16  1   
 23  11  27  1   
 24  11  28  1   
 25  12  17  2   
 26  12  29  1   
 27  13  14  1   
 28  13  18  1   
 29  13  19  1   
 30  14  17  1   
 31  14  30  1   
 32  15  20  1   
 33  15  31  1   
 34  15  32  1   
 35  16  20  1   
 36  16  33  1   
 37  16  34  1   
 38  17  35  1   
 39  18  19  1   
 40  18  36  1   
 41  18  37  1   
 42  19  38  1   
 43  19  39  1   
 44  20  40  1   
 45  20  41  1   
@<TRIPOS>SUBSTRUCTURE
  1 ****   5 GROUP 4 **** **** 0

# MOE 2024.06 (io_trps.svl 2023.06)
