@<TRIPOS>MOLECULE
NONAME
39 40 1 0 0 
SMALL
USER_CHARGES


@<TRIPOS>ATOM
  1 O        0.8000     0.2620    -1.3440 O.2   1 <1>  -0.5700 
  2 C        1.6050     0.9010    -0.6980 C.2   1 <1>   0.6900 
  3 N        1.2550     2.1240    -0.1650 N.am  1 <1>  -0.4200 
  4 N        2.8660     0.3950    -0.4590 N.am  1 <1>  -0.4200 
  5 C        2.1780     2.9080     0.4820 C.2   1 <1>   0.5690 
  6 C       -0.1830     2.5260    -0.1650 C.3   1 <1>   0.0600 
  7 C        3.8490     1.1610     0.1230 C.2   1 <1>   0.5690 
  8 C        3.1290    -1.0430    -0.7680 C.3   1 <1>   0.0600 
  9 O        1.8370     3.7630     1.2620 O.2   1 <1>  -0.5700 
 10 C        3.6510     2.6660     0.1840 C.3   1 <1>   0.0420 
 11 O        4.8710     0.6720     0.5400 O.2   1 <1>  -0.5700 
 12 C        4.6290     3.3940     1.1400 C.3   1 <1>  -0.0160 
 13 C        4.7770     4.8640     0.7670 C.ar  1 <1>  -0.1430 
 14 C        4.0700     5.8470     1.4430 C.ar  1 <1>  -0.1500 
 15 C        5.6300     5.2320    -0.2630 C.ar  1 <1>  -0.1500 
 16 C        4.2020     7.1790     1.0910 C.ar  1 <1>  -0.1500 
 17 C        5.7650     6.5630    -0.6170 C.ar  1 <1>  -0.1500 
 18 C        5.0530     7.5440     0.0520 C.ar  1 <1>   0.0820 
 19 O        5.2370     8.8230    -0.3610 O.3   1 <1>  -0.3630 
 20 C        4.5510     9.8920     0.2450 C.3   1 <1>   0.1200 
 21 C        4.9750    11.1810    -0.4530 C.3   1 <1>  -0.2400 
 22 H       -0.7090     1.9770     0.5960 H     1 <1>   0.0800 
 23 H       -0.6270     2.3120    -1.1220 H     1 <1>   0.0800 
 24 H       -0.2840     3.5800     0.0290 H     1 <1>   0.0800 
 25 H        2.6390    -1.6620    -0.0370 H     1 <1>   0.0800 
 26 H        4.1840    -1.2550    -0.7570 H     1 <1>   0.0800 
 27 H        2.7450    -1.2860    -1.7440 H     1 <1>   0.0800 
 28 H        3.8360     3.0330    -0.8070 H     1 <1>   0.0800 
 29 H        5.6080     2.9520     1.0790 H     1 <1>   0.0800 
 30 H        4.3000     3.2920     2.1590 H     1 <1>   0.0800 
 31 H        3.4050     5.5770     2.2450 H     1 <1>   0.1500 
 32 H        6.1950     4.4870    -0.7940 H     1 <1>   0.1500 
 33 H        3.6340     7.9090     1.6340 H     1 <1>   0.1500 
 34 H        6.4240     6.8500    -1.4150 H     1 <1>   0.1500 
 35 H        4.8140     9.9190     1.2880 H     1 <1>   0.0800 
 36 H        3.4930     9.7270     0.1290 H     1 <1>   0.0800 
 37 H        6.0350    11.3260    -0.3460 H     1 <1>   0.0800 
 38 H        4.4660    12.0180    -0.0110 H     1 <1>   0.0800 
 39 H        4.7210    11.1350    -1.4970 H     1 <1>   0.0800 
@<TRIPOS>BOND
  1   1   2  2   
  2   2   3  am  
  3   2   4  am  
  4   3   5  am  
  5   3   6  1   
  6   4   7  am  
  7   4   8  1   
  8   5   9  2   
  9   5  10  1   
 10   6  22  1   
 11   6  23  1   
 12   6  24  1   
 13   7  10  1   
 14   7  11  2   
 15   8  25  1   
 16   8  26  1   
 17   8  27  1   
 18  10  12  1   
 19  10  28  1   
 20  12  13  1   
 21  12  29  1   
 22  12  30  1   
 23  13  14  ar  
 24  13  15  ar  
 25  14  16  ar  
 26  14  31  1   
 27  15  17  ar  
 28  15  32  1   
 29  16  18  ar  
 30  16  33  1   
 31  17  18  ar  
 32  17  34  1   
 33  18  19  1   
 34  19  20  1   
 35  20  21  1   
 36  20  35  1   
 37  20  36  1   
 38  21  37  1   
 39  21  38  1   
 40  21  39  1   
@<TRIPOS>SUBSTRUCTURE
  1 ****  10 GROUP 4 **** **** 0

# MOE 2024.06 (io_trps.svl 2023.06)
