@<TRIPOS>MOLECULE
NONAME
46 48 1 0 0 
SMALL
USER_CHARGES


@<TRIPOS>ATOM
  1 O       -4.5090     2.1480    -2.2790 O.co2 1 <1>  -0.9000 
  2 C       -3.6830     1.2290    -2.2130 C.2   1 <1>   0.9060 
  3 O       -3.7790     0.2260    -2.9220 O.co2 1 <1>  -0.9000 
  4 C       -2.5430     1.3050    -1.2120 C.3   1 <1>  -0.1860 
  5 C       -2.8420     0.8090     0.2530 C.3   1 <1>  -0.0190 
  6 C       -1.8260     2.6790    -1.1740 C.3   1 <1>   0.0580 
  7 C       -4.2840     0.4960     0.6720 C.2   1 <1>   0.5690 
  8 C       -2.1880     1.7740     1.2790 C.3   1 <1>   0.0580 
  9 C       -0.5490     2.4270    -0.3770 C.2   1 <1>  -0.2880 
 10 C       -2.6430     3.6880    -0.3290 C.3   1 <1>  -0.1600 
 11 O       -4.4460    -0.3570     1.5170 O.2   1 <1>  -0.5700 
 12 N       -5.3390     1.1730     0.1540 N.am  1 <1>  -0.7300 
 13 C       -0.7310     1.9590     0.8610 C.2   1 <1>  -0.2880 
 14 C       -2.8310     3.1700     1.1240 C.3   1 <1>  -0.1600 
 15 C       -6.7540     0.7720     0.2610 C.3   1 <1>   0.1400 
 16 C       -7.3610     0.7040    -1.1400 C.3   1 <1>  -0.0170 
 17 C       -8.7580     0.0880    -1.0940 C.ar  1 <1>  -0.1430 
 18 C       -9.8610     0.8110    -0.6450 C.ar  1 <1>   0.0820 
 19 C       -8.9230    -1.2240    -1.5090 C.ar  1 <1>  -0.1500 
 20 O       -9.6600     2.0940    -0.2420 O.3   1 <1>  -0.3620 
 21 C      -11.1160     0.2050    -0.6210 C.ar  1 <1>  -0.1500 
 22 C      -10.1710    -1.8210    -1.4820 C.ar  1 <1>  -0.1500 
 23 C      -10.7270     2.9350     0.1290 C.3   1 <1>   0.0400 
 24 C      -11.2680    -1.1050    -1.0380 C.ar  1 <1>  -0.1500 
 25 H       -1.8190     0.6200    -1.6120 H     1 <1>   0.0800 
 26 H       -2.3260    -0.1290     0.3500 H     1 <1>   0.0800 
 27 H       -1.6240     3.0500    -2.1650 H     1 <1>   0.0800 
 28 H       -2.2750     1.4020     2.2860 H     1 <1>   0.0800 
 29 H        0.3850     2.6350    -0.8700 H     1 <1>   0.1500 
 30 H       -3.6010     3.8670    -0.7810 H     1 <1>   0.0800 
 31 H       -2.1190     4.6270    -0.3070 H     1 <1>   0.0800 
 32 H       -5.1460     1.7690    -0.6790 H     1 <1>   0.3700 
 33 H        0.0250     1.7080     1.5830 H     1 <1>   0.1500 
 34 H       -2.3580     3.8510     1.8080 H     1 <1>   0.0800 
 35 H       -3.8770     3.1360     1.3710 H     1 <1>   0.0800 
 36 H       -7.2870     1.4900     0.8590 H     1 <1>   0.0800 
 37 H       -6.8250    -0.1930     0.7340 H     1 <1>   0.0800 
 38 H       -6.7190     0.1150    -1.7740 H     1 <1>   0.0800 
 39 H       -7.4090     1.6930    -1.5610 H     1 <1>   0.0800 
 40 H       -8.0720    -1.7860    -1.8550 H     1 <1>   0.1500 
 41 H      -11.9840     0.7340    -0.2800 H     1 <1>   0.1500 
 42 H      -10.2840    -2.8400    -1.8070 H     1 <1>   0.1500 
 43 H      -10.3210     3.9030     0.3620 H     1 <1>   0.0800 
 44 H      -11.2100     2.5220     0.9960 H     1 <1>   0.0800 
 45 H      -11.4110     3.0140    -0.6970 H     1 <1>   0.0800 
 46 H      -12.2380    -1.5700    -1.0180 H     1 <1>   0.1500 
@<TRIPOS>BOND
  1   1   2  ar  
  2   2   3  ar  
  3   2   4  1   
  4   4   5  1   
  5   4   6  1   
  6   4  25  1   
  7   5   7  1   
  8   5   8  1   
  9   5  26  1   
 10   6   9  1   
 11   6  10  1   
 12   6  27  1   
 13   7  11  2   
 14   7  12  am  
 15   8  13  1   
 16   8  14  1   
 17   8  28  1   
 18   9  13  2   
 19   9  29  1   
 20  10  14  1   
 21  10  30  1   
 22  10  31  1   
 23  12  15  1   
 24  12  32  1   
 25  13  33  1   
 26  14  34  1   
 27  14  35  1   
 28  15  16  1   
 29  15  36  1   
 30  15  37  1   
 31  16  17  1   
 32  16  38  1   
 33  16  39  1   
 34  17  18  ar  
 35  17  19  ar  
 36  18  20  1   
 37  18  21  ar  
 38  19  22  ar  
 39  19  40  1   
 40  20  23  1   
 41  21  24  ar  
 42  21  41  1   
 43  22  24  ar  
 44  22  42  1   
 45  23  43  1   
 46  23  44  1   
 47  23  45  1   
 48  24  46  1   
@<TRIPOS>SUBSTRUCTURE
  1 ****  12 GROUP 4 **** **** 0

# MOE 2024.06 (io_trps.svl 2023.06)
