@<TRIPOS>MOLECULE
NONAME
41 42 1 0 0 
SMALL
USER_CHARGES


@<TRIPOS>ATOM
  1 O        0.8590     0.4480     1.0850 O.3   1 <1>  -0.6800 
  2 C        2.0760    -0.2060     1.1780 C.3   1 <1>   0.1200 
  3 C        2.6680    -0.3220    -0.2300 C.3   1 <1>   0.1100 
  4 N        3.9830    -1.0000    -0.2230 N.3   1 <1>  -0.8100 
  5 C        3.8560    -2.4680    -0.0310 C.3   1 <1>   0.1100 
  6 C        4.7170    -0.7170    -1.4810 C.3   1 <1>   0.1100 
  7 C        5.2200    -3.2000    -0.1110 C.3   1 <1>   0.3430 
  8 C        6.1130    -1.3860    -1.5150 C.3   1 <1>   0.3430 
  9 N        6.3410    -2.2220    -0.2880 N.4   1 <1>  -0.9590 
 10 C        7.6930    -2.8400    -0.1880 C.3   1 <1>   0.3430 
 11 C        8.8020    -1.7840    -0.0460 C.3   1 <1>  -0.0800 
 12 C       10.1670    -2.4950     0.0460 C.3   1 <1>  -0.0220 
 13 C        8.5970    -0.8520     1.1700 C.3   1 <1>  -0.1600 
 14 C       11.2690    -1.5210     0.4140 C.2   1 <1>  -0.2880 
 15 C        9.6680     0.2490     1.2230 C.3   1 <1>  -0.0220 
 16 C       11.0480    -0.3070     0.9240 C.2   1 <1>  -0.2880 
 17 H        0.4660     0.5890     1.9690 H     1 <1>   0.4000 
 18 H        1.8980    -1.1740     1.6110 H     1 <1>   0.0800 
 19 H        2.7240     0.3750     1.8120 H     1 <1>   0.0800 
 20 H        2.7860     0.6790    -0.6110 H     1 <1>   0.0800 
 21 H        1.9800    -0.8490    -0.8700 H     1 <1>   0.0800 
 22 H        3.1940    -2.8800    -0.7740 H     1 <1>   0.0800 
 23 H        3.4190    -2.6690     0.9330 H     1 <1>   0.0800 
 24 H        4.8440     0.3480    -1.5890 H     1 <1>   0.0800 
 25 H        4.1410    -1.0580    -2.3250 H     1 <1>   0.0800 
 26 H        5.2020    -3.8930    -0.9360 H     1 <1>   0.0800 
 27 H        5.3640    -3.7680     0.7930 H     1 <1>   0.0800 
 28 H        6.8610    -0.6130    -1.5760 H     1 <1>   0.0800 
 29 H        6.1950    -1.9940    -2.4000 H     1 <1>   0.0800 
 30 H        6.2050    -1.5560     0.4880 H     1 <1>   0.4500 
 31 H        7.8820    -3.4440    -1.0610 H     1 <1>   0.0800 
 32 H        7.7260    -3.4850     0.6750 H     1 <1>   0.0800 
 33 H        8.8260    -1.1800    -0.9370 H     1 <1>   0.0800 
 34 H       10.4020    -2.9460    -0.9030 H     1 <1>   0.0800 
 35 H       10.1440    -3.2720     0.7910 H     1 <1>   0.0800 
 36 H        8.6600    -1.4330     2.0750 H     1 <1>   0.0800 
 37 H        7.6330    -0.3760     1.1470 H     1 <1>   0.0800 
 38 H       12.2610    -1.9030     0.2290 H     1 <1>   0.1500 
 39 H        9.6660     0.6980     2.2020 H     1 <1>   0.0800 
 40 H        9.4440     1.0190     0.5050 H     1 <1>   0.0800 
 41 H       11.8440     0.3790     1.1660 H     1 <1>   0.1500 
@<TRIPOS>BOND
  1   1   2  1   
  2   1  17  1   
  3   2   3  1   
  4   2  18  1   
  5   2  19  1   
  6   3   4  1   
  7   3  20  1   
  8   3  21  1   
  9   4   5  1   
 10   4   6  1   
 11   5   7  1   
 12   5  22  1   
 13   5  23  1   
 14   6   8  1   
 15   6  24  1   
 16   6  25  1   
 17   7   9  1   
 18   7  26  1   
 19   7  27  1   
 20   8   9  1   
 21   8  28  1   
 22   8  29  1   
 23   9  10  1   
 24   9  30  1   
 25  10  11  1   
 26  10  31  1   
 27  10  32  1   
 28  11  12  1   
 29  11  13  1   
 30  11  33  1   
 31  12  14  1   
 32  12  34  1   
 33  12  35  1   
 34  13  15  1   
 35  13  36  1   
 36  13  37  1   
 37  14  16  2   
 38  14  38  1   
 39  15  16  1   
 40  15  39  1   
 41  15  40  1   
 42  16  41  1   
@<TRIPOS>SUBSTRUCTURE
  1 ****   9 GROUP 4 **** **** 0

# MOE 2024.06 (io_trps.svl 2023.06)
