@<TRIPOS>MOLECULE
NONAME
34 35 1 0 0 
SMALL
USER_CHARGES


@<TRIPOS>ATOM
  1 CL      -1.1620    -1.6500    -2.7440 Cl    1 <1>  -0.1770 
  2 C       -1.0520    -1.5360    -1.0040 C.ar  1 <1>   0.1770 
  3 C       -2.1850    -1.3060    -0.2400 C.ar  1 <1>  -0.1440 
  4 C        0.1960    -1.6780    -0.4240 C.ar  1 <1>  -0.1500 
  5 C       -2.0410    -1.2040     1.1400 C.ar  1 <1>  -0.1500 
  6 C       -3.5440    -1.1840    -0.9180 C.3   1 <1>   0.5660 
  7 C        0.3250    -1.5830     0.9500 C.ar  1 <1>  -0.1500 
  8 C       -0.7940    -1.3440     1.7300 C.ar  1 <1>  -0.1500 
  9 N       -4.3050    -0.0670    -0.3610 N.2   1 <1>  -0.6960 
 10 N       -4.3430    -2.3980    -0.6330 N.4   1 <1>  -0.1220 
 11 C       -5.4310    -0.4580     0.0140 C.2   1 <1>   0.3280 
 12 O       -4.3680    -3.2650    -1.6980 O.2   1 <1>  -0.7500 
 13 C       -5.6860    -1.9490    -0.1710 C.3   1 <1>   0.3170 
 14 C       -6.4780     0.4680     0.6240 C.3   1 <1>  -0.0990 
 15 C       -6.8030    -2.2140    -1.2000 C.3   1 <1>  -0.2400 
 16 C       -5.9990    -2.6770     1.1460 C.3   1 <1>  -0.2400 
 17 C       -7.3280     1.1770    -0.4400 C.3   1 <1>  -0.2400 
 18 H        1.0540    -1.8590    -1.0460 H     1 <1>   0.1500 
 19 H       -2.8940    -1.0050     1.7660 H     1 <1>   0.1500 
 20 H       -3.4480    -1.0610    -1.9830 H     1 <1>   0.0800 
 21 H        1.2920    -1.6920     1.4110 H     1 <1>   0.1500 
 22 H       -0.6930    -1.2630     2.7990 H     1 <1>   0.1500 
 23 H       -3.8590    -2.8720     0.1320 H     1 <1>   0.3600 
 24 H       -5.9620     1.2190     1.1970 H     1 <1>   0.0800 
 25 H       -7.1140    -0.0720     1.3000 H     1 <1>   0.0800 
 26 H       -6.8940    -3.2690    -1.3910 H     1 <1>   0.0800 
 27 H       -6.5780    -1.7160    -2.1270 H     1 <1>   0.0800 
 28 H       -7.7490    -1.8600    -0.8360 H     1 <1>   0.0800 
 29 H       -5.2690    -2.4390     1.8990 H     1 <1>   0.0800 
 30 H       -6.0080    -3.7410     0.9820 H     1 <1>   0.0800 
 31 H       -6.9690    -2.3930     1.5130 H     1 <1>   0.0800 
 32 H       -6.6910     1.7330    -1.1070 H     1 <1>   0.0800 
 33 H       -8.0100     1.8630     0.0300 H     1 <1>   0.0800 
 34 H       -7.8970     0.4730    -1.0180 H     1 <1>   0.0800 
@<TRIPOS>BOND
  1   1   2  1   
  2   2   3  ar  
  3   2   4  ar  
  4   3   5  ar  
  5   3   6  1   
  6   4   7  ar  
  7   4  18  1   
  8   5   8  ar  
  9   5  19  1   
 10   6   9  1   
 11   6  10  1   
 12   6  20  1   
 13   7   8  ar  
 14   7  21  1   
 15   8  22  1   
 16   9  11  2   
 17  10  12  2   
 18  10  13  1   
 19  10  23  1   
 20  11  13  1   
 21  11  14  1   
 22  13  15  1   
 23  13  16  1   
 24  14  17  1   
 25  14  24  1   
 26  14  25  1   
 27  15  26  1   
 28  15  27  1   
 29  15  28  1   
 30  16  29  1   
 31  16  30  1   
 32  16  31  1   
 33  17  32  1   
 34  17  33  1   
 35  17  34  1   
@<TRIPOS>SUBSTRUCTURE
  1 ****   6 GROUP 4 **** **** 0

# MOE 2024.06 (io_trps.svl 2023.06)
