@<TRIPOS>MOLECULE
NONAME
45 47 1 0 0 
SMALL
USER_CHARGES


@<TRIPOS>ATOM
  1 O       10.2400    -1.9510    -1.0340 O.3   1 <1>  -0.3630 
  2 C       10.7480    -0.7270    -0.7770 C.ar  1 <1>   0.0830 
  3 C        9.6750    -2.6550     0.0450 C.3   1 <1>   0.1200 
  4 C        9.9230     0.3560    -0.4420 C.ar  1 <1>   0.0000 
  5 C       12.1220    -0.5760    -0.8620 C.ar  1 <1>  -0.1500 
  6 C        8.3840    -3.3000    -0.4550 C.3   1 <1>  -0.1600 
  7 C        8.4790     0.2700    -0.3910 C.ar  1 <1>   0.0000 
  8 C       10.5380     1.5740    -0.1660 C.ar  1 <1>  -0.1500 
  9 C       12.7070     0.6460    -0.5880 C.ar  1 <1>  -0.1500 
 10 C        7.5230    -3.7440     0.7220 C.3   1 <1>   0.3430 
 11 C        7.7940     0.3740     0.8170 C.ar  1 <1>  -0.1500 
 12 C        7.7320     0.1120    -1.5540 C.ar  1 <1>  -0.1500 
 13 C       11.9110     1.7220    -0.2350 C.ar  1 <1>  -0.1500 
 14 N        6.2050    -4.2290     0.2320 N.4   1 <1>  -0.9590 
 15 C        6.4110     0.3310     0.8610 C.ar  1 <1>  -0.1500 
 16 C        6.3490     0.0700    -1.5170 C.ar  1 <1>  -0.1500 
 17 C        5.3330    -3.1380    -0.2730 C.3   1 <1>   0.3430 
 18 C        5.4160    -4.9240     1.2760 C.3   1 <1>   0.3430 
 19 C        5.6850     0.1850    -0.3080 C.ar  1 <1>  -0.1500 
 20 C        3.9290    -3.7250    -0.2380 C.3   1 <1>  -0.1600 
 21 C        3.9870    -4.8940     0.7500 C.3   1 <1>  -0.1600 
 22 H        9.4810    -1.9670     0.8500 H     1 <1>   0.0800 
 23 H       10.3890    -3.3910     0.3720 H     1 <1>   0.0800 
 24 H       12.7300    -1.4170    -1.1400 H     1 <1>   0.1500 
 25 H        8.6310    -4.1420    -1.0760 H     1 <1>   0.0800 
 26 H        7.8540    -2.5720    -1.0380 H     1 <1>   0.0800 
 27 H        9.9280     2.4210     0.0970 H     1 <1>   0.1500 
 28 H       13.7760     0.7610    -0.6500 H     1 <1>   0.1500 
 29 H        7.3770    -2.9160     1.3980 H     1 <1>   0.0800 
 30 H        8.0300    -4.5330     1.2550 H     1 <1>   0.0800 
 31 H        8.3560     0.5070     1.7250 H     1 <1>   0.1500 
 32 H        8.2490     0.0330    -2.4950 H     1 <1>   0.1500 
 33 H       12.3630     2.6750    -0.0190 H     1 <1>   0.1500 
 34 H        6.3550    -4.8900    -0.5410 H     1 <1>   0.4500 
 35 H        5.9010     0.4320     1.8040 H     1 <1>   0.1500 
 36 H        5.7930    -0.0330    -2.4340 H     1 <1>   0.1500 
 37 H        5.6140    -2.8260    -1.2670 H     1 <1>   0.0800 
 38 H        5.3870    -2.2930     0.3930 H     1 <1>   0.0800 
 39 H        5.4690    -4.3740     2.2020 H     1 <1>   0.0800 
 40 H        5.7620    -5.9330     1.4360 H     1 <1>   0.0800 
 41 H        4.6090     0.1780    -0.2800 H     1 <1>   0.1500 
 42 H        3.6530    -4.0740    -1.2180 H     1 <1>   0.0800 
 43 H        3.2190    -2.9760     0.0700 H     1 <1>   0.0800 
 44 H        3.2900    -4.7700     1.5610 H     1 <1>   0.0800 
 45 H        3.7640    -5.8200     0.2490 H     1 <1>   0.0800 
@<TRIPOS>BOND
  1   1   2  1   
  2   1   3  1   
  3   2   4  ar  
  4   2   5  ar  
  5   3   6  1   
  6   3  22  1   
  7   3  23  1   
  8   4   7  1   
  9   4   8  ar  
 10   5   9  ar  
 11   5  24  1   
 12   6  10  1   
 13   6  25  1   
 14   6  26  1   
 15   7  11  ar  
 16   7  12  ar  
 17   8  13  ar  
 18   8  27  1   
 19   9  13  ar  
 20   9  28  1   
 21  10  14  1   
 22  10  29  1   
 23  10  30  1   
 24  11  15  ar  
 25  11  31  1   
 26  12  16  ar  
 27  12  32  1   
 28  13  33  1   
 29  14  17  1   
 30  14  18  1   
 31  14  34  1   
 32  15  19  ar  
 33  15  35  1   
 34  16  19  ar  
 35  16  36  1   
 36  17  20  1   
 37  17  37  1   
 38  17  38  1   
 39  18  21  1   
 40  18  39  1   
 41  18  40  1   
 42  19  41  1   
 43  20  21  1   
 44  20  42  1   
 45  20  43  1   
 46  21  44  1   
 47  21  45  1   
@<TRIPOS>SUBSTRUCTURE
  1 ****   7 GROUP 4 **** **** 0

# MOE 2024.06 (io_trps.svl 2023.06)
