@<TRIPOS>MOLECULE
NONAME
52 54 1 0 0 
SMALL
USER_CHARGES


@<TRIPOS>ATOM
  1 CL       0.1750    -3.5020     2.7050 Cl    1 <1>  -0.1770 
  2 C       -0.9780    -2.6250     1.7150 C.ar  1 <1>   0.1770 
  3 C       -0.8000    -2.5230     0.3280 C.ar  1 <1>   0.1000 
  4 C       -2.0580    -2.0460     2.3540 C.ar  1 <1>  -0.1500 
  5 N        0.2690    -3.0850    -0.3800 N.pl3 1 <1>  -0.8380 
  6 C       -1.7560    -1.8130    -0.3880 C.ar  1 <1>  -0.1500 
  7 C       -2.9950    -1.3440     1.6150 C.ar  1 <1>  -0.1500 
  8 C        0.2850    -4.5780    -0.4680 C.3   1 <1>   0.2090 
  9 C        1.6100    -2.4640    -0.1440 C.3   1 <1>   0.2090 
 10 C       -2.8400    -1.2290     0.2440 C.ar  1 <1>  -0.1500 
 11 C        1.3380    -5.0690    -1.4830 C.3   1 <1>   0.3430 
 12 C        2.6500    -2.9740    -1.1620 C.3   1 <1>   0.3430 
 13 N        2.6960    -4.4790    -1.2190 N.4   1 <1>  -0.9590 
 14 C        3.7380    -4.9880    -2.1420 C.3   1 <1>   0.4860 
 15 C        5.0960    -4.5500    -1.6240 C.ar  1 <1>  -0.1430 
 16 C        5.5410    -4.9670    -0.3690 C.ar  1 <1>   0.0830 
 17 C        5.8840    -3.7310    -2.4170 C.ar  1 <1>  -0.1500 
 18 O        4.6570    -5.7540     0.3260 O.3   1 <1>  -0.3630 
 19 C        6.8120    -4.5600     0.0780 C.ar  1 <1>   0.0830 
 20 C        7.1170    -3.3060    -1.9630 C.ar  1 <1>  -0.1500 
 21 C        4.8690    -6.2010     1.6510 C.3   1 <1>   0.0400 
 22 O        7.3150    -4.9870     1.2700 O.3   1 <1>  -0.3630 
 23 C        7.5750    -3.7000    -0.7200 C.ar  1 <1>   0.0830 
 24 C        8.4140    -5.8750     1.2040 C.3   1 <1>   0.0400 
 25 O        8.7840    -3.2190    -0.3390 O.3   1 <1>  -0.3630 
 26 C        8.7960    -2.3030     0.7340 C.3   1 <1>   0.0400 
 27 H       -2.1640    -2.1430     3.4200 H     1 <1>   0.1500 
 28 H       -1.6430    -1.7190    -1.4530 H     1 <1>   0.1500 
 29 H       -3.8390    -0.8890     2.1040 H     1 <1>   0.1500 
 30 H       -0.6900    -4.9240    -0.7700 H     1 <1>   0.0800 
 31 H        0.4980    -5.0010     0.4980 H     1 <1>   0.0800 
 32 H        1.9490    -2.6860     0.8520 H     1 <1>   0.0800 
 33 H        1.5230    -1.3940    -0.2300 H     1 <1>   0.0800 
 34 H       -3.5680    -0.6830    -0.3330 H     1 <1>   0.1500 
 35 H        1.0080    -4.7880    -2.4700 H     1 <1>   0.0800 
 36 H        1.3890    -6.1440    -1.4420 H     1 <1>   0.0800 
 37 H        3.6190    -2.5870    -0.8940 H     1 <1>   0.0800 
 38 H        2.3920    -2.5830    -2.1320 H     1 <1>   0.0800 
 39 H        3.0180    -4.8050    -0.2910 H     1 <1>   0.4500 
 40 H        3.5750    -4.6090    -3.1380 H     1 <1>   0.0800 
 41 H        3.7090    -6.0650    -2.1720 H     1 <1>   0.0800 
 42 H        5.5550    -3.4130    -3.3930 H     1 <1>   0.1500 
 43 H        7.7350    -2.6660    -2.5690 H     1 <1>   0.1500 
 44 H        5.0500    -5.3520     2.2870 H     1 <1>   0.0800 
 45 H        5.7080    -6.8730     1.6640 H     1 <1>   0.0800 
 46 H        3.9880    -6.7210     1.9810 H     1 <1>   0.0800 
 47 H        8.6260    -6.2220     2.1990 H     1 <1>   0.0800 
 48 H        9.2710    -5.3590     0.8100 H     1 <1>   0.0800 
 49 H        8.1550    -6.7050     0.5700 H     1 <1>   0.0800 
 50 H        9.8040    -1.9540     0.8660 H     1 <1>   0.0800 
 51 H        8.4600    -2.7940     1.6300 H     1 <1>   0.0800 
 52 H        8.1500    -1.4770     0.4940 H     1 <1>   0.0800 
@<TRIPOS>BOND
  1   1   2  1   
  2   2   3  ar  
  3   2   4  ar  
  4   3   5  1   
  5   3   6  ar  
  6   4   7  ar  
  7   4  27  1   
  8   5   8  1   
  9   5   9  1   
 10   6  10  ar  
 11   6  28  1   
 12   7  10  ar  
 13   7  29  1   
 14   8  11  1   
 15   8  30  1   
 16   8  31  1   
 17   9  12  1   
 18   9  32  1   
 19   9  33  1   
 20  10  34  1   
 21  11  13  1   
 22  11  35  1   
 23  11  36  1   
 24  12  13  1   
 25  12  37  1   
 26  12  38  1   
 27  13  14  1   
 28  13  39  1   
 29  14  15  1   
 30  14  40  1   
 31  14  41  1   
 32  15  16  ar  
 33  15  17  ar  
 34  16  18  1   
 35  16  19  ar  
 36  17  20  ar  
 37  17  42  1   
 38  18  21  1   
 39  19  22  1   
 40  19  23  ar  
 41  20  23  ar  
 42  20  43  1   
 43  21  44  1   
 44  21  45  1   
 45  21  46  1   
 46  22  24  1   
 47  23  25  1   
 48  24  47  1   
 49  24  48  1   
 50  24  49  1   
 51  25  26  1   
 52  26  50  1   
 53  26  51  1   
 54  26  52  1   
@<TRIPOS>SUBSTRUCTURE
  1 ****  12 GROUP 4 **** **** 0

# MOE 2024.06 (io_trps.svl 2023.06)
