@<TRIPOS>MOLECULE
NONAME
57 59 1 0 0 
SMALL
USER_CHARGES


@<TRIPOS>ATOM
  1 O       -0.3970     0.1750    -0.7990 O.2   1 <1>  -0.5700 
  2 C       -1.3960     0.7890    -0.4370 C.2   1 <1>   0.6160 
  3 N       -2.5760     0.0680    -0.2110 N.am  1 <1>  -0.2860 
  4 C       -1.3970     2.2120    -0.2380 C.2   1 <1>   0.0290 
  5 C       -2.5370    -1.3430    -0.3390 C.ar  1 <1>   0.1170 
  6 C       -3.7380     0.7140     0.1590 C.2   1 <1>  -0.0290 
  7 C       -0.2010     3.0030    -0.4480 C.2   1 <1>   0.6160 
  8 C       -2.5690     2.8020     0.1620 C.2   1 <1>  -0.1500 
  9 C       -2.3300    -2.1450     0.7770 C.ar  1 <1>  -0.1500 
 10 C       -2.7230    -1.9450    -1.5770 C.ar  1 <1>  -0.1500 
 11 C       -3.7670     2.0740     0.3780 C.2   1 <1>   0.0140 
 12 C       -5.0130    -0.1220     0.3460 C.3   1 <1>  -0.0220 
 13 O       -0.2370     4.2080    -0.2780 O.2   1 <1>  -0.5700 
 14 N        0.9940     2.4660    -0.8350 N.am  1 <1>  -0.7300 
 15 C       -2.3220    -3.5240     0.6640 C.ar  1 <1>  -0.1500 
 16 C       -2.7170    -3.3220    -1.6940 C.ar  1 <1>  -0.1500 
 17 C       -4.9540     2.7610     0.8180 C.2   1 <1>   0.4950 
 18 C       -6.3130     0.7000     0.2350 C.3   1 <1>   0.0000 
 19 C        2.2680     3.1840    -1.0430 C.3   1 <1>   0.1400 
 20 C       -2.5210    -4.1210    -0.5780 C.ar  1 <1>   0.0830 
 21 O       -5.0200     3.9540     0.9810 O.2   1 <1>  -0.5700 
 22 C       -6.2020     1.9530     1.1200 C.3   1 <1>  -0.0990 
 23 C       -6.5610     1.1060    -1.2310 C.3   1 <1>  -0.2400 
 24 C       -7.5040    -0.1510     0.7040 C.3   1 <1>  -0.2400 
 25 C        3.3770     2.4550    -0.2850 C.3   1 <1>  -0.1600 
 26 O       -2.5360    -5.4630    -0.7780 O.3   1 <1>  -0.3630 
 27 C        4.7280     3.1570    -0.4680 C.3   1 <1>  -0.1600 
 28 C       -2.2840    -6.3630     0.2770 C.3   1 <1>   0.0400 
 29 C        5.8370     2.4250     0.2940 C.3   1 <1>  -0.2400 
 30 H       -2.6070     3.8680     0.3260 H     1 <1>   0.1500 
 31 H       -2.1730    -1.6830     1.7340 H     1 <1>   0.1500 
 32 H       -2.8700    -1.3310    -2.4470 H     1 <1>   0.1500 
 33 H       -4.9630    -0.5920     1.3130 H     1 <1>   0.0800 
 34 H       -5.0630    -0.9070    -0.3880 H     1 <1>   0.0800 
 35 H        1.0160     1.4480    -0.9910 H     1 <1>   0.3700 
 36 H       -2.1610    -4.1130     1.5460 H     1 <1>   0.1500 
 37 H       -2.8620    -3.7900    -2.6510 H     1 <1>   0.1500 
 38 H        2.1840     4.1980    -0.6880 H     1 <1>   0.0800 
 39 H        2.4910     3.2080    -2.0960 H     1 <1>   0.0800 
 40 H       -7.0660     2.5790     0.9810 H     1 <1>   0.0800 
 41 H       -6.1660     1.6720     2.1560 H     1 <1>   0.0800 
 42 H       -5.7480     1.6880    -1.6260 H     1 <1>   0.0800 
 43 H       -7.4600     1.6900    -1.3140 H     1 <1>   0.0800 
 44 H       -6.6730     0.2330    -1.8500 H     1 <1>   0.0800 
 45 H       -7.3800    -0.4540     1.7290 H     1 <1>   0.0800 
 46 H       -7.5970    -1.0380     0.1000 H     1 <1>   0.0800 
 47 H       -8.4210     0.4060     0.6270 H     1 <1>   0.0800 
 48 H        3.4490     1.4430    -0.6460 H     1 <1>   0.0800 
 49 H        3.1270     2.4310     0.7620 H     1 <1>   0.0800 
 50 H        4.6610     4.1700    -0.1070 H     1 <1>   0.0800 
 51 H        4.9810     3.1910    -1.5140 H     1 <1>   0.0800 
 52 H       -2.3220    -7.3610    -0.1190 H     1 <1>   0.0800 
 53 H       -3.0420    -6.2400     1.0300 H     1 <1>   0.0800 
 54 H       -1.3050    -6.1660     0.6780 H     1 <1>   0.0800 
 55 H        5.6150     2.3990     1.3470 H     1 <1>   0.0800 
 56 H        6.7750     2.9320     0.1550 H     1 <1>   0.0800 
 57 H        5.9370     1.4150    -0.0640 H     1 <1>   0.0800 
@<TRIPOS>BOND
  1   1   2  2   
  2   2   3  am  
  3   2   4  1   
  4   3   5  1   
  5   3   6  1   
  6   4   7  1   
  7   4   8  2   
  8   5   9  ar  
  9   5  10  ar  
 10   6  11  2   
 11   6  12  1   
 12   7  13  2   
 13   7  14  am  
 14   8  11  1   
 15   8  30  1   
 16   9  15  ar  
 17   9  31  1   
 18  10  16  ar  
 19  10  32  1   
 20  11  17  1   
 21  12  18  1   
 22  12  33  1   
 23  12  34  1   
 24  14  19  1   
 25  14  35  1   
 26  15  20  ar  
 27  15  36  1   
 28  16  20  ar  
 29  16  37  1   
 30  17  21  2   
 31  17  22  1   
 32  18  22  1   
 33  18  23  1   
 34  18  24  1   
 35  19  25  1   
 36  19  38  1   
 37  19  39  1   
 38  20  26  1   
 39  22  40  1   
 40  22  41  1   
 41  23  42  1   
 42  23  43  1   
 43  23  44  1   
 44  24  45  1   
 45  24  46  1   
 46  24  47  1   
 47  25  27  1   
 48  25  48  1   
 49  25  49  1   
 50  26  28  1   
 51  27  29  1   
 52  27  50  1   
 53  27  51  1   
 54  28  52  1   
 55  28  53  1   
 56  28  54  1   
 57  29  55  1   
 58  29  56  1   
 59  29  57  1   
@<TRIPOS>SUBSTRUCTURE
  1 ****   3 GROUP 4 **** **** 0

# MOE 2024.06 (io_trps.svl 2023.06)
