@<TRIPOS>MOLECULE
NONAME
41 42 1 0 0 
SMALL
USER_CHARGES


@<TRIPOS>ATOM
  1 S       -0.0060    -0.5160     0.4820 S.3   1 <1>  -0.0800 
  2 C        0.9980     0.8840     0.1350 C.2   1 <1>   0.1040 
  3 C       -1.4670     0.4350     0.3660 C.2   1 <1>  -0.1400 
  4 N        2.3530     0.5970     0.1130 N.am  1 <1>  -0.4940 
  5 C        0.2270     2.0120    -0.0140 C.2   1 <1>  -0.0860 
  6 C       -1.1820     1.7200     0.1200 C.2   1 <1>  -0.1810 
  7 C       -2.8210    -0.2150     0.5380 C.3   1 <1>   0.0200 
  8 C        3.3740     0.9400    -0.7250 C.2   1 <1>   0.5690 
  9 C        0.6890     3.3570    -0.2290 C.2   1 <1>   0.7160 
 10 C       -2.2980     2.7500    -0.0150 C.3   1 <1>   0.0210 
 11 C       -3.9090     0.7480     0.0200 C.3   1 <1>  -0.0800 
 12 O        3.2450     1.6390    -1.7020 O.2   1 <1>  -0.5700 
 13 C        4.7420     0.3430    -0.3950 C.3   1 <1>   0.1710 
 14 O        0.3890     4.2720     0.5130 O.2   1 <1>  -0.5700 
 15 N        1.4630     3.6860    -1.2780 N.am  1 <1>  -0.8000 
 16 C       -3.6450     2.1940     0.4930 C.3   1 <1>  -0.1600 
 17 C       -5.3040     0.2790     0.4550 C.3   1 <1>  -0.2400 
 18 N        4.6600    -0.9330     0.3790 N.3   1 <1>  -0.8100 
 19 C        5.9460    -1.2410     1.0130 C.3   1 <1>   0.0300 
 20 C        4.2410    -2.0530    -0.4810 C.3   1 <1>   0.0300 
 21 H        2.6530    -0.1730     0.7230 H     1 <1>   0.3700 
 22 H       -2.9700    -0.4300     1.5810 H     1 <1>   0.0800 
 23 H       -2.8580    -1.1380    -0.0130 H     1 <1>   0.0800 
 24 H       -2.3860     3.0280    -1.0500 H     1 <1>   0.0800 
 25 H       -2.0620     3.6340     0.5500 H     1 <1>   0.0800 
 26 H       -3.8720     0.7410    -1.0570 H     1 <1>   0.0800 
 27 H        5.2720     1.0770     0.1850 H     1 <1>   0.0800 
 28 H        5.2890     0.1870    -1.3090 H     1 <1>   0.0800 
 29 H        1.8510     4.6240    -1.3130 H     1 <1>   0.3700 
 30 H        2.0160     2.9550    -1.7450 H     1 <1>   0.3700 
 31 H       -4.4370     2.8420     0.1610 H     1 <1>   0.0800 
 32 H       -3.6370     2.2110     1.5700 H     1 <1>   0.0800 
 33 H       -5.3890     0.2870     1.5280 H     1 <1>   0.0800 
 34 H       -5.4880    -0.7200     0.1020 H     1 <1>   0.0800 
 35 H       -6.0590     0.9270     0.0470 H     1 <1>   0.0800 
 36 H        6.2270    -0.4460     1.6830 H     1 <1>   0.0800 
 37 H        6.7160    -1.3640     0.2700 H     1 <1>   0.0800 
 38 H        5.8640    -2.1490     1.5870 H     1 <1>   0.0800 
 39 H        3.2840    -1.8480    -0.9290 H     1 <1>   0.0800 
 40 H        4.1520    -2.9510     0.1070 H     1 <1>   0.0800 
 41 H        4.9620    -2.2200    -1.2630 H     1 <1>   0.0800 
@<TRIPOS>BOND
  1   1   2  1   
  2   1   3  1   
  3   2   4  1   
  4   2   5  2   
  5   3   6  2   
  6   3   7  1   
  7   4   8  am  
  8   4  21  1   
  9   5   6  1   
 10   5   9  1   
 11   6  10  1   
 12   7  11  1   
 13   7  22  1   
 14   7  23  1   
 15   8  12  2   
 16   8  13  1   
 17   9  14  2   
 18   9  15  am  
 19  10  16  1   
 20  10  24  1   
 21  10  25  1   
 22  11  16  1   
 23  11  17  1   
 24  11  26  1   
 25  13  18  1   
 26  13  27  1   
 27  13  28  1   
 28  15  29  1   
 29  15  30  1   
 30  16  31  1   
 31  16  32  1   
 32  17  33  1   
 33  17  34  1   
 34  17  35  1   
 35  18  19  1   
 36  18  20  1   
 37  19  36  1   
 38  19  37  1   
 39  19  38  1   
 40  20  39  1   
 41  20  40  1   
 42  20  41  1   
@<TRIPOS>SUBSTRUCTURE
  1 ****   2 GROUP 4 **** **** 0

# MOE 2024.06 (io_trps.svl 2023.06)
