@<TRIPOS>MOLECULE
NONAME
33 34 1 0 0 
SMALL
USER_CHARGES


@<TRIPOS>ATOM
  1 O       -0.0930     0.1110    -1.4310 O.2   1 <1>  -0.7500 
  2 N       -0.5310     1.4060    -1.2410 N.4   1 <1>  -0.1220 
  3 C        0.1040     2.1350    -0.1130 C.3   1 <1>   0.5020 
  4 C       -2.0030     1.5630    -1.0950 C.3   1 <1>   0.3170 
  5 N       -0.9280     3.0150     0.3910 N.2   1 <1>  -0.6960 
  6 C        1.2550     2.9840    -0.6430 C.3   1 <1>  -0.2400 
  7 C        0.5670     1.2300     1.0320 C.3   1 <1>  -0.2400 
  8 C       -2.0650     2.7270    -0.0980 C.2   1 <1>   0.3030 
  9 C       -2.5440     1.8870    -2.5000 C.3   1 <1>  -0.2400 
 10 C       -2.6750     0.2890    -0.5390 C.3   1 <1>  -0.2400 
 11 C       -3.3170     3.4020     0.2370 C.ar  1 <1>   0.3960 
 12 N       -4.4690     2.9990    -0.3180 N.ar  1 <1>  -0.6200 
 13 C       -3.2940     4.4670     1.1420 C.ar  1 <1>  -0.1500 
 14 C       -5.5690     3.6440     0.0240 C.ar  1 <1>   0.1600 
 15 C       -4.4460     5.1360     1.4930 C.ar  1 <1>  -0.1500 
 16 C       -5.6150     4.7030     0.9110 C.ar  1 <1>  -0.1500 
 17 H       -0.2600     1.9250    -2.0750 H     1 <1>   0.3600 
 18 H        0.9120     3.6680    -1.3970 H     1 <1>   0.0800 
 19 H        2.0150     2.3450    -1.0580 H     1 <1>   0.0800 
 20 H        1.6920     3.5470     0.1620 H     1 <1>   0.0800 
 21 H        0.9580     1.8230     1.8370 H     1 <1>   0.0800 
 22 H       -0.2470     0.6350     1.3980 H     1 <1>   0.0800 
 23 H        1.3430     0.5720     0.6870 H     1 <1>   0.0800 
 24 H       -2.1700     2.8330    -2.8460 H     1 <1>   0.0800 
 25 H       -3.6170     1.9300    -2.4970 H     1 <1>   0.0800 
 26 H       -2.2550     1.1130    -3.1890 H     1 <1>   0.0800 
 27 H       -3.7300     0.4390    -0.4120 H     1 <1>   0.0800 
 28 H       -2.5370    -0.5330    -1.2190 H     1 <1>   0.0800 
 29 H       -2.2540     0.0240     0.4120 H     1 <1>   0.0800 
 30 H       -2.3580     4.7710     1.5760 H     1 <1>   0.1500 
 31 H       -6.4900     3.3120    -0.4260 H     1 <1>   0.1500 
 32 H       -4.4330     5.9570     2.1900 H     1 <1>   0.1500 
 33 H       -6.5520     5.1800     1.1400 H     1 <1>   0.1500 
@<TRIPOS>BOND
  1   1   2  2   
  2   2   3  1   
  3   2   4  1   
  4   2  17  1   
  5   3   5  1   
  6   3   6  1   
  7   3   7  1   
  8   4   8  1   
  9   4   9  1   
 10   4  10  1   
 11   5   8  2   
 12   6  18  1   
 13   6  19  1   
 14   6  20  1   
 15   7  21  1   
 16   7  22  1   
 17   7  23  1   
 18   8  11  1   
 19   9  24  1   
 20   9  25  1   
 21   9  26  1   
 22  10  27  1   
 23  10  28  1   
 24  10  29  1   
 25  11  12  ar  
 26  11  13  ar  
 27  12  14  ar  
 28  13  15  ar  
 29  13  30  1   
 30  14  16  ar  
 31  14  31  1   
 32  15  16  ar  
 33  15  32  1   
 34  16  33  1   
@<TRIPOS>SUBSTRUCTURE
  1 ****   8 GROUP 4 **** **** 0

# MOE 2024.06 (io_trps.svl 2023.06)
