@<TRIPOS>MOLECULE
NONAME
33 35 1 0 0 
SMALL
USER_CHARGES


@<TRIPOS>ATOM
  1 CL       0.4750    -0.1170     1.3140 Cl    1 <1>  -0.1770 
  2 C        1.9130    -1.0330     0.9840 C.ar  1 <1>   0.7970 
  3 N        1.7380    -2.3010     0.7780 N.ar  1 <1>  -0.6200 
  4 N        3.0220    -0.3560     0.9760 N.ar  1 <1>  -0.6200 
  5 C        2.8550    -2.9440     0.5400 C.ar  1 <1>   0.7200 
  6 C        4.0600    -1.1030     0.7140 C.ar  1 <1>   0.7200 
  7 N        4.0400    -2.3890     0.4940 N.ar  1 <1>  -0.6200 
  8 N        2.7730    -4.2980     0.3240 N.pl3 1 <1>  -0.8380 
  9 N        5.2410    -0.4330     0.7000 N.pl3 1 <1>  -0.6000 
 10 C        1.4740    -5.0410     0.2350 C.3   1 <1>   0.2090 
 11 C        3.9620    -5.2090     0.3460 C.3   1 <1>   0.2090 
 12 C        6.5410    -0.7990     0.4530 C.ar  1 <1>   0.4100 
 13 C        1.5280    -6.1160    -0.8660 C.3   1 <1>   0.1200 
 14 C        3.8640    -6.2680    -0.7660 C.3   1 <1>   0.1200 
 15 N        7.4220    -0.0270     1.0740 N.ar  1 <1>  -0.6200 
 16 C        6.9020    -1.8540    -0.3900 C.ar  1 <1>  -0.1500 
 17 O        2.6420    -6.9500    -0.7060 O.3   1 <1>  -0.5600 
 18 C        8.7000    -0.3270     0.8750 C.ar  1 <1>   0.1600 
 19 C        8.2310    -2.1570    -0.5920 C.ar  1 <1>  -0.1500 
 20 C        9.1400    -1.3620     0.0700 C.ar  1 <1>   0.1770 
 21 CL      10.8510    -1.6660    -0.1170 Cl    1 <1>  -0.1770 
 22 H        5.1740     0.4880     1.1200 H     1 <1>   0.4000 
 23 H        0.6600    -4.3720     0.0170 H     1 <1>   0.0800 
 24 H        1.2720    -5.5120     1.1810 H     1 <1>   0.0800 
 25 H        4.0060    -5.7060     1.2990 H     1 <1>   0.0800 
 26 H        4.8790    -4.6620     0.2190 H     1 <1>   0.0800 
 27 H        1.5800    -5.6540    -1.8360 H     1 <1>   0.0800 
 28 H        0.6480    -6.7320    -0.8230 H     1 <1>   0.0800 
 29 H        4.6500    -6.9940    -0.6570 H     1 <1>   0.0800 
 30 H        3.9530    -5.8050    -1.7330 H     1 <1>   0.0800 
 31 H        6.1440    -2.4260    -0.8890 H     1 <1>   0.1500 
 32 H        9.4350     0.2800     1.3740 H     1 <1>   0.1500 
 33 H        8.5520    -2.9620    -1.2280 H     1 <1>   0.1500 
@<TRIPOS>BOND
  1   1   2  1   
  2   2   3  ar  
  3   2   4  ar  
  4   3   5  ar  
  5   4   6  ar  
  6   5   7  ar  
  7   5   8  1   
  8   6   7  ar  
  9   6   9  1   
 10   8  10  1   
 11   8  11  1   
 12   9  12  1   
 13   9  22  1   
 14  10  13  1   
 15  10  23  1   
 16  10  24  1   
 17  11  14  1   
 18  11  25  1   
 19  11  26  1   
 20  12  15  ar  
 21  12  16  ar  
 22  13  17  1   
 23  13  27  1   
 24  13  28  1   
 25  14  17  1   
 26  14  29  1   
 27  14  30  1   
 28  15  18  ar  
 29  16  19  ar  
 30  16  31  1   
 31  18  20  ar  
 32  18  32  1   
 33  19  20  ar  
 34  19  33  1   
 35  20  21  1   
@<TRIPOS>SUBSTRUCTURE
  1 ****   7 GROUP 4 **** **** 0

# MOE 2024.06 (io_trps.svl 2023.06)
