@<TRIPOS>MOLECULE
NONAME
41 42 1 0 0 
SMALL
USER_CHARGES


@<TRIPOS>ATOM
  1 S       -0.4100    -0.5440     0.1300 S.3   1 <1>  -0.2860 
  2 C        1.2220    -1.0170    -0.4510 C.2   1 <1>   0.2420 
  3 C       -1.4720    -0.8390    -1.3700 C.3   1 <1>   0.1310 
  4 N        1.4580    -1.4020    -1.6530 N.2   1 <1>  -0.3380 
  5 N        2.3040    -0.9970     0.3270 N.pl3 1 <1>   0.0480 
  6 C       -2.9040    -0.3830    -1.1400 C.2   1 <1>   0.5690 
  7 N        2.7690    -1.6570    -1.6990 N.2   1 <1>  -0.3380 
  8 C        3.2560    -1.4130    -0.5240 C.2   1 <1>   0.0060 
  9 C        2.4060    -0.6180     1.7540 C.3   1 <1>   0.0960 
 10 O       -3.7700    -0.8890    -1.8110 O.2   1 <1>  -0.5700 
 11 N       -3.1400     0.5770    -0.1910 N.am  1 <1>  -0.5470 
 12 C        4.7210    -1.5710    -0.1290 C.3   1 <1>   0.0200 
 13 C        2.6490     0.8880     1.8980 C.3   1 <1>  -0.2400 
 14 C       -4.3170     1.2210     0.2210 C.ar  1 <1>   0.1170 
 15 C        5.6310    -1.9430    -1.3060 C.3   1 <1>  -0.2400 
 16 C       -5.4760     1.2590    -0.5490 C.ar  1 <1>  -0.1500 
 17 C       -4.3220     1.8670     1.4510 C.ar  1 <1>  -0.1500 
 18 C       -6.6110     1.9160    -0.1050 C.ar  1 <1>  -0.1430 
 19 C       -5.4500     2.5280     1.9020 C.ar  1 <1>  -0.1500 
 20 C       -6.5940     2.5520     1.1250 C.ar  1 <1>  -0.1500 
 21 C       -7.8670     1.9430    -0.9580 C.3   1 <1>  -0.0970 
 22 H       -1.4410    -1.8920    -1.5790 H     1 <1>   0.0800 
 23 H       -1.0340    -0.2940    -2.1860 H     1 <1>   0.0800 
 24 H        3.2120    -1.1680     2.2060 H     1 <1>   0.0800 
 25 H        1.4930    -0.8930     2.2530 H     1 <1>   0.0800 
 26 H       -2.3120     0.8260     0.3500 H     1 <1>   0.3700 
 27 H        4.7980    -2.3360     0.6230 H     1 <1>   0.0800 
 28 H        5.0710    -0.6470     0.2950 H     1 <1>   0.0800 
 29 H        3.5650     1.1720     1.4100 H     1 <1>   0.0800 
 30 H        2.7240     1.1460     2.9400 H     1 <1>   0.0800 
 31 H        1.8320     1.4420     1.4700 H     1 <1>   0.0800 
 32 H        5.3190    -2.8810    -1.7330 H     1 <1>   0.0800 
 33 H        6.6500    -2.0340    -0.9780 H     1 <1>   0.0800 
 34 H        5.5780    -1.1860    -2.0690 H     1 <1>   0.0800 
 35 H       -5.4920     0.7740    -1.5070 H     1 <1>   0.1500 
 36 H       -3.4400     1.8530     2.0650 H     1 <1>   0.1500 
 37 H       -5.4410     3.0240     2.8570 H     1 <1>   0.1500 
 38 H       -7.4690     3.0680     1.4800 H     1 <1>   0.1500 
 39 H       -7.8590     1.1360    -1.6690 H     1 <1>   0.0800 
 40 H       -7.9240     2.8740    -1.4910 H     1 <1>   0.0800 
 41 H       -8.7400     1.8390    -0.3390 H     1 <1>   0.0800 
@<TRIPOS>BOND
  1   1   2  1   
  2   1   3  1   
  3   2   4  2   
  4   2   5  1   
  5   3   6  1   
  6   3  22  1   
  7   3  23  1   
  8   4   7  1   
  9   5   8  1   
 10   5   9  1   
 11   6  10  2   
 12   6  11  am  
 13   7   8  2   
 14   8  12  1   
 15   9  13  1   
 16   9  24  1   
 17   9  25  1   
 18  11  14  1   
 19  11  26  1   
 20  12  15  1   
 21  12  27  1   
 22  12  28  1   
 23  13  29  1   
 24  13  30  1   
 25  13  31  1   
 26  14  16  ar  
 27  14  17  ar  
 28  15  32  1   
 29  15  33  1   
 30  15  34  1   
 31  16  18  ar  
 32  16  35  1   
 33  17  19  ar  
 34  17  36  1   
 35  18  20  ar  
 36  18  21  1   
 37  19  20  ar  
 38  19  37  1   
 39  20  38  1   
 40  21  39  1   
 41  21  40  1   
 42  21  41  1   
@<TRIPOS>SUBSTRUCTURE
  1 ****   1 GROUP 4 **** **** 0

# MOE 2024.06 (io_trps.svl 2023.06)
