@<TRIPOS>MOLECULE
NONAME
27 27 1 0 0 
SMALL
USER_CHARGES


@<TRIPOS>ATOM
  1 O       -0.7390    -0.0850     0.8540 O.2   1 <1>  -0.5700 
  2 C       -0.7720    -1.1510     0.2780 C.2   1 <1>   0.5690 
  3 N       -1.6620    -1.4410    -0.7090 N.am  1 <1>  -0.4100 
  4 C        0.2440    -2.2110     0.6660 C.3   1 <1>  -0.0990 
  5 N       -2.7500    -0.5720    -1.1810 N.pl3 1 <1>  -0.5200 
  6 C        1.3500    -2.3900    -0.3860 C.3   1 <1>  -0.2400 
  7 C       -4.0770    -0.6650    -0.7760 C.ar  1 <1>   0.1000 
  8 C       -5.0200     0.2090    -1.3060 C.ar  1 <1>  -0.1500 
  9 C       -4.5070    -1.6130     0.1490 C.ar  1 <1>  -0.1500 
 10 C       -6.3490     0.1350    -0.9320 C.ar  1 <1>  -0.1500 
 11 C       -5.8350    -1.6890     0.5240 C.ar  1 <1>  -0.1500 
 12 C       -6.7670    -0.8170    -0.0160 C.ar  1 <1>  -0.1440 
 13 C       -8.2250    -0.8990     0.3970 C.3   1 <1>  -0.0970 
 14 H       -1.5910    -2.3450    -1.1830 H     1 <1>   0.3700 
 15 H       -0.2670    -3.1430     0.8220 H     1 <1>   0.0800 
 16 H        0.6900    -1.9250     1.6020 H     1 <1>   0.0800 
 17 H       -2.4580     0.2560    -1.7150 H     1 <1>   0.4000 
 18 H        0.9370    -2.7080    -1.3260 H     1 <1>   0.0800 
 19 H        2.0600    -3.1280    -0.0540 H     1 <1>   0.0800 
 20 H        1.8700    -1.4590    -0.5340 H     1 <1>   0.0800 
 21 H       -4.7100     0.9520    -2.0170 H     1 <1>   0.1500 
 22 H       -3.7960    -2.2900     0.5820 H     1 <1>   0.1500 
 23 H       -7.0600     0.8220    -1.3560 H     1 <1>   0.1500 
 24 H       -6.1420    -2.4290     1.2420 H     1 <1>   0.1500 
 25 H       -8.3940    -0.2750     1.2560 H     1 <1>   0.0800 
 26 H       -8.4890    -1.9110     0.6450 H     1 <1>   0.0800 
 27 H       -8.8620    -0.5690    -0.4030 H     1 <1>   0.0800 
@<TRIPOS>BOND
  1   1   2  2   
  2   2   3  am  
  3   2   4  1   
  4   3   5  1   
  5   3  14  1   
  6   4   6  1   
  7   4  15  1   
  8   4  16  1   
  9   5   7  1   
 10   5  17  1   
 11   6  18  1   
 12   6  19  1   
 13   6  20  1   
 14   7   8  ar  
 15   7   9  ar  
 16   8  10  ar  
 17   8  21  1   
 18   9  11  ar  
 19   9  22  1   
 20  10  12  ar  
 21  10  23  1   
 22  11  12  ar  
 23  11  24  1   
 24  12  13  1   
 25  13  25  1   
 26  13  26  1   
 27  13  27  1   
@<TRIPOS>SUBSTRUCTURE
  1 ****   7 GROUP 4 **** **** 0

# MOE 2024.06 (io_trps.svl 2023.06)
