@<TRIPOS>MOLECULE
NONAME
46 49 1 0 0 
SMALL
USER_CHARGES


@<TRIPOS>ATOM
  1 S       -0.5900     0.0310    -0.7210 S.3   1 <1>  -0.2420 
  2 C        0.8060     0.8190     0.0660 C.2   1 <1>   0.5300 
  3 C       -1.6500     1.4340    -0.4900 C.2   1 <1>  -0.0370 
  4 N        1.9860     0.4120    -0.0710 N.2   1 <1>  -0.6960 
  5 C        0.3150     2.0500     0.8120 C.3   1 <1>   0.1800 
  6 C       -1.0950     2.3670     0.2760 C.2   1 <1>  -0.2760 
  7 C       -3.0100     1.4730    -1.1560 C.3   1 <1>   0.4810 
  8 C        3.1000     1.2010     0.4460 C.3   1 <1>   0.6100 
  9 C        1.4240     3.0630     0.6400 C.2   1 <1>   0.5690 
 10 C       -1.8330     3.6540     0.6170 C.3   1 <1>  -0.0220 
 11 N       -3.4990     2.8980    -1.1320 N.4   1 <1>  -0.9590 
 12 N        2.6920     2.6080     0.5770 N.am  1 <1>  -0.7300 
 13 C        4.2720     1.1260    -0.5220 C.ar  1 <1>  -0.1430 
 14 O        1.1800     4.2420     0.5830 O.2   1 <1>  -0.5700 
 15 C       -3.3210     3.5510     0.2170 C.3   1 <1>   0.3430 
 16 C       -4.9100     2.9970    -1.6120 C.3   1 <1>   0.2630 
 17 C        5.4190     0.4200    -0.1720 C.ar  1 <1>   0.0830 
 18 C        4.2310     1.7630    -1.7570 C.ar  1 <1>  -0.1500 
 19 O        5.4890    -0.2430     1.0020 O.3   1 <1>  -0.3630 
 20 C        6.5170     0.3930    -1.0180 C.ar  1 <1>  -0.1500 
 21 C        5.3210     1.7210    -2.6100 C.ar  1 <1>  -0.1500 
 22 C        4.9520    -1.5500     1.0270 C.3   1 <1>   0.1200 
 23 C        6.4680     1.0410    -2.2380 C.ar  1 <1>  -0.1500 
 24 C        6.0440    -2.5550     0.6610 C.3   1 <1>  -0.2400 
 25 H        0.2460     1.8140     1.8570 H     1 <1>   0.0800 
 26 H       -3.6890     0.8270    -0.6240 H     1 <1>   0.0800 
 27 H       -2.9260     1.1270    -2.1740 H     1 <1>   0.0800 
 28 H        3.3940     0.8200     1.4100 H     1 <1>   0.0800 
 29 H       -1.3780     4.4840     0.1030 H     1 <1>   0.0800 
 30 H       -1.7670     3.8520     1.6730 H     1 <1>   0.0800 
 31 H       -2.8880     3.4130    -1.7840 H     1 <1>   0.4500 
 32 H        3.4510     3.2770     0.4410 H     1 <1>   0.3700 
 33 H       -3.7510     4.5400     0.2100 H     1 <1>   0.0800 
 34 H       -3.8400     2.9690     0.9600 H     1 <1>   0.0800 
 35 H       -5.5710     2.4630    -0.9470 H     1 <1>   0.0800 
 36 H       -5.0010     2.5760    -2.6010 H     1 <1>   0.0800 
 37 H       -5.2210     4.0290    -1.6500 H     1 <1>   0.0800 
 38 H        3.3470     2.2960    -2.0610 H     1 <1>   0.1500 
 39 H        7.4020    -0.1370    -0.7170 H     1 <1>   0.1500 
 40 H        5.2780     2.2190    -3.5630 H     1 <1>   0.1500 
 41 H        4.1230    -1.6080     0.3420 H     1 <1>   0.0800 
 42 H        4.5980    -1.7340     2.0260 H     1 <1>   0.0800 
 43 H        7.3180     1.0150    -2.8970 H     1 <1>   0.1500 
 44 H        6.3580    -2.4110    -0.3570 H     1 <1>   0.0800 
 45 H        5.6600    -3.5540     0.7570 H     1 <1>   0.0800 
 46 H        6.8860    -2.4450     1.3200 H     1 <1>   0.0800 
@<TRIPOS>BOND
  1   1   2  1   
  2   1   3  1   
  3   2   4  2   
  4   2   5  1   
  5   3   6  2   
  6   3   7  1   
  7   4   8  1   
  8   5   6  1   
  9   5   9  1   
 10   5  25  1   
 11   6  10  1   
 12   7  11  1   
 13   7  26  1   
 14   7  27  1   
 15   8  12  1   
 16   8  13  1   
 17   8  28  1   
 18   9  12  am  
 19   9  14  2   
 20  10  15  1   
 21  10  29  1   
 22  10  30  1   
 23  11  15  1   
 24  11  16  1   
 25  11  31  1   
 26  12  32  1   
 27  13  17  ar  
 28  13  18  ar  
 29  15  33  1   
 30  15  34  1   
 31  16  35  1   
 32  16  36  1   
 33  16  37  1   
 34  17  19  1   
 35  17  20  ar  
 36  18  21  ar  
 37  18  38  1   
 38  19  22  1   
 39  20  23  ar  
 40  20  39  1   
 41  21  23  ar  
 42  21  40  1   
 43  22  24  1   
 44  22  41  1   
 45  22  42  1   
 46  23  43  1   
 47  24  44  1   
 48  24  45  1   
 49  24  46  1   
@<TRIPOS>SUBSTRUCTURE
  1 ****   4 GROUP 4 **** **** 0

# MOE 2024.06 (io_trps.svl 2023.06)
