@<TRIPOS>MOLECULE
NONAME
48 51 1 0 0 
SMALL
USER_CHARGES


@<TRIPOS>ATOM
  1 O        2.3670    -0.7010     3.3020 O.3   1 <1>  -0.6800 
  2 C        3.3420    -1.3550     2.5660 C.3   1 <1>   0.1200 
  3 C        3.7700    -0.4380     1.4160 C.3   1 <1>   0.1100 
  4 N        4.8080    -1.0630     0.5650 N.3   1 <1>  -0.8100 
  5 C        4.2430    -2.0960    -0.3400 C.3   1 <1>   0.1100 
  6 C        5.5130    -0.0240    -0.2280 C.3   1 <1>   0.1100 
  7 C        5.3240    -2.7510    -1.2370 C.3   1 <1>   0.3430 
  8 C        6.5700    -0.6150    -1.1930 C.3   1 <1>   0.3430 
  9 N        6.6620    -2.1060    -1.0390 N.4   1 <1>  -0.9590 
 10 C        7.7630    -2.7300    -1.8160 C.3   1 <1>   0.4860 
 11 C        9.0710    -2.0610    -1.4390 C.ar  1 <1>  -0.1440 
 12 C        9.6390    -2.2860    -0.1900 C.ar  1 <1>  -0.1500 
 13 C        9.7000    -1.2080    -2.3400 C.ar  1 <1>  -0.1500 
 14 C       10.8160    -1.6440     0.1400 C.ar  1 <1>  -0.1440 
 15 C       10.8800    -0.5690    -1.9990 C.ar  1 <1>  -0.1500 
 16 C       11.4390    -0.7860    -0.7480 C.ar  1 <1>   0.0000 
 17 C       11.6160    -1.7310     1.4330 C.3   1 <1>   0.1270 
 18 C       12.6290    -0.2590    -0.1460 C.ar  1 <1>   0.0000 
 19 C       12.7650    -0.7840     1.1270 C.ar  1 <1>  -0.1440 
 20 C       13.5780     0.6320    -0.6270 C.ar  1 <1>  -0.1500 
 21 C       13.8310    -0.4380     1.9350 C.ar  1 <1>  -0.1500 
 22 C       14.6500     0.9850     0.1770 C.ar  1 <1>  -0.1500 
 23 C       14.7770     0.4530     1.4520 C.ar  1 <1>  -0.1500 
 24 H        2.1000    -1.2290     4.0810 H     1 <1>   0.4000 
 25 H        2.9180    -2.2730     2.2020 H     1 <1>   0.0800 
 26 H        4.1760    -1.5580     3.2150 H     1 <1>   0.0800 
 27 H        4.1640     0.4630     1.8540 H     1 <1>   0.0800 
 28 H        2.9100    -0.1770     0.8210 H     1 <1>   0.0800 
 29 H        3.4860    -1.6560    -0.9670 H     1 <1>   0.0800 
 30 H        3.7680    -2.8690     0.2390 H     1 <1>   0.0800 
 31 H        6.0070     0.6580     0.4440 H     1 <1>   0.0800 
 32 H        4.8000     0.5490    -0.7980 H     1 <1>   0.0800 
 33 H        5.0210    -2.6690    -2.2680 H     1 <1>   0.0800 
 34 H        5.3850    -3.7990    -0.9960 H     1 <1>   0.0800 
 35 H        7.5240    -0.1610    -0.9780 H     1 <1>   0.0800 
 36 H        6.3070    -0.3630    -2.2060 H     1 <1>   0.0800 
 37 H        6.8610    -2.2170    -0.0340 H     1 <1>   0.4500 
 38 H        7.5860    -2.6130    -2.8720 H     1 <1>   0.0800 
 39 H        7.8240    -3.7830    -1.5940 H     1 <1>   0.0800 
 40 H        9.1830    -2.9510     0.5240 H     1 <1>   0.1500 
 41 H        9.2830    -1.0310    -3.3170 H     1 <1>   0.1500 
 42 H       11.3710     0.0910    -2.6920 H     1 <1>   0.1500 
 43 H       11.9760    -2.7290     1.6030 H     1 <1>   0.0800 
 44 H       11.0420    -1.3810     2.2730 H     1 <1>   0.0800 
 45 H       13.4790     1.0430    -1.6150 H     1 <1>   0.1500 
 46 H       13.9290    -0.8520     2.9240 H     1 <1>   0.1500 
 47 H       15.3900     1.6760    -0.1900 H     1 <1>   0.1500 
 48 H       15.6130     0.7330     2.0690 H     1 <1>   0.1500 
@<TRIPOS>BOND
  1   1   2  1   
  2   1  24  1   
  3   2   3  1   
  4   2  25  1   
  5   2  26  1   
  6   3   4  1   
  7   3  27  1   
  8   3  28  1   
  9   4   5  1   
 10   4   6  1   
 11   5   7  1   
 12   5  29  1   
 13   5  30  1   
 14   6   8  1   
 15   6  31  1   
 16   6  32  1   
 17   7   9  1   
 18   7  33  1   
 19   7  34  1   
 20   8   9  1   
 21   8  35  1   
 22   8  36  1   
 23   9  10  1   
 24   9  37  1   
 25  10  11  1   
 26  10  38  1   
 27  10  39  1   
 28  11  12  ar  
 29  11  13  ar  
 30  12  14  ar  
 31  12  40  1   
 32  13  15  ar  
 33  13  41  1   
 34  14  16  ar  
 35  14  17  1   
 36  15  16  ar  
 37  15  42  1   
 38  16  18  1   
 39  17  19  1   
 40  17  43  1   
 41  17  44  1   
 42  18  19  ar  
 43  18  20  ar  
 44  19  21  ar  
 45  20  22  ar  
 46  20  45  1   
 47  21  23  ar  
 48  21  46  1   
 49  22  23  ar  
 50  22  47  1   
 51  23  48  1   
@<TRIPOS>SUBSTRUCTURE
  1 ****  12 GROUP 4 **** **** 0

# MOE 2024.06 (io_trps.svl 2023.06)
