@<TRIPOS>MOLECULE
NONAME
42 43 1 0 0 
SMALL
USER_CHARGES


@<TRIPOS>ATOM
  1 O        0.9840     0.0650     0.9470 O.2   1 <1>  -0.5700 
  2 C        0.4330     1.0260     0.4710 C.2   1 <1>   0.5690 
  3 N        0.9220     2.2630     0.7330 N.am  1 <1>  -0.7300 
  4 C       -0.7920     0.8070    -0.4070 C.3   1 <1>   0.0440 
  5 C        0.3790     3.5720     0.3300 C.3   1 <1>   0.2200 
  6 C       -2.0790     1.3270     0.2370 C.ar  1 <1>  -0.1440 
  7 C        1.5390     4.4140    -0.2100 C.3   1 <1>  -0.1600 
  8 C       -0.3500     4.1810     1.5350 C.3   1 <1>  -0.1600 
  9 C       -2.8850     2.2860    -0.3760 C.ar  1 <1>   0.0820 
 10 C       -2.4430     0.8230     1.4770 C.ar  1 <1>  -0.1500 
 11 C        1.1490     5.8380    -0.6420 C.3   1 <1>  -0.1600 
 12 C       -1.2630     5.3480     1.1300 C.3   1 <1>  -0.1600 
 13 O       -2.5050     2.7600    -1.5930 O.3   1 <1>  -0.3630 
 14 C       -4.0380     2.7290     0.2690 C.ar  1 <1>  -0.1500 
 15 C       -3.5890     1.2670     2.1110 C.ar  1 <1>  -0.1500 
 16 C        0.8680     6.7590     0.5530 C.3   1 <1>  -0.1600 
 17 C       -0.5770     6.7230     1.0770 C.3   1 <1>  -0.1600 
 18 C       -3.2850     3.6940    -2.3070 C.3   1 <1>   0.0400 
 19 C       -4.3860     2.2210     1.5070 C.ar  1 <1>  -0.1500 
 20 H        1.7190     2.2960     1.3670 H     1 <1>   0.3700 
 21 H       -0.9020    -0.2480    -0.5800 H     1 <1>   0.0800 
 22 H       -0.6060     1.2610    -1.3610 H     1 <1>   0.0800 
 23 H       -0.3280     3.4290    -0.4670 H     1 <1>   0.0800 
 24 H        1.9390     3.9060    -1.0690 H     1 <1>   0.0800 
 25 H        2.3190     4.4700     0.5290 H     1 <1>   0.0800 
 26 H        0.3490     4.4890     2.2930 H     1 <1>   0.0800 
 27 H       -0.9800     3.4190     1.9590 H     1 <1>   0.0800 
 28 H       -1.8290     0.0800     1.9580 H     1 <1>   0.1500 
 29 H        0.3090     5.8180    -1.3150 H     1 <1>   0.0800 
 30 H        1.9820     6.2500    -1.1860 H     1 <1>   0.0800 
 31 H       -2.0730     5.4100     1.8360 H     1 <1>   0.0800 
 32 H       -1.7080     5.1330     0.1740 H     1 <1>   0.0800 
 33 H       -4.6780     3.4680    -0.1720 H     1 <1>   0.1500 
 34 H       -3.8580     0.8680     3.0740 H     1 <1>   0.1500 
 35 H        1.0830     7.7730     0.2630 H     1 <1>   0.0800 
 36 H        1.5440     6.5210     1.3560 H     1 <1>   0.0800 
 37 H       -0.5770     7.1440     2.0680 H     1 <1>   0.0800 
 38 H       -1.1830     7.3700     0.4650 H     1 <1>   0.0800 
 39 H       -2.7920     3.8960    -3.2400 H     1 <1>   0.0800 
 40 H       -3.3630     4.5990    -1.7310 H     1 <1>   0.0800 
 41 H       -4.2560     3.2680    -2.4920 H     1 <1>   0.0800 
 42 H       -5.2780     2.5660     2.0020 H     1 <1>   0.1500 
@<TRIPOS>BOND
  1   1   2  2   
  2   2   3  am  
  3   2   4  1   
  4   3   5  1   
  5   3  20  1   
  6   4   6  1   
  7   4  21  1   
  8   4  22  1   
  9   5   7  1   
 10   5   8  1   
 11   5  23  1   
 12   6   9  ar  
 13   6  10  ar  
 14   7  11  1   
 15   7  24  1   
 16   7  25  1   
 17   8  12  1   
 18   8  26  1   
 19   8  27  1   
 20   9  13  1   
 21   9  14  ar  
 22  10  15  ar  
 23  10  28  1   
 24  11  16  1   
 25  11  29  1   
 26  11  30  1   
 27  12  17  1   
 28  12  31  1   
 29  12  32  1   
 30  13  18  1   
 31  14  19  ar  
 32  14  33  1   
 33  15  19  ar  
 34  15  34  1   
 35  16  17  1   
 36  16  35  1   
 37  16  36  1   
 38  17  37  1   
 39  17  38  1   
 40  18  39  1   
 41  18  40  1   
 42  18  41  1   
 43  19  42  1   
@<TRIPOS>SUBSTRUCTURE
  1 ****   5 GROUP 4 **** **** 0

# MOE 2024.06 (io_trps.svl 2023.06)
