@<TRIPOS>MOLECULE
NONAME
40 40 1 0 0 
SMALL
USER_CHARGES


@<TRIPOS>ATOM
  1 I       -0.2840    -0.2160    -0.4080 I     1 <1>  -0.0810 
  2 C        1.6980    -0.9950    -0.4150 C.ar  1 <1>   0.0810 
  3 C        1.8780    -2.3490    -0.6270 C.ar  1 <1>  -0.1500 
  4 C        2.7530    -0.1260    -0.2060 C.ar  1 <1>  -0.1500 
  5 C        3.1710    -2.8450    -0.6290 C.ar  1 <1>  -0.1500 
  6 C        4.0410    -0.6350    -0.2110 C.ar  1 <1>  -0.1500 
  7 C        4.2530    -1.9990    -0.4230 C.ar  1 <1>   0.0830 
  8 O        5.4810    -2.5760    -0.4420 O.3   1 <1>  -0.3630 
  9 C        6.6510    -1.8210    -0.2450 C.3   1 <1>   0.1200 
 10 C        7.8370    -2.7840    -0.3310 C.3   1 <1>  -0.1600 
 11 C        9.1780    -2.0650    -0.1300 C.3   1 <1>  -0.1600 
 12 C       10.3350    -3.0590    -0.2230 C.3   1 <1>   0.3430 
 13 N       11.6170    -2.3340    -0.0240 N.4   1 <1>  -0.9060 
 14 C       12.8430    -3.1350    -0.0810 C.3   1 <1>   0.5030 
 15 C       13.9970    -2.1650     0.1500 C.3   1 <1>  -0.2400 
 16 C       12.8230    -4.1910     1.0230 C.3   1 <1>  -0.2400 
 17 C       12.9750    -3.7810    -1.4590 C.3   1 <1>  -0.2400 
 18 H        1.0360    -2.9990    -0.7860 H     1 <1>   0.1500 
 19 H        2.5730     0.9230    -0.0450 H     1 <1>   0.1500 
 20 H        3.3490    -3.8930    -0.7900 H     1 <1>   0.1500 
 21 H        4.8580     0.0410    -0.0490 H     1 <1>   0.1500 
 22 H        6.5950    -1.3590     0.7250 H     1 <1>   0.0800 
 23 H        6.7030    -1.0720    -1.0170 H     1 <1>   0.0800 
 24 H        7.8190    -3.2590    -1.2980 H     1 <1>   0.0800 
 25 H        7.7130    -3.5430     0.4240 H     1 <1>   0.0800 
 26 H        9.1790    -1.5940     0.8380 H     1 <1>   0.0800 
 27 H        9.2860    -1.3090    -0.8890 H     1 <1>   0.0800 
 28 H       10.3220    -3.5350    -1.1900 H     1 <1>   0.0800 
 29 H       10.2160    -3.8190     0.5330 H     1 <1>   0.0800 
 30 H       11.6000    -1.8660     0.8860 H     1 <1>   0.4500 
 31 H       11.7000    -1.5990    -0.7320 H     1 <1>   0.4500 
 32 H       13.9230    -1.6930     1.1140 H     1 <1>   0.0800 
 33 H       14.0290    -1.4080    -0.6140 H     1 <1>   0.0800 
 34 H       14.9330    -2.6960     0.1200 H     1 <1>   0.0800 
 35 H       13.7640    -4.7120     1.0420 H     1 <1>   0.0800 
 36 H       12.6800    -3.7400     1.9900 H     1 <1>   0.0800 
 37 H       12.0570    -4.9270     0.8560 H     1 <1>   0.0800 
 38 H       12.9400    -3.0430    -2.2400 H     1 <1>   0.0800 
 39 H       12.2100    -4.5170    -1.6280 H     1 <1>   0.0800 
 40 H       13.9230    -4.2880    -1.5310 H     1 <1>   0.0800 
@<TRIPOS>BOND
  1   1   2  1   
  2   2   3  ar  
  3   2   4  ar  
  4   3   5  ar  
  5   3  18  1   
  6   4   6  ar  
  7   4  19  1   
  8   5   7  ar  
  9   5  20  1   
 10   6   7  ar  
 11   6  21  1   
 12   7   8  1   
 13   8   9  1   
 14   9  10  1   
 15   9  22  1   
 16   9  23  1   
 17  10  11  1   
 18  10  24  1   
 19  10  25  1   
 20  11  12  1   
 21  11  26  1   
 22  11  27  1   
 23  12  13  1   
 24  12  28  1   
 25  12  29  1   
 26  13  14  1   
 27  13  30  1   
 28  13  31  1   
 29  14  15  1   
 30  14  16  1   
 31  14  17  1   
 32  15  32  1   
 33  15  33  1   
 34  15  34  1   
 35  16  35  1   
 36  16  36  1   
 37  16  37  1   
 38  17  38  1   
 39  17  39  1   
 40  17  40  1   
@<TRIPOS>SUBSTRUCTURE
  1 ****   9 GROUP 4 **** **** 0

# MOE 2024.06 (io_trps.svl 2023.06)
