@<TRIPOS>MOLECULE
NONAME
32 32 1 0 0 
SMALL
USER_CHARGES


@<TRIPOS>ATOM
  1 O        0.1510     0.9590    -1.0410 O.2   1 <1>  -0.5700 
  2 C       -0.5970     1.7140    -0.4280 C.2   1 <1>   0.6160 
  3 N       -0.0570     2.5490     0.5440 N.am  1 <1>  -0.4690 
  4 C       -2.0040     1.7480    -0.6800 C.2   1 <1>   0.0790 
  5 C       -0.8720     3.4370     1.2280 C.2   1 <1>  -0.0290 
  6 C        1.4380     2.4960     0.7470 C.3   1 <1>   0.2010 
  7 C       -2.5060     0.8540    -1.6750 C.1   1 <1>   0.4920 
  8 C       -2.8030     2.6070     0.0250 C.2   1 <1>  -0.1380 
  9 C       -2.2090     3.4650     0.9800 C.2   1 <1>  -0.1500 
 10 C       -0.2690     4.3960     2.2450 C.3   1 <1>  -0.1020 
 11 C        2.2370     3.2750    -0.2960 C.2   1 <1>   0.6590 
 12 N       -2.9960     0.1600    -2.4380 N.1   1 <1>  -0.5570 
 13 C       -4.3140     2.7070    -0.1630 C.3   1 <1>   0.2580 
 14 O        3.3560     2.9450    -0.5970 O.2   1 <1>  -0.5700 
 15 O        1.6600     4.3520    -0.8240 O.3   1 <1>  -0.4300 
 16 O       -4.6010     3.9730    -0.6610 O.3   1 <1>  -0.5600 
 17 C        2.3040     5.1340    -1.8080 C.3   1 <1>   0.0400 
 18 C       -5.9480     4.1860    -0.9380 C.3   1 <1>   0.0400 
 19 H        1.7640     1.4720     0.7150 H     1 <1>   0.0800 
 20 H        1.7000     2.8690     1.7160 H     1 <1>   0.0800 
 21 H       -2.8550     4.1550     1.4960 H     1 <1>   0.1500 
 22 H        0.1600     3.8500     3.0650 H     1 <1>   0.0800 
 23 H       -1.0220     5.0530     2.6400 H     1 <1>   0.0800 
 24 H        0.4880     5.0030     1.7800 H     1 <1>   0.0800 
 25 H       -4.8160     2.5900     0.7830 H     1 <1>   0.0800 
 26 H       -4.6910     1.9750    -0.8560 H     1 <1>   0.0800 
 27 H        1.6470     5.9380    -2.0880 H     1 <1>   0.0800 
 28 H        2.5130     4.5120    -2.6610 H     1 <1>   0.0800 
 29 H        3.2190     5.5250    -1.4000 H     1 <1>   0.0800 
 30 H       -6.0580     5.1900    -1.3070 H     1 <1>   0.0800 
 31 H       -6.5230     4.0660    -0.0360 H     1 <1>   0.0800 
 32 H       -6.2720     3.4880    -1.6920 H     1 <1>   0.0800 
@<TRIPOS>BOND
  1   1   2  2   
  2   2   3  am  
  3   2   4  1   
  4   3   5  1   
  5   3   6  1   
  6   4   7  1   
  7   4   8  2   
  8   5   9  2   
  9   5  10  1   
 10   6  11  1   
 11   6  19  1   
 12   6  20  1   
 13   7  12  3   
 14   8   9  1   
 15   8  13  1   
 16   9  21  1   
 17  10  22  1   
 18  10  23  1   
 19  10  24  1   
 20  11  14  2   
 21  11  15  1   
 22  13  16  1   
 23  13  25  1   
 24  13  26  1   
 25  15  17  1   
 26  16  18  1   
 27  17  27  1   
 28  17  28  1   
 29  17  29  1   
 30  18  30  1   
 31  18  31  1   
 32  18  32  1   
@<TRIPOS>SUBSTRUCTURE
  1 ****   2 GROUP 4 **** **** 0

# MOE 2024.06 (io_trps.svl 2023.06)
