@<TRIPOS>MOLECULE
NONAME
53 54 1 0 0 
SMALL
USER_CHARGES


@<TRIPOS>ATOM
  1 O       -0.1560    -1.0670    -1.3300 O.2   1 <1>  -0.5700 
  2 C       -0.2820    -2.0840    -0.6870 C.2   1 <1>   0.5690 
  3 N       -1.5080    -2.5320    -0.2640 N.am  1 <1>  -0.6600 
  4 C        1.0090    -2.8230    -0.3480 C.3   1 <1>  -0.0190 
  5 C       -2.7310    -1.7360    -0.5730 C.3   1 <1>   0.1400 
  6 C       -1.7630    -3.8650     0.3540 C.3   1 <1>   0.1400 
  7 C        2.0990    -1.7640    -0.1450 C.3   1 <1>   0.3430 
  8 C        1.4050    -3.8070    -1.4640 C.3   1 <1>  -0.1600 
  9 C       -2.8850    -0.5950     0.4320 C.3   1 <1>  -0.2400 
 10 C       -1.8380    -3.7360     1.8730 C.3   1 <1>  -0.2400 
 11 N        3.4560    -2.3710     0.0940 N.4   1 <1>  -0.9590 
 12 C        2.8110    -4.3730    -1.2230 C.3   1 <1>  -0.1600 
 13 C        4.4500    -1.3130     0.4550 C.3   1 <1>   0.4230 
 14 C        3.8450    -3.2590    -1.0520 C.3   1 <1>   0.3430 
 15 C        4.8080    -0.4020    -0.7280 C.3   1 <1>  -0.1600 
 16 C        5.7170    -1.9400     1.0420 C.3   1 <1>  -0.1600 
 17 C        5.8040     0.6730    -0.2930 C.3   1 <1>   0.3430 
 18 C        6.7080    -0.8530     1.4640 C.3   1 <1>   0.3430 
 19 N        7.0160     0.0380     0.3060 N.4   1 <1>  -0.9590 
 20 C        8.0000     1.0940     0.7160 C.3   1 <1>   0.2630 
 21 H        0.8820    -3.3480     0.5800 H     1 <1>   0.0800 
 22 H       -3.6050    -2.3640    -0.5470 H     1 <1>   0.0800 
 23 H       -2.6520    -1.3280    -1.5670 H     1 <1>   0.0800 
 24 H       -0.9850    -4.5570     0.0880 H     1 <1>   0.0800 
 25 H       -2.6870    -4.2700    -0.0220 H     1 <1>   0.0800 
 26 H        1.8180    -1.1350     0.6850 H     1 <1>   0.0800 
 27 H        2.1340    -1.1440    -1.0270 H     1 <1>   0.0800 
 28 H        1.3840    -3.2950    -2.4130 H     1 <1>   0.0800 
 29 H        0.6920    -4.6120    -1.5200 H     1 <1>   0.0800 
 30 H       -2.9830    -0.9730     1.4320 H     1 <1>   0.0800 
 31 H       -3.7670    -0.0280     0.1970 H     1 <1>   0.0800 
 32 H       -2.0380     0.0650     0.3790 H     1 <1>   0.0800 
 33 H       -0.9530    -3.2700     2.2650 H     1 <1>   0.0800 
 34 H       -1.9340    -4.7120     2.3130 H     1 <1>   0.0800 
 35 H       -2.7000    -3.1600     2.1580 H     1 <1>   0.0800 
 36 H        3.3460    -2.9900     0.9090 H     1 <1>   0.4500 
 37 H        3.0920    -4.9830    -2.0650 H     1 <1>   0.0800 
 38 H        2.8130    -5.0090    -0.3550 H     1 <1>   0.0800 
 39 H        4.0100    -0.6950     1.2240 H     1 <1>   0.0800 
 40 H        4.8120    -3.7010    -0.8750 H     1 <1>   0.0800 
 41 H        3.8950    -2.6840    -1.9630 H     1 <1>   0.0800 
 42 H        3.9280     0.0950    -1.0950 H     1 <1>   0.0800 
 43 H        5.2410    -0.9620    -1.5370 H     1 <1>   0.0800 
 44 H        6.2000    -2.5870     0.3320 H     1 <1>   0.0800 
 45 H        5.4650    -2.5210     1.9120 H     1 <1>   0.0800 
 46 H        5.3410     1.3270     0.4290 H     1 <1>   0.0800 
 47 H        6.0860     1.2700    -1.1480 H     1 <1>   0.0800 
 48 H        7.6150    -1.3120     1.8260 H     1 <1>   0.0800 
 49 H        6.2860    -0.2700     2.2680 H     1 <1>   0.0800 
 50 H        7.4820    -0.5260    -0.4240 H     1 <1>   0.4500 
 51 H        7.5800     1.7270     1.4810 H     1 <1>   0.0800 
 52 H        8.2660     1.7100    -0.1290 H     1 <1>   0.0800 
 53 H        8.9000     0.6410     1.1010 H     1 <1>   0.0800 
@<TRIPOS>BOND
  1   1   2  2   
  2   2   3  am  
  3   2   4  1   
  4   3   5  1   
  5   3   6  1   
  6   4   7  1   
  7   4   8  1   
  8   4  21  1   
  9   5   9  1   
 10   5  22  1   
 11   5  23  1   
 12   6  10  1   
 13   6  24  1   
 14   6  25  1   
 15   7  11  1   
 16   7  26  1   
 17   7  27  1   
 18   8  12  1   
 19   8  28  1   
 20   8  29  1   
 21   9  30  1   
 22   9  31  1   
 23   9  32  1   
 24  10  33  1   
 25  10  34  1   
 26  10  35  1   
 27  11  13  1   
 28  11  14  1   
 29  11  36  1   
 30  12  14  1   
 31  12  37  1   
 32  12  38  1   
 33  13  15  1   
 34  13  16  1   
 35  13  39  1   
 36  14  40  1   
 37  14  41  1   
 38  15  17  1   
 39  15  42  1   
 40  15  43  1   
 41  16  18  1   
 42  16  44  1   
 43  16  45  1   
 44  17  19  1   
 45  17  46  1   
 46  17  47  1   
 47  18  19  1   
 48  18  48  1   
 49  18  49  1   
 50  19  20  1   
 51  19  50  1   
 52  20  51  1   
 53  20  52  1   
 54  20  53  1   
@<TRIPOS>SUBSTRUCTURE
  1 ****   7 GROUP 4 **** **** 0

# MOE 2024.06 (io_trps.svl 2023.06)
