@<TRIPOS>MOLECULE
NONAME
39 40 1 0 0 
SMALL
USER_CHARGES


@<TRIPOS>ATOM
  1 O       -6.7720     2.3870     1.6770 O.2   1 <1>  -0.5700 
  2 C       -7.3600     2.3640     0.6370 C.2   1 <1>   0.4480 
  3 C       -7.6680     1.0320    -0.0370 C.3   1 <1>  -0.0190 
  4 C       -7.7600     3.6680    -0.0340 C.3   1 <1>  -0.0990 
  5 C       -9.1310     0.6250     0.2410 C.3   1 <1>  -0.1600 
  6 C       -6.7370    -0.0690     0.5060 C.3   1 <1>   0.3430 
  7 C       -8.9550     3.6050    -0.9980 C.3   1 <1>  -0.1600 
  8 C      -10.1700     1.3820    -0.5990 C.3   1 <1>  -0.1600 
  9 N       -5.3710    -0.0860    -0.1190 N.4   1 <1>  -0.9590 
 10 C      -10.1840     2.9040    -0.4030 C.3   1 <1>  -0.1600 
 11 C       -4.7430    -1.4240     0.0890 C.3   1 <1>   0.3430 
 12 C       -4.4880     0.9990     0.4190 C.3   1 <1>   0.3430 
 13 C       -3.4080    -1.4950    -0.6530 C.3   1 <1>  -0.1600 
 14 C       -3.1400     0.9840    -0.3030 C.3   1 <1>  -0.1600 
 15 C       -2.4530    -0.3830    -0.2020 C.3   1 <1>  -0.1600 
 16 H       -7.5240     1.1100    -1.0990 H     1 <1>   0.0800 
 17 H       -6.9070     4.0540    -0.5610 H     1 <1>   0.0800 
 18 H       -7.9910     4.3720     0.7470 H     1 <1>   0.0800 
 19 H       -9.3520     0.7630     1.2870 H     1 <1>   0.0800 
 20 H       -9.2590    -0.4230     0.0260 H     1 <1>   0.0800 
 21 H       -7.2070    -1.0190     0.3090 H     1 <1>   0.0800 
 22 H       -6.6510     0.0290     1.5770 H     1 <1>   0.0800 
 23 H       -8.6710     3.1320    -1.9220 H     1 <1>   0.0800 
 24 H       -9.2290     4.6190    -1.2410 H     1 <1>   0.0800 
 25 H      -11.1450     1.0070    -0.3310 H     1 <1>   0.0800 
 26 H      -10.0300     1.1570    -1.6430 H     1 <1>   0.0800 
 27 H       -5.4550     0.0540    -1.1330 H     1 <1>   0.4500 
 28 H      -11.0560     3.2850    -0.9110 H     1 <1>   0.0800 
 29 H      -10.2980     3.1520     0.6390 H     1 <1>   0.0800 
 30 H       -5.3960    -2.2010    -0.2760 H     1 <1>   0.0800 
 31 H       -4.5770    -1.5870     1.1420 H     1 <1>   0.0800 
 32 H       -4.3380     0.8560     1.4780 H     1 <1>   0.0800 
 33 H       -4.9460     1.9630     0.2770 H     1 <1>   0.0800 
 34 H       -3.5810    -1.4260    -1.7130 H     1 <1>   0.0800 
 35 H       -2.9520    -2.4520    -0.4640 H     1 <1>   0.0800 
 36 H       -2.5020     1.7340     0.1320 H     1 <1>   0.0800 
 37 H       -3.2850     1.2470    -1.3360 H     1 <1>   0.0800 
 38 H       -1.5630    -0.3930    -0.8100 H     1 <1>   0.0800 
 39 H       -2.1530    -0.5590     0.8180 H     1 <1>   0.0800 
@<TRIPOS>BOND
  1   1   2  2   
  2   2   3  1   
  3   2   4  1   
  4   3   5  1   
  5   3   6  1   
  6   3  16  1   
  7   4   7  1   
  8   4  17  1   
  9   4  18  1   
 10   5   8  1   
 11   5  19  1   
 12   5  20  1   
 13   6   9  1   
 14   6  21  1   
 15   6  22  1   
 16   7  10  1   
 17   7  23  1   
 18   7  24  1   
 19   8  10  1   
 20   8  25  1   
 21   8  26  1   
 22   9  11  1   
 23   9  12  1   
 24   9  27  1   
 25  10  28  1   
 26  10  29  1   
 27  11  13  1   
 28  11  30  1   
 29  11  31  1   
 30  12  14  1   
 31  12  32  1   
 32  12  33  1   
 33  13  15  1   
 34  13  34  1   
 35  13  35  1   
 36  14  15  1   
 37  14  36  1   
 38  14  37  1   
 39  15  38  1   
 40  15  39  1   
@<TRIPOS>SUBSTRUCTURE
  1 ****   3 GROUP 4 **** **** 0

# MOE 2024.06 (io_trps.svl 2023.06)
