@<TRIPOS>MOLECULE
11794
58 61 1 0 0 
SMALL
USER_CHARGES


@<TRIPOS>ATOM
  1 O       -0.7450    -1.9460     2.6370 O.2   1 <1>  -0.5700 
  2 C       -0.5350    -2.0550     1.4430 C.2   1 <1>   0.6160 
  3 N        0.7390    -1.9640     0.9440 N.am  1 <1>  -0.5470 
  4 C       -1.6300    -2.2580     0.5500 C.2   1 <1>  -0.1240 
  5 C        2.0160    -1.8530     1.5190 C.ar  1 <1>   0.1170 
  6 C       -1.6920    -3.0930    -0.5300 C.2   1 <1>  -0.0380 
  7 C       -2.8340    -1.3770     0.9270 C.3   1 <1>   0.4570 
  8 C        3.1230    -2.0430     0.6830 C.ar  1 <1>   0.0820 
  9 C        2.2320    -1.5600     2.8610 C.ar  1 <1>  -0.1500 
 10 N       -2.8340    -3.1710    -1.2990 N.pl3 1 <1>  -0.5840 
 11 C       -0.5870    -4.0320    -0.9910 C.3   1 <1>  -0.1020 
 12 N       -4.0300    -1.7100     0.1170 N.pl3 1 <1>   0.3140 
 13 C       -2.4640     0.0970     0.7360 C.ar  1 <1>  -0.1440 
 14 O        2.8710    -2.3230    -0.6330 O.3   1 <1>  -0.3630 
 15 C        4.4120    -1.9440     1.2000 C.ar  1 <1>  -0.1500 
 16 C        3.5150    -1.4620     3.3690 C.ar  1 <1>  -0.1500 
 17 C       -3.9990    -2.5200    -0.9210 C.2   1 <1>   0.2700 
 18 N       -5.2720    -1.2720     0.2500 N.2   1 <1>  -0.4180 
 19 C       -2.2280     0.9000     1.8430 C.ar  1 <1>  -0.1500 
 20 C       -2.3390     0.6480    -0.5350 C.ar  1 <1>  -0.1500 
 21 C        3.9250    -2.4840    -1.5580 C.3   1 <1>   0.0400 
 22 C        4.6050    -1.6550     2.5400 C.ar  1 <1>  -0.1500 
 23 N       -5.1600    -2.6010    -1.4540 N.2   1 <1>  -0.3380 
 24 N       -5.9380    -1.8150    -0.7070 N.2   1 <1>   0.0000 
 25 C       -1.8830     2.2300     1.6830 C.ar  1 <1>  -0.1500 
 26 C       -1.9940     1.9790    -0.6960 C.ar  1 <1>  -0.1500 
 27 C       -1.7640     2.7800     0.4190 C.ar  1 <1>   0.0830 
 28 O       -1.4220     4.0900     0.3510 O.3   1 <1>  -0.3620 
 29 C       -1.2590     4.7420    -0.8870 C.3   1 <1>   0.1200 
 30 C       -0.8660     6.1940    -0.6150 C.3   1 <1>  -0.1600 
 31 C       -0.6700     6.9710    -1.9230 C.3   1 <1>  -0.1600 
 32 C       -0.2780     8.4250    -1.6460 C.3   1 <1>  -0.2400 
 33 H        0.7990    -2.0430    -0.0720 H     1 <1>   0.3700 
 34 H       -3.1000    -1.5530     1.9540 H     1 <1>   0.0800 
 35 H        1.4020    -1.4010     3.5230 H     1 <1>   0.1500 
 36 H       -2.9100    -3.8070    -2.1020 H     1 <1>   0.4000 
 37 H       -1.0010    -4.9950    -1.2350 H     1 <1>   0.0800 
 38 H        0.1530    -4.1920    -0.2290 H     1 <1>   0.0800 
 39 H       -0.1050    -3.6350    -1.8670 H     1 <1>   0.0800 
 40 H        5.2780    -2.0870     0.5840 H     1 <1>   0.1500 
 41 H        3.6620    -1.2350     4.4110 H     1 <1>   0.1500 
 42 H       -2.3050     0.4960     2.8390 H     1 <1>   0.1500 
 43 H       -2.5120     0.0480    -1.4120 H     1 <1>   0.1500 
 44 H        4.5060    -1.5790    -1.5890 H     1 <1>   0.0800 
 45 H        3.4970    -2.6750    -2.5260 H     1 <1>   0.0800 
 46 H        4.5320    -3.3200    -1.2560 H     1 <1>   0.0800 
 47 H        5.6020    -1.5790     2.9380 H     1 <1>   0.1500 
 48 H       -1.7000     2.8510     2.5420 H     1 <1>   0.1500 
 49 H       -1.9120     2.3710    -1.6910 H     1 <1>   0.1500 
 50 H       -2.1920     4.6940    -1.4210 H     1 <1>   0.0800 
 51 H       -0.4850     4.2360    -1.4370 H     1 <1>   0.0800 
 52 H        0.0490     6.2090    -0.0490 H     1 <1>   0.0800 
 53 H       -1.6410     6.6620    -0.0320 H     1 <1>   0.0800 
 54 H       -1.5830     6.9550    -2.4950 H     1 <1>   0.0800 
 55 H        0.1010     6.5030    -2.5110 H     1 <1>   0.0800 
 56 H       -1.0450     8.9200    -1.0760 H     1 <1>   0.0800 
 57 H       -0.1450     8.9540    -2.5720 H     1 <1>   0.0800 
 58 H        0.6450     8.4660    -1.0930 H     1 <1>   0.0800 
@<TRIPOS>BOND
  1   1   2  2   
  2   2   3  am  
  3   2   4  1   
  4   3   5  1   
  5   3  33  1   
  6   4   6  2   
  7   4   7  1   
  8   5   8  ar  
  9   5   9  ar  
 10   6  10  1   
 11   6  11  1   
 12   7  12  1   
 13   7  13  1   
 14   7  34  1   
 15   8  14  1   
 16   8  15  ar  
 17   9  16  ar  
 18   9  35  1   
 19  10  17  1   
 20  10  36  1   
 21  11  37  1   
 22  11  38  1   
 23  11  39  1   
 24  12  17  1   
 25  12  18  1   
 26  13  19  ar  
 27  13  20  ar  
 28  14  21  1   
 29  15  22  ar  
 30  15  40  1   
 31  16  22  ar  
 32  16  41  1   
 33  17  23  2   
 34  18  24  2   
 35  19  25  ar  
 36  19  42  1   
 37  20  26  ar  
 38  20  43  1   
 39  21  44  1   
 40  21  45  1   
 41  21  46  1   
 42  22  47  1   
 43  23  24  1   
 44  25  27  ar  
 45  25  48  1   
 46  26  27  ar  
 47  26  49  1   
 48  27  28  1   
 49  28  29  1   
 50  29  30  1   
 51  29  50  1   
 52  29  51  1   
 53  30  31  1   
 54  30  52  1   
 55  30  53  1   
 56  31  32  1   
 57  31  54  1   
 58  31  55  1   
 59  32  56  1   
 60  32  57  1   
 61  32  58  1   
@<TRIPOS>SUBSTRUCTURE
  1 ****  13 GROUP 4 **** **** 0

# MOE 2024.06 (io_trps.svl 2023.06)
