@<TRIPOS>MOLECULE
NONAME
38 40 1 0 0 
SMALL
USER_CHARGES


@<TRIPOS>ATOM
  1 CL      -1.8190     0.8570     1.3330 Cl    1 <1>  -0.1770 
  2 C       -1.1010     2.2660     0.5900 C.ar  1 <1>   0.1770 
  3 C       -1.7740     2.9200    -0.4350 C.ar  1 <1>  -0.1440 
  4 C        0.1240     2.7060     1.0520 C.ar  1 <1>  -0.1500 
  5 C       -1.1940     4.0450    -1.0080 C.ar  1 <1>  -0.1500 
  6 C       -3.1150     2.4040    -0.9250 C.3   1 <1>   0.4870 
  7 C        0.6790     3.8280     0.4700 C.ar  1 <1>   0.1770 
  8 C        0.0340     4.5000    -0.5530 C.ar  1 <1>  -0.1500 
  9 N       -4.1440     2.6040     0.1300 N.4   1 <1>  -0.9590 
 10 CL       2.2210     4.4090     1.0360 Cl    1 <1>  -0.1770 
 11 C       -5.4440     1.9230    -0.2350 C.3   1 <1>   0.3430 
 12 C       -4.3470     4.0710     0.4520 C.3   1 <1>   0.3430 
 13 C       -6.5630     2.1680     0.8000 C.3   1 <1>   0.2090 
 14 C       -5.4610     4.2960     1.4930 C.3   1 <1>   0.2090 
 15 N       -6.7150     3.6310     1.0330 N.pl3 1 <1>  -0.8380 
 16 C       -7.6380     4.3260     0.2850 C.ar  1 <1>   0.7200 
 17 N       -8.8540     3.8000     0.2070 N.ar  1 <1>  -0.6200 
 18 N       -7.2080     5.4320    -0.3210 N.ar  1 <1>  -0.6200 
 19 C       -9.7300     4.4760    -0.4960 C.ar  1 <1>   0.1600 
 20 C       -8.1070     6.0860    -1.0180 C.ar  1 <1>   0.1600 
 21 C       -9.4020     5.6460    -1.1370 C.ar  1 <1>  -0.1500 
 22 H        0.6370     2.1920     1.8450 H     1 <1>   0.1500 
 23 H       -1.6800     4.5770    -1.8110 H     1 <1>   0.1500 
 24 H       -3.0250     1.3550    -1.1560 H     1 <1>   0.0800 
 25 H       -3.4030     2.9250    -1.8240 H     1 <1>   0.0800 
 26 H        0.4990     5.3700    -0.9880 H     1 <1>   0.1500 
 27 H       -3.7840     2.1500     0.9820 H     1 <1>   0.4500 
 28 H       -5.2880     0.8610    -0.3360 H     1 <1>   0.0800 
 29 H       -5.7910     2.2970    -1.1840 H     1 <1>   0.0800 
 30 H       -4.6250     4.6030    -0.4440 H     1 <1>   0.0800 
 31 H       -3.4300     4.4990     0.8210 H     1 <1>   0.0800 
 32 H       -6.3260     1.6800     1.7290 H     1 <1>   0.0800 
 33 H       -7.4830     1.7400     0.4380 H     1 <1>   0.0800 
 34 H       -5.6260     5.3510     1.6330 H     1 <1>   0.0800 
 35 H       -5.1680     3.8890     2.4450 H     1 <1>   0.0800 
 36 H      -10.7330     4.0880    -0.5640 H     1 <1>   0.1500 
 37 H       -7.8060     6.9980    -1.5090 H     1 <1>   0.1500 
 38 H      -10.1300     6.1920    -1.7080 H     1 <1>   0.1500 
@<TRIPOS>BOND
  1   1   2  1   
  2   2   3  ar  
  3   2   4  ar  
  4   3   5  ar  
  5   3   6  1   
  6   4   7  ar  
  7   4  22  1   
  8   5   8  ar  
  9   5  23  1   
 10   6   9  1   
 11   6  24  1   
 12   6  25  1   
 13   7   8  ar  
 14   7  10  1   
 15   8  26  1   
 16   9  11  1   
 17   9  12  1   
 18   9  27  1   
 19  11  13  1   
 20  11  28  1   
 21  11  29  1   
 22  12  14  1   
 23  12  30  1   
 24  12  31  1   
 25  13  15  1   
 26  13  32  1   
 27  13  33  1   
 28  14  15  1   
 29  14  34  1   
 30  14  35  1   
 31  15  16  1   
 32  16  17  ar  
 33  16  18  ar  
 34  17  19  ar  
 35  18  20  ar  
 36  19  21  ar  
 37  19  36  1   
 38  20  21  ar  
 39  20  37  1   
 40  21  38  1   
@<TRIPOS>SUBSTRUCTURE
  1 ****  12 GROUP 4 **** **** 0

# MOE 2024.06 (io_trps.svl 2023.06)
