@<TRIPOS>MOLECULE
NONAME
45 46 1 0 0 
SMALL
USER_CHARGES


@<TRIPOS>ATOM
  1 O       -1.0100     1.4470    -1.7820 O.2   1 <1>  -0.5700 
  2 C       -0.7450     2.2480    -0.9130 C.2   1 <1>   0.5690 
  3 N        0.5660     2.5630    -0.6300 N.am  1 <1>  -0.6600 
  4 C       -1.9450     2.8620    -0.1670 C.3   1 <1>   0.1250 
  5 C        1.0370     3.5580     0.3830 C.3   1 <1>   0.1400 
  6 C        1.6880     1.9910    -1.4370 C.3   1 <1>   0.1400 
  7 C       -1.9100     4.3990    -0.1310 C.ar  1 <1>  -0.1440 
  8 C       -2.1450     2.1830     1.2020 C.3   1 <1>  -0.2400 
  9 C        2.2370     3.0140     1.1780 C.3   1 <1>   0.1200 
 10 C        2.8380     1.5270    -0.5290 C.3   1 <1>   0.1200 
 11 C       -1.6870     5.0790    -1.3200 C.ar  1 <1>  -0.1500 
 12 C       -2.0850     5.1430     1.0310 C.ar  1 <1>  -0.1500 
 13 O        3.2440     2.5620     0.3210 O.3   1 <1>  -0.5600 
 14 C       -1.6220     6.4600    -1.3490 C.ar  1 <1>  -0.1500 
 15 C       -2.0200     6.5250     1.0020 C.ar  1 <1>  -0.1500 
 16 C       -1.7830     7.1940    -0.1870 C.ar  1 <1>  -0.1430 
 17 C       -1.7010     8.7140    -0.2220 C.3   1 <1>  -0.0170 
 18 C       -0.2530     9.2210    -0.3570 C.3   1 <1>  -0.0800 
 19 C        0.6170     8.7920     0.8330 C.3   1 <1>  -0.2400 
 20 C       -0.2340    10.7490    -0.4860 C.3   1 <1>  -0.2400 
 21 H       -2.8140     2.6110    -0.7500 H     1 <1>   0.0800 
 22 H        0.2590     3.8020     1.0780 H     1 <1>   0.0800 
 23 H        1.3260     4.4640    -0.1210 H     1 <1>   0.0800 
 24 H        2.0530     2.7420    -2.1140 H     1 <1>   0.0800 
 25 H        1.3480     1.1550    -2.0230 H     1 <1>   0.0800 
 26 H       -1.3320     2.4050     1.8680 H     1 <1>   0.0800 
 27 H       -2.1920     1.1160     1.0700 H     1 <1>   0.0800 
 28 H       -3.0690     2.5050     1.6480 H     1 <1>   0.0800 
 29 H        1.9320     2.1990     1.8100 H     1 <1>   0.0800 
 30 H        2.6540     3.7910     1.7940 H     1 <1>   0.0800 
 31 H        3.6860     1.2390    -1.1250 H     1 <1>   0.0800 
 32 H        2.5320     0.6860     0.0680 H     1 <1>   0.0800 
 33 H       -1.5580     4.5330    -2.2400 H     1 <1>   0.1500 
 34 H       -2.2710     4.6690     1.9770 H     1 <1>   0.1500 
 35 H       -1.4440     6.9620    -2.2840 H     1 <1>   0.1500 
 36 H       -2.1530     7.0810     1.9140 H     1 <1>   0.1500 
 37 H       -2.1450     9.1230     0.6690 H     1 <1>   0.0800 
 38 H       -2.2810     9.0670    -1.0570 H     1 <1>   0.0800 
 39 H        0.1720     8.8020    -1.2540 H     1 <1>   0.0800 
 40 H        0.2070     9.1630     1.7560 H     1 <1>   0.0800 
 41 H        1.6160     9.1730     0.7220 H     1 <1>   0.0800 
 42 H        0.6750     7.7190     0.8890 H     1 <1>   0.0800 
 43 H       -0.6450    11.2100     0.3950 H     1 <1>   0.0800 
 44 H       -0.8100    11.0610    -1.3390 H     1 <1>   0.0800 
 45 H        0.7750    11.0990    -0.6160 H     1 <1>   0.0800 
@<TRIPOS>BOND
  1   1   2  2   
  2   2   3  am  
  3   2   4  1   
  4   3   5  1   
  5   3   6  1   
  6   4   7  1   
  7   4   8  1   
  8   4  21  1   
  9   5   9  1   
 10   5  22  1   
 11   5  23  1   
 12   6  10  1   
 13   6  24  1   
 14   6  25  1   
 15   7  11  ar  
 16   7  12  ar  
 17   8  26  1   
 18   8  27  1   
 19   8  28  1   
 20   9  13  1   
 21   9  29  1   
 22   9  30  1   
 23  10  13  1   
 24  10  31  1   
 25  10  32  1   
 26  11  14  ar  
 27  11  33  1   
 28  12  15  ar  
 29  12  34  1   
 30  14  16  ar  
 31  14  35  1   
 32  15  16  ar  
 33  15  36  1   
 34  16  17  1   
 35  17  18  1   
 36  17  37  1   
 37  17  38  1   
 38  18  19  1   
 39  18  20  1   
 40  18  39  1   
 41  19  40  1   
 42  19  41  1   
 43  19  42  1   
 44  20  43  1   
 45  20  44  1   
 46  20  45  1   
@<TRIPOS>SUBSTRUCTURE
  1 ****   7 GROUP 4 **** **** 0

# MOE 2024.06 (io_trps.svl 2023.06)
