@<TRIPOS>MOLECULE
NONAME
52 55 1 0 0 
SMALL
USER_CHARGES


@<TRIPOS>ATOM
  1 O       -0.1360     0.2400    -0.0820 O.2   1 <1>  -0.5700 
  2 C       -0.0780     1.4420    -0.2110 C.2   1 <1>   0.6340 
  3 O        1.1310     1.9670    -0.4390 O.3   1 <1>  -0.4300 
  4 C       -1.2530     2.2840    -0.1570 C.ar  1 <1>   0.0860 
  5 C        1.3320     3.1410    -1.2000 C.3   1 <1>   0.0400 
  6 C       -2.4120     1.9370    -0.8520 C.ar  1 <1>  -0.1500 
  7 C       -1.2940     3.4610     0.5930 C.ar  1 <1>  -0.1500 
  8 C       -3.5390     2.7350    -0.8260 C.ar  1 <1>  -0.1500 
  9 C       -2.4180     4.2620     0.6210 C.ar  1 <1>  -0.1500 
 10 C       -3.5610     3.9190    -0.0970 C.ar  1 <1>   0.1170 
 11 N       -4.7230     4.6940    -0.1000 N.am  1 <1>  -0.5470 
 12 C       -4.9210     6.0300     0.1460 C.2   1 <1>   0.5690 
 13 O       -4.0070     6.7820     0.3870 O.2   1 <1>  -0.5700 
 14 C       -6.3700     6.5610     0.0860 C.3   1 <1>   0.0610 
 15 C       -6.4400     8.0760     0.4150 C.3   1 <1>  -0.1600 
 16 C       -7.2640     5.8120     1.1070 C.3   1 <1>  -0.1600 
 17 C       -6.9600     6.3540    -1.3320 C.3   1 <1>  -0.1600 
 18 C       -7.8870     8.6040     0.3530 C.3   1 <1>   0.0000 
 19 C       -8.7220     6.3110     1.0500 C.3   1 <1>   0.0000 
 20 C       -8.4120     6.8610    -1.4010 C.3   1 <1>  -0.0800 
 21 C       -8.7440     7.8190     1.3670 C.3   1 <1>  -0.1600 
 22 C       -8.4430     8.3610    -1.0640 C.3   1 <1>  -0.1600 
 23 C       -7.9180    10.1010     0.6820 C.3   1 <1>  -0.2400 
 24 C       -9.2670     6.0930    -0.3770 C.3   1 <1>  -0.1600 
 25 C       -9.5810     5.5470     2.0650 C.3   1 <1>  -0.2400 
 26 H        2.3720     3.1870    -1.4720 H     1 <1>   0.0800 
 27 H        1.0770     4.0010    -0.6070 H     1 <1>   0.0800 
 28 H        0.7250     3.0960    -2.0880 H     1 <1>   0.0800 
 29 H       -2.4170     1.0210    -1.4200 H     1 <1>   0.1500 
 30 H       -0.4300     3.7470     1.1690 H     1 <1>   0.1500 
 31 H       -4.4100     2.4370    -1.3800 H     1 <1>   0.1500 
 32 H       -2.4090     5.1600     1.2120 H     1 <1>   0.1500 
 33 H       -5.5700     4.1960    -0.3650 H     1 <1>   0.3700 
 34 H       -5.8280     8.6220    -0.2820 H     1 <1>   0.0800 
 35 H       -6.0350     8.2470     1.3970 H     1 <1>   0.0800 
 36 H       -6.8700     5.9620     2.0980 H     1 <1>   0.0800 
 37 H       -7.2480     4.7550     0.9110 H     1 <1>   0.0800 
 38 H       -6.9420     5.3140    -1.6010 H     1 <1>   0.0800 
 39 H       -6.3610     6.8860    -2.0510 H     1 <1>   0.0800 
 40 H       -8.8050     6.7050    -2.3920 H     1 <1>   0.0800 
 41 H       -8.3690     7.9860     2.3610 H     1 <1>   0.0800 
 42 H       -9.7570     8.1800     1.3370 H     1 <1>   0.0800 
 43 H       -7.8570     8.9040    -1.7860 H     1 <1>   0.0800 
 44 H       -9.4540     8.7230    -1.1280 H     1 <1>   0.0800 
 45 H       -7.5290    10.2770     1.6700 H     1 <1>   0.0800 
 46 H       -8.9250    10.4760     0.6410 H     1 <1>   0.0800 
 47 H       -7.3190    10.6530    -0.0210 H     1 <1>   0.0800 
 48 H      -10.2860     6.4360    -0.4330 H     1 <1>   0.0800 
 49 H       -9.2650     5.0450    -0.6170 H     1 <1>   0.0800 
 50 H       -9.2050     5.6940     3.0620 H     1 <1>   0.0800 
 51 H       -9.5750     4.4940     1.8500 H     1 <1>   0.0800 
 52 H      -10.5990     5.8940     2.0320 H     1 <1>   0.0800 
@<TRIPOS>BOND
  1   1   2  2   
  2   2   3  1   
  3   2   4  1   
  4   3   5  1   
  5   4   6  ar  
  6   4   7  ar  
  7   5  26  1   
  8   5  27  1   
  9   5  28  1   
 10   6   8  ar  
 11   6  29  1   
 12   7   9  ar  
 13   7  30  1   
 14   8  10  ar  
 15   8  31  1   
 16   9  10  ar  
 17   9  32  1   
 18  10  11  1   
 19  11  12  am  
 20  11  33  1   
 21  12  13  2   
 22  12  14  1   
 23  14  15  1   
 24  14  16  1   
 25  14  17  1   
 26  15  18  1   
 27  15  34  1   
 28  15  35  1   
 29  16  19  1   
 30  16  36  1   
 31  16  37  1   
 32  17  20  1   
 33  17  38  1   
 34  17  39  1   
 35  18  21  1   
 36  18  22  1   
 37  18  23  1   
 38  19  21  1   
 39  19  24  1   
 40  19  25  1   
 41  20  22  1   
 42  20  24  1   
 43  20  40  1   
 44  21  41  1   
 45  21  42  1   
 46  22  43  1   
 47  22  44  1   
 48  23  45  1   
 49  23  46  1   
 50  23  47  1   
 51  24  48  1   
 52  24  49  1   
 53  25  50  1   
 54  25  51  1   
 55  25  52  1   
@<TRIPOS>SUBSTRUCTURE
  1 ****  11 GROUP 4 **** **** 0

# MOE 2024.06 (io_trps.svl 2023.06)
