@<TRIPOS>MOLECULE
NONAME
38 39 1 0 0 
SMALL
USER_CHARGES


@<TRIPOS>ATOM
  1 S        0.4900     0.8300     1.5150 S.3   1 <1>  -0.3320 
  2 C       -1.0630     1.4820     0.8920 C.ar  1 <1>   0.4120 
  3 C        1.7230     1.1930     0.1850 C.3   1 <1>   0.2140 
  4 N       -1.9840     0.5530     0.7600 N.ar  1 <1>  -0.6200 
  5 C       -1.2150     2.8330     0.5990 C.ar  1 <1>   0.0730 
  6 C        2.6810     0.0180     0.0740 C.ar  1 <1>  -0.1440 
  7 C       -3.1500     0.9610     0.3000 C.ar  1 <1>   0.1670 
  8 C       -0.1160     3.7290     0.8000 C.1   1 <1>   0.4840 
  9 C       -2.4520     3.2550     0.1140 C.ar  1 <1>  -0.1440 
 10 C        4.0310     0.1830     0.3440 C.ar  1 <1>  -0.1500 
 11 C        2.2120    -1.2300    -0.3070 C.ar  1 <1>  -0.1500 
 12 C       -3.4400     2.2850    -0.0420 C.ar  1 <1>  -0.1440 
 13 C       -4.1690    -0.1590     0.1620 C.3   1 <1>  -0.0960 
 14 N        0.7650     4.4440     0.9170 N.1   1 <1>  -0.5570 
 15 C       -2.7040     4.7270    -0.2410 C.3   1 <1>  -0.0970 
 16 C        4.9030    -0.8860     0.2300 C.ar  1 <1>  -0.1500 
 17 C        3.0820    -2.3000    -0.4220 C.ar  1 <1>  -0.1500 
 18 C       -4.8260     2.6560    -0.5880 C.3   1 <1>  -0.0170 
 19 C        4.4290    -2.1280    -0.1540 C.ar  1 <1>  -0.1500 
 20 C       -5.7880     3.0390     0.5430 C.3   1 <1>  -0.2400 
 21 H        2.2340     2.0990     0.4580 H     1 <1>   0.0800 
 22 H        1.1810     1.3320    -0.7320 H     1 <1>   0.0800 
 23 H        4.4110     1.1440     0.6460 H     1 <1>   0.1500 
 24 H        1.1640    -1.3730    -0.5110 H     1 <1>   0.1500 
 25 H       -3.8300    -1.0410     0.6770 H     1 <1>   0.0800 
 26 H       -4.3010    -0.4050    -0.8750 H     1 <1>   0.0800 
 27 H       -5.1130     0.1240     0.5870 H     1 <1>   0.0800 
 28 H       -2.6650     4.8540    -1.3080 H     1 <1>   0.0800 
 29 H       -1.9870     5.3930     0.2010 H     1 <1>   0.0800 
 30 H       -3.6690     5.0460     0.1060 H     1 <1>   0.0800 
 31 H        5.9490    -0.7520     0.4410 H     1 <1>   0.1500 
 32 H        2.7100    -3.2650    -0.7160 H     1 <1>   0.1500 
 33 H       -5.2450     1.8380    -1.1470 H     1 <1>   0.0800 
 34 H       -4.7530     3.4710    -1.2860 H     1 <1>   0.0800 
 35 H        5.1060    -2.9600    -0.2420 H     1 <1>   0.1500 
 36 H       -5.9140     2.2200     1.2280 H     1 <1>   0.0800 
 37 H       -6.7500     3.2970     0.1370 H     1 <1>   0.0800 
 38 H       -5.4120     3.8810     1.0940 H     1 <1>   0.0800 
@<TRIPOS>BOND
  1   1   2  1   
  2   1   3  1   
  3   2   4  ar  
  4   2   5  ar  
  5   3   6  1   
  6   3  21  1   
  7   3  22  1   
  8   4   7  ar  
  9   5   8  1   
 10   5   9  ar  
 11   6  10  ar  
 12   6  11  ar  
 13   7  12  ar  
 14   7  13  1   
 15   8  14  3   
 16   9  12  ar  
 17   9  15  1   
 18  10  16  ar  
 19  10  23  1   
 20  11  17  ar  
 21  11  24  1   
 22  12  18  1   
 23  13  25  1   
 24  13  26  1   
 25  13  27  1   
 26  15  28  1   
 27  15  29  1   
 28  15  30  1   
 29  16  19  ar  
 30  16  31  1   
 31  17  19  ar  
 32  17  32  1   
 33  18  20  1   
 34  18  33  1   
 35  18  34  1   
 36  19  35  1   
 37  20  36  1   
 38  20  37  1   
 39  20  38  1   
@<TRIPOS>SUBSTRUCTURE
  1 ****   2 GROUP 4 **** **** 0

# MOE 2024.06 (io_trps.svl 2023.06)
