@<TRIPOS>MOLECULE
NONAME
34 35 1 0 0 
SMALL
USER_CHARGES


@<TRIPOS>ATOM
  1 S        0.1470     0.2420     1.8980 S.o2  1 <1>   1.3330 
  2 O        0.6660     1.4260     2.5440 O.2   1 <1>  -0.6500 
  3 O       -0.7300    -0.6470     2.6250 O.2   1 <1>  -0.6500 
  4 N       -0.6660     0.7330     0.4950 N.am  1 <1>  -0.8490 
  5 C        1.5330    -0.6940     1.2600 C.3   1 <1>  -0.0550 
  6 C       -1.4420     1.9640     0.7180 C.3   1 <1>   0.1960 
  7 C       -1.5600    -0.3040    -0.0480 C.3   1 <1>   0.1960 
  8 C        2.4580     0.1420     0.3700 C.3   1 <1>  -0.0160 
  9 C       -2.1690     2.4050    -0.5660 C.3   1 <1>   0.1200 
 10 C       -2.2670     0.1900    -1.3230 C.3   1 <1>   0.1200 
 11 C        3.5750    -0.7310    -0.1730 C.ar  1 <1>  -0.1440 
 12 O       -2.9710     1.3710    -1.0650 O.3   1 <1>  -0.5600 
 13 C        3.4390    -1.3560    -1.4030 C.ar  1 <1>  -0.1500 
 14 C        4.7360    -0.9150     0.5610 C.ar  1 <1>  -0.1500 
 15 C        4.4540    -2.1590    -1.8940 C.ar  1 <1>  -0.1500 
 16 C        5.7510    -1.7190     0.0710 C.ar  1 <1>  -0.1500 
 17 C        5.6100    -2.3420    -1.1560 C.ar  1 <1>  -0.1500 
 18 H        1.1700    -1.5310     0.6970 H     1 <1>   0.0800 
 19 H        2.1030    -1.0790     2.0830 H     1 <1>   0.0800 
 20 H       -0.7830     2.7580     1.0280 H     1 <1>   0.0800 
 21 H       -2.1650     1.8080     1.5020 H     1 <1>   0.0800 
 22 H       -2.3090    -0.5710     0.6800 H     1 <1>   0.0800 
 23 H       -0.9930    -1.1880    -0.2810 H     1 <1>   0.0800 
 24 H        2.8730     0.9560     0.9390 H     1 <1>   0.0800 
 25 H        1.9000     0.5660    -0.4470 H     1 <1>   0.0800 
 26 H       -1.4580     2.6840    -1.3230 H     1 <1>   0.0800 
 27 H       -2.8070     3.2460    -0.3620 H     1 <1>   0.0800 
 28 H       -2.9740    -0.5440    -1.6660 H     1 <1>   0.0800 
 29 H       -1.5520     0.3780    -2.1050 H     1 <1>   0.0800 
 30 H        2.5460    -1.2210    -1.9860 H     1 <1>   0.1500 
 31 H        4.8560    -0.4350     1.5160 H     1 <1>   0.1500 
 32 H        4.3450    -2.6420    -2.8490 H     1 <1>   0.1500 
 33 H        6.6510    -1.8590     0.6450 H     1 <1>   0.1500 
 34 H        6.4000    -2.9660    -1.5370 H     1 <1>   0.1500 
@<TRIPOS>BOND
  1   1   2  2   
  2   1   3  2   
  3   1   4  am  
  4   1   5  1   
  5   4   6  1   
  6   4   7  1   
  7   5   8  1   
  8   5  18  1   
  9   5  19  1   
 10   6   9  1   
 11   6  20  1   
 12   6  21  1   
 13   7  10  1   
 14   7  22  1   
 15   7  23  1   
 16   8  11  1   
 17   8  24  1   
 18   8  25  1   
 19   9  12  1   
 20   9  26  1   
 21   9  27  1   
 22  10  12  1   
 23  10  28  1   
 24  10  29  1   
 25  11  13  ar  
 26  11  14  ar  
 27  13  15  ar  
 28  13  30  1   
 29  14  16  ar  
 30  14  31  1   
 31  15  17  ar  
 32  15  32  1   
 33  16  17  ar  
 34  16  33  1   
 35  17  34  1   
@<TRIPOS>SUBSTRUCTURE
  1 ****   5 GROUP 4 **** **** 0

# MOE 2024.06 (io_trps.svl 2023.06)
