@<TRIPOS>MOLECULE
NONAME
36 37 1 0 0 
SMALL
USER_CHARGES


@<TRIPOS>ATOM
  1 CL      -0.7600     0.2910    -0.7120 Cl    1 <1>  -0.1770 
  2 C        0.0770    -0.8470     0.3190 C.ar  1 <1>   0.1770 
  3 C       -0.0720    -2.2230     0.1790 C.ar  1 <1>  -0.0090 
  4 C        0.9010    -0.2930     1.2840 C.ar  1 <1>  -0.1500 
  5 S       -1.1580    -2.9500    -1.0820 S.o2  1 <1>   1.4970 
  6 C        0.6450    -3.0250     1.0670 C.ar  1 <1>  -0.1500 
  7 C        1.6050    -1.1120     2.1470 C.ar  1 <1>  -0.1500 
  8 O       -0.7590    -2.2990    -2.3230 O.2   1 <1>  -0.6500 
  9 O       -0.9480    -4.3850    -0.9240 O.2   1 <1>  -0.6500 
 10 N       -2.6130    -2.4380    -0.4630 N.2   1 <1>  -0.6380 
 11 C        1.4730    -2.4840     2.0360 C.ar  1 <1>  -0.1500 
 12 C       -3.6680    -2.7950    -1.1080 C.2   1 <1>   0.3610 
 13 O       -3.6030    -3.4900    -2.1430 O.3   1 <1>  -0.8610 
 14 N       -4.9500    -2.4060    -0.6600 N.pl3 1 <1>  -0.3770 
 15 N       -5.2100    -1.7430     0.5280 N.2   1 <1>  -0.4920 
 16 C       -6.1970    -2.6040    -1.4510 C.3   1 <1>   0.3690 
 17 C       -6.4290    -1.4730     0.6060 C.2   1 <1>   0.3280 
 18 C       -7.2540    -1.9210    -0.5670 C.3   1 <1>  -0.0990 
 19 C       -6.1180    -1.8970    -2.8130 C.3   1 <1>  -0.2400 
 20 C       -6.5310    -4.0950    -1.6040 C.3   1 <1>  -0.2400 
 21 C       -7.0980    -0.7520     1.7530 C.3   1 <1>  -0.1790 
 22 H        0.9840     0.7760     1.3540 H     1 <1>   0.1500 
 23 H        0.5490    -4.0960     1.0000 H     1 <1>   0.1500 
 24 H        2.2460    -0.6860     2.8990 H     1 <1>   0.1500 
 25 H        2.0120    -3.1340     2.7040 H     1 <1>   0.1500 
 26 H       -8.0190    -2.6040    -0.2500 H     1 <1>   0.0800 
 27 H       -7.7000    -1.0750    -1.0530 H     1 <1>   0.0800 
 28 H       -5.8080    -0.8770    -2.6780 H     1 <1>   0.0800 
 29 H       -7.0690    -1.9220    -3.3080 H     1 <1>   0.0800 
 30 H       -5.3990    -2.3890    -3.4420 H     1 <1>   0.0800 
 31 H       -6.5050    -4.5760    -0.6440 H     1 <1>   0.0800 
 32 H       -5.8090    -4.5720    -2.2420 H     1 <1>   0.0800 
 33 H       -7.5010    -4.2220    -2.0440 H     1 <1>   0.0800 
 34 H       -7.8440    -1.3850     2.1960 H     1 <1>   0.0800 
 35 H       -7.5540     0.1530     1.4000 H     1 <1>   0.0800 
 36 H       -6.3630    -0.5060     2.4980 H     1 <1>   0.0800 
@<TRIPOS>BOND
  1   1   2  1   
  2   2   3  ar  
  3   2   4  ar  
  4   3   5  1   
  5   3   6  ar  
  6   4   7  ar  
  7   4  22  1   
  8   5   8  2   
  9   5   9  2   
 10   5  10  1   
 11   6  11  ar  
 12   6  23  1   
 13   7  11  ar  
 14   7  24  1   
 15  10  12  2   
 16  11  25  1   
 17  12  13  1   
 18  12  14  1   
 19  14  15  1   
 20  14  16  1   
 21  15  17  2   
 22  16  18  1   
 23  16  19  1   
 24  16  20  1   
 25  17  18  1   
 26  17  21  1   
 27  18  26  1   
 28  18  27  1   
 29  19  28  1   
 30  19  29  1   
 31  19  30  1   
 32  20  31  1   
 33  20  32  1   
 34  20  33  1   
 35  21  34  1   
 36  21  35  1   
 37  21  36  1   
@<TRIPOS>SUBSTRUCTURE
  1 ****  10 GROUP 4 **** **** 0

# MOE 2024.06 (io_trps.svl 2023.06)
