@<TRIPOS>MOLECULE
NONAME
51 52 1 0 0 
SMALL
USER_CHARGES


@<TRIPOS>ATOM
  1 O       -5.5700    -7.7410    -1.6660 O.3   1 <1>  -0.3630 
  2 C       -6.6660    -6.9380    -1.6780 C.ar  1 <1>   0.0820 
  3 C       -4.4620    -7.4080    -0.8450 C.3   1 <1>   0.1200 
  4 C       -6.9840    -6.2640    -2.8580 C.ar  1 <1>  -0.1440 
  5 C       -7.5020    -6.8300    -0.5620 C.ar  1 <1>  -0.1440 
  6 C       -3.5250    -6.4090    -1.5530 C.3   1 <1>   0.2000 
  7 C       -8.1020    -5.4480    -2.8970 C.ar  1 <1>  -0.1500 
  8 C       -6.1580    -6.4230    -4.1300 C.3   1 <1>  -0.0960 
  9 C       -8.6210    -6.0160    -0.6300 C.ar  1 <1>  -0.1500 
 10 C       -7.2750    -7.6270     0.7180 C.3   1 <1>  -0.0960 
 11 O       -2.3380    -7.0380    -1.9100 O.3   1 <1>  -0.6800 
 12 C       -3.1940    -5.1860    -0.6770 C.3   1 <1>   0.1100 
 13 C       -8.9170    -5.3200    -1.7880 C.ar  1 <1>  -0.1500 
 14 N       -4.4260    -4.4920    -0.2490 N.3   1 <1>  -0.8100 
 15 C       -4.2470    -3.6440     0.9480 C.3   1 <1>   0.1100 
 16 C       -5.0480    -3.7020    -1.3400 C.3   1 <1>   0.1100 
 17 C       -5.5980    -3.0650     1.4400 C.3   1 <1>   0.3430 
 18 C       -6.3770    -3.0410    -0.9040 C.3   1 <1>   0.3430 
 19 N       -6.7300    -3.4060     0.5040 N.4   1 <1>  -0.9590 
 20 C       -8.0670    -2.8720     0.9180 C.3   1 <1>   0.3430 
 21 C       -8.6430    -3.5100     2.2010 C.3   1 <1>   0.1200 
 22 O       -7.8370    -3.2470     3.3040 O.3   1 <1>  -0.6800 
 23 H       -3.9440    -8.3230    -0.6240 H     1 <1>   0.0800 
 24 H       -4.8300    -6.9940     0.0720 H     1 <1>   0.0800 
 25 H       -3.9730    -6.0760    -2.4690 H     1 <1>   0.0800 
 26 H       -8.3560    -4.9260    -3.8040 H     1 <1>   0.1500 
 27 H       -6.7990    -6.4040    -4.9930 H     1 <1>   0.0800 
 28 H       -5.4430    -5.6260    -4.2170 H     1 <1>   0.0800 
 29 H       -5.6330    -7.3610    -4.1360 H     1 <1>   0.0800 
 30 H       -9.2870    -5.9450     0.2110 H     1 <1>   0.1500 
 31 H       -6.6740    -7.0660     1.4090 H     1 <1>   0.0800 
 32 H       -6.7830    -8.5580     0.4990 H     1 <1>   0.0800 
 33 H       -8.2140    -7.8610     1.1870 H     1 <1>   0.0800 
 34 H       -1.9300    -7.4850    -1.1450 H     1 <1>   0.4000 
 35 H       -2.5590    -4.5080    -1.2230 H     1 <1>   0.0800 
 36 H       -2.6620    -5.5290     0.1930 H     1 <1>   0.0800 
 37 H       -9.7980    -4.7030    -1.8400 H     1 <1>   0.1500 
 38 H       -3.5680    -2.8360     0.7280 H     1 <1>   0.0800 
 39 H       -3.8130    -4.2260     1.7430 H     1 <1>   0.0800 
 40 H       -5.2510    -4.3390    -2.1810 H     1 <1>   0.0800 
 41 H       -4.3670    -2.9390    -1.6750 H     1 <1>   0.0800 
 42 H       -5.5130    -1.9970     1.5460 H     1 <1>   0.0800 
 43 H       -5.7960    -3.4710     2.4160 H     1 <1>   0.0800 
 44 H       -7.1560    -3.3660    -1.5730 H     1 <1>   0.0800 
 45 H       -6.2860    -1.9720    -0.9960 H     1 <1>   0.0800 
 46 H       -6.7460    -4.4390     0.4830 H     1 <1>   0.4500 
 47 H       -8.7700    -3.0510     0.1210 H     1 <1>   0.0800 
 48 H       -8.0050    -1.8060     1.0610 H     1 <1>   0.0800 
 49 H       -8.7320    -4.5770     2.0900 H     1 <1>   0.0800 
 50 H       -9.6180    -3.0980     2.4020 H     1 <1>   0.0800 
 51 H       -8.2630    -3.5540     4.1340 H     1 <1>   0.4000 
@<TRIPOS>BOND
  1   1   2  1   
  2   1   3  1   
  3   2   4  ar  
  4   2   5  ar  
  5   3   6  1   
  6   3  23  1   
  7   3  24  1   
  8   4   7  ar  
  9   4   8  1   
 10   5   9  ar  
 11   5  10  1   
 12   6  11  1   
 13   6  12  1   
 14   6  25  1   
 15   7  13  ar  
 16   7  26  1   
 17   8  27  1   
 18   8  28  1   
 19   8  29  1   
 20   9  13  ar  
 21   9  30  1   
 22  10  31  1   
 23  10  32  1   
 24  10  33  1   
 25  11  34  1   
 26  12  14  1   
 27  12  35  1   
 28  12  36  1   
 29  13  37  1   
 30  14  15  1   
 31  14  16  1   
 32  15  17  1   
 33  15  38  1   
 34  15  39  1   
 35  16  18  1   
 36  16  40  1   
 37  16  41  1   
 38  17  19  1   
 39  17  42  1   
 40  17  43  1   
 41  18  19  1   
 42  18  44  1   
 43  18  45  1   
 44  19  20  1   
 45  19  46  1   
 46  20  21  1   
 47  20  47  1   
 48  20  48  1   
 49  21  22  1   
 50  21  49  1   
 51  21  50  1   
 52  22  51  1   
@<TRIPOS>SUBSTRUCTURE
  1 ****  14 GROUP 4 **** **** 0

# MOE 2024.06 (io_trps.svl 2023.06)
