@<TRIPOS>MOLECULE
NONAME
45 48 1 0 0 
SMALL
USER_CHARGES


@<TRIPOS>ATOM
  1 O        2.0740     0.9640    -1.4000 O.3   1 <1>  -0.3630 
  2 C        2.8360    -0.0600    -1.0080 C.ar  1 <1>   0.0830 
  3 C        1.6230     0.6560    -2.7190 C.3   1 <1>   0.4000 
  4 C        2.9090    -0.9980    -1.9950 C.ar  1 <1>   0.0830 
  5 C        3.4900    -0.2230     0.1960 C.ar  1 <1>  -0.1500 
  6 O        2.1940    -0.6080    -3.0540 O.3   1 <1>  -0.3630 
  7 C        3.6430    -2.1550    -1.8330 C.ar  1 <1>  -0.1500 
  8 C        4.2450    -1.3780     0.3820 C.ar  1 <1>  -0.1440 
  9 C        4.3120    -2.3400    -0.6290 C.ar  1 <1>  -0.1500 
 10 C        5.0020    -1.5780     1.6810 C.3   1 <1>   0.4870 
 11 N        6.4510    -1.3780     1.4260 N.4   1 <1>  -0.9590 
 12 C        7.3320    -1.6760     2.6020 C.3   1 <1>   0.3430 
 13 C        6.7940    -0.0490     0.8180 C.3   1 <1>   0.3430 
 14 C        8.8300    -1.4870     2.2510 C.3   1 <1>   0.1100 
 15 C        8.2800    -0.0120     0.3860 C.3   1 <1>   0.1100 
 16 N        9.0310    -1.2260     0.8080 N.3   1 <1>  -0.8100 
 17 C       10.4610    -1.1470     0.4490 C.3   1 <1>   0.2530 
 18 C       10.6180    -1.0590    -1.0590 C.ar  1 <1>  -0.1430 
 19 C       10.0680    -2.0390    -1.8710 C.ar  1 <1>   0.1600 
 20 C       11.2970    -0.0100    -1.6490 C.ar  1 <1>  -0.1500 
 21 N       10.1270    -2.0530    -3.1930 N.ar  1 <1>  -0.6200 
 22 C       11.3740    -0.0120    -3.0260 C.ar  1 <1>  -0.1500 
 23 C       10.7800    -1.0410    -3.7390 C.ar  1 <1>   0.1600 
 24 H        1.9750     1.4050    -3.4070 H     1 <1>   0.0800 
 25 H        0.5500     0.5810    -2.7270 H     1 <1>   0.0800 
 26 H        3.3990     0.5420     0.9470 H     1 <1>   0.1500 
 27 H        3.6840    -2.8830    -2.6250 H     1 <1>   0.1500 
 28 H        4.8840    -3.2430    -0.4960 H     1 <1>   0.1500 
 29 H        4.8230    -2.5750     2.0480 H     1 <1>   0.0800 
 30 H        4.6530    -0.8730     2.4180 H     1 <1>   0.0800 
 31 H        6.7510    -2.0430     0.6970 H     1 <1>   0.4500 
 32 H        7.1780    -2.6940     2.9210 H     1 <1>   0.0800 
 33 H        7.0800    -1.0320     3.4280 H     1 <1>   0.0800 
 34 H        6.6080     0.7410     1.5260 H     1 <1>   0.0800 
 35 H        6.1800     0.1360    -0.0490 H     1 <1>   0.0800 
 36 H        9.3670    -2.3770     2.5350 H     1 <1>   0.0800 
 37 H        9.2300    -0.6700     2.8280 H     1 <1>   0.0800 
 38 H        8.7430     0.8720     0.7920 H     1 <1>   0.0800 
 39 H        8.3120     0.0760    -0.6880 H     1 <1>   0.0800 
 40 H       10.9690    -2.0330     0.7940 H     1 <1>   0.0800 
 41 H       10.9160    -0.2930     0.9230 H     1 <1>   0.0800 
 42 H        9.5430    -2.8550    -1.4060 H     1 <1>   0.1500 
 43 H       11.7500     0.7770    -1.0720 H     1 <1>   0.1500 
 44 H       11.8890     0.7740    -3.5470 H     1 <1>   0.1500 
 45 H       10.8470    -1.0300    -4.8140 H     1 <1>   0.1500 
@<TRIPOS>BOND
  1   1   2  1   
  2   1   3  1   
  3   2   4  ar  
  4   2   5  ar  
  5   3   6  1   
  6   3  24  1   
  7   3  25  1   
  8   4   6  1   
  9   4   7  ar  
 10   5   8  ar  
 11   5  26  1   
 12   7   9  ar  
 13   7  27  1   
 14   8   9  ar  
 15   8  10  1   
 16   9  28  1   
 17  10  11  1   
 18  10  29  1   
 19  10  30  1   
 20  11  12  1   
 21  11  13  1   
 22  11  31  1   
 23  12  14  1   
 24  12  32  1   
 25  12  33  1   
 26  13  15  1   
 27  13  34  1   
 28  13  35  1   
 29  14  16  1   
 30  14  36  1   
 31  14  37  1   
 32  15  16  1   
 33  15  38  1   
 34  15  39  1   
 35  16  17  1   
 36  17  18  1   
 37  17  40  1   
 38  17  41  1   
 39  18  19  ar  
 40  18  20  ar  
 41  19  21  ar  
 42  19  42  1   
 43  20  22  ar  
 44  20  43  1   
 45  21  23  ar  
 46  22  23  ar  
 47  22  44  1   
 48  23  45  1   
@<TRIPOS>SUBSTRUCTURE
  1 ****  13 GROUP 4 **** **** 0

# MOE 2024.06 (io_trps.svl 2023.06)
