@<TRIPOS>MOLECULE
NONAME
40 42 1 0 0 
SMALL
USER_CHARGES


@<TRIPOS>ATOM
  1 O       -0.0110     1.8570    -2.0260 O.2   1 <1>  -0.5700 
  2 C        0.6310     2.4130    -1.1570 C.2   1 <1>   0.7060 
  3 O        1.9510     2.5200    -1.3540 O.3   1 <1>  -0.2320 
  4 C        0.0690     2.9750     0.0360 C.2   1 <1>   0.0290 
  5 C        2.7850     3.1310    -0.4850 C.ar  1 <1>   0.0830 
  6 C       -1.3450     2.8430     0.2350 C.2   1 <1>   0.6160 
  7 C        0.8850     3.5830     0.9400 C.2   1 <1>  -0.1780 
  8 C        2.2820     3.6860     0.6970 C.ar  1 <1>   0.0280 
  9 C        4.1370     3.2000    -0.7830 C.ar  1 <1>  -0.1500 
 10 O       -1.7270     2.0710     1.0950 O.2   1 <1>  -0.5700 
 11 N       -2.2740     3.6010    -0.4550 N.am  1 <1>  -0.6600 
 12 C        3.1750     4.3080     1.5700 C.ar  1 <1>  -0.1500 
 13 C        5.0060     3.8220     0.0940 C.ar  1 <1>  -0.1500 
 14 C       -1.9270     4.5480    -1.5510 C.3   1 <1>   0.1400 
 15 C       -3.7280     3.3470    -0.2710 C.3   1 <1>   0.1400 
 16 C        4.5210     4.3760     1.2710 C.ar  1 <1>  -0.1500 
 17 C       -1.3440     5.8610    -1.0160 C.3   1 <1>  -0.1600 
 18 C       -4.2880     4.1300     0.9210 C.3   1 <1>  -0.1600 
 19 C       -2.3710     6.8410    -0.4260 C.3   1 <1>  -0.1600 
 20 C       -4.3630     5.6530     0.7270 C.3   1 <1>  -0.1600 
 21 C       -3.0200     6.3900     0.8940 C.3   1 <1>  -0.1600 
 22 H        0.4940     3.9950     1.8550 H     1 <1>   0.1500 
 23 H        4.5020     2.7660    -1.6970 H     1 <1>   0.1500 
 24 H        2.8070     4.7380     2.4840 H     1 <1>   0.1500 
 25 H        6.0570     3.8770    -0.1330 H     1 <1>   0.1500 
 26 H       -2.7970     4.7650    -2.1470 H     1 <1>   0.0800 
 27 H       -1.2130     4.0830    -2.2060 H     1 <1>   0.0800 
 28 H       -3.8780     2.2950    -0.0960 H     1 <1>   0.0800 
 29 H       -4.2720     3.5990    -1.1640 H     1 <1>   0.0800 
 30 H        5.2030     4.8580     1.9510 H     1 <1>   0.1500 
 31 H       -0.8740     6.3580    -1.8460 H     1 <1>   0.0800 
 32 H       -0.5720     5.6650    -0.2960 H     1 <1>   0.0800 
 33 H       -3.7260     3.8880     1.8060 H     1 <1>   0.0800 
 34 H       -5.2900     3.7740     1.0840 H     1 <1>   0.0800 
 35 H       -3.1250     7.0730    -1.1590 H     1 <1>   0.0800 
 36 H       -1.8450     7.7590    -0.2270 H     1 <1>   0.0800 
 37 H       -5.0270     6.0290     1.4870 H     1 <1>   0.0800 
 38 H       -4.8190     5.8850    -0.2190 H     1 <1>   0.0800 
 39 H       -3.2220     7.2820     1.4630 H     1 <1>   0.0800 
 40 H       -2.3300     5.8060     1.4780 H     1 <1>   0.0800 
@<TRIPOS>BOND
  1   1   2  2   
  2   2   3  1   
  3   2   4  1   
  4   3   5  1   
  5   4   6  1   
  6   4   7  2   
  7   5   8  ar  
  8   5   9  ar  
  9   6  10  2   
 10   6  11  am  
 11   7   8  1   
 12   7  22  1   
 13   8  12  ar  
 14   9  13  ar  
 15   9  23  1   
 16  11  14  1   
 17  11  15  1   
 18  12  16  ar  
 19  12  24  1   
 20  13  16  ar  
 21  13  25  1   
 22  14  17  1   
 23  14  26  1   
 24  14  27  1   
 25  15  18  1   
 26  15  28  1   
 27  15  29  1   
 28  16  30  1   
 29  17  19  1   
 30  17  31  1   
 31  17  32  1   
 32  18  20  1   
 33  18  33  1   
 34  18  34  1   
 35  19  21  1   
 36  19  35  1   
 37  19  36  1   
 38  20  21  1   
 39  20  37  1   
 40  20  38  1   
 41  21  39  1   
 42  21  40  1   
@<TRIPOS>SUBSTRUCTURE
  1 ****   4 GROUP 4 **** **** 0

# MOE 2024.06 (io_trps.svl 2023.06)
