@<TRIPOS>MOLECULE
NONAME
43 44 1 0 0 
SMALL
USER_CHARGES


@<TRIPOS>ATOM
  1 N       -0.0470     0.1010    -0.0870 N.4   1 <1>  -0.9590 
  2 C       -1.0850    -0.8970     0.3720 C.3   1 <1>   0.3430 
  3 C       -0.4170     0.7350    -1.3860 C.3   1 <1>   0.3430 
  4 C        1.2800    -0.5900    -0.2080 C.3   1 <1>   0.3430 
  5 C       -2.4590    -0.3150     0.8170 C.3   1 <1>   0.3430 
  6 C       -1.2360     2.0110    -1.1870 C.3   1 <1>  -0.1600 
  7 C        2.4480     0.4110    -0.2550 C.3   1 <1>  -0.0800 
  8 N       -3.0890     0.7170    -0.0940 N.4   1 <1>  -0.9590 
  9 C       -2.3280     2.0010    -0.1150 C.3   1 <1>   0.3430 
 10 C        3.7710    -0.3710    -0.3410 C.3   1 <1>  -0.1600 
 11 C        2.4670     1.3580     0.9660 C.3   1 <1>  -0.1600 
 12 C       -4.4920     0.9920     0.3710 C.3   1 <1>   0.2630 
 13 C        4.9820     0.5700    -0.3820 C.3   1 <1>  -0.1600 
 14 C        3.6800     2.2960     0.9270 C.3   1 <1>  -0.1600 
 15 C        4.9920     1.5090     0.8280 C.3   1 <1>  -0.1600 
 16 H        0.1050     0.8290     0.6240 H     1 <1>   0.4500 
 17 H       -0.6860    -1.4570     1.2040 H     1 <1>   0.0800 
 18 H       -1.2590    -1.6080    -0.4200 H     1 <1>   0.0800 
 19 H       -0.9750     0.0320    -1.9840 H     1 <1>   0.0800 
 20 H        0.4710     0.9900    -1.9430 H     1 <1>   0.0800 
 21 H        1.3010    -1.2080    -1.0920 H     1 <1>   0.0800 
 22 H        1.4320    -1.2330     0.6450 H     1 <1>   0.0800 
 23 H       -2.3390     0.1150     1.7990 H     1 <1>   0.0800 
 24 H       -3.1410    -1.1430     0.9280 H     1 <1>   0.0800 
 25 H       -1.6880     2.2650    -2.1300 H     1 <1>   0.0800 
 26 H       -0.5590     2.8180    -0.9630 H     1 <1>   0.0800 
 27 H        2.3750     1.0030    -1.1500 H     1 <1>   0.0800 
 28 H       -3.1740     0.3550    -1.0560 H     1 <1>   0.4500 
 29 H       -3.0010     2.8220    -0.3140 H     1 <1>   0.0800 
 30 H       -1.8910     2.1760     0.8560 H     1 <1>   0.0800 
 31 H        3.7840    -0.9860    -1.2260 H     1 <1>   0.0800 
 32 H        3.8730    -1.0210     0.5130 H     1 <1>   0.0800 
 33 H        2.5100     0.7810     1.8750 H     1 <1>   0.0800 
 34 H        1.5840     1.9700     0.9960 H     1 <1>   0.0800 
 35 H       -4.4900     1.3910     1.3730 H     1 <1>   0.0800 
 36 H       -5.0780     0.0860     0.3650 H     1 <1>   0.0800 
 37 H       -4.9710     1.7070    -0.2790 H     1 <1>   0.0800 
 38 H        4.9570     1.1540    -1.2870 H     1 <1>   0.0800 
 39 H        5.8900    -0.0080    -0.3930 H     1 <1>   0.0800 
 40 H        3.7000     2.9040     1.8170 H     1 <1>   0.0800 
 41 H        3.6030     2.9590     0.0820 H     1 <1>   0.0800 
 42 H        5.8180     2.1950     0.7440 H     1 <1>   0.0800 
 43 H        5.1360     0.9340     1.7270 H     1 <1>   0.0800 
@<TRIPOS>BOND
  1   1   2  1   
  2   1   3  1   
  3   1   4  1   
  4   1  16  1   
  5   2   5  1   
  6   2  17  1   
  7   2  18  1   
  8   3   6  1   
  9   3  19  1   
 10   3  20  1   
 11   4   7  1   
 12   4  21  1   
 13   4  22  1   
 14   5   8  1   
 15   5  23  1   
 16   5  24  1   
 17   6   9  1   
 18   6  25  1   
 19   6  26  1   
 20   7  10  1   
 21   7  11  1   
 22   7  27  1   
 23   8   9  1   
 24   8  12  1   
 25   8  28  1   
 26   9  29  1   
 27   9  30  1   
 28  10  13  1   
 29  10  31  1   
 30  10  32  1   
 31  11  14  1   
 32  11  33  1   
 33  11  34  1   
 34  12  35  1   
 35  12  36  1   
 36  12  37  1   
 37  13  15  1   
 38  13  38  1   
 39  13  39  1   
 40  14  15  1   
 41  14  40  1   
 42  14  41  1   
 43  15  42  1   
 44  15  43  1   
@<TRIPOS>SUBSTRUCTURE
  1 ****   1 GROUP 4 **** **** 0

# MOE 2024.06 (io_trps.svl 2023.06)
