@<TRIPOS>MOLECULE
NONAME
51 53 1 0 0 
SMALL
USER_CHARGES


@<TRIPOS>ATOM
  1 S        0.2010    -0.3510    -1.2480 S.o2  1 <1>   1.4470 
  2 O       -0.7160     0.5600    -1.9000 O.2   1 <1>  -0.6500 
  3 O        0.6500    -1.5310    -1.9530 O.2   1 <1>  -0.6500 
  4 N        1.5860     0.5570    -0.8720 N.am  1 <1>  -0.8490 
  5 C       -0.4380    -0.8330     0.3810 C.ar  1 <1>  -0.0090 
  6 C        1.2450     1.8310    -0.2320 C.3   1 <1>   0.1960 
  7 C        2.4080     0.7690    -2.0660 C.3   1 <1>   0.1960 
  8 C       -1.7160    -0.4700     0.7930 C.ar  1 <1>  -0.1500 
  9 C        0.3440    -1.5720     1.2610 C.ar  1 <1>  -0.1500 
 10 C        2.5180     2.5400     0.2330 C.3   1 <1>  -0.1600 
 11 C        3.7260     1.4460    -1.6840 C.3   1 <1>  -0.1600 
 12 C       -2.1970    -0.8290     2.0400 C.ar  1 <1>  -0.1500 
 13 C       -0.1290    -1.9360     2.5110 C.ar  1 <1>  -0.1500 
 14 C        3.4770     2.7740    -0.9470 C.3   1 <1>  -0.0190 
 15 C       -1.4020    -1.5630     2.9010 C.ar  1 <1>  -0.1500 
 16 C        4.7720     3.4510    -0.5080 C.2   1 <1>   0.5690 
 17 O        4.9940     4.5650    -0.9150 O.2   1 <1>  -0.5700 
 18 N        5.6070     2.7590     0.3220 N.am  1 <1>  -0.5470 
 19 C        6.8530     3.0440     0.9110 C.ar  1 <1>   0.1170 
 20 C        7.4500     2.0480     1.6920 C.ar  1 <1>   0.0830 
 21 C        7.5130     4.2580     0.7550 C.ar  1 <1>  -0.1500 
 22 O        6.7720     0.8670     1.8240 O.3   1 <1>  -0.3630 
 23 C        8.6820     2.2820     2.2940 C.ar  1 <1>  -0.1500 
 24 C        8.7390     4.4910     1.3570 C.ar  1 <1>  -0.1430 
 25 C        7.3060    -0.2010     2.5760 C.3   1 <1>   0.0400 
 26 C        9.3210     3.4980     2.1250 C.ar  1 <1>  -0.1500 
 27 C        9.4400     5.8250     1.1700 C.3   1 <1>  -0.0970 
 28 H        0.6140     1.6550     0.6240 H     1 <1>   0.0800 
 29 H        0.7050     2.4600    -0.9220 H     1 <1>   0.0800 
 30 H        1.8700     1.3720    -2.7810 H     1 <1>   0.0800 
 31 H        2.6320    -0.1780    -2.5300 H     1 <1>   0.0800 
 32 H       -2.3440     0.1000     0.1280 H     1 <1>   0.1500 
 33 H        1.3360    -1.8660     0.9610 H     1 <1>   0.1500 
 34 H        2.9900     1.9400     0.9910 H     1 <1>   0.0800 
 35 H        2.2580     3.4850     0.6750 H     1 <1>   0.0800 
 36 H        4.3010     1.6320    -2.5750 H     1 <1>   0.0800 
 37 H        4.2890     0.7680    -1.0660 H     1 <1>   0.0800 
 38 H       -3.1900    -0.5390     2.3400 H     1 <1>   0.1500 
 39 H        0.4910    -2.5110     3.1770 H     1 <1>   0.1500 
 40 H        2.9900     3.4430    -1.6370 H     1 <1>   0.0800 
 41 H       -1.7740    -1.8450     3.8710 H     1 <1>   0.1500 
 42 H        5.2890     1.8220     0.5760 H     1 <1>   0.3700 
 43 H        7.0720     5.0340     0.1600 H     1 <1>   0.1500 
 44 H        9.1640     1.5370     2.8980 H     1 <1>   0.1500 
 45 H        6.6100    -1.0200     2.5350 H     1 <1>   0.0800 
 46 H        7.4330     0.1180     3.5950 H     1 <1>   0.0800 
 47 H        8.2450    -0.4990     2.1440 H     1 <1>   0.0800 
 48 H       10.2740     3.6690     2.5940 H     1 <1>   0.1500 
 49 H        8.7220     6.6050     0.9930 H     1 <1>   0.0800 
 50 H       10.1060     5.7700     0.3270 H     1 <1>   0.0800 
 51 H       10.0070     6.0790     2.0470 H     1 <1>   0.0800 
@<TRIPOS>BOND
  1   1   2  2   
  2   1   3  2   
  3   1   4  am  
  4   1   5  1   
  5   4   6  1   
  6   4   7  1   
  7   5   8  ar  
  8   5   9  ar  
  9   6  10  1   
 10   6  28  1   
 11   6  29  1   
 12   7  11  1   
 13   7  30  1   
 14   7  31  1   
 15   8  12  ar  
 16   8  32  1   
 17   9  13  ar  
 18   9  33  1   
 19  10  14  1   
 20  10  34  1   
 21  10  35  1   
 22  11  14  1   
 23  11  36  1   
 24  11  37  1   
 25  12  15  ar  
 26  12  38  1   
 27  13  15  ar  
 28  13  39  1   
 29  14  16  1   
 30  14  40  1   
 31  15  41  1   
 32  16  17  2   
 33  16  18  am  
 34  18  19  1   
 35  18  42  1   
 36  19  20  ar  
 37  19  21  ar  
 38  20  22  1   
 39  20  23  ar  
 40  21  24  ar  
 41  21  43  1   
 42  22  25  1   
 43  23  26  ar  
 44  23  44  1   
 45  24  26  ar  
 46  24  27  1   
 47  25  45  1   
 48  25  46  1   
 49  25  47  1   
 50  26  48  1   
 51  27  49  1   
 52  27  50  1   
 53  27  51  1   
@<TRIPOS>SUBSTRUCTURE
  1 ****  10 GROUP 4 **** **** 0

# MOE 2024.06 (io_trps.svl 2023.06)
