@<TRIPOS>MOLECULE
NONAME
38 38 1 0 0 
SMALL
USER_CHARGES


@<TRIPOS>ATOM
  1 S       -0.0560    -0.2150     0.5810 S.3   1 <1>  -0.3310 
  2 C       -1.6230    -0.9340     0.0630 C.ar  1 <1>   0.1020 
  3 C        0.5160    -1.1700     2.0550 C.3   1 <1>  -0.0100 
  4 C       -2.2280    -1.9700     0.7550 C.ar  1 <1>  -0.1500 
  5 C       -2.2100    -0.4030    -1.0700 C.ar  1 <1>  -0.1500 
  6 C       -3.4370    -2.4720     0.3050 C.ar  1 <1>  -0.1500 
  7 C       -3.4180    -0.9080    -1.5180 C.ar  1 <1>  -0.1500 
  8 C       -4.0420    -1.9390    -0.8270 C.ar  1 <1>  -0.1430 
  9 C       -5.3780    -2.4750    -1.3050 C.3   1 <1>   0.4860 
 10 N       -6.4450    -1.9640    -0.3990 N.4   1 <1>  -0.9590 
 11 C       -7.7270    -2.7040    -0.6400 C.3   1 <1>   0.3430 
 12 C       -6.5870    -0.4820    -0.5400 C.3   1 <1>   0.3430 
 13 C       -8.3570    -3.2180     0.6620 C.3   1 <1>   0.1200 
 14 C       -7.4680     0.0980     0.5680 C.3   1 <1>  -0.1600 
 15 O       -9.4940    -3.9270     0.3220 O.3   1 <1>  -0.6800 
 16 C       -7.4530     1.6300     0.5270 C.3   1 <1>  -0.2400 
 17 H        1.4660    -0.7650     2.3530 H     1 <1>   0.0800 
 18 H        0.6170    -2.2010     1.7650 H     1 <1>   0.0800 
 19 H       -0.2120    -1.0470     2.8360 H     1 <1>   0.0800 
 20 H       -1.7710    -2.3890     1.6310 H     1 <1>   0.1500 
 21 H       -1.7160     0.3970    -1.5940 H     1 <1>   0.1500 
 22 H       -3.8910    -3.2840     0.8480 H     1 <1>   0.1500 
 23 H       -3.8560    -0.4850    -2.4070 H     1 <1>   0.1500 
 24 H       -5.3520    -3.5520    -1.2800 H     1 <1>   0.0800 
 25 H       -5.5630    -2.1610    -2.3200 H     1 <1>   0.0800 
 26 H       -6.1090    -2.1460     0.5540 H     1 <1>   0.4500 
 27 H       -7.5430    -3.5580    -1.2720 H     1 <1>   0.0800 
 28 H       -8.4330    -2.0630    -1.1420 H     1 <1>   0.0800 
 29 H       -7.0050    -0.2370    -1.5030 H     1 <1>   0.0800 
 30 H       -5.6150    -0.0190    -0.4710 H     1 <1>   0.0800 
 31 H       -8.6510    -2.4090     1.3080 H     1 <1>   0.0800 
 32 H       -7.6910    -3.8890     1.1780 H     1 <1>   0.0800 
 33 H       -7.1060    -0.2200     1.5300 H     1 <1>   0.0800 
 34 H       -8.4860    -0.2300     0.4470 H     1 <1>   0.0800 
 35 H       -9.9590    -4.2770     1.1120 H     1 <1>   0.4000 
 36 H       -6.4550     2.0080     0.6690 H     1 <1>   0.0800 
 37 H       -8.0750     2.0250     1.3130 H     1 <1>   0.0800 
 38 H       -7.8300     1.9940    -0.4140 H     1 <1>   0.0800 
@<TRIPOS>BOND
  1   1   2  1   
  2   1   3  1   
  3   2   4  ar  
  4   2   5  ar  
  5   3  17  1   
  6   3  18  1   
  7   3  19  1   
  8   4   6  ar  
  9   4  20  1   
 10   5   7  ar  
 11   5  21  1   
 12   6   8  ar  
 13   6  22  1   
 14   7   8  ar  
 15   7  23  1   
 16   8   9  1   
 17   9  10  1   
 18   9  24  1   
 19   9  25  1   
 20  10  11  1   
 21  10  12  1   
 22  10  26  1   
 23  11  13  1   
 24  11  27  1   
 25  11  28  1   
 26  12  14  1   
 27  12  29  1   
 28  12  30  1   
 29  13  15  1   
 30  13  31  1   
 31  13  32  1   
 32  14  16  1   
 33  14  33  1   
 34  14  34  1   
 35  15  35  1   
 36  16  36  1   
 37  16  37  1   
 38  16  38  1   
@<TRIPOS>SUBSTRUCTURE
  1 ****   8 GROUP 4 **** **** 0

# MOE 2024.06 (io_trps.svl 2023.06)
