@<TRIPOS>MOLECULE
NONAME
43 45 1 0 0 
SMALL
USER_CHARGES


@<TRIPOS>ATOM
  1 CL       1.7040    -1.1960     2.2050 Cl    1 <1>  -0.1770 
  2 C        2.2330    -1.9740     0.7340 C.ar  1 <1>   0.1770 
  3 C        3.5680    -1.9210     0.3880 C.ar  1 <1>  -0.1500 
  4 C        1.3060    -2.6300    -0.0540 C.ar  1 <1>  -0.1500 
  5 C        4.0050    -2.5390    -0.7780 C.ar  1 <1>   0.1000 
  6 C        1.7330    -3.2470    -1.2180 C.ar  1 <1>  -0.1500 
  7 N        5.3420    -2.5280    -1.1660 N.pl3 1 <1>  -0.8380 
  8 C        3.0710    -3.1980    -1.5710 C.ar  1 <1>  -0.1500 
  9 C        6.1700    -1.2890    -1.0390 C.3   1 <1>   0.2090 
 10 C        6.1270    -3.7870    -1.0030 C.3   1 <1>   0.2090 
 11 C        7.0980    -1.3240     0.1950 C.3   1 <1>   0.1100 
 12 C        7.0130    -3.7390     0.2550 C.3   1 <1>   0.1100 
 13 N        7.9110    -2.5580     0.2670 N.3   1 <1>  -0.8100 
 14 C        8.7620    -2.5530     1.4950 C.3   1 <1>   0.1710 
 15 C        9.8680    -3.6140     1.5030 C.2   1 <1>   0.5690 
 16 O       10.3070    -4.0100     2.5560 O.2   1 <1>  -0.5700 
 17 N       10.3220    -4.0750     0.3150 N.am  1 <1>  -0.7300 
 18 C       11.4190    -5.0430     0.1220 C.3   1 <1>   0.3200 
 19 C       12.2690    -4.6490    -1.0750 C.2   1 <1>  -0.0400 
 20 O       13.1940    -5.4950    -1.4880 O.3   1 <1>  -0.2800 
 21 C       12.2700    -3.5400    -1.8490 C.2   1 <1>  -0.1500 
 22 C       13.8000    -4.9520    -2.5250 C.2   1 <1>  -0.0100 
 23 C       13.2760    -3.7400    -2.8030 C.2   1 <1>  -0.1500 
 24 H        4.2570    -1.4100     1.0270 H     1 <1>   0.1500 
 25 H        0.2720    -2.6550     0.2400 H     1 <1>   0.1500 
 26 H        1.0270    -3.7620    -1.8470 H     1 <1>   0.1500 
 27 H        3.4090    -3.6700    -2.4750 H     1 <1>   0.1500 
 28 H        5.5260    -0.4290    -0.9840 H     1 <1>   0.0800 
 29 H        6.7730    -1.1870    -1.9240 H     1 <1>   0.0800 
 30 H        6.7470    -3.9290    -1.8700 H     1 <1>   0.0800 
 31 H        5.4550    -4.6250    -0.9340 H     1 <1>   0.0800 
 32 H        6.4980    -1.2350     1.0840 H     1 <1>   0.0800 
 33 H        7.7510    -0.4710     0.1520 H     1 <1>   0.0800 
 34 H        7.5970    -4.6420     0.2940 H     1 <1>   0.0800 
 35 H        6.3730    -3.7220     1.1220 H     1 <1>   0.0800 
 36 H        8.1480    -2.6890     2.3670 H     1 <1>   0.0800 
 37 H        9.2490    -1.5980     1.5820 H     1 <1>   0.0800 
 38 H        9.8520    -3.7310    -0.5270 H     1 <1>   0.3700 
 39 H       11.0000    -6.0190    -0.0470 H     1 <1>   0.0800 
 40 H       12.0360    -5.0840     1.0040 H     1 <1>   0.0800 
 41 H       11.6480    -2.6650    -1.7770 H     1 <1>   0.1500 
 42 H       14.5940    -5.4960    -3.0060 H     1 <1>   0.1500 
 43 H       13.5480    -3.0490    -3.5800 H     1 <1>   0.1500 
@<TRIPOS>BOND
  1   1   2  1   
  2   2   3  ar  
  3   2   4  ar  
  4   3   5  ar  
  5   3  24  1   
  6   4   6  ar  
  7   4  25  1   
  8   5   7  1   
  9   5   8  ar  
 10   6   8  ar  
 11   6  26  1   
 12   7   9  1   
 13   7  10  1   
 14   8  27  1   
 15   9  11  1   
 16   9  28  1   
 17   9  29  1   
 18  10  12  1   
 19  10  30  1   
 20  10  31  1   
 21  11  13  1   
 22  11  32  1   
 23  11  33  1   
 24  12  13  1   
 25  12  34  1   
 26  12  35  1   
 27  13  14  1   
 28  14  15  1   
 29  14  36  1   
 30  14  37  1   
 31  15  16  2   
 32  15  17  am  
 33  17  18  1   
 34  17  38  1   
 35  18  19  1   
 36  18  39  1   
 37  18  40  1   
 38  19  20  1   
 39  19  21  2   
 40  20  22  1   
 41  21  23  1   
 42  21  41  1   
 43  22  23  2   
 44  22  42  1   
 45  23  43  1   
@<TRIPOS>SUBSTRUCTURE
  1 ****  12 GROUP 4 **** **** 0

# MOE 2024.06 (io_trps.svl 2023.06)
