@<TRIPOS>MOLECULE
NONAME
46 48 1 0 0 
SMALL
USER_CHARGES


@<TRIPOS>ATOM
  1 S       -0.1190     0.4480    -0.4110 S.o2  1 <1>   1.4470 
  2 O       -0.7060     0.1540    -1.7010 O.2   1 <1>  -0.6500 
  3 O        0.0530    -0.6180     0.5510 O.2   1 <1>  -0.6500 
  4 N       -1.1170     1.6070     0.3170 N.am  1 <1>  -0.8490 
  5 C        1.4520     1.3320    -0.6160 C.ar  1 <1>  -0.0090 
  6 C       -1.4740     2.7010    -0.6100 C.3   1 <1>   0.1960 
  7 C       -2.3490     0.9850     0.8400 C.3   1 <1>   0.1960 
  8 C        1.9930     1.5660    -1.8760 C.ar  1 <1>  -0.1500 
  9 C        2.1500     1.8090     0.4880 C.ar  1 <1>  -0.1500 
 10 C       -2.3480     3.7810     0.0570 C.3   1 <1>   0.2090 
 11 C       -3.2790     1.9930     1.5470 C.3   1 <1>   0.2090 
 12 C        3.1840     2.2530    -2.0270 C.ar  1 <1>  -0.1500 
 13 C        3.3430     2.4970     0.3480 C.ar  1 <1>  -0.1500 
 14 N       -3.5550     3.2030     0.7150 N.pl3 1 <1>  -0.8380 
 15 C        3.8680     2.7240    -0.9190 C.ar  1 <1>   0.0830 
 16 C       -4.7730     3.2820     0.0390 C.ar  1 <1>   0.1000 
 17 O        5.0260     3.3880    -1.1510 O.3   1 <1>  -0.3630 
 18 C       -5.7480     4.2010     0.4320 C.ar  1 <1>  -0.1430 
 19 C       -5.0350     2.4480    -1.0430 C.ar  1 <1>  -0.1500 
 20 C        5.8260     3.8640    -0.0920 C.3   1 <1>   0.0400 
 21 C       -6.9500     4.2690    -0.2540 C.ar  1 <1>  -0.1500 
 22 C       -5.5010     5.1300     1.6110 C.3   1 <1>  -0.0970 
 23 C       -6.2350     2.5190    -1.7230 C.ar  1 <1>  -0.1500 
 24 C       -7.1970     3.4320    -1.3290 C.ar  1 <1>  -0.1500 
 25 H       -2.0070     2.3070    -1.4590 H     1 <1>   0.0800 
 26 H       -0.5770     3.1700    -0.9750 H     1 <1>   0.0800 
 27 H       -2.0910     0.2170     1.5490 H     1 <1>   0.0800 
 28 H       -2.8900     0.5150     0.0370 H     1 <1>   0.0800 
 29 H        1.4780     1.2050    -2.7510 H     1 <1>   0.1500 
 30 H        1.7470     1.6360     1.4730 H     1 <1>   0.1500 
 31 H       -2.6560     4.4980    -0.6840 H     1 <1>   0.0800 
 32 H       -1.7650     4.3010     0.7960 H     1 <1>   0.0800 
 33 H       -2.8200     2.3060     2.4680 H     1 <1>   0.0800 
 34 H       -4.2090     1.5100     1.7920 H     1 <1>   0.0800 
 35 H        3.5940     2.4280    -3.0060 H     1 <1>   0.1500 
 36 H        3.8460     2.8450     1.2310 H     1 <1>   0.1500 
 37 H       -4.2930     1.7390    -1.3540 H     1 <1>   0.1500 
 38 H        6.6940     4.3360    -0.5160 H     1 <1>   0.0800 
 39 H        6.1260     3.0320     0.5220 H     1 <1>   0.0800 
 40 H        5.2620     4.5810     0.4780 H     1 <1>   0.0800 
 41 H       -7.7050     4.9750     0.0450 H     1 <1>   0.1500 
 42 H       -5.3050     4.5480     2.4940 H     1 <1>   0.0800 
 43 H       -6.3490     5.7630     1.7960 H     1 <1>   0.0800 
 44 H       -4.6450     5.7480     1.4100 H     1 <1>   0.0800 
 45 H       -6.4230     1.8670    -2.5580 H     1 <1>   0.1500 
 46 H       -8.1330     3.4930    -1.8550 H     1 <1>   0.1500 
@<TRIPOS>BOND
  1   1   2  2   
  2   1   3  2   
  3   1   4  am  
  4   1   5  1   
  5   4   6  1   
  6   4   7  1   
  7   5   8  ar  
  8   5   9  ar  
  9   6  10  1   
 10   6  25  1   
 11   6  26  1   
 12   7  11  1   
 13   7  27  1   
 14   7  28  1   
 15   8  12  ar  
 16   8  29  1   
 17   9  13  ar  
 18   9  30  1   
 19  10  14  1   
 20  10  31  1   
 21  10  32  1   
 22  11  14  1   
 23  11  33  1   
 24  11  34  1   
 25  12  15  ar  
 26  12  35  1   
 27  13  15  ar  
 28  13  36  1   
 29  14  16  1   
 30  15  17  1   
 31  16  18  ar  
 32  16  19  ar  
 33  17  20  1   
 34  18  21  ar  
 35  18  22  1   
 36  19  23  ar  
 37  19  37  1   
 38  20  38  1   
 39  20  39  1   
 40  20  40  1   
 41  21  24  ar  
 42  21  41  1   
 43  22  42  1   
 44  22  43  1   
 45  22  44  1   
 46  23  24  ar  
 47  23  45  1   
 48  24  46  1   
@<TRIPOS>SUBSTRUCTURE
  1 ****   6 GROUP 4 **** **** 0

# MOE 2024.06 (io_trps.svl 2023.06)
