@<TRIPOS>MOLECULE
NONAME
53 55 1 0 0 
SMALL
USER_CHARGES


@<TRIPOS>ATOM
  1 N        0.3930    -0.0220    -0.1090 N.4   1 <1>  -0.9590 
  2 C        1.7650    -0.6550    -0.0590 C.3   1 <1>   0.3430 
  3 C        0.0460     0.7670     1.1130 C.3   1 <1>   0.3430 
  4 C       -0.6380    -1.0780    -0.3420 C.3   1 <1>   0.3430 
  5 C        2.9550     0.3490    -0.0150 C.3   1 <1>   0.3430 
  6 C        0.2410     2.2480     0.8170 C.3   1 <1>  -0.2400 
  7 C       -1.8930    -0.4390    -0.9270 C.3   1 <1>  -0.2400 
  8 N        4.3240    -0.2870    -0.0060 N.4   1 <1>  -0.9590 
  9 C        5.3490     0.7730     0.3350 C.3   1 <1>   0.4230 
 10 C        4.5990    -1.0530    -1.2670 C.3   1 <1>   0.2630 
 11 C        5.8450     1.6830    -0.8190 C.3   1 <1>  -0.0800 
 12 C        6.5570     0.2280     1.1260 C.3   1 <1>  -0.0800 
 13 C        6.9290     1.0260    -1.7120 C.3   1 <1>  -0.1600 
 14 C        6.5020     2.9070    -0.1410 C.3   1 <1>  -0.1600 
 15 C        7.6130    -0.4470     0.2220 C.3   1 <1>  -0.1600 
 16 C        7.2190     1.4470     1.8050 C.3   1 <1>  -0.1600 
 17 C        8.1080     0.5430    -0.8510 C.3   1 <1>  -0.0800 
 18 C        7.6920     2.4550     0.7370 C.3   1 <1>  -0.0800 
 19 C        8.7370     1.7640    -0.1560 C.3   1 <1>  -0.1600 
 20 H        0.3140     0.6150    -0.9160 H     1 <1>   0.4500 
 21 H        1.8830    -1.2750    -0.9320 H     1 <1>   0.0800 
 22 H        1.8200    -1.2920     0.8090 H     1 <1>   0.0800 
 23 H        0.6530     0.4640     1.9520 H     1 <1>   0.0800 
 24 H       -0.9870     0.6050     1.3800 H     1 <1>   0.0800 
 25 H       -0.8740    -1.5880     0.5790 H     1 <1>   0.0800 
 26 H       -0.2680    -1.8070    -1.0460 H     1 <1>   0.0800 
 27 H        2.8520     0.9500     0.8730 H     1 <1>   0.0800 
 28 H        2.8860     1.0040    -0.8680 H     1 <1>   0.0800 
 29 H        1.2610     2.4880     0.5830 H     1 <1>   0.0800 
 30 H       -0.0360     2.8170     1.6880 H     1 <1>   0.0800 
 31 H       -0.4000     2.5620     0.0120 H     1 <1>   0.0800 
 32 H       -2.3460     0.2540    -0.2410 H     1 <1>   0.0800 
 33 H       -2.6160    -1.2100    -1.1300 H     1 <1>   0.0800 
 34 H       -1.6770     0.0580    -1.8560 H     1 <1>   0.0800 
 35 H        4.3970    -0.9530     0.7780 H     1 <1>   0.4500 
 36 H        4.8580     1.4400     1.0250 H     1 <1>   0.0800 
 37 H        4.5290    -0.4030    -2.1240 H     1 <1>   0.0800 
 38 H        3.8940    -1.8590    -1.3880 H     1 <1>   0.0800 
 39 H        5.5860    -1.4800    -1.2470 H     1 <1>   0.0800 
 40 H        5.0200     2.0240    -1.4190 H     1 <1>   0.0800 
 41 H        6.2320    -0.4540     1.8920 H     1 <1>   0.0800 
 42 H        6.5500     0.2120    -2.2960 H     1 <1>   0.0800 
 43 H        7.2910     1.7520    -2.4220 H     1 <1>   0.0800 
 44 H        5.7850     3.4330     0.4670 H     1 <1>   0.0800 
 45 H        6.8510     3.6000    -0.8880 H     1 <1>   0.0800 
 46 H        7.2280    -1.3360    -0.2380 H     1 <1>   0.0800 
 47 H        8.4510    -0.7550     0.8240 H     1 <1>   0.0800 
 48 H        6.5280     1.9280     2.4760 H     1 <1>   0.0800 
 49 H        8.0620     1.1260     2.3950 H     1 <1>   0.0800 
 50 H        8.8480     0.0680    -1.4750 H     1 <1>   0.0800 
 51 H        8.1390     3.3120     1.2150 H     1 <1>   0.0800 
 52 H        9.1050     2.4580    -0.8930 H     1 <1>   0.0800 
 53 H        9.5800     1.4540     0.4390 H     1 <1>   0.0800 
@<TRIPOS>BOND
  1   1   2  1   
  2   1   3  1   
  3   1   4  1   
  4   1  20  1   
  5   2   5  1   
  6   2  21  1   
  7   2  22  1   
  8   3   6  1   
  9   3  23  1   
 10   3  24  1   
 11   4   7  1   
 12   4  25  1   
 13   4  26  1   
 14   5   8  1   
 15   5  27  1   
 16   5  28  1   
 17   6  29  1   
 18   6  30  1   
 19   6  31  1   
 20   7  32  1   
 21   7  33  1   
 22   7  34  1   
 23   8   9  1   
 24   8  10  1   
 25   8  35  1   
 26   9  11  1   
 27   9  12  1   
 28   9  36  1   
 29  10  37  1   
 30  10  38  1   
 31  10  39  1   
 32  11  13  1   
 33  11  14  1   
 34  11  40  1   
 35  12  15  1   
 36  12  16  1   
 37  12  41  1   
 38  13  17  1   
 39  13  42  1   
 40  13  43  1   
 41  14  18  1   
 42  14  44  1   
 43  14  45  1   
 44  15  17  1   
 45  15  46  1   
 46  15  47  1   
 47  16  18  1   
 48  16  48  1   
 49  16  49  1   
 50  17  19  1   
 51  17  50  1   
 52  18  19  1   
 53  18  51  1   
 54  19  52  1   
 55  19  53  1   
@<TRIPOS>SUBSTRUCTURE
  1 ****   8 GROUP 4 **** **** 0

# MOE 2024.06 (io_trps.svl 2023.06)
