@<TRIPOS>MOLECULE
NONAME
31 31 1 0 0 
SMALL
USER_CHARGES


@<TRIPOS>ATOM
  1 CL      -0.3400    -0.3750    -1.4290 Cl    1 <1>  -0.1770 
  2 C       -0.1720    -1.8340    -0.4840 C.ar  1 <1>   0.1770 
  3 C        1.0160    -2.5580    -0.4080 C.ar  1 <1>  -0.0090 
  4 C       -1.3250    -2.2310     0.1750 C.ar  1 <1>  -0.1500 
  5 S        2.5490    -2.0710    -1.2330 S.o2  1 <1>   1.4470 
  6 C        0.9640    -3.7290     0.3420 C.ar  1 <1>   0.1770 
  7 C       -1.3330    -3.3880     0.9300 C.ar  1 <1>  -0.1500 
  8 O        2.9140    -3.1040    -2.1710 O.2   1 <1>  -0.6500 
  9 O        2.4870    -0.7050    -1.7020 O.2   1 <1>  -0.6500 
 10 N        3.6740    -2.0720     0.0090 N.am  1 <1>  -0.9140 
 11 CL       2.3410    -4.7920     0.4880 Cl    1 <1>  -0.1770 
 12 C       -0.1790    -4.1420     1.0070 C.ar  1 <1>  -0.1500 
 13 C        4.9990    -1.5180    -0.3770 C.3   1 <1>   0.1700 
 14 C        5.9930    -2.6680    -0.6810 C.2   1 <1>   0.9060 
 15 C        5.4860    -0.5780     0.7590 C.3   1 <1>  -0.0800 
 16 O        5.7380    -3.7750    -0.1770 O.co2 1 <1>  -0.9000 
 17 O        6.9790    -2.4850    -1.4070 O.co2 1 <1>  -0.9000 
 18 C        4.4630     0.5310     1.0710 C.3   1 <1>  -0.2400 
 19 C        6.8310     0.0870     0.4230 C.3   1 <1>  -0.2400 
 20 H       -2.2150    -1.6320     0.0910 H     1 <1>   0.1500 
 21 H       -2.2270    -3.6990     1.4460 H     1 <1>   0.1500 
 22 H        3.9430    -3.0700     0.1110 H     1 <1>   0.4200 
 23 H       -0.1580    -5.0530     1.5790 H     1 <1>   0.1500 
 24 H        4.9150    -0.9380    -1.2790 H     1 <1>   0.0800 
 25 H        5.6260    -1.1790     1.6420 H     1 <1>   0.0800 
 26 H        4.2500     1.1010     0.1830 H     1 <1>   0.0800 
 27 H        4.8410     1.1920     1.8290 H     1 <1>   0.0800 
 28 H        3.5430     0.1070     1.4300 H     1 <1>   0.0800 
 29 H        6.7580     0.6380    -0.4980 H     1 <1>   0.0800 
 30 H        7.6020    -0.6550     0.3120 H     1 <1>   0.0800 
 31 H        7.1290     0.7570     1.2090 H     1 <1>   0.0800 
@<TRIPOS>BOND
  1   1   2  1   
  2   2   3  ar  
  3   2   4  ar  
  4   3   5  1   
  5   3   6  ar  
  6   4   7  ar  
  7   4  20  1   
  8   5   8  2   
  9   5   9  2   
 10   5  10  am  
 11   6  11  1   
 12   6  12  ar  
 13   7  12  ar  
 14   7  21  1   
 15  10  13  1   
 16  10  22  1   
 17  12  23  1   
 18  13  14  1   
 19  13  15  1   
 20  13  24  1   
 21  14  16  ar  
 22  14  17  ar  
 23  15  18  1   
 24  15  19  1   
 25  15  25  1   
 26  18  26  1   
 27  18  27  1   
 28  18  28  1   
 29  19  29  1   
 30  19  30  1   
 31  19  31  1   
@<TRIPOS>SUBSTRUCTURE
  1 ****  10 GROUP 4 **** **** 0

# MOE 2024.06 (io_trps.svl 2023.06)
