@<TRIPOS>MOLECULE
NONAME
43 44 1 0 0 
SMALL
USER_CHARGES


@<TRIPOS>ATOM
  1 S       -0.1420     0.2050     0.4310 S.o2  1 <1>   1.3330 
  2 O       -0.2610    -1.1720     0.0140 O.2   1 <1>  -0.6500 
  3 O       -1.1780     1.1570     0.1170 O.2   1 <1>  -0.6500 
  4 N        1.3360     0.8140    -0.2280 N.am  1 <1>  -0.6930 
  5 C        0.1610     0.2530     2.1850 C.3   1 <1>  -0.1350 
  6 C        1.5400     2.1810    -0.3760 C.ar  1 <1>   0.1990 
  7 C        2.4690    -0.1520    -0.3460 C.3   1 <1>   0.3370 
  8 C        2.1010     2.9420     0.6480 C.ar  1 <1>  -0.1500 
  9 C        1.1790     2.8060    -1.5670 C.ar  1 <1>  -0.1500 
 10 C        3.5780     0.0960     0.6990 C.2   1 <1>   0.5690 
 11 C        2.9750    -0.1420    -1.7970 C.3   1 <1>  -0.2400 
 12 C        2.3190     4.2990     0.4830 C.ar  1 <1>  -0.1500 
 13 C        1.3900     4.1620    -1.7490 C.ar  1 <1>  -0.1500 
 14 O        3.4800    -0.4360     1.7810 O.2   1 <1>  -0.5700 
 15 N        4.6260     0.9170     0.4110 N.am  1 <1>  -0.7300 
 16 C        1.9620     4.8830    -0.7170 C.ar  1 <1>   0.1900 
 17 C        5.7690     1.2060     1.2910 C.3   1 <1>   0.2200 
 18 F        2.1720     6.1630    -0.8820 F     1 <1>  -0.1900 
 19 C        5.7300     2.6770     1.6860 C.3   1 <1>  -0.1600 
 20 C        7.0470     1.1050     0.4680 C.3   1 <1>  -0.1600 
 21 C        6.2890     3.4400     0.4810 C.3   1 <1>  -0.1600 
 22 C        7.1760     2.4410    -0.2750 C.3   1 <1>  -0.1600 
 23 H       -0.7050    -0.0920     2.7140 H     1 <1>   0.0800 
 24 H        0.3760     1.2550     2.4970 H     1 <1>   0.0800 
 25 H        0.9900    -0.3770     2.4400 H     1 <1>   0.0800 
 26 H        2.1070    -1.1460    -0.1540 H     1 <1>   0.0800 
 27 H        2.3680     2.4670     1.5750 H     1 <1>   0.1500 
 28 H        0.7260     2.2180    -2.3460 H     1 <1>   0.1500 
 29 H        3.3490     0.8260    -2.0740 H     1 <1>   0.0800 
 30 H        2.1730    -0.4140    -2.4600 H     1 <1>   0.0800 
 31 H        3.7650    -0.8620    -1.9090 H     1 <1>   0.0800 
 32 H        2.7560     4.8950     1.2640 H     1 <1>   0.1500 
 33 H        1.1160     4.6530    -2.6650 H     1 <1>   0.1500 
 34 H        4.6400     1.4360    -0.4680 H     1 <1>   0.3700 
 35 H        5.7730     0.5480     2.1460 H     1 <1>   0.0800 
 36 H        6.3890     2.8200     2.5250 H     1 <1>   0.0800 
 37 H        4.7450     3.0000     1.9680 H     1 <1>   0.0800 
 38 H        7.0410     0.2570    -0.1950 H     1 <1>   0.0800 
 39 H        7.8780     1.0020     1.1450 H     1 <1>   0.0800 
 40 H        6.8460     4.3060     0.7950 H     1 <1>   0.0800 
 41 H        5.4800     3.7600    -0.1550 H     1 <1>   0.0800 
 42 H        6.8280     2.3390    -1.2890 H     1 <1>   0.0800 
 43 H        8.2020     2.7670    -0.2940 H     1 <1>   0.0800 
@<TRIPOS>BOND
  1   1   2  2   
  2   1   3  2   
  3   1   4  am  
  4   1   5  1   
  5   4   6  1   
  6   4   7  1   
  7   5  23  1   
  8   5  24  1   
  9   5  25  1   
 10   6   8  ar  
 11   6   9  ar  
 12   7  10  1   
 13   7  11  1   
 14   7  26  1   
 15   8  12  ar  
 16   8  27  1   
 17   9  13  ar  
 18   9  28  1   
 19  10  14  2   
 20  10  15  am  
 21  11  29  1   
 22  11  30  1   
 23  11  31  1   
 24  12  16  ar  
 25  12  32  1   
 26  13  16  ar  
 27  13  33  1   
 28  15  17  1   
 29  15  34  1   
 30  16  18  1   
 31  17  19  1   
 32  17  20  1   
 33  17  35  1   
 34  19  21  1   
 35  19  36  1   
 36  19  37  1   
 37  20  22  1   
 38  20  38  1   
 39  20  39  1   
 40  21  22  1   
 41  21  40  1   
 42  21  41  1   
 43  22  42  1   
 44  22  43  1   
@<TRIPOS>SUBSTRUCTURE
  1 ****   6 GROUP 4 **** **** 0

# MOE 2024.06 (io_trps.svl 2023.06)
