@<TRIPOS>MOLECULE
NONAME
48 49 1 0 0 
SMALL
USER_CHARGES


@<TRIPOS>ATOM
  1 S        0.0390     0.7670    -2.1420 S.o2  1 <1>   1.4470 
  2 O       -0.1570    -0.3310    -3.0670 O.2   1 <1>  -0.6500 
  3 O        0.1890     2.1010    -2.6840 O.2   1 <1>  -0.6500 
  4 N       -1.3450     0.7780    -1.1590 N.am  1 <1>  -0.8490 
  5 C        1.4020     0.3890    -0.9870 C.ar  1 <1>  -0.0090 
  6 C       -1.6420    -0.5480    -0.6130 C.3   1 <1>   0.1960 
  7 C       -2.4950     1.3330    -1.8750 C.3   1 <1>   0.1960 
  8 C        1.8580     1.2560     0.0150 C.ar  1 <1>  -0.1440 
  9 C        2.0210    -0.8490    -1.1050 C.ar  1 <1>  -0.1500 
 10 C       -2.7930    -0.4570     0.3910 C.3   1 <1>  -0.1600 
 11 C       -3.6830     1.4860    -0.9230 C.3   1 <1>  -0.1600 
 12 C        2.9240     0.8880     0.8450 C.ar  1 <1>  -0.1440 
 13 C        1.1890     2.6240     0.1980 C.3   1 <1>  -0.0970 
 14 C        3.0510    -1.2280    -0.2720 C.ar  1 <1>  -0.1500 
 15 C       -4.0510     0.1470    -0.2570 C.3   1 <1>  -0.0190 
 16 C        3.5080    -0.3690     0.7080 C.ar  1 <1>  -0.1430 
 17 C        3.4550     1.8640     1.9000 C.3   1 <1>  -0.0970 
 18 C       -5.1900     0.2700     0.7530 C.2   1 <1>   0.6590 
 19 C        4.6460    -0.8590     1.5960 C.3   1 <1>  -0.0970 
 20 O       -5.5930     1.3320     1.1580 O.2   1 <1>  -0.5700 
 21 O       -5.7170    -0.8790     1.1570 O.3   1 <1>  -0.4300 
 22 C       -6.7750    -0.9150     2.0870 C.3   1 <1>   0.1200 
 23 C       -7.1310    -2.3770     2.3400 C.3   1 <1>  -0.2400 
 24 H       -0.7740    -0.9380    -0.1070 H     1 <1>   0.0800 
 25 H       -1.9010    -1.2270    -1.4100 H     1 <1>   0.0800 
 26 H       -2.7560     0.6930    -2.7020 H     1 <1>   0.0800 
 27 H       -2.2450     2.3050    -2.2690 H     1 <1>   0.0800 
 28 H        1.6950    -1.5380    -1.8650 H     1 <1>   0.1500 
 29 H       -2.4810     0.1510     1.2230 H     1 <1>   0.0800 
 30 H       -3.0130    -1.4410     0.7660 H     1 <1>   0.0800 
 31 H       -4.5300     1.8650    -1.4680 H     1 <1>   0.0800 
 32 H       -3.4290     2.2130    -0.1710 H     1 <1>   0.0800 
 33 H        0.1570     2.6180    -0.0900 H     1 <1>   0.0800 
 34 H        1.7010     3.3590    -0.3970 H     1 <1>   0.0800 
 35 H        1.2000     2.9380     1.2250 H     1 <1>   0.0800 
 36 H        3.4950    -2.1990    -0.3980 H     1 <1>   0.1500 
 37 H       -4.3890    -0.5240    -1.0260 H     1 <1>   0.0800 
 38 H        3.5130     2.8590     1.4970 H     1 <1>   0.0800 
 39 H        4.4430     1.6170     2.2330 H     1 <1>   0.0800 
 40 H        2.8000     1.8680     2.7530 H     1 <1>   0.0800 
 41 H        4.3870    -0.7390     2.6330 H     1 <1>   0.0800 
 42 H        5.5410    -0.3020     1.3870 H     1 <1>   0.0800 
 43 H        4.8520    -1.9000     1.4260 H     1 <1>   0.0800 
 44 H       -7.6120    -0.3790     1.6720 H     1 <1>   0.0800 
 45 H       -6.4510    -0.4330     2.9930 H     1 <1>   0.0800 
 46 H       -7.4420    -2.8470     1.4250 H     1 <1>   0.0800 
 47 H       -7.9390    -2.4350     3.0460 H     1 <1>   0.0800 
 48 H       -6.2840    -2.9000     2.7460 H     1 <1>   0.0800 
@<TRIPOS>BOND
  1   1   2  2   
  2   1   3  2   
  3   1   4  am  
  4   1   5  1   
  5   4   6  1   
  6   4   7  1   
  7   5   8  ar  
  8   5   9  ar  
  9   6  10  1   
 10   6  24  1   
 11   6  25  1   
 12   7  11  1   
 13   7  26  1   
 14   7  27  1   
 15   8  12  ar  
 16   8  13  1   
 17   9  14  ar  
 18   9  28  1   
 19  10  15  1   
 20  10  29  1   
 21  10  30  1   
 22  11  15  1   
 23  11  31  1   
 24  11  32  1   
 25  12  16  ar  
 26  12  17  1   
 27  13  33  1   
 28  13  34  1   
 29  13  35  1   
 30  14  16  ar  
 31  14  36  1   
 32  15  18  1   
 33  15  37  1   
 34  16  19  1   
 35  17  38  1   
 36  17  39  1   
 37  17  40  1   
 38  18  20  2   
 39  18  21  1   
 40  19  41  1   
 41  19  42  1   
 42  19  43  1   
 43  21  22  1   
 44  22  23  1   
 45  22  44  1   
 46  22  45  1   
 47  23  46  1   
 48  23  47  1   
 49  23  48  1   
@<TRIPOS>SUBSTRUCTURE
  1 ****   6 GROUP 4 **** **** 0

# MOE 2024.06 (io_trps.svl 2023.06)
