@<TRIPOS>MOLECULE
NONAME
48 49 1 0 0 
SMALL
USER_CHARGES


@<TRIPOS>ATOM
  1 O        1.0500    -0.9000     0.5060 O.2   1 <1>  -0.5700 
  2 C        0.6260    -2.0010     0.7550 C.2   1 <1>   0.6590 
  3 O       -0.6740    -2.2590     0.8030 O.3   1 <1>  -0.4300 
  4 C        1.5430    -3.1940     1.0210 C.3   1 <1>  -0.0190 
  5 C       -1.6310    -1.2550     0.5570 C.3   1 <1>   0.1200 
  6 C        2.9040    -2.7790     1.6260 C.3   1 <1>  -0.1600 
  7 C        1.7170    -4.0220    -0.2710 C.3   1 <1>  -0.1600 
  8 C       -3.0160    -1.8820     0.6780 C.3   1 <1>  -0.2400 
  9 C        3.9440    -2.5000     0.5400 C.3   1 <1>   0.1400 
 10 C        3.0740    -4.7260    -0.3390 C.3   1 <1>   0.1400 
 11 N        4.1830    -3.7230    -0.2920 N.am  1 <1>  -0.6600 
 12 C        5.3510    -3.9710    -0.9870 C.2   1 <1>   0.5690 
 13 O        5.5060    -5.0260    -1.5630 O.2   1 <1>  -0.5700 
 14 C        6.5100    -2.9590    -1.1130 C.3   1 <1>   0.2610 
 15 O        7.0070    -2.5660     0.1580 O.3   1 <1>  -0.3630 
 16 C        6.1560    -1.6920    -1.9020 C.3   1 <1>  -0.2400 
 17 C        8.3360    -2.6820     0.3620 C.ar  1 <1>   0.0820 
 18 C        8.9240    -3.9180     0.6250 C.ar  1 <1>  -0.1440 
 19 C        9.1060    -1.5310     0.3150 C.ar  1 <1>  -0.1500 
 20 C       10.2960    -3.9780     0.8130 C.ar  1 <1>  -0.1500 
 21 C        8.1010    -5.1960     0.7200 C.3   1 <1>  -0.0970 
 22 C       10.4730    -1.6040     0.5070 C.ar  1 <1>  -0.1500 
 23 C       11.0680    -2.8300     0.7530 C.ar  1 <1>  -0.1500 
 24 H        1.0490    -3.8070     1.7540 H     1 <1>   0.0800 
 25 H       -1.4680    -0.8630    -0.4330 H     1 <1>   0.0800 
 26 H       -1.4950    -0.4700     1.2820 H     1 <1>   0.0800 
 27 H        3.2790    -3.5660     2.2570 H     1 <1>   0.0800 
 28 H        2.7850    -1.9070     2.2450 H     1 <1>   0.0800 
 29 H        1.6410    -3.3800    -1.1330 H     1 <1>   0.0800 
 30 H        0.9270    -4.7480    -0.3420 H     1 <1>   0.0800 
 31 H       -3.1310    -2.6690    -0.0450 H     1 <1>   0.0800 
 32 H       -3.7680    -1.1360     0.4940 H     1 <1>   0.0800 
 33 H       -3.1600    -2.2760     1.6680 H     1 <1>   0.0800 
 34 H        4.8520    -2.1820     1.0160 H     1 <1>   0.0800 
 35 H        3.5940    -1.7020    -0.0940 H     1 <1>   0.0800 
 36 H        3.1290    -5.2960    -1.2520 H     1 <1>   0.0800 
 37 H        3.1820    -5.4080     0.4870 H     1 <1>   0.0800 
 38 H        7.3080    -3.4620    -1.6330 H     1 <1>   0.0800 
 39 H        5.4200    -1.1080    -1.3840 H     1 <1>   0.0800 
 40 H        5.7610    -1.9670    -2.8640 H     1 <1>   0.0800 
 41 H        7.0390    -1.0980    -2.0550 H     1 <1>   0.0800 
 42 H        8.6310    -0.5860     0.1270 H     1 <1>   0.1500 
 43 H       10.7730    -4.9220     1.0100 H     1 <1>   0.1500 
 44 H        7.9160    -5.5890    -0.2630 H     1 <1>   0.0800 
 45 H        7.1580    -5.0010     1.1990 H     1 <1>   0.0800 
 46 H        8.6200    -5.9410     1.2950 H     1 <1>   0.0800 
 47 H       11.0730    -0.7120     0.4670 H     1 <1>   0.1500 
 48 H       12.1320    -2.8900     0.9010 H     1 <1>   0.1500 
@<TRIPOS>BOND
  1   1   2  2   
  2   2   3  1   
  3   2   4  1   
  4   3   5  1   
  5   4   6  1   
  6   4   7  1   
  7   4  24  1   
  8   5   8  1   
  9   5  25  1   
 10   5  26  1   
 11   6   9  1   
 12   6  27  1   
 13   6  28  1   
 14   7  10  1   
 15   7  29  1   
 16   7  30  1   
 17   8  31  1   
 18   8  32  1   
 19   8  33  1   
 20   9  11  1   
 21   9  34  1   
 22   9  35  1   
 23  10  11  1   
 24  10  36  1   
 25  10  37  1   
 26  11  12  am  
 27  12  13  2   
 28  12  14  1   
 29  14  15  1   
 30  14  16  1   
 31  14  38  1   
 32  15  17  1   
 33  16  39  1   
 34  16  40  1   
 35  16  41  1   
 36  17  18  ar  
 37  17  19  ar  
 38  18  20  ar  
 39  18  21  1   
 40  19  22  ar  
 41  19  42  1   
 42  20  23  ar  
 43  20  43  1   
 44  21  44  1   
 45  21  45  1   
 46  21  46  1   
 47  22  23  ar  
 48  22  47  1   
 49  23  48  1   
@<TRIPOS>SUBSTRUCTURE
  1 ****   9 GROUP 4 **** **** 0

# MOE 2024.06 (io_trps.svl 2023.06)
