@<TRIPOS>MOLECULE
NONAME
37 39 1 0 0 
SMALL
USER_CHARGES


@<TRIPOS>ATOM
  1 CL      -0.3340     0.9490     0.4630 Cl    1 <1>  -0.1770 
  2 C       -2.0280     0.5860     0.2680 C.ar  1 <1>   0.1770 
  3 C       -2.6780    -0.1670     1.2260 C.ar  1 <1>  -0.1500 
  4 C       -2.7020     1.0550    -0.8420 C.ar  1 <1>  -0.1500 
  5 C       -4.0220    -0.4530     1.0660 C.ar  1 <1>  -0.1500 
  6 C       -4.0470     0.7630    -0.9910 C.ar  1 <1>  -0.1500 
  7 C       -4.7420     0.0040    -0.0440 C.ar  1 <1>   0.0540 
  8 C       -6.1560    -0.2980    -0.2090 C.2   1 <1>   0.4620 
  9 N       -6.8860     0.0850    -1.2020 N.2   1 <1>  -0.4100 
 10 N       -6.8470    -1.0250     0.6880 N.2   1 <1>  -0.5650 
 11 O       -8.0410    -0.3930    -0.9460 O.3   1 <1>  -0.0190 
 12 C       -8.0320    -1.0560     0.1760 C.2   1 <1>   0.3930 
 13 C       -9.2610    -1.6810     0.6450 C.2   1 <1>   0.7150 
 14 O       -9.2990    -2.3110     1.6890 O.2   1 <1>  -0.5700 
 15 N      -10.4220    -1.5780    -0.0830 N.am  1 <1>  -0.7300 
 16 C      -11.7260    -2.1600     0.2780 C.3   1 <1>   0.2200 
 17 C      -12.1470    -3.1440    -0.8180 C.3   1 <1>  -0.1600 
 18 C      -12.7470    -1.0270     0.4310 C.3   1 <1>  -0.1600 
 19 C      -13.5530    -3.7020    -0.5520 C.3   1 <1>  -0.1600 
 20 C      -14.1540    -1.5810     0.7000 C.3   1 <1>  -0.1600 
 21 C      -14.5790    -2.5710    -0.3930 C.3   1 <1>  -0.1600 
 22 H       -2.1360    -0.5240     2.0840 H     1 <1>   0.1500 
 23 H       -2.1780     1.6390    -1.5760 H     1 <1>   0.1500 
 24 H       -4.5230    -1.0400     1.8170 H     1 <1>   0.1500 
 25 H       -4.5670     1.1320    -1.8590 H     1 <1>   0.1500 
 26 H      -10.4150    -1.0560    -0.9590 H     1 <1>   0.3700 
 27 H      -11.6500    -2.6910     1.2140 H     1 <1>   0.0800 
 28 H      -11.4450    -3.9580    -0.8540 H     1 <1>   0.0800 
 29 H      -12.1460    -2.6470    -1.7730 H     1 <1>   0.0800 
 30 H      -12.7710    -0.4370    -0.4680 H     1 <1>   0.0800 
 31 H      -12.4540    -0.3930     1.2500 H     1 <1>   0.0800 
 32 H      -13.5360    -4.2950     0.3470 H     1 <1>   0.0800 
 33 H      -13.8470    -4.3450    -1.3640 H     1 <1>   0.0800 
 34 H      -14.8590    -0.7690     0.7460 H     1 <1>   0.0800 
 35 H      -14.1630    -2.0800     1.6540 H     1 <1>   0.0800 
 36 H      -15.5400    -2.9890    -0.1470 H     1 <1>   0.0800 
 37 H      -14.6790    -2.0470    -1.3290 H     1 <1>   0.0800 
@<TRIPOS>BOND
  1   1   2  1   
  2   2   3  ar  
  3   2   4  ar  
  4   3   5  ar  
  5   3  22  1   
  6   4   6  ar  
  7   4  23  1   
  8   5   7  ar  
  9   5  24  1   
 10   6   7  ar  
 11   6  25  1   
 12   7   8  1   
 13   8   9  2   
 14   8  10  1   
 15   9  11  1   
 16  10  12  2   
 17  11  12  1   
 18  12  13  1   
 19  13  14  2   
 20  13  15  am  
 21  15  16  1   
 22  15  26  1   
 23  16  17  1   
 24  16  18  1   
 25  16  27  1   
 26  17  19  1   
 27  17  28  1   
 28  17  29  1   
 29  18  20  1   
 30  18  30  1   
 31  18  31  1   
 32  19  21  1   
 33  19  32  1   
 34  19  33  1   
 35  20  21  1   
 36  20  34  1   
 37  20  35  1   
 38  21  36  1   
 39  21  37  1   
@<TRIPOS>SUBSTRUCTURE
  1 ****  12 GROUP 4 **** **** 0

# MOE 2024.06 (io_trps.svl 2023.06)
