@<TRIPOS>MOLECULE
NONAME
43 45 1 0 0 
SMALL
USER_CHARGES


@<TRIPOS>ATOM
  1 CL       3.0980    -3.4220    -0.2000 Cl    1 <1>  -0.1770 
  2 C        4.0270    -1.9690    -0.4530 C.ar  1 <1>   0.1770 
  3 C        4.9650    -1.5890     0.4860 C.ar  1 <1>  -0.1500 
  4 C        3.8130    -1.2140    -1.5900 C.ar  1 <1>  -0.1500 
  5 C        5.6980    -0.4320     0.2790 C.ar  1 <1>  -0.1500 
  6 C        4.5530    -0.0590    -1.7850 C.ar  1 <1>  -0.1500 
  7 C        5.5040     0.3530    -0.8550 C.ar  1 <1>  -0.0090 
  8 S        6.4740     1.8660    -1.1110 S.o2  1 <1>   1.4470 
  9 O        5.8660     2.6940    -2.1280 O.2   1 <1>  -0.6500 
 10 O        7.8740     1.5180    -1.2320 O.2   1 <1>  -0.6500 
 11 N        6.2980     2.6930     0.3540 N.am  1 <1>  -0.8490 
 12 C        7.1740     3.8910     0.4530 C.3   1 <1>   0.3370 
 13 C        4.9260     3.1020     0.6400 C.3   1 <1>   0.1960 
 14 C        8.4790     3.6280     1.2570 C.2   1 <1>   0.5690 
 15 C        6.2810     5.0040     1.0320 C.3   1 <1>  -0.1600 
 16 C        5.0630     4.2810     1.5820 C.3   1 <1>  -0.1600 
 17 O        8.7160     4.2270     2.2820 O.2   1 <1>  -0.5700 
 18 N        9.3650     2.7180     0.7800 N.am  1 <1>  -0.7300 
 19 C       10.6660     2.3780     1.3730 C.3   1 <1>   0.2840 
 20 C       11.6840     2.2440     0.2540 C.ar  1 <1>  -0.1430 
 21 C       12.7650     3.0970     0.1450 C.ar  1 <1>  -0.1500 
 22 C       11.5800     1.2660    -0.7150 C.ar  1 <1>  -0.1500 
 23 C       13.6650     2.9300    -0.8940 C.ar  1 <1>   0.1600 
 24 C       12.5360     1.1870    -1.7140 C.ar  1 <1>   0.1600 
 25 N       13.5790     1.9940    -1.8250 N.ar  1 <1>  -0.6200 
 26 H        5.1170    -2.1920     1.3640 H     1 <1>   0.1500 
 27 H        3.0780    -1.5300    -2.3100 H     1 <1>   0.1500 
 28 H        6.4330    -0.1310     1.0090 H     1 <1>   0.1500 
 29 H        4.3880     0.5310    -2.6720 H     1 <1>   0.1500 
 30 H        7.4750     4.2030    -0.5330 H     1 <1>   0.0800 
 31 H        4.3650     2.2980     1.0860 H     1 <1>   0.0800 
 32 H        4.4300     3.4300    -0.2600 H     1 <1>   0.0800 
 33 H        5.9830     5.6550     0.2290 H     1 <1>   0.0800 
 34 H        6.7650     5.6030     1.7820 H     1 <1>   0.0800 
 35 H        5.2600     3.9220     2.5780 H     1 <1>   0.0800 
 36 H        4.1830     4.8990     1.5900 H     1 <1>   0.0800 
 37 H        9.1240     2.1910    -0.0730 H     1 <1>   0.3700 
 38 H       10.5820     1.4470     1.9050 H     1 <1>   0.0800 
 39 H       10.9670     3.1440     2.0680 H     1 <1>   0.0800 
 40 H       12.9130     3.8900     0.8550 H     1 <1>   0.1500 
 41 H       10.7620     0.5670    -0.7060 H     1 <1>   0.1500 
 42 H       14.5020     3.6050    -0.9630 H     1 <1>   0.1500 
 43 H       12.4360     0.4190    -2.4620 H     1 <1>   0.1500 
@<TRIPOS>BOND
  1   1   2  1   
  2   2   3  ar  
  3   2   4  ar  
  4   3   5  ar  
  5   3  26  1   
  6   4   6  ar  
  7   4  27  1   
  8   5   7  ar  
  9   5  28  1   
 10   6   7  ar  
 11   6  29  1   
 12   7   8  1   
 13   8   9  2   
 14   8  10  2   
 15   8  11  am  
 16  11  12  1   
 17  11  13  1   
 18  12  14  1   
 19  12  15  1   
 20  12  30  1   
 21  13  16  1   
 22  13  31  1   
 23  13  32  1   
 24  14  17  2   
 25  14  18  am  
 26  15  16  1   
 27  15  33  1   
 28  15  34  1   
 29  16  35  1   
 30  16  36  1   
 31  18  19  1   
 32  18  37  1   
 33  19  20  1   
 34  19  38  1   
 35  19  39  1   
 36  20  21  ar  
 37  20  22  ar  
 38  21  23  ar  
 39  21  40  1   
 40  22  24  ar  
 41  22  41  1   
 42  23  25  ar  
 43  23  42  1   
 44  24  25  ar  
 45  24  43  1   
@<TRIPOS>SUBSTRUCTURE
  1 ****  10 GROUP 4 **** **** 0

# MOE 2024.06 (io_trps.svl 2023.06)
