@<TRIPOS>MOLECULE
NONAME
39 40 1 0 0 
SMALL
USER_CHARGES


@<TRIPOS>ATOM
  1 CL       0.0150     0.1120    -1.1540 Cl    1 <1>  -0.1770 
  2 C        1.5090     0.9090    -0.7120 C.ar  1 <1>   0.1770 
  3 C        1.5140     2.1780    -0.1490 C.ar  1 <1>  -0.1440 
  4 C        2.6840     0.2200    -0.9470 C.ar  1 <1>  -0.1500 
  5 C        2.7470     2.7420     0.1740 C.ar  1 <1>  -0.1500 
  6 C        0.1970     2.9150     0.0990 C.3   1 <1>   1.1640 
  7 C        3.8950     0.7990    -0.6180 C.ar  1 <1>  -0.1500 
  8 C        3.9440     2.0710    -0.0560 C.ar  1 <1>   0.1170 
  9 F        0.3810     4.1140     0.6420 F     1 <1>  -0.3400 
 10 F       -0.4920     3.1260    -1.0150 F     1 <1>  -0.3400 
 11 F       -0.6050     2.2640     0.9310 F     1 <1>  -0.3400 
 12 N        5.1470     2.6960     0.3040 N.am  1 <1>  -0.5470 
 13 C        6.4160     2.5250    -0.1820 C.2   1 <1>   0.5690 
 14 O        6.6780     1.7730    -1.0890 O.2   1 <1>  -0.5700 
 15 C        7.5330     3.3530     0.4560 C.3   1 <1>  -0.0190 
 16 C        7.7170     4.6910    -0.2840 C.3   1 <1>  -0.1600 
 17 C        8.8750     2.5940     0.5080 C.3   1 <1>  -0.1600 
 18 C        8.8410     5.5300     0.3310 C.3   1 <1>   0.1400 
 19 C        9.9850     3.4510     1.1200 C.3   1 <1>   0.1400 
 20 N       10.0970     4.7310     0.3670 N.am  1 <1>  -0.6600 
 21 C       11.2260     5.1690    -0.2790 C.2   1 <1>   0.5690 
 22 O       11.2700     6.2320    -0.8490 O.2   1 <1>  -0.5700 
 23 C       12.4790     4.3250    -0.3040 C.3   1 <1>  -0.1790 
 24 H        2.6500    -0.7620    -1.3850 H     1 <1>   0.1500 
 25 H        2.7920     3.7250     0.6090 H     1 <1>   0.1500 
 26 H        4.8030     0.2530    -0.8010 H     1 <1>   0.1500 
 27 H        5.0540     3.4280     1.0050 H     1 <1>   0.3700 
 28 H        7.2450     3.5670     1.4690 H     1 <1>   0.0800 
 29 H        6.8020     5.2570    -0.2580 H     1 <1>   0.0800 
 30 H        7.9530     4.5040    -1.3180 H     1 <1>   0.0800 
 31 H        9.1720     2.3060    -0.4860 H     1 <1>   0.0800 
 32 H        8.7590     1.6930     1.0850 H     1 <1>   0.0800 
 33 H        8.5840     5.8220     1.3350 H     1 <1>   0.0800 
 34 H        8.9750     6.4270    -0.2490 H     1 <1>   0.0800 
 35 H       10.9090     2.9020     1.1030 H     1 <1>   0.0800 
 36 H        9.7530     3.6720     2.1480 H     1 <1>   0.0800 
 37 H       12.8440     4.1850     0.6960 H     1 <1>   0.0800 
 38 H       13.2380     4.8220    -0.8800 H     1 <1>   0.0800 
 39 H       12.2700     3.3760    -0.7580 H     1 <1>   0.0800 
@<TRIPOS>BOND
  1   1   2  1   
  2   2   3  ar  
  3   2   4  ar  
  4   3   5  ar  
  5   3   6  1   
  6   4   7  ar  
  7   4  24  1   
  8   5   8  ar  
  9   5  25  1   
 10   6   9  1   
 11   6  10  1   
 12   6  11  1   
 13   7   8  ar  
 14   7  26  1   
 15   8  12  1   
 16  12  13  am  
 17  12  27  1   
 18  13  14  2   
 19  13  15  1   
 20  15  16  1   
 21  15  17  1   
 22  15  28  1   
 23  16  18  1   
 24  16  29  1   
 25  16  30  1   
 26  17  19  1   
 27  17  31  1   
 28  17  32  1   
 29  18  20  1   
 30  18  33  1   
 31  18  34  1   
 32  19  20  1   
 33  19  35  1   
 34  19  36  1   
 35  20  21  am  
 36  21  22  2   
 37  21  23  1   
 38  23  37  1   
 39  23  38  1   
 40  23  39  1   
@<TRIPOS>SUBSTRUCTURE
  1 ****  12 GROUP 4 **** **** 0

# MOE 2024.06 (io_trps.svl 2023.06)
