@<TRIPOS>MOLECULE
NONAME
28 29 1 0 0 
SMALL
USER_CHARGES


@<TRIPOS>ATOM
  1 BR      -0.2970    -0.1360    -1.4210 Br    1 <1>  -0.1110 
  2 C       -1.7540     0.9350    -0.7660 C.ar  1 <1>   0.1110 
  3 C       -2.9840     0.8380    -1.3870 C.ar  1 <1>  -0.1500 
  4 C       -1.5350     1.7740     0.3090 C.ar  1 <1>  -0.1500 
  5 C       -4.0290     1.6110    -0.9110 C.ar  1 <1>  -0.1500 
  6 C       -2.5880     2.5410     0.7760 C.ar  1 <1>  -0.1500 
  7 C       -3.8390     2.4660     0.1720 C.ar  1 <1>  -0.1430 
  8 C       -4.9770     3.3330     0.7010 C.3   1 <1>   0.3640 
  9 N       -6.2080     2.5180     0.7990 N.am  1 <1>  -0.7300 
 10 C       -5.1990     4.5630    -0.1930 C.3   1 <1>   0.1600 
 11 C       -7.4680     2.9260     0.5300 C.2   1 <1>   0.5690 
 12 N       -4.0420     5.4730    -0.0670 N.pl3 1 <1>   0.8000 
 13 C       -6.5250     5.2760     0.1530 C.3   1 <1>  -0.1600 
 14 O       -8.3990     2.1910     0.7190 O.2   1 <1>  -0.5700 
 15 C       -7.7140     4.3140    -0.0380 C.3   1 <1>  -0.0990 
 16 O       -3.5250     5.9110    -1.1020 O.2   1 <1>  -0.5200 
 17 O       -3.6540     5.8010     1.0640 O.2   1 <1>  -0.5200 
 18 H       -3.1170     0.1730    -2.2210 H     1 <1>   0.1500 
 19 H       -0.5630     1.8250     0.7660 H     1 <1>   0.1500 
 20 H       -4.9910     1.5380    -1.3910 H     1 <1>   0.1500 
 21 H       -2.4200     3.2010     1.6130 H     1 <1>   0.1500 
 22 H       -4.7420     3.6580     1.7010 H     1 <1>   0.0800 
 23 H       -6.0940     1.5730     1.1730 H     1 <1>   0.3700 
 24 H       -5.2340     4.2390    -1.2170 H     1 <1>   0.0800 
 25 H       -6.6600     6.1400    -0.4750 H     1 <1>   0.0800 
 26 H       -6.5000     5.6000     1.1810 H     1 <1>   0.0800 
 27 H       -8.5930     4.7260     0.4250 H     1 <1>   0.0800 
 28 H       -7.9220     4.2000    -1.0870 H     1 <1>   0.0800 
@<TRIPOS>BOND
  1   1   2  1   
  2   2   3  ar  
  3   2   4  ar  
  4   3   5  ar  
  5   3  18  1   
  6   4   6  ar  
  7   4  19  1   
  8   5   7  ar  
  9   5  20  1   
 10   6   7  ar  
 11   6  21  1   
 12   7   8  1   
 13   8   9  1   
 14   8  10  1   
 15   8  22  1   
 16   9  11  am  
 17   9  23  1   
 18  10  12  1   
 19  10  13  1   
 20  10  24  1   
 21  11  14  2   
 22  11  15  1   
 23  12  16  2   
 24  12  17  2   
 25  13  15  1   
 26  13  25  1   
 27  13  26  1   
 28  15  27  1   
 29  15  28  1   
@<TRIPOS>SUBSTRUCTURE
  1 ****   7 GROUP 4 **** **** 0

# MOE 2024.06 (io_trps.svl 2023.06)
