@<TRIPOS>MOLECULE
NONAME
56 59 1 0 0 
SMALL
USER_CHARGES


@<TRIPOS>ATOM
  1 N        0.6720    -0.2940     0.4570 N.4   1 <1>  -0.9590 
  2 C        0.3030     1.1280     0.1880 C.3   1 <1>   0.3430 
  3 C        1.7220    -0.8200    -0.4650 C.3   1 <1>   0.3430 
  4 C       -0.5510    -1.1630     0.3900 C.3   1 <1>   0.2630 
  5 C        1.5450     2.0190     0.2680 C.3   1 <1>  -0.1600 
  6 C        2.9740     0.0560    -0.3890 C.3   1 <1>  -0.1600 
  7 C        2.6290     1.5160    -0.6950 C.3   1 <1>   0.4230 
  8 N        3.8600     2.3630    -0.6720 N.4   1 <1>  -0.9590 
  9 C        4.5120     2.5590     0.6620 C.3   1 <1>   0.4860 
 10 C        3.6570     3.6890    -1.3500 C.3   1 <1>   0.2630 
 11 C        5.9180     3.0610     0.4200 C.ar  1 <1>  -0.1430 
 12 C        6.2290     4.3890     0.6380 C.ar  1 <1>  -0.1500 
 13 C        6.9040     2.1770    -0.0350 C.ar  1 <1>  -0.1500 
 14 C        7.5190     4.8470     0.3790 C.ar  1 <1>   0.0000 
 15 C        8.1820     2.6230    -0.2910 C.ar  1 <1>  -0.1500 
 16 C        8.4870     3.9690    -0.0880 C.ar  1 <1>  -0.1520 
 17 C        8.1310     6.1270     0.4940 C.ar  1 <1>   0.0000 
 18 N        9.6670     4.6660    -0.2680 N.pl3 1 <1>   0.0480 
 19 C        9.4520     5.9830     0.0890 C.ar  1 <1>  -0.1520 
 20 C        7.6620     7.3730     0.9090 C.ar  1 <1>  -0.1500 
 21 C       10.9450     4.1020    -0.7530 C.3   1 <1>   0.0960 
 22 C       10.3190     7.0780     0.0950 C.ar  1 <1>  -0.1500 
 23 C        8.5180     8.4540     0.9120 C.ar  1 <1>  -0.1500 
 24 C       11.7890     3.5980     0.4220 C.3   1 <1>  -0.2400 
 25 C        9.8450     8.3060     0.5050 C.ar  1 <1>  -0.1500 
 26 H        1.0230    -0.3640     1.4260 H     1 <1>   0.4500 
 27 H       -0.4270     1.4610     0.9110 H     1 <1>   0.0800 
 28 H       -0.1400     1.2090    -0.7920 H     1 <1>   0.0800 
 29 H        1.3460    -0.8300    -1.4770 H     1 <1>   0.0800 
 30 H        1.9740    -1.8350    -0.1950 H     1 <1>   0.0800 
 31 H       -0.9780    -1.1420    -0.6000 H     1 <1>   0.0800 
 32 H       -1.2960    -0.8200     1.0910 H     1 <1>   0.0800 
 33 H       -0.3020    -2.1840     0.6340 H     1 <1>   0.0800 
 34 H        1.8950     2.0260     1.2840 H     1 <1>   0.0800 
 35 H        1.2530     3.0200     0.0030 H     1 <1>   0.0800 
 36 H        3.6820    -0.3080    -1.1130 H     1 <1>   0.0800 
 37 H        3.4070    -0.0500     0.5890 H     1 <1>   0.0800 
 38 H        2.2240     1.5490    -1.6950 H     1 <1>   0.0800 
 39 H        4.5860     1.8900    -1.2320 H     1 <1>   0.4500 
 40 H        4.5640     1.6290     1.2040 H     1 <1>   0.0800 
 41 H        3.9610     3.2730     1.2520 H     1 <1>   0.0800 
 42 H        2.9780     4.3070    -0.7850 H     1 <1>   0.0800 
 43 H        3.2570     3.5500    -2.3420 H     1 <1>   0.0800 
 44 H        4.5980     4.2120    -1.4400 H     1 <1>   0.0800 
 45 H        5.5090     5.0990     1.0040 H     1 <1>   0.1500 
 46 H        6.6840     1.1350    -0.1870 H     1 <1>   0.1500 
 47 H        8.9440     1.9470    -0.6380 H     1 <1>   0.1500 
 48 H        6.6410     7.4800     1.2240 H     1 <1>   0.1500 
 49 H       11.4780     4.8640    -1.2920 H     1 <1>   0.0800 
 50 H       10.7350     3.2960    -1.4320 H     1 <1>   0.0800 
 51 H       11.3420     6.9650    -0.2150 H     1 <1>   0.1500 
 52 H        8.1690     9.4210     1.2290 H     1 <1>   0.1500 
 53 H       12.0070     4.4070     1.0970 H     1 <1>   0.0800 
 54 H       12.7170     3.1960     0.0590 H     1 <1>   0.0800 
 55 H       11.2640     2.8250     0.9540 H     1 <1>   0.0800 
 56 H       10.4970     9.1610     0.5160 H     1 <1>   0.1500 
@<TRIPOS>BOND
  1   1   2  1   
  2   1   3  1   
  3   1   4  1   
  4   1  26  1   
  5   2   5  1   
  6   2  27  1   
  7   2  28  1   
  8   3   6  1   
  9   3  29  1   
 10   3  30  1   
 11   4  31  1   
 12   4  32  1   
 13   4  33  1   
 14   5   7  1   
 15   5  34  1   
 16   5  35  1   
 17   6   7  1   
 18   6  36  1   
 19   6  37  1   
 20   7   8  1   
 21   7  38  1   
 22   8   9  1   
 23   8  10  1   
 24   8  39  1   
 25   9  11  1   
 26   9  40  1   
 27   9  41  1   
 28  10  42  1   
 29  10  43  1   
 30  10  44  1   
 31  11  12  ar  
 32  11  13  ar  
 33  12  14  ar  
 34  12  45  1   
 35  13  15  ar  
 36  13  46  1   
 37  14  16  ar  
 38  14  17  1   
 39  15  16  ar  
 40  15  47  1   
 41  16  18  1   
 42  17  19  ar  
 43  17  20  ar  
 44  18  19  1   
 45  18  21  1   
 46  19  22  ar  
 47  20  23  ar  
 48  20  48  1   
 49  21  24  1   
 50  21  49  1   
 51  21  50  1   
 52  22  25  ar  
 53  22  51  1   
 54  23  25  ar  
 55  23  52  1   
 56  24  53  1   
 57  24  54  1   
 58  24  55  1   
 59  25  56  1   
@<TRIPOS>SUBSTRUCTURE
  1 ****  11 GROUP 4 **** **** 0

# MOE 2024.06 (io_trps.svl 2023.06)
