@<TRIPOS>MOLECULE
NONAME
55 56 1 0 0 
SMALL
USER_CHARGES


@<TRIPOS>ATOM
  1 S        0.0800    -0.2530     0.2640 S.o2  1 <1>   1.4470 
  2 O        0.0720    -1.5120    -0.4450 O.2   1 <1>  -0.6500 
  3 O       -0.2060    -0.2080     1.6800 O.2   1 <1>  -0.6500 
  4 N       -1.0830     0.6680    -0.5220 N.am  1 <1>  -0.9140 
  5 C        1.6180     0.6450    -0.0780 C.ar  1 <1>  -0.0090 
  6 C       -2.4160     0.6280     0.0690 C.3   1 <1>   0.1960 
  7 C        2.7080     0.0180    -0.6710 C.ar  1 <1>  -0.1500 
  8 C        1.7450     1.9880     0.2520 C.ar  1 <1>  -0.1500 
  9 C       -3.1170    -0.7280    -0.1450 C.3   1 <1>  -0.0800 
 10 C        3.8820     0.7050    -0.9240 C.ar  1 <1>  -0.1500 
 11 C        2.9160     2.6820     0.0020 C.ar  1 <1>  -0.1500 
 12 C       -3.2110    -1.1170    -1.6300 C.3   1 <1>  -0.2400 
 13 C       -4.5270    -0.6820     0.4590 C.3   1 <1>  -0.2400 
 14 C        3.9930     2.0430    -0.5870 C.ar  1 <1>  -0.1430 
 15 C        5.2790     2.8070    -0.8500 C.3   1 <1>  -0.0170 
 16 C        6.1420     2.8440     0.4160 C.3   1 <1>  -0.0990 
 17 C        7.4160     3.6230     0.1780 C.2   1 <1>   0.5690 
 18 O        7.3390     4.8250     0.1290 O.2   1 <1>  -0.5700 
 19 N        8.5770     2.9170     0.0310 N.am  1 <1>  -0.5470 
 20 C        9.8940     3.3360    -0.2310 C.ar  1 <1>   0.1170 
 21 C       10.9740     2.5380     0.1700 C.ar  1 <1>  -0.1430 
 22 C       10.1450     4.5210    -0.9130 C.ar  1 <1>  -0.1500 
 23 C       12.2770     2.9320    -0.1340 C.ar  1 <1>  -0.1430 
 24 C       10.7010     1.2420     0.9390 C.3   1 <1>  -0.0970 
 25 C       11.4350     4.9150    -1.2000 C.ar  1 <1>  -0.1500 
 26 C       12.4950     4.1200    -0.8130 C.ar  1 <1>  -0.1500 
 27 C       13.4980     2.1060     0.2500 C.3   1 <1>  -0.0970 
 28 H       -1.1560     0.2310    -1.4370 H     1 <1>   0.4200 
 29 H       -3.0100     1.3980    -0.3930 H     1 <1>   0.0800 
 30 H       -2.3600     0.8560     1.1210 H     1 <1>   0.0800 
 31 H        2.6360    -1.0240    -0.9370 H     1 <1>   0.1500 
 32 H        0.9140     2.4960     0.7130 H     1 <1>   0.1500 
 33 H       -2.5680    -1.4920     0.3810 H     1 <1>   0.0800 
 34 H        4.7080     0.1900    -1.3840 H     1 <1>   0.1500 
 35 H        2.9840     3.7230     0.2700 H     1 <1>   0.1500 
 36 H       -3.7030    -0.3450    -2.1960 H     1 <1>   0.0800 
 37 H       -3.7710    -2.0290    -1.7380 H     1 <1>   0.0800 
 38 H       -2.2340    -1.2870    -2.0460 H     1 <1>   0.0800 
 39 H       -5.1310     0.0580    -0.0360 H     1 <1>   0.0800 
 40 H       -4.4760    -0.4430     1.5070 H     1 <1>   0.0800 
 41 H       -5.0070    -1.6400     0.3580 H     1 <1>   0.0800 
 42 H        5.0440     3.8130    -1.1560 H     1 <1>   0.0800 
 43 H        5.8260     2.3440    -1.6530 H     1 <1>   0.0800 
 44 H        6.3700     1.8430     0.7320 H     1 <1>   0.0800 
 45 H        5.5960     3.3250     1.2070 H     1 <1>   0.0800 
 46 H        8.4990     1.9160     0.1820 H     1 <1>   0.3700 
 47 H        9.3290     5.1440    -1.2290 H     1 <1>   0.1500 
 48 H        9.9590     1.4070     1.7000 H     1 <1>   0.0800 
 49 H       11.5740     0.8700     1.4390 H     1 <1>   0.0800 
 50 H       10.3510     0.4840     0.2620 H     1 <1>   0.0800 
 51 H       11.6120     5.8370    -1.7250 H     1 <1>   0.1500 
 52 H       13.4960     4.4390    -1.0480 H     1 <1>   0.1500 
 53 H       13.3910     1.0970    -0.1060 H     1 <1>   0.0800 
 54 H       13.6140     2.0960     1.3190 H     1 <1>   0.0800 
 55 H       14.3950     2.5150    -0.1800 H     1 <1>   0.0800 
@<TRIPOS>BOND
  1   1   2  2   
  2   1   3  2   
  3   1   4  am  
  4   1   5  1   
  5   4   6  1   
  6   4  28  1   
  7   5   7  ar  
  8   5   8  ar  
  9   6   9  1   
 10   6  29  1   
 11   6  30  1   
 12   7  10  ar  
 13   7  31  1   
 14   8  11  ar  
 15   8  32  1   
 16   9  12  1   
 17   9  13  1   
 18   9  33  1   
 19  10  14  ar  
 20  10  34  1   
 21  11  14  ar  
 22  11  35  1   
 23  12  36  1   
 24  12  37  1   
 25  12  38  1   
 26  13  39  1   
 27  13  40  1   
 28  13  41  1   
 29  14  15  1   
 30  15  16  1   
 31  15  42  1   
 32  15  43  1   
 33  16  17  1   
 34  16  44  1   
 35  16  45  1   
 36  17  18  2   
 37  17  19  am  
 38  19  20  1   
 39  19  46  1   
 40  20  21  ar  
 41  20  22  ar  
 42  21  23  ar  
 43  21  24  1   
 44  22  25  ar  
 45  22  47  1   
 46  23  26  ar  
 47  23  27  1   
 48  24  48  1   
 49  24  49  1   
 50  24  50  1   
 51  25  26  ar  
 52  25  51  1   
 53  26  52  1   
 54  27  53  1   
 55  27  54  1   
 56  27  55  1   
@<TRIPOS>SUBSTRUCTURE
  1 ****  14 GROUP 4 **** **** 0

# MOE 2024.06 (io_trps.svl 2023.06)
