@<TRIPOS>MOLECULE
NONAME
41 41 1 0 0 
SMALL
USER_CHARGES


@<TRIPOS>ATOM
  1 O        0.3360    -5.0500    -0.0740 O.3   1 <1>  -0.3630 
  2 C       -0.8430    -5.7190    -0.0220 C.ar  1 <1>   0.0830 
  3 C        1.5670    -5.7290     0.0290 C.3   1 <1>   0.1200 
  4 C       -0.9450    -7.0990     0.1390 C.ar  1 <1>  -0.1500 
  5 C       -1.9960    -4.9600    -0.1380 C.ar  1 <1>  -0.1500 
  6 C        2.6850    -4.6950    -0.0700 C.3   1 <1>   0.1200 
  7 C       -2.1900    -7.7050     0.1840 C.ar  1 <1>  -0.1440 
  8 C       -3.2440    -5.5590    -0.0970 C.ar  1 <1>  -0.1440 
  9 O        3.9160    -5.3490     0.0320 O.3   1 <1>  -0.5600 
 10 C       -3.3330    -6.9320     0.0650 C.ar  1 <1>  -0.1500 
 11 C       -2.3040    -9.2090     0.3590 C.3   1 <1>  -0.0970 
 12 C       -4.5060    -4.7250    -0.2240 C.3   1 <1>  -0.0970 
 13 C        5.0160    -4.5060    -0.0460 C.3   1 <1>   0.1200 
 14 C        6.2720    -5.3810     0.0660 C.3   1 <1>   0.3430 
 15 N        7.5490    -4.5980    -0.0600 N.4   1 <1>  -0.9590 
 16 C        8.7090    -5.5350    -0.1850 C.3   1 <1>   0.2630 
 17 C        7.7600    -3.6680     1.0960 C.3   1 <1>   0.2630 
 18 H        1.6330    -6.4350    -0.7800 H     1 <1>   0.0800 
 19 H        1.5980    -6.2280     0.9810 H     1 <1>   0.0800 
 20 H       -0.0700    -7.7110     0.2300 H     1 <1>   0.1500 
 21 H       -1.9040    -3.8970    -0.2600 H     1 <1>   0.1500 
 22 H        2.5980    -3.9860     0.7350 H     1 <1>   0.0800 
 23 H        2.6340    -4.1940    -1.0220 H     1 <1>   0.0800 
 24 H       -4.3000    -7.4000     0.0970 H     1 <1>   0.1500 
 25 H       -1.4680    -9.5890     0.9190 H     1 <1>   0.0800 
 26 H       -2.3220    -9.6860    -0.6050 H     1 <1>   0.0800 
 27 H       -3.2060    -9.4580     0.8870 H     1 <1>   0.0800 
 28 H       -4.2810    -3.7520    -0.6210 H     1 <1>   0.0800 
 29 H       -4.9630    -4.6080     0.7420 H     1 <1>   0.0800 
 30 H       -5.2040    -5.2090    -0.8840 H     1 <1>   0.0800 
 31 H        4.9580    -3.8020     0.7650 H     1 <1>   0.0800 
 32 H        4.9870    -3.9990    -0.9950 H     1 <1>   0.0800 
 33 H        6.2290    -6.1210    -0.7170 H     1 <1>   0.0800 
 34 H        6.2530    -5.8940     1.0140 H     1 <1>   0.0800 
 35 H        7.5000    -4.0420    -0.9280 H     1 <1>   0.4500 
 36 H        8.7970    -6.1440     0.7000 H     1 <1>   0.0800 
 37 H        9.6260    -4.9820    -0.3140 H     1 <1>   0.0800 
 38 H        8.5780    -6.1820    -1.0370 H     1 <1>   0.0800 
 39 H        7.7990    -4.2210     2.0200 H     1 <1>   0.0800 
 40 H        6.9570    -2.9520     1.1570 H     1 <1>   0.0800 
 41 H        8.6870    -3.1290     0.9780 H     1 <1>   0.0800 
@<TRIPOS>BOND
  1   1   2  1   
  2   1   3  1   
  3   2   4  ar  
  4   2   5  ar  
  5   3   6  1   
  6   3  18  1   
  7   3  19  1   
  8   4   7  ar  
  9   4  20  1   
 10   5   8  ar  
 11   5  21  1   
 12   6   9  1   
 13   6  22  1   
 14   6  23  1   
 15   7  10  ar  
 16   7  11  1   
 17   8  10  ar  
 18   8  12  1   
 19   9  13  1   
 20  10  24  1   
 21  11  25  1   
 22  11  26  1   
 23  11  27  1   
 24  12  28  1   
 25  12  29  1   
 26  12  30  1   
 27  13  14  1   
 28  13  31  1   
 29  13  32  1   
 30  14  15  1   
 31  14  33  1   
 32  14  34  1   
 33  15  16  1   
 34  15  17  1   
 35  15  35  1   
 36  16  36  1   
 37  16  37  1   
 38  16  38  1   
 39  17  39  1   
 40  17  40  1   
 41  17  41  1   
@<TRIPOS>SUBSTRUCTURE
  1 ****   3 GROUP 4 **** **** 0

# MOE 2024.06 (io_trps.svl 2023.06)
