@<TRIPOS>MOLECULE
NONAME
39 40 1 0 0 
SMALL
USER_CHARGES


@<TRIPOS>ATOM
  1 O       -0.5650     0.3750     2.1010 O.2   1 <1>  -0.2940 
  2 N       -1.4760    -0.3560     1.4630 N.pl3 1 <1>  -0.3050 
  3 C       -1.3550    -1.5590     0.9350 C.2   1 <1>   1.0570 
  4 N       -0.2190    -2.2550     0.8440 N.pl3 1 <1>  -0.7560 
  5 N       -2.4180    -2.1910     0.4560 N.pl3 1 <1>  -0.8920 
  6 C        1.0780    -1.8000     0.6340 C.ar  1 <1>   0.3150 
  7 C       -3.8300    -1.8550     0.6200 C.3   1 <1>   0.3780 
  8 C        1.3480    -0.6870    -0.1530 C.ar  1 <1>  -0.1920 
  9 C        2.1330    -2.5060     1.1930 C.ar  1 <1>  -0.1920 
 10 C       -4.6480    -3.1050     0.3120 C.3   1 <1>  -0.2010 
 11 C       -4.1740    -0.7000    -0.3240 C.3   1 <1>  -0.2010 
 12 C        2.6520    -0.2860    -0.3710 C.ar  1 <1>  -0.1920 
 13 C        3.4370    -2.1050     0.9740 C.ar  1 <1>  -0.1920 
 14 C       -6.1460    -2.7920     0.3910 C.3   1 <1>  -0.2010 
 15 C       -5.6680    -0.3750    -0.2390 C.3   1 <1>  -0.2010 
 16 C        3.7020    -0.9930     0.1920 C.ar  1 <1>  -0.1850 
 17 C       -6.5150    -1.6200    -0.5280 C.3   1 <1>  -0.2010 
 18 C        5.1340    -0.5530    -0.0500 C.3   1 <1>  -0.1400 
 19 H       -2.3900     0.0760     1.3810 H     1 <1>   0.6470 
 20 H       -0.2810    -3.2370     1.0830 H     1 <1>   0.5070 
 21 H       -2.2820    -2.9260    -0.2370 H     1 <1>   0.5070 
 22 H       -4.0150    -1.5580     1.6390 H     1 <1>   0.0360 
 23 H        0.5520    -0.1280    -0.6050 H     1 <1>   0.1080 
 24 H        1.9490    -3.3700     1.8030 H     1 <1>   0.1080 
 25 H       -4.4240    -3.4590    -0.6800 H     1 <1>   0.0360 
 26 H       -4.4160    -3.8820     1.0200 H     1 <1>   0.0360 
 27 H       -3.6230     0.1890    -0.0790 H     1 <1>   0.0360 
 28 H       -3.9420    -0.9770    -1.3380 H     1 <1>   0.0360 
 29 H        2.8550     0.5770    -0.9800 H     1 <1>   0.1080 
 30 H        4.2510    -2.6570     1.4110 H     1 <1>   0.1080 
 31 H       -6.7130    -3.6610     0.1080 H     1 <1>   0.0360 
 32 H       -6.4080    -2.5420     1.4050 H     1 <1>   0.0360 
 33 H       -5.9040    -0.0060     0.7450 H     1 <1>   0.0360 
 34 H       -5.9120     0.3950    -0.9500 H     1 <1>   0.0360 
 35 H       -7.5560    -1.3810    -0.4010 H     1 <1>   0.0360 
 36 H       -6.3700    -1.9160    -1.5530 H     1 <1>   0.0360 
 37 H        5.1820     0.5120    -0.1890 H     1 <1>   0.0360 
 38 H        5.5190    -1.0370    -0.9300 H     1 <1>   0.0360 
 39 H        5.7540    -0.8140     0.7890 H     1 <1>   0.0360 
@<TRIPOS>BOND
  1   1   2  2   
  2   2   3  2   
  3   2  19  1   
  4   3   4  1   
  5   3   5  1   
  6   4   6  1   
  7   4  20  1   
  8   5   7  1   
  9   5  21  1   
 10   6   8  ar  
 11   6   9  ar  
 12   7  10  1   
 13   7  11  1   
 14   7  22  1   
 15   8  12  ar  
 16   8  23  1   
 17   9  13  ar  
 18   9  24  1   
 19  10  14  1   
 20  10  25  1   
 21  10  26  1   
 22  11  15  1   
 23  11  27  1   
 24  11  28  1   
 25  12  16  ar  
 26  12  29  1   
 27  13  16  ar  
 28  13  30  1   
 29  14  17  1   
 30  14  31  1   
 31  14  32  1   
 32  15  17  1   
 33  15  33  1   
 34  15  34  1   
 35  16  18  1   
 36  17  35  1   
 37  17  36  1   
 38  18  37  1   
 39  18  38  1   
 40  18  39  1   
@<TRIPOS>SUBSTRUCTURE
  1 ****   3 GROUP 4 **** **** 0

# MOE 2024.06 (io_trps.svl 2023.06)
