@<TRIPOS>MOLECULE
NONAME
49 51 1 0 0 
SMALL
USER_CHARGES


@<TRIPOS>ATOM
  1 S       -0.1070     0.4230    -0.5450 S.o2  1 <1>   1.4470 
  2 O       -0.5680     0.8740     0.7480 O.2   1 <1>  -0.6500 
  3 O       -0.3330     1.2370    -1.7160 O.2   1 <1>  -0.6500 
  4 N        1.5810     0.2960    -0.3900 N.am  1 <1>  -0.8490 
  5 C       -0.6450    -1.2840    -0.8560 C.ar  1 <1>  -0.0090 
  6 C        2.2140     1.6310    -0.5020 C.3   1 <1>   0.1960 
  7 C        1.9950    -0.3580     0.8750 C.3   1 <1>   0.1960 
  8 C       -0.9610    -2.1350     0.1970 C.ar  1 <1>  -0.1500 
  9 C       -0.7220    -1.7950    -2.1450 C.ar  1 <1>  -0.1500 
 10 C        3.7560     1.5870    -0.3530 C.3   1 <1>   0.3430 
 11 C        3.5340    -0.4780     1.0090 C.3   1 <1>   0.3430 
 12 C       -1.3250    -3.4620     0.0040 C.ar  1 <1>  -0.0090 
 13 C       -1.0960    -3.1080    -2.3690 C.ar  1 <1>  -0.1500 
 14 N        4.2550     0.1870    -0.1350 N.4   1 <1>  -0.9590 
 15 S       -1.7010    -4.5230     1.4220 S.o2  1 <1>   1.2040 
 16 C       -1.3920    -3.9330    -1.2990 C.ar  1 <1>  -0.1500 
 17 C        5.7350     0.0720    -0.0490 C.3   1 <1>   0.4860 
 18 O       -1.7110    -5.9060     1.0040 O.2   1 <1>  -0.6500 
 19 O       -0.8620    -4.1000     2.5220 O.2   1 <1>  -0.6500 
 20 C       -3.3790    -4.0670     1.8140 C.3   1 <1>  -0.1350 
 21 C        6.0960    -1.3990     0.0150 C.ar  1 <1>  -0.1430 
 22 C        5.9700    -2.2020    -1.1110 C.ar  1 <1>  -0.1500 
 23 C        6.5420    -1.9560     1.2050 C.ar  1 <1>  -0.1500 
 24 C        6.2730    -3.5500    -1.0410 C.ar  1 <1>  -0.1500 
 25 C        6.8460    -3.3050     1.2710 C.ar  1 <1>  -0.1500 
 26 C        6.7080    -4.1020     0.1490 C.ar  1 <1>  -0.1500 
 27 H        1.8050     2.2930     0.2440 H     1 <1>   0.0800 
 28 H        1.9820     2.0600    -1.4640 H     1 <1>   0.0800 
 29 H        1.5750    -1.3480     0.9290 H     1 <1>   0.0800 
 30 H        1.6190     0.1950     1.7200 H     1 <1>   0.0800 
 31 H       -0.9160    -1.7550     1.2050 H     1 <1>   0.1500 
 32 H       -0.4890    -1.1600    -2.9840 H     1 <1>   0.1500 
 33 H        4.0430     2.2130     0.4760 H     1 <1>   0.0800 
 34 H        4.2010     2.0010    -1.2430 H     1 <1>   0.0800 
 35 H        3.7960    -1.5240     1.0440 H     1 <1>   0.0800 
 36 H        3.8400    -0.0390     1.9450 H     1 <1>   0.0800 
 37 H       -1.1530    -3.4890    -3.3750 H     1 <1>   0.1500 
 38 H        3.9490    -0.3480    -0.9610 H     1 <1>   0.4500 
 39 H       -1.6720    -4.9590    -1.4820 H     1 <1>   0.1500 
 40 H        6.1000     0.5780     0.8290 H     1 <1>   0.0800 
 41 H        6.1950     0.5150    -0.9180 H     1 <1>   0.0800 
 42 H       -4.0270    -4.2750     0.9850 H     1 <1>   0.0800 
 43 H       -3.4400    -3.0230     2.0510 H     1 <1>   0.0800 
 44 H       -3.7210    -4.6290     2.6620 H     1 <1>   0.0800 
 45 H        5.6400    -1.7960    -2.0520 H     1 <1>   0.1500 
 46 H        6.6630    -1.3560     2.0910 H     1 <1>   0.1500 
 47 H        6.1740    -4.1740    -1.9140 H     1 <1>   0.1500 
 48 H        7.1940    -3.7390     2.1940 H     1 <1>   0.1500 
 49 H        6.9450    -5.1510     0.2020 H     1 <1>   0.1500 
@<TRIPOS>BOND
  1   1   2  2   
  2   1   3  2   
  3   1   4  am  
  4   1   5  1   
  5   4   6  1   
  6   4   7  1   
  7   5   8  ar  
  8   5   9  ar  
  9   6  10  1   
 10   6  27  1   
 11   6  28  1   
 12   7  11  1   
 13   7  29  1   
 14   7  30  1   
 15   8  12  ar  
 16   8  31  1   
 17   9  13  ar  
 18   9  32  1   
 19  10  14  1   
 20  10  33  1   
 21  10  34  1   
 22  11  14  1   
 23  11  35  1   
 24  11  36  1   
 25  12  15  1   
 26  12  16  ar  
 27  13  16  ar  
 28  13  37  1   
 29  14  17  1   
 30  14  38  1   
 31  15  18  2   
 32  15  19  2   
 33  15  20  1   
 34  16  39  1   
 35  17  21  1   
 36  17  40  1   
 37  17  41  1   
 38  20  42  1   
 39  20  43  1   
 40  20  44  1   
 41  21  22  ar  
 42  21  23  ar  
 43  22  24  ar  
 44  22  45  1   
 45  23  25  ar  
 46  23  46  1   
 47  24  26  ar  
 48  24  47  1   
 49  25  26  ar  
 50  25  48  1   
 51  26  49  1   
@<TRIPOS>SUBSTRUCTURE
  1 ****   7 GROUP 4 **** **** 0

# MOE 2024.06 (io_trps.svl 2023.06)
