@<TRIPOS>MOLECULE
NONAME
31 31 1 0 0 
SMALL
USER_CHARGES


@<TRIPOS>ATOM
  1 CL      -0.1490    -0.1720     0.0140 Cl    1 <1>  -0.1770 
  2 C        1.4600    -0.8710     0.0010 C.ar  1 <1>   0.1770 
  3 C        1.5970    -2.2510    -0.0640 C.ar  1 <1>  -0.1440 
  4 C        2.5650    -0.0300     0.0570 C.ar  1 <1>  -0.1440 
  5 C        2.8730    -2.7910    -0.0740 C.ar  1 <1>  -0.1500 
  6 C        0.3810    -3.1630    -0.1250 C.3   1 <1>  -0.0960 
  7 C        3.8330    -0.5900     0.0460 C.ar  1 <1>  -0.1500 
  8 C        2.3930     1.4810     0.1280 C.3   1 <1>  -0.0960 
  9 C        3.9910    -1.9730    -0.0200 C.ar  1 <1>   0.0820 
 10 O        5.1960    -2.5960    -0.0340 O.3   1 <1>  -0.3630 
 11 C        6.3990    -1.8720     0.0170 C.3   1 <1>   0.1200 
 12 C        7.5380    -2.8940    -0.0190 C.3   1 <1>   0.3430 
 13 N        8.8820    -2.2390     0.0310 N.4   1 <1>  -0.9060 
 14 C        9.9890    -3.2420    -0.0040 C.3   1 <1>   0.2630 
 15 H        3.0110    -3.8560    -0.1240 H     1 <1>   0.1500 
 16 H       -0.2060    -2.9350    -0.9970 H     1 <1>   0.0800 
 17 H       -0.2290    -3.0210     0.7500 H     1 <1>   0.0800 
 18 H        0.6730    -4.1970    -0.1710 H     1 <1>   0.0800 
 19 H        4.6810     0.0650     0.0890 H     1 <1>   0.1500 
 20 H        1.8350     1.7450     1.0090 H     1 <1>   0.0800 
 21 H        1.8580     1.8300    -0.7370 H     1 <1>   0.0800 
 22 H        3.3430     1.9820     0.1650 H     1 <1>   0.0800 
 23 H        6.4100    -1.3090     0.9330 H     1 <1>   0.0800 
 24 H        6.4330    -1.2230    -0.8410 H     1 <1>   0.0800 
 25 H        7.4510    -3.4740    -0.9240 H     1 <1>   0.0800 
 26 H        7.4280    -3.5590     0.8230 H     1 <1>   0.0800 
 27 H        8.9620    -1.6740     0.8880 H     1 <1>   0.4500 
 28 H        8.9830    -1.5930    -0.7650 H     1 <1>   0.4500 
 29 H        9.9180    -3.9100     0.8400 H     1 <1>   0.0800 
 30 H       10.9460    -2.7450     0.0330 H     1 <1>   0.0800 
 31 H        9.9410    -3.8250    -0.9100 H     1 <1>   0.0800 
@<TRIPOS>BOND
  1   1   2  1   
  2   2   3  ar  
  3   2   4  ar  
  4   3   5  ar  
  5   3   6  1   
  6   4   7  ar  
  7   4   8  1   
  8   5   9  ar  
  9   5  15  1   
 10   6  16  1   
 11   6  17  1   
 12   6  18  1   
 13   7   9  ar  
 14   7  19  1   
 15   8  20  1   
 16   8  21  1   
 17   8  22  1   
 18   9  10  1   
 19  10  11  1   
 20  11  12  1   
 21  11  23  1   
 22  11  24  1   
 23  12  13  1   
 24  12  25  1   
 25  12  26  1   
 26  13  14  1   
 27  13  27  1   
 28  13  28  1   
 29  14  29  1   
 30  14  30  1   
 31  14  31  1   
@<TRIPOS>SUBSTRUCTURE
  1 ****   9 GROUP 4 **** **** 0

# MOE 2024.06 (io_trps.svl 2023.06)
