@<TRIPOS>MOLECULE
NONAME
46 47 1 0 0 
SMALL
USER_CHARGES


@<TRIPOS>ATOM
  1 O       -0.1960     0.0260     0.8000 O.2   1 <1>  -0.5700 
  2 C       -0.1220    -0.9040     0.0170 C.2   1 <1>   0.6900 
  3 N       -1.2640    -1.4530    -0.5150 N.am  1 <1>  -0.6600 
  4 N        1.0840    -1.4130    -0.3250 N.am  1 <1>  -0.7300 
  5 C       -2.5710    -1.0930     0.0930 C.3   1 <1>   0.2200 
  6 C       -1.2490    -2.2390    -1.7870 C.3   1 <1>   0.0600 
  7 C        2.3850    -0.9390     0.1700 C.3   1 <1>   0.2200 
  8 C       -3.5460    -2.2710     0.1400 C.3   1 <1>  -0.1600 
  9 C       -3.1870     0.0960    -0.6430 C.3   1 <1>  -0.1600 
 10 C        3.2990    -0.6650    -1.0290 C.3   1 <1>  -0.1600 
 11 C        2.9830    -2.0040     1.0940 C.3   1 <1>  -0.1600 
 12 C       -4.8470    -1.8310     0.8060 C.3   1 <1>   0.3430 
 13 C       -4.4920     0.5020     0.0310 C.3   1 <1>   0.3430 
 14 C        4.7100    -0.2680    -0.5720 C.3   1 <1>  -0.1600 
 15 C        4.3940    -1.6090     1.5550 C.3   1 <1>  -0.1600 
 16 N       -5.4280    -0.6640     0.0740 N.4   1 <1>  -0.9590 
 17 C        5.3130    -1.3310     0.3570 C.3   1 <1>  -0.1600 
 18 C       -6.7370    -0.2630     0.6730 C.3   1 <1>   0.2630 
 19 H        1.1030    -2.2810    -0.8500 H     1 <1>   0.3700 
 20 H       -2.3940    -0.7940     1.1150 H     1 <1>   0.0800 
 21 H       -0.3500    -2.0430    -2.3450 H     1 <1>   0.0800 
 22 H       -2.0840    -1.9670    -2.4070 H     1 <1>   0.0800 
 23 H       -1.3010    -3.2910    -1.5650 H     1 <1>   0.0800 
 24 H        2.2540    -0.0240     0.7250 H     1 <1>   0.0800 
 25 H       -3.1100    -3.0680     0.7160 H     1 <1>   0.0800 
 26 H       -3.7640    -2.6410    -0.8450 H     1 <1>   0.0800 
 27 H       -3.3670    -0.1400    -1.6760 H     1 <1>   0.0800 
 28 H       -2.5030     0.9260    -0.6010 H     1 <1>   0.0800 
 29 H        2.8800     0.1300    -1.6200 H     1 <1>   0.0800 
 30 H        3.3660    -1.5480    -1.6410 H     1 <1>   0.0800 
 31 H        3.0350    -2.9450     0.5760 H     1 <1>   0.0800 
 32 H        2.3490    -2.1210     1.9550 H     1 <1>   0.0800 
 33 H       -4.6490    -1.5560     1.8300 H     1 <1>   0.0800 
 34 H       -5.5460    -2.6530     0.8070 H     1 <1>   0.0800 
 35 H       -4.9380     1.3180    -0.5150 H     1 <1>   0.0800 
 36 H       -4.2830     0.8410     1.0340 H     1 <1>   0.0800 
 37 H        4.6630     0.6740    -0.0510 H     1 <1>   0.0800 
 38 H        5.3450    -0.1370    -1.4310 H     1 <1>   0.0800 
 39 H        4.8120    -2.3990     2.1560 H     1 <1>   0.0800 
 40 H        4.3330    -0.7260     2.1690 H     1 <1>   0.0800 
 41 H       -5.5930    -0.9590    -0.8990 H     1 <1>   0.4500 
 42 H        6.2740    -0.9980     0.7100 H     1 <1>   0.0800 
 43 H        5.4630    -2.2430    -0.1950 H     1 <1>   0.0800 
 44 H       -6.6010     0.0560     1.6940 H     1 <1>   0.0800 
 45 H       -7.4260    -1.0930     0.6590 H     1 <1>   0.0800 
 46 H       -7.1720     0.5510     0.1130 H     1 <1>   0.0800 
@<TRIPOS>BOND
  1   1   2  2   
  2   2   3  am  
  3   2   4  am  
  4   3   5  1   
  5   3   6  1   
  6   4   7  1   
  7   4  19  1   
  8   5   8  1   
  9   5   9  1   
 10   5  20  1   
 11   6  21  1   
 12   6  22  1   
 13   6  23  1   
 14   7  10  1   
 15   7  11  1   
 16   7  24  1   
 17   8  12  1   
 18   8  25  1   
 19   8  26  1   
 20   9  13  1   
 21   9  27  1   
 22   9  28  1   
 23  10  14  1   
 24  10  29  1   
 25  10  30  1   
 26  11  15  1   
 27  11  31  1   
 28  11  32  1   
 29  12  16  1   
 30  12  33  1   
 31  12  34  1   
 32  13  16  1   
 33  13  35  1   
 34  13  36  1   
 35  14  17  1   
 36  14  37  1   
 37  14  38  1   
 38  15  17  1   
 39  15  39  1   
 40  15  40  1   
 41  16  18  1   
 42  16  41  1   
 43  17  42  1   
 44  17  43  1   
 45  18  44  1   
 46  18  45  1   
 47  18  46  1   
@<TRIPOS>SUBSTRUCTURE
  1 ****   2 GROUP 4 **** **** 0

# MOE 2024.06 (io_trps.svl 2023.06)
