@<TRIPOS>MOLECULE
NONAME
52 54 1 0 0 
SMALL
USER_CHARGES


@<TRIPOS>ATOM
  1 CL       0.1970     1.5140     0.6560 Cl    1 <1>  -0.1770 
  2 C       -0.9860     0.3910     0.0320 C.ar  1 <1>   0.1770 
  3 C       -0.8540    -0.9670     0.2980 C.ar  1 <1>  -0.1440 
  4 C       -2.0280     0.8870    -0.7270 C.ar  1 <1>  -0.1500 
  5 C       -1.8010    -1.8510    -0.2110 C.ar  1 <1>  -0.1500 
  6 C        0.3010    -1.4770     1.1410 C.3   1 <1>   0.4870 
  7 C       -2.9470    -0.0160    -1.2200 C.ar  1 <1>   0.1900 
  8 C       -2.8540    -1.3740    -0.9760 C.ar  1 <1>  -0.1500 
  9 N        1.3480    -2.0440     0.2470 N.4   1 <1>  -0.9590 
 10 F       -3.9380     0.4270    -1.9420 F     1 <1>  -0.1900 
 11 C        2.3390    -2.8520     1.0480 C.3   1 <1>   0.3430 
 12 C        2.0360    -0.9510    -0.5390 C.3   1 <1>   0.3430 
 13 C        3.5040    -3.3740     0.1800 C.3   1 <1>   0.1400 
 14 C        3.2000    -1.4830    -1.4010 C.3   1 <1>   0.1400 
 15 N        4.1540    -2.2470    -0.5500 N.am  1 <1>  -0.6600 
 16 C        5.0830    -1.5160     0.1290 C.2   1 <1>   0.6900 
 17 O        4.8920    -1.2800     1.3060 O.2   1 <1>  -0.5700 
 18 N        6.1560    -1.0500    -0.5630 N.am  1 <1>  -0.5470 
 19 C        7.1950    -0.1810    -0.1900 C.ar  1 <1>   0.1170 
 20 C        8.3910    -0.2300    -0.8950 C.ar  1 <1>  -0.1500 
 21 C        7.0690     0.7430     0.8410 C.ar  1 <1>  -0.1500 
 22 C        9.4470     0.6190    -0.5810 C.ar  1 <1>   0.0830 
 23 C        8.1090     1.5940     1.1660 C.ar  1 <1>  -0.1500 
 24 O       10.6340     0.5900    -1.2540 O.3   1 <1>  -0.3620 
 25 C        9.3070     1.5410     0.4600 C.ar  1 <1>   0.0830 
 26 C       10.9270    -0.4050    -2.2090 C.3   1 <1>   0.0400 
 27 O       10.3650     2.3610     0.7420 O.3   1 <1>  -0.3630 
 28 C       10.3270     3.2580     1.8280 C.3   1 <1>   0.0400 
 29 H       -2.1260     1.9390    -0.9280 H     1 <1>   0.1500 
 30 H       -1.7410    -2.9090    -0.0150 H     1 <1>   0.1500 
 31 H       -0.0660    -2.2410     1.8070 H     1 <1>   0.0800 
 32 H        0.7130    -0.6810     1.7410 H     1 <1>   0.0800 
 33 H       -3.6000    -2.0390    -1.3790 H     1 <1>   0.1500 
 34 H        0.8800    -2.6660    -0.4220 H     1 <1>   0.4500 
 35 H        1.8450    -3.6880     1.5160 H     1 <1>   0.0800 
 36 H        2.7590    -2.2380     1.8290 H     1 <1>   0.0800 
 37 H        2.4340    -0.2160     0.1420 H     1 <1>   0.0800 
 38 H        1.3240    -0.4540    -1.1780 H     1 <1>   0.0800 
 39 H        3.1490    -4.1070    -0.5230 H     1 <1>   0.0800 
 40 H        4.2310    -3.8530     0.8160 H     1 <1>   0.0800 
 41 H        3.7080    -0.6520    -1.8610 H     1 <1>   0.0800 
 42 H        2.8250    -2.1170    -2.1860 H     1 <1>   0.0800 
 43 H        6.2720    -1.5050    -1.4640 H     1 <1>   0.3700 
 44 H        8.4820    -0.9410    -1.6900 H     1 <1>   0.1500 
 45 H        6.1540     0.8070     1.4000 H     1 <1>   0.1500 
 46 H        7.9640     2.2890     1.9700 H     1 <1>   0.1500 
 47 H       11.9370    -0.2540    -2.5450 H     1 <1>   0.0800 
 48 H       10.2500    -0.3040    -3.0370 H     1 <1>   0.0800 
 49 H       10.8380    -1.3710    -1.7450 H     1 <1>   0.0800 
 50 H       11.2740     3.7650     1.8720 H     1 <1>   0.0800 
 51 H       10.1680     2.7020     2.7350 H     1 <1>   0.0800 
 52 H        9.5390     3.9710     1.6650 H     1 <1>   0.0800 
@<TRIPOS>BOND
  1   1   2  1   
  2   2   3  ar  
  3   2   4  ar  
  4   3   5  ar  
  5   3   6  1   
  6   4   7  ar  
  7   4  29  1   
  8   5   8  ar  
  9   5  30  1   
 10   6   9  1   
 11   6  31  1   
 12   6  32  1   
 13   7   8  ar  
 14   7  10  1   
 15   8  33  1   
 16   9  11  1   
 17   9  12  1   
 18   9  34  1   
 19  11  13  1   
 20  11  35  1   
 21  11  36  1   
 22  12  14  1   
 23  12  37  1   
 24  12  38  1   
 25  13  15  1   
 26  13  39  1   
 27  13  40  1   
 28  14  15  1   
 29  14  41  1   
 30  14  42  1   
 31  15  16  am  
 32  16  17  2   
 33  16  18  am  
 34  18  19  1   
 35  18  43  1   
 36  19  20  ar  
 37  19  21  ar  
 38  20  22  ar  
 39  20  44  1   
 40  21  23  ar  
 41  21  45  1   
 42  22  24  1   
 43  22  25  ar  
 44  23  25  ar  
 45  23  46  1   
 46  24  26  1   
 47  25  27  1   
 48  26  47  1   
 49  26  48  1   
 50  26  49  1   
 51  27  28  1   
 52  28  50  1   
 53  28  51  1   
 54  28  52  1   
@<TRIPOS>SUBSTRUCTURE
  1 ****  16 GROUP 4 **** **** 0

# MOE 2024.06 (io_trps.svl 2023.06)
