@<TRIPOS>MOLECULE
NONAME
36 38 1 0 0 
SMALL
USER_CHARGES


@<TRIPOS>ATOM
  1 CL      -0.1120    -0.2470     0.2920 Cl    1 <1>  -0.1770 
  2 C       -0.8220     1.3330     0.4960 C.ar  1 <1>   0.1770 
  3 C       -2.1280     1.5400     0.1000 C.ar  1 <1>  -0.1500 
  4 C       -0.0660     2.3480     1.0490 C.ar  1 <1>  -0.1500 
  5 C       -2.7230     2.7900     0.2620 C.ar  1 <1>   0.0530 
  6 C       -0.6370     3.6000     1.2040 C.ar  1 <1>  -0.1500 
  7 C       -4.0910     3.0380    -0.1230 C.2   1 <1>   0.1330 
  8 C       -1.9470     3.8120     0.8110 C.ar  1 <1>  -0.1500 
  9 N       -4.4810     4.0200    -0.8910 N.2   1 <1>  -0.3380 
 10 N       -5.1490     2.2990     0.2680 N.pl3 1 <1>   0.0480 
 11 N       -5.8030     3.9350    -1.0290 N.2   1 <1>  -0.3380 
 12 C       -6.1600     2.9140    -0.3350 C.2   1 <1>   0.2430 
 13 C       -5.1950     1.1340     1.1770 C.3   1 <1>   0.0160 
 14 S       -7.8630     2.3690    -0.1880 S.3   1 <1>  -0.2860 
 15 C       -8.7730     3.5870    -1.2640 C.3   1 <1>   0.1310 
 16 C      -10.2730     3.3300    -1.2760 C.2   1 <1>   0.5690 
 17 O      -10.9440     3.9230    -2.0870 O.2   1 <1>  -0.5700 
 18 N      -10.8160     2.4580    -0.3830 N.am  1 <1>  -0.5790 
 19 C      -12.2390     2.1120    -0.2690 C.3   1 <1>   0.0490 
 20 C      -12.7800     1.8160     1.0900 C.3   1 <1>  -0.2000 
 21 C      -12.5910     0.7090     0.0960 C.3   1 <1>  -0.2000 
 22 H       -2.6770     0.7300    -0.3430 H     1 <1>   0.1500 
 23 H        0.9500     2.1610     1.3480 H     1 <1>   0.1500 
 24 H       -0.0620     4.4070     1.6260 H     1 <1>   0.1500 
 25 H       -2.3860     4.7890     0.9260 H     1 <1>   0.1500 
 26 H       -6.1160     1.1430     1.7310 H     1 <1>   0.0800 
 27 H       -5.1340     0.2290     0.6000 H     1 <1>   0.0800 
 28 H       -4.3730     1.1780     1.8680 H     1 <1>   0.0800 
 29 H       -8.3720     3.4960    -2.2570 H     1 <1>   0.0800 
 30 H       -8.5680     4.5690    -0.8810 H     1 <1>   0.0800 
 31 H      -10.1920     1.9710     0.2620 H     1 <1>   0.3700 
 32 H      -12.8650     2.6380    -0.9740 H     1 <1>   0.1000 
 33 H      -13.7840     2.1250     1.3210 H     1 <1>   0.1000 
 34 H      -12.1220     1.8790     1.9380 H     1 <1>   0.1000 
 35 H      -11.7990    -0.0030     0.2470 H     1 <1>   0.1000 
 36 H      -13.4670     0.2680    -0.3470 H     1 <1>   0.1000 
@<TRIPOS>BOND
  1   1   2  1   
  2   2   3  ar  
  3   2   4  ar  
  4   3   5  ar  
  5   3  22  1   
  6   4   6  ar  
  7   4  23  1   
  8   5   7  1   
  9   5   8  ar  
 10   6   8  ar  
 11   6  24  1   
 12   7   9  2   
 13   7  10  1   
 14   8  25  1   
 15   9  11  1   
 16  10  12  1   
 17  10  13  1   
 18  11  12  2   
 19  12  14  1   
 20  13  26  1   
 21  13  27  1   
 22  13  28  1   
 23  14  15  1   
 24  15  16  1   
 25  15  29  1   
 26  15  30  1   
 27  16  17  2   
 28  16  18  am  
 29  18  19  1   
 30  18  31  1   
 31  19  20  1   
 32  19  21  1   
 33  19  32  1   
 34  20  21  1   
 35  20  33  1   
 36  20  34  1   
 37  21  35  1   
 38  21  36  1   
@<TRIPOS>SUBSTRUCTURE
  1 ****  12 GROUP 4 **** **** 0

# MOE 2024.06 (io_trps.svl 2023.06)
