@<TRIPOS>MOLECULE
NONAME
48 50 1 0 0 
SMALL
USER_CHARGES


@<TRIPOS>ATOM
  1 CL      -0.6750     0.6790    -0.5430 Cl    1 <1>  -0.1770 
  2 C       -2.2620     0.2840     0.0730 C.ar  1 <1>   0.1770 
  3 C       -2.9660     1.2100     0.8290 C.ar  1 <1>  -0.1440 
  4 C       -2.7840    -0.9600    -0.2160 C.ar  1 <1>  -0.1500 
  5 C       -4.2190     0.8530     1.2980 C.ar  1 <1>  -0.1500 
  6 C       -2.3840     2.5810     1.1430 C.3   1 <1>  -0.0960 
  7 C       -4.0480    -1.3300     0.2420 C.ar  1 <1>   0.0860 
  8 C       -4.7460    -0.3940     1.0110 C.ar  1 <1>  -0.1500 
  9 C       -4.6020    -2.6340    -0.0790 C.2   1 <1>   0.5440 
 10 O       -3.8670    -3.5720    -0.3170 O.2   1 <1>  -0.5700 
 11 N       -5.9620    -2.7890    -0.1350 N.am  1 <1>  -0.5470 
 12 C       -6.8270    -3.8630    -0.3940 C.ar  1 <1>   0.1170 
 13 C       -8.1830    -3.5360    -0.5440 C.ar  1 <1>   0.1000 
 14 C       -6.4240    -5.1860    -0.5000 C.ar  1 <1>  -0.1500 
 15 N       -8.5970    -2.1940    -0.4320 N.pl3 1 <1>  -0.8380 
 16 C       -9.0970    -4.5490    -0.8100 C.ar  1 <1>  -0.1500 
 17 C       -7.3480    -6.1850    -0.7600 C.ar  1 <1>  -0.1500 
 18 C       -9.6400    -1.9050     0.5980 C.3   1 <1>   0.2090 
 19 C       -8.8980    -1.5190    -1.7320 C.3   1 <1>   0.2090 
 20 C       -8.6840    -5.8660    -0.9160 C.ar  1 <1>  -0.1500 
 21 C       -9.7920    -0.3890     0.8170 C.3   1 <1>   0.1400 
 22 C       -9.0390     0.0000    -1.5430 C.3   1 <1>   0.1400 
 23 N      -10.0400     0.3290    -0.4760 N.am  1 <1>  -0.6600 
 24 C      -11.0890     1.1720    -0.7300 C.2   1 <1>   0.5690 
 25 O      -11.2620     1.6700    -1.8150 O.2   1 <1>  -0.5700 
 26 C      -12.0830     1.5150     0.3550 C.3   1 <1>  -0.1790 
 27 H       -2.2060    -1.6520    -0.8030 H     1 <1>   0.1500 
 28 H       -4.7900     1.5460     1.8940 H     1 <1>   0.1500 
 29 H       -1.4580     2.4720     1.6790 H     1 <1>   0.0800 
 30 H       -3.0590     3.1610     1.7440 H     1 <1>   0.0800 
 31 H       -2.1940     3.1160     0.2300 H     1 <1>   0.0800 
 32 H       -5.7170    -0.6450     1.4020 H     1 <1>   0.1500 
 33 H       -6.5220    -1.9360    -0.0640 H     1 <1>   0.3700 
 34 H       -5.3890    -5.4470    -0.3800 H     1 <1>   0.1500 
 35 H      -10.1350    -4.3070    -0.9380 H     1 <1>   0.1500 
 36 H       -7.0220    -7.2070    -0.8400 H     1 <1>   0.1500 
 37 H       -9.3640    -2.3780     1.5240 H     1 <1>   0.0800 
 38 H      -10.5850    -2.3110     0.2820 H     1 <1>   0.0800 
 39 H       -9.8120    -1.9120    -2.1430 H     1 <1>   0.0800 
 40 H       -8.1050    -1.7210    -2.4320 H     1 <1>   0.0800 
 41 H       -9.4020    -6.6410    -1.1210 H     1 <1>   0.1500 
 42 H       -8.8860    -0.0100     1.2570 H     1 <1>   0.0800 
 43 H      -10.5910    -0.2190     1.5140 H     1 <1>   0.0800 
 44 H       -9.3240     0.4420    -2.4810 H     1 <1>   0.0800 
 45 H       -8.0840     0.4100    -1.2660 H     1 <1>   0.0800 
 46 H      -12.6230     0.6350     0.6470 H     1 <1>   0.0800 
 47 H      -12.7840     2.2410    -0.0160 H     1 <1>   0.0800 
 48 H      -11.5730     1.9340     1.2010 H     1 <1>   0.0800 
@<TRIPOS>BOND
  1   1   2  1   
  2   2   3  ar  
  3   2   4  ar  
  4   3   5  ar  
  5   3   6  1   
  6   4   7  ar  
  7   4  27  1   
  8   5   8  ar  
  9   5  28  1   
 10   6  29  1   
 11   6  30  1   
 12   6  31  1   
 13   7   8  ar  
 14   7   9  1   
 15   8  32  1   
 16   9  10  2   
 17   9  11  am  
 18  11  12  1   
 19  11  33  1   
 20  12  13  ar  
 21  12  14  ar  
 22  13  15  1   
 23  13  16  ar  
 24  14  17  ar  
 25  14  34  1   
 26  15  18  1   
 27  15  19  1   
 28  16  20  ar  
 29  16  35  1   
 30  17  20  ar  
 31  17  36  1   
 32  18  21  1   
 33  18  37  1   
 34  18  38  1   
 35  19  22  1   
 36  19  39  1   
 37  19  40  1   
 38  20  41  1   
 39  21  23  1   
 40  21  42  1   
 41  21  43  1   
 42  22  23  1   
 43  22  44  1   
 44  22  45  1   
 45  23  24  am  
 46  24  25  2   
 47  24  26  1   
 48  26  46  1   
 49  26  47  1   
 50  26  48  1   
@<TRIPOS>SUBSTRUCTURE
  1 ****  11 GROUP 4 **** **** 0

# MOE 2024.06 (io_trps.svl 2023.06)
