@<TRIPOS>MOLECULE
NONAME
45 46 1 0 0 
SMALL
USER_CHARGES


@<TRIPOS>ATOM
  1 O       -1.0070    -1.0010     1.2630 O.2   1 <1>  -0.5700 
  2 C       -0.7270    -2.0290     0.6850 C.2   1 <1>   0.7800 
  3 O        0.3690    -2.6810     1.0530 O.3   1 <1>  -0.4300 
  4 N       -1.5380    -2.5670    -0.2850 N.am  1 <1>  -0.6600 
  5 C        1.4120    -2.8530     0.1230 C.3   1 <1>   0.1200 
  6 C       -1.7030    -4.0290    -0.4380 C.3   1 <1>   0.1400 
  7 C       -2.6180    -1.7520    -0.8850 C.3   1 <1>   0.1400 
  8 C        2.4600    -3.7620     0.7550 C.3   1 <1>  -0.2400 
  9 C       -2.9960    -4.4330     0.2750 C.3   1 <1>  -0.1600 
 10 C       -3.9290    -2.1020    -0.1800 C.3   1 <1>  -0.1600 
 11 C       -4.1940    -3.6140    -0.2230 C.3   1 <1>   0.4230 
 12 N       -5.3520    -3.9400     0.6370 N.4   1 <1>  -0.9060 
 13 C       -6.6540    -3.4390     0.1120 C.3   1 <1>   0.3430 
 14 C       -7.8030    -3.8330     1.0370 C.3   1 <1>  -0.0170 
 15 C       -9.0910    -3.2910     0.4510 C.ar  1 <1>  -0.1440 
 16 C       -9.8150    -4.0430    -0.4620 C.ar  1 <1>  -0.1500 
 17 C       -9.5480    -2.0320     0.8120 C.ar  1 <1>  -0.1500 
 18 C      -10.9790    -3.5380    -1.0140 C.ar  1 <1>  -0.1500 
 19 C      -10.7130    -1.5280     0.2600 C.ar  1 <1>  -0.1500 
 20 C      -11.4280    -2.2800    -0.6550 C.ar  1 <1>  -0.1500 
 21 H        1.8280    -1.8830    -0.0960 H     1 <1>   0.0800 
 22 H        1.0190    -3.2890    -0.7780 H     1 <1>   0.0800 
 23 H       -0.8690    -4.5550    -0.0020 H     1 <1>   0.0800 
 24 H       -1.7450    -4.2770    -1.4860 H     1 <1>   0.0800 
 25 H       -2.6800    -1.9620    -1.9400 H     1 <1>   0.0800 
 26 H       -2.4020    -0.7020    -0.7670 H     1 <1>   0.0800 
 27 H        2.8400    -3.3150     1.6570 H     1 <1>   0.0800 
 28 H        3.2790    -3.9030     0.0730 H     1 <1>   0.0800 
 29 H        2.0340    -4.7220     0.9840 H     1 <1>   0.0800 
 30 H       -2.8490    -4.2790     1.3300 H     1 <1>   0.0800 
 31 H       -3.1670    -5.4800     0.1020 H     1 <1>   0.0800 
 32 H       -4.7210    -1.5630    -0.6660 H     1 <1>   0.0800 
 33 H       -3.8560    -1.7600     0.8380 H     1 <1>   0.0800 
 34 H       -4.4010    -3.9010    -1.2420 H     1 <1>   0.0800 
 35 H       -5.1770    -3.5420     1.5680 H     1 <1>   0.4500 
 36 H       -5.4010    -4.9590     0.7550 H     1 <1>   0.4500 
 37 H       -6.8390    -3.8470    -0.8690 H     1 <1>   0.0800 
 38 H       -6.6320    -2.3650     0.0260 H     1 <1>   0.0800 
 39 H       -7.6560    -3.4190     2.0190 H     1 <1>   0.0800 
 40 H       -7.8730    -4.9040     1.1190 H     1 <1>   0.0800 
 41 H       -9.4890    -5.0270    -0.7530 H     1 <1>   0.1500 
 42 H       -9.0130    -1.4300     1.5260 H     1 <1>   0.1500 
 43 H      -11.5400    -4.1240    -1.7220 H     1 <1>   0.1500 
 44 H      -11.0680    -0.5520     0.5420 H     1 <1>   0.1500 
 45 H      -12.3340    -1.8890    -1.0840 H     1 <1>   0.1500 
@<TRIPOS>BOND
  1   1   2  2   
  2   2   3  1   
  3   2   4  am  
  4   3   5  1   
  5   4   6  1   
  6   4   7  1   
  7   5   8  1   
  8   5  21  1   
  9   5  22  1   
 10   6   9  1   
 11   6  23  1   
 12   6  24  1   
 13   7  10  1   
 14   7  25  1   
 15   7  26  1   
 16   8  27  1   
 17   8  28  1   
 18   8  29  1   
 19   9  11  1   
 20   9  30  1   
 21   9  31  1   
 22  10  11  1   
 23  10  32  1   
 24  10  33  1   
 25  11  12  1   
 26  11  34  1   
 27  12  13  1   
 28  12  35  1   
 29  12  36  1   
 30  13  14  1   
 31  13  37  1   
 32  13  38  1   
 33  14  15  1   
 34  14  39  1   
 35  14  40  1   
 36  15  16  ar  
 37  15  17  ar  
 38  16  18  ar  
 39  16  41  1   
 40  17  19  ar  
 41  17  42  1   
 42  18  20  ar  
 43  18  43  1   
 44  19  20  ar  
 45  19  44  1   
 46  20  45  1   
@<TRIPOS>SUBSTRUCTURE
  1 ****  11 GROUP 4 **** **** 0

# MOE 2024.06 (io_trps.svl 2023.06)
