@<TRIPOS>MOLECULE
NONAME
49 51 1 0 0 
SMALL
USER_CHARGES


@<TRIPOS>ATOM
  1 CL      -1.6350     3.4290     3.5970 Cl    1 <1>  -0.1770 
  2 C       -3.1720     3.6530     2.8030 C.ar  1 <1>   0.1770 
  3 C       -3.2110     4.2800     1.5740 C.ar  1 <1>  -0.1500 
  4 C       -4.3230     3.1990     3.4190 C.ar  1 <1>  -0.1500 
  5 C       -4.4270     4.4700     0.9290 C.ar  1 <1>   0.1170 
  6 C       -5.5390     3.3760     2.7820 C.ar  1 <1>  -0.1500 
  7 N       -4.4410     5.1060    -0.3200 N.am  1 <1>  -0.5470 
  8 C       -5.5860     4.0040     1.5490 C.ar  1 <1>  -0.1500 
  9 C       -5.3960     5.8950    -0.8840 C.2   1 <1>   0.6900 
 10 O       -6.4140     6.2010    -0.2950 O.2   1 <1>  -0.5700 
 11 N       -5.1740     6.4000    -2.1230 N.am  1 <1>  -0.7300 
 12 C       -6.2010     7.0660    -2.9840 C.3   1 <1>   0.1400 
 13 C       -6.4120     8.5550    -2.6250 C.3   1 <1>   0.3430 
 14 N       -6.9050     8.7220    -1.2270 N.4   1 <1>  -0.9590 
 15 C       -8.3860     8.4870    -1.0830 C.3   1 <1>   0.3430 
 16 C       -6.4870    10.0160    -0.5850 C.3   1 <1>   0.3430 
 17 C       -8.8370     8.5260     0.3920 C.3   1 <1>   0.2090 
 18 C       -6.9250    10.1120     0.8940 C.3   1 <1>   0.2090 
 19 N       -8.3720     9.7770     1.0640 N.pl3 1 <1>  -0.8380 
 20 C       -9.3090    10.7520     1.3980 C.ar  1 <1>   0.1000 
 21 C       -9.3170    12.0040     0.7810 C.ar  1 <1>  -0.1500 
 22 C      -10.2690    10.4690     2.3660 C.ar  1 <1>  -0.1500 
 23 C      -10.2650    12.9530     1.1210 C.ar  1 <1>  -0.1500 
 24 C      -11.2240    11.4070     2.7170 C.ar  1 <1>  -0.1500 
 25 C      -11.2030    12.6350     2.0850 C.ar  1 <1>   0.1900 
 26 F      -12.1030    13.5280     2.4090 F     1 <1>  -0.1900 
 27 H       -2.2930     4.6190     1.1320 H     1 <1>   0.1500 
 28 H       -4.2640     2.7150     4.3780 H     1 <1>   0.1500 
 29 H       -6.4460     3.0260     3.2450 H     1 <1>   0.1500 
 30 H       -3.5730     5.0320    -0.8440 H     1 <1>   0.3700 
 31 H       -6.5380     4.1260     1.0640 H     1 <1>   0.1500 
 32 H       -4.3720     6.0250    -2.6350 H     1 <1>   0.3700 
 33 H       -7.1350     6.5370    -2.9000 H     1 <1>   0.0800 
 34 H       -5.8850     7.0000    -4.0110 H     1 <1>   0.0800 
 35 H       -7.1120     9.0000    -3.3130 H     1 <1>   0.0800 
 36 H       -5.4680     9.0620    -2.7400 H     1 <1>   0.0800 
 37 H       -6.4780     7.9450    -0.6780 H     1 <1>   0.4500 
 38 H       -8.6450     7.5250    -1.4920 H     1 <1>   0.0800 
 39 H       -8.9310     9.2420    -1.6240 H     1 <1>   0.0800 
 40 H       -6.9270    10.8400    -1.1200 H     1 <1>   0.0800 
 41 H       -5.4160    10.1210    -0.6360 H     1 <1>   0.0800 
 42 H       -8.4380     7.6730     0.9150 H     1 <1>   0.0800 
 43 H       -9.9110     8.4660     0.4360 H     1 <1>   0.0800 
 44 H       -6.7350    11.1040     1.2670 H     1 <1>   0.0800 
 45 H       -6.3400     9.4280     1.4850 H     1 <1>   0.0800 
 46 H       -8.5870    12.2370     0.0320 H     1 <1>   0.1500 
 47 H      -10.2550     9.5090     2.8500 H     1 <1>   0.1500 
 48 H      -10.2830    13.9220     0.6550 H     1 <1>   0.1500 
 49 H      -11.9670    11.1960     3.4640 H     1 <1>   0.1500 
@<TRIPOS>BOND
  1   1   2  1   
  2   2   3  ar  
  3   2   4  ar  
  4   3   5  ar  
  5   3  27  1   
  6   4   6  ar  
  7   4  28  1   
  8   5   7  1   
  9   5   8  ar  
 10   6   8  ar  
 11   6  29  1   
 12   7   9  am  
 13   7  30  1   
 14   8  31  1   
 15   9  10  2   
 16   9  11  am  
 17  11  12  1   
 18  11  32  1   
 19  12  13  1   
 20  12  33  1   
 21  12  34  1   
 22  13  14  1   
 23  13  35  1   
 24  13  36  1   
 25  14  15  1   
 26  14  16  1   
 27  14  37  1   
 28  15  17  1   
 29  15  38  1   
 30  15  39  1   
 31  16  18  1   
 32  16  40  1   
 33  16  41  1   
 34  17  19  1   
 35  17  42  1   
 36  17  43  1   
 37  18  19  1   
 38  18  44  1   
 39  18  45  1   
 40  19  20  1   
 41  20  21  ar  
 42  20  22  ar  
 43  21  23  ar  
 44  21  46  1   
 45  22  24  ar  
 46  22  47  1   
 47  23  25  ar  
 48  23  48  1   
 49  24  25  ar  
 50  24  49  1   
 51  25  26  1   
@<TRIPOS>SUBSTRUCTURE
  1 ****  17 GROUP 4 **** **** 0

# MOE 2024.06 (io_trps.svl 2023.06)
