@<TRIPOS>MOLECULE
NONAME
42 42 1 0 0 
SMALL
USER_CHARGES


@<TRIPOS>ATOM
  1 N        0.1130     0.1540    -0.5890 N.4   1 <1>  -0.9590 
  2 C        1.2930    -0.3230    -1.3760 C.3   1 <1>   0.4860 
  3 C       -1.1020    -0.6980    -0.8590 C.3   1 <1>   0.3430 
  4 C       -0.0830     1.6190    -0.8050 C.3   1 <1>   0.3430 
  5 C        2.5360     0.2360    -0.7140 C.ar  1 <1>  -0.1440 
  6 C       -2.3190    -0.4160     0.0720 C.3   1 <1>   0.3430 
  7 C       -0.2710     2.2900     0.5480 C.3   1 <1>  -0.2400 
  8 C        3.0220    -0.2730     0.4890 C.ar  1 <1>  -0.1440 
  9 C        3.1950     1.2930    -1.3290 C.ar  1 <1>  -0.1500 
 10 N       -3.4960    -1.3440    -0.1260 N.4   1 <1>  -0.9590 
 11 C        4.1390     0.3100     1.0670 C.ar  1 <1>  -0.1500 
 12 C        2.3950    -1.4610     1.2100 C.3   1 <1>  -0.0970 
 13 C        4.3110     1.8620    -0.7440 C.ar  1 <1>  -0.1500 
 14 C       -4.1510    -1.2110    -1.4730 C.3   1 <1>   0.2630 
 15 C       -4.5300    -1.1010     0.9380 C.3   1 <1>   0.2630 
 16 C        4.7800     1.3720     0.4580 C.ar  1 <1>  -0.1500 
 17 H        0.4460     0.0570     0.3830 H     1 <1>   0.4500 
 18 H        1.2310     0.0090    -2.3990 H     1 <1>   0.0800 
 19 H        1.3470    -1.4000    -1.3670 H     1 <1>   0.0800 
 20 H       -0.8250    -1.7330    -0.7400 H     1 <1>   0.0800 
 21 H       -1.4070    -0.5520    -1.8820 H     1 <1>   0.0800 
 22 H       -0.9310     1.8040    -1.4450 H     1 <1>   0.0800 
 23 H        0.7880     2.0490    -1.2760 H     1 <1>   0.0800 
 24 H       -2.6470     0.5980    -0.0840 H     1 <1>   0.0800 
 25 H       -1.9850    -0.5020     1.0930 H     1 <1>   0.0800 
 26 H       -1.1420     1.9340     1.0640 H     1 <1>   0.0800 
 27 H       -0.3890     3.3500     0.3980 H     1 <1>   0.0800 
 28 H        0.6010     2.1490     1.1630 H     1 <1>   0.0800 
 29 H        2.8570     1.6920    -2.2710 H     1 <1>   0.1500 
 30 H       -3.1970    -2.3290    -0.0120 H     1 <1>   0.4500 
 31 H        4.5300    -0.0610     2.0000 H     1 <1>   0.1500 
 32 H        1.5630    -1.1430     1.8100 H     1 <1>   0.0800 
 33 H        3.1170    -1.9180     1.8660 H     1 <1>   0.0800 
 34 H        2.0790    -2.2180     0.5160 H     1 <1>   0.0800 
 35 H        4.8200     2.6820    -1.2220 H     1 <1>   0.1500 
 36 H       -4.5110    -0.2060    -1.6220 H     1 <1>   0.0800 
 37 H       -4.9920    -1.8840    -1.5460 H     1 <1>   0.0800 
 38 H       -3.4600    -1.4540    -2.2630 H     1 <1>   0.0800 
 39 H       -4.9130    -0.0950     0.8720 H     1 <1>   0.0800 
 40 H       -4.1070    -1.2450     1.9190 H     1 <1>   0.0800 
 41 H       -5.3560    -1.7860     0.8220 H     1 <1>   0.0800 
 42 H        5.6490     1.8130     0.9180 H     1 <1>   0.1500 
@<TRIPOS>BOND
  1   1   2  1   
  2   1   3  1   
  3   1   4  1   
  4   1  17  1   
  5   2   5  1   
  6   2  18  1   
  7   2  19  1   
  8   3   6  1   
  9   3  20  1   
 10   3  21  1   
 11   4   7  1   
 12   4  22  1   
 13   4  23  1   
 14   5   8  ar  
 15   5   9  ar  
 16   6  10  1   
 17   6  24  1   
 18   6  25  1   
 19   7  26  1   
 20   7  27  1   
 21   7  28  1   
 22   8  11  ar  
 23   8  12  1   
 24   9  13  ar  
 25   9  29  1   
 26  10  14  1   
 27  10  15  1   
 28  10  30  1   
 29  11  16  ar  
 30  11  31  1   
 31  12  32  1   
 32  12  33  1   
 33  12  34  1   
 34  13  16  ar  
 35  13  35  1   
 36  14  36  1   
 37  14  37  1   
 38  14  38  1   
 39  15  39  1   
 40  15  40  1   
 41  15  41  1   
 42  16  42  1   
@<TRIPOS>SUBSTRUCTURE
  1 ****   1 GROUP 4 **** **** 0

# MOE 2024.06 (io_trps.svl 2023.06)
