@<TRIPOS>MOLECULE
NONAME
28 28 1 0 0 
SMALL
USER_CHARGES


@<TRIPOS>ATOM
  1 BR      -0.0710    -0.1570     0.1270 Br    1 <1>  -0.1110 
  2 C       -1.9720     0.1320     0.0150 C.ar  1 <1>   0.1110 
  3 C       -2.4410     1.4260    -0.0990 C.ar  1 <1>  -0.1500 
  4 C       -2.8120    -0.9640     0.0510 C.ar  1 <1>  -0.1500 
  5 C       -3.8080     1.6390    -0.1800 C.ar  1 <1>  -0.1440 
  6 C       -4.1810    -0.7620    -0.0290 C.ar  1 <1>  -0.1440 
  7 C       -4.6680     0.5410    -0.1380 C.ar  1 <1>   0.0830 
  8 C       -4.3420     3.0590    -0.3110 C.3   1 <1>  -0.0960 
  9 C       -5.1250    -1.9540     0.0110 C.3   1 <1>  -0.0960 
 10 O       -6.0070     0.7380    -0.2300 O.3   1 <1>  -0.2330 
 11 C       -6.7590     1.1020     0.8070 C.2   1 <1>   0.6590 
 12 O       -6.3260     1.2120     1.9280 O.2   1 <1>  -0.5700 
 13 C       -8.2310     1.3510     0.5030 C.3   1 <1>   0.1810 
 14 O       -8.4040     2.3700    -0.4490 O.3   1 <1>  -0.5600 
 15 C       -9.7340     2.6580    -0.7380 C.3   1 <1>   0.0400 
 16 H       -1.7450     2.2440    -0.1220 H     1 <1>   0.1500 
 17 H       -2.3950    -1.9510     0.1410 H     1 <1>   0.1500 
 18 H       -3.5520     3.7470    -0.5530 H     1 <1>   0.0800 
 19 H       -4.7910     3.3640     0.6170 H     1 <1>   0.0800 
 20 H       -5.0840     3.1080    -1.0880 H     1 <1>   0.0800 
 21 H       -4.5790    -2.8790     0.0100 H     1 <1>   0.0800 
 22 H       -5.7720    -1.9390    -0.8490 H     1 <1>   0.0800 
 23 H       -5.7260    -1.9120     0.9020 H     1 <1>   0.0800 
 24 H       -8.7310     1.6420     1.4100 H     1 <1>   0.0800 
 25 H       -8.6700     0.4480     0.1220 H     1 <1>   0.0800 
 26 H       -9.7540     3.4440    -1.4730 H     1 <1>   0.0800 
 27 H      -10.2310     2.9890     0.1570 H     1 <1>   0.0800 
 28 H      -10.2120     1.7790    -1.1370 H     1 <1>   0.0800 
@<TRIPOS>BOND
  1   1   2  1   
  2   2   3  ar  
  3   2   4  ar  
  4   3   5  ar  
  5   3  16  1   
  6   4   6  ar  
  7   4  17  1   
  8   5   7  ar  
  9   5   8  1   
 10   6   7  ar  
 11   6   9  1   
 12   7  10  1   
 13   8  18  1   
 14   8  19  1   
 15   8  20  1   
 16   9  21  1   
 17   9  22  1   
 18   9  23  1   
 19  10  11  1   
 20  11  12  2   
 21  11  13  1   
 22  13  14  1   
 23  13  24  1   
 24  13  25  1   
 25  14  15  1   
 26  15  26  1   
 27  15  27  1   
 28  15  28  1   
@<TRIPOS>SUBSTRUCTURE
  1 ****   7 GROUP 4 **** **** 0

# MOE 2024.06 (io_trps.svl 2023.06)
