@<TRIPOS>MOLECULE
NONAME
47 50 1 0 0 
SMALL
USER_CHARGES


@<TRIPOS>ATOM
  1 O        1.3860     0.1970     1.5260 O.2   1 <1>  -0.5750 
  2 C        2.0350    -0.2230     0.6040 C.2   1 <1>   0.4890 
  3 C        2.3480    -1.5960     0.4430 C.2   1 <1>  -0.1320 
  4 C        2.5790     0.7550    -0.4230 C.3   1 <1>  -0.1070 
  5 C        3.2320    -2.0680    -0.4680 C.2   1 <1>   0.1570 
  6 C        1.6040    -2.5450     1.3800 C.3   1 <1>   0.7120 
  7 C        3.9570     0.3140    -0.9480 C.3   1 <1>  -0.1680 
  8 N        3.5160    -3.4170    -0.5510 N.pl3 1 <1>  -0.6930 
  9 C        3.9510    -1.1430    -1.4430 C.3   1 <1>  -0.0300 
 10 N        2.1610    -3.9210     1.2920 N.pl3 1 <1>  -0.4620 
 11 C        0.1040    -2.6080     1.0820 C.ar  1 <1>  -0.1510 
 12 C        2.9700    -4.2820     0.3230 C.cat 1 <1>   1.0690 
 13 N        1.7940    -5.0010     2.0460 N.2   1 <1>  -0.2670 
 14 C       -0.3940    -3.0450    -0.1480 C.ar  1 <1>   0.0740 
 15 C       -0.7840    -2.2250     2.0790 C.ar  1 <1>  -0.1580 
 16 N        3.1530    -5.5760     0.4130 N.pl3 1 <1>  -0.7040 
 17 C        2.4040    -5.9800     1.4860 C.2   1 <1>   0.4980 
 18 O        0.5150    -3.3720    -1.1140 O.3   1 <1>  -0.3690 
 19 C       -1.7780    -3.1460    -0.3480 C.ar  1 <1>   0.0740 
 20 C       -2.1480    -2.2800     1.8680 C.ar  1 <1>  -0.1580 
 21 C        0.3010    -2.9230    -2.4390 C.3   1 <1>   0.0320 
 22 O       -2.2660    -3.6710    -1.5060 O.3   1 <1>  -0.3690 
 23 C       -2.6500    -2.7260     0.6600 C.ar  1 <1>   0.0740 
 24 C       -2.8970    -4.9290    -1.4020 C.3   1 <1>   0.0320 
 25 O       -3.9980    -2.7350     0.5220 O.3   1 <1>  -0.3690 
 26 C       -4.5390    -1.8370    -0.4210 C.3   1 <1>   0.0320 
 27 H        2.6600     1.7310     0.0250 H     1 <1>   0.0720 
 28 H        1.8780     0.8230    -1.2350 H     1 <1>   0.0720 
 29 H        1.7480    -2.2050     2.3920 H     1 <1>   0.0720 
 30 H        4.6730     0.4070    -0.1490 H     1 <1>   0.0720 
 31 H        4.2710     0.9690    -1.7430 H     1 <1>   0.0720 
 32 H        4.1200    -3.7750    -1.2890 H     1 <1>   0.4450 
 33 H        3.4570    -1.1950    -2.3980 H     1 <1>   0.0720 
 34 H        4.9700    -1.4630    -1.5780 H     1 <1>   0.0720 
 35 H       -0.4280    -1.8720     3.0330 H     1 <1>   0.1420 
 36 H        3.7120    -6.1680    -0.1930 H     1 <1>   0.4450 
 37 H        2.3450    -7.0090     1.8100 H     1 <1>   0.1420 
 38 H       -2.8330    -1.9730     2.6390 H     1 <1>   0.1420 
 39 H        1.2540    -2.8290    -2.9260 H     1 <1>   0.0720 
 40 H       -0.1980    -1.9690    -2.4170 H     1 <1>   0.0720 
 41 H       -0.2990    -3.6470    -2.9610 H     1 <1>   0.0720 
 42 H       -3.1380    -5.2680    -2.3930 H     1 <1>   0.0720 
 43 H       -3.7960    -4.8320    -0.8220 H     1 <1>   0.0720 
 44 H       -2.2200    -5.6190    -0.9300 H     1 <1>   0.0720 
 45 H       -5.6100    -1.8690    -0.3390 H     1 <1>   0.0720 
 46 H       -4.2390    -2.1340    -1.4090 H     1 <1>   0.0720 
 47 H       -4.1810    -0.8460    -0.2020 H     1 <1>   0.0720 
@<TRIPOS>BOND
  1   1   2  2   
  2   2   3  1   
  3   2   4  1   
  4   3   5  2   
  5   3   6  1   
  6   4   7  1   
  7   4  27  1   
  8   4  28  1   
  9   5   8  1   
 10   5   9  1   
 11   6  10  1   
 12   6  11  1   
 13   6  29  1   
 14   7   9  1   
 15   7  30  1   
 16   7  31  1   
 17   8  12  ar  
 18   8  32  1   
 19   9  33  1   
 20   9  34  1   
 21  10  12  ar  
 22  10  13  1   
 23  11  14  ar  
 24  11  15  ar  
 25  12  16  ar  
 26  13  17  2   
 27  14  18  1   
 28  14  19  ar  
 29  15  20  ar  
 30  15  35  1   
 31  16  17  1   
 32  16  36  1   
 33  17  37  1   
 34  18  21  1   
 35  19  22  1   
 36  19  23  ar  
 37  20  23  ar  
 38  20  38  1   
 39  21  39  1   
 40  21  40  1   
 41  21  41  1   
 42  22  24  1   
 43  23  25  1   
 44  24  42  1   
 45  24  43  1   
 46  24  44  1   
 47  25  26  1   
 48  26  45  1   
 49  26  46  1   
 50  26  47  1   
@<TRIPOS>SUBSTRUCTURE
  1 ****  11 GROUP 4 **** **** 0

# MOE 2024.06 (io_trps.svl 2023.06)
