@<TRIPOS>MOLECULE
NONAME
41 42 1 0 0 
SMALL
USER_CHARGES


@<TRIPOS>ATOM
  1 S       -0.1430    -0.1870    -0.5270 S.o2  1 <1>   1.3330 
  2 O       -0.3740     1.2330    -0.3820 O.2   1 <1>  -0.6500 
  3 O        0.1740    -0.7310    -1.8290 O.2   1 <1>  -0.6500 
  4 N       -1.5230    -0.9960     0.0290 N.am  1 <1>  -0.8490 
  5 C        1.1120    -0.6830     0.6620 C.3   1 <1>  -0.0550 
  6 C       -2.7510    -0.1970    -0.1640 C.3   1 <1>   0.1960 
  7 C       -1.6430    -2.3630    -0.4790 C.3   1 <1>   0.1960 
  8 C        2.5070    -0.0900     0.4010 C.3   1 <1>  -0.2400 
  9 C       -4.0470    -1.0330    -0.1100 C.3   1 <1>  -0.0190 
 10 C       -2.7020    -3.1330     0.3280 C.3   1 <1>  -0.1600 
 11 C       -5.2260    -0.1630     0.3100 C.2   1 <1>   0.5690 
 12 C       -3.8750    -2.2570     0.8070 C.3   1 <1>  -0.1600 
 13 O       -5.1780     0.4150     1.3640 O.2   1 <1>  -0.5700 
 14 N       -6.2940    -0.0880    -0.5390 N.am  1 <1>  -0.4940 
 15 C       -7.4890     0.5960    -0.4540 C.2   1 <1>   0.4420 
 16 S       -7.8940     1.6130     0.8940 S.3   1 <1>  -0.0800 
 17 N       -8.4200     0.5670    -1.3350 N.2   1 <1>  -0.3380 
 18 C       -9.3970     1.9390     0.1030 C.2   1 <1>   0.1980 
 19 N       -9.5040     1.3340    -1.0110 N.2   1 <1>  -0.3380 
 20 C      -10.3650     2.8720     0.8120 C.3   1 <1>   0.0200 
 21 C      -11.6650     3.0980     0.0280 C.3   1 <1>  -0.2400 
 22 H        1.1900    -1.7530     0.6600 H     1 <1>   0.0800 
 23 H        0.7900    -0.3850     1.6420 H     1 <1>   0.0800 
 24 H       -2.7110     0.3130    -1.1130 H     1 <1>   0.0800 
 25 H       -2.7710     0.5590     0.6050 H     1 <1>   0.0800 
 26 H       -0.6980    -2.8760    -0.4030 H     1 <1>   0.0800 
 27 H       -1.9170    -2.3310    -1.5210 H     1 <1>   0.0800 
 28 H        2.8640    -0.3940    -0.5680 H     1 <1>   0.0800 
 29 H        3.2020    -0.4260     1.1500 H     1 <1>   0.0800 
 30 H        2.4610     0.9860     0.4280 H     1 <1>   0.0800 
 31 H       -4.2370    -1.3930    -1.1050 H     1 <1>   0.0800 
 32 H       -2.2320    -3.5840     1.1840 H     1 <1>   0.0800 
 33 H       -3.0740    -3.9340    -0.2870 H     1 <1>   0.0800 
 34 H       -4.7810    -2.8360     0.8480 H     1 <1>   0.0800 
 35 H       -3.6640    -1.9050     1.8040 H     1 <1>   0.0800 
 36 H       -6.2290    -0.6310    -1.3940 H     1 <1>   0.3700 
 37 H       -9.8780     3.8180     0.9690 H     1 <1>   0.0800 
 38 H      -10.6010     2.4550     1.7750 H     1 <1>   0.0800 
 39 H      -11.4470     3.5300    -0.9340 H     1 <1>   0.0800 
 40 H      -12.3150     3.7620     0.5670 H     1 <1>   0.0800 
 41 H      -12.1730     2.1620    -0.1240 H     1 <1>   0.0800 
@<TRIPOS>BOND
  1   1   2  2   
  2   1   3  2   
  3   1   4  am  
  4   1   5  1   
  5   4   6  1   
  6   4   7  1   
  7   5   8  1   
  8   5  22  1   
  9   5  23  1   
 10   6   9  1   
 11   6  24  1   
 12   6  25  1   
 13   7  10  1   
 14   7  26  1   
 15   7  27  1   
 16   8  28  1   
 17   8  29  1   
 18   8  30  1   
 19   9  11  1   
 20   9  12  1   
 21   9  31  1   
 22  10  12  1   
 23  10  32  1   
 24  10  33  1   
 25  11  13  2   
 26  11  14  am  
 27  12  34  1   
 28  12  35  1   
 29  14  15  1   
 30  14  36  1   
 31  15  16  1   
 32  15  17  2   
 33  16  18  1   
 34  17  19  1   
 35  18  19  2   
 36  18  20  1   
 37  20  21  1   
 38  20  37  1   
 39  20  38  1   
 40  21  39  1   
 41  21  40  1   
 42  21  41  1   
@<TRIPOS>SUBSTRUCTURE
  1 ****  11 GROUP 4 **** **** 0

# MOE 2024.06 (io_trps.svl 2023.06)
