@<TRIPOS>MOLECULE
NONAME
49 49 1 0 0 
SMALL
USER_CHARGES


@<TRIPOS>ATOM
  1 O        0.2180    -0.4180     0.1990 O.3   1 <1>  -0.3630 
  2 C       -1.0210    -0.9720     0.2200 C.ar  1 <1>   0.0830 
  3 C        1.3650    -1.2030     0.0050 C.3   1 <1>   0.1200 
  4 C       -1.2700    -2.3300     0.0570 C.ar  1 <1>  -0.1500 
  5 C       -2.0870    -0.1140     0.4170 C.ar  1 <1>  -0.1500 
  6 C        2.5650    -0.2560     0.0390 C.3   1 <1>  -0.1600 
  7 C       -2.5690    -2.8040     0.0940 C.ar  1 <1>  -0.1500 
  8 C       -3.3840    -0.5960     0.4530 C.ar  1 <1>  -0.1500 
  9 C        3.8670    -1.0190    -0.1650 C.3   1 <1>   0.3430 
 10 C       -3.6530    -1.9530     0.2920 C.ar  1 <1>  -0.1440 
 11 N        4.9970    -0.0540    -0.1220 N.4   1 <1>  -0.9060 
 12 C       -5.0830    -2.5370     0.3240 C.3   1 <1>   0.1440 
 13 C        6.3450    -0.5990    -0.3000 C.3   1 <1>   0.5030 
 14 C       -6.1680    -1.4710     0.5510 C.3   1 <1>  -0.2400 
 15 C       -5.1950    -3.5600     1.4640 C.3   1 <1>  -0.2400 
 16 C       -5.3860    -3.2280    -1.0130 C.3   1 <1>  -0.2400 
 17 C        6.4580    -1.2600    -1.6730 C.3   1 <1>  -0.2400 
 18 C        6.6510    -1.5950     0.8180 C.3   1 <1>  -0.2400 
 19 C        7.2990     0.5870    -0.2140 C.3   1 <1>  -0.2400 
 20 H        1.2780    -1.6940    -0.9500 H     1 <1>   0.0800 
 21 H        1.4130    -1.9290     0.7990 H     1 <1>   0.0800 
 22 H       -0.4760    -3.0340    -0.0980 H     1 <1>   0.1500 
 23 H       -1.8990     0.9360     0.5440 H     1 <1>   0.1500 
 24 H        2.5770     0.2390     0.9940 H     1 <1>   0.0800 
 25 H        2.4430     0.4720    -0.7440 H     1 <1>   0.0800 
 26 H       -2.7300    -3.8590    -0.0340 H     1 <1>   0.1500 
 27 H       -4.1710     0.1180     0.6090 H     1 <1>   0.1500 
 28 H        3.8460    -1.5250    -1.1170 H     1 <1>   0.0800 
 29 H        3.9800    -1.7570     0.6140 H     1 <1>   0.0800 
 30 H        4.9810     0.4400     0.7750 H     1 <1>   0.4500 
 31 H        4.8560     0.6580    -0.8460 H     1 <1>   0.4500 
 32 H       -6.0170    -0.9730     1.4920 H     1 <1>   0.0800 
 33 H       -7.1450    -1.9210     0.5660 H     1 <1>   0.0800 
 34 H       -6.1510    -0.7410    -0.2390 H     1 <1>   0.0800 
 35 H       -4.9490    -3.0930     2.4020 H     1 <1>   0.0800 
 36 H       -4.5240    -4.3850     1.3130 H     1 <1>   0.0800 
 37 H       -6.1940    -3.9510     1.5280 H     1 <1>   0.0800 
 38 H       -5.2750    -2.5270    -1.8220 H     1 <1>   0.0800 
 39 H       -6.3920    -3.6090    -1.0260 H     1 <1>   0.0800 
 40 H       -4.7170    -4.0500    -1.1870 H     1 <1>   0.0800 
 41 H        6.1950    -0.5730    -2.4580 H     1 <1>   0.0800 
 42 H        5.8420    -2.1370    -1.7440 H     1 <1>   0.0800 
 43 H        7.4750    -1.5720    -1.8400 H     1 <1>   0.0800 
 44 H        6.0350    -2.4720     0.7490 H     1 <1>   0.0800 
 45 H        6.5240    -1.1440     1.7860 H     1 <1>   0.0800 
 46 H        7.6740    -1.9200     0.7420 H     1 <1>   0.0800 
 47 H        7.1000     1.3060    -0.9900 H     1 <1>   0.0800 
 48 H        8.3140     0.2500    -0.3380 H     1 <1>   0.0800 
 49 H        7.2340     1.0720     0.7440 H     1 <1>   0.0800 
@<TRIPOS>BOND
  1   1   2  1   
  2   1   3  1   
  3   2   4  ar  
  4   2   5  ar  
  5   3   6  1   
  6   3  20  1   
  7   3  21  1   
  8   4   7  ar  
  9   4  22  1   
 10   5   8  ar  
 11   5  23  1   
 12   6   9  1   
 13   6  24  1   
 14   6  25  1   
 15   7  10  ar  
 16   7  26  1   
 17   8  10  ar  
 18   8  27  1   
 19   9  11  1   
 20   9  28  1   
 21   9  29  1   
 22  10  12  1   
 23  11  13  1   
 24  11  30  1   
 25  11  31  1   
 26  12  14  1   
 27  12  15  1   
 28  12  16  1   
 29  13  17  1   
 30  13  18  1   
 31  13  19  1   
 32  14  32  1   
 33  14  33  1   
 34  14  34  1   
 35  15  35  1   
 36  15  36  1   
 37  15  37  1   
 38  16  38  1   
 39  16  39  1   
 40  16  40  1   
 41  17  41  1   
 42  17  42  1   
 43  17  43  1   
 44  18  44  1   
 45  18  45  1   
 46  18  46  1   
 47  19  47  1   
 48  19  48  1   
 49  19  49  1   
@<TRIPOS>SUBSTRUCTURE
  1 ****   1 GROUP 4 **** **** 0

# MOE 2024.06 (io_trps.svl 2023.06)
