@<TRIPOS>MOLECULE
NONAME
40 41 1 0 0 
SMALL
USER_CHARGES


@<TRIPOS>ATOM
  1 O        0.4380     0.3460    -0.6680 O.2   1 <1>  -0.5700 
  2 C        0.8700     1.4790    -0.5370 C.2   1 <1>   0.4930 
  3 N       -0.0420     2.5580    -0.3500 N.pl3 1 <1>   0.5610 
  4 C        2.3020     1.7060    -0.5670 C.ar  1 <1>   0.0860 
  5 N        0.2730     3.7990     0.1420 N.2   1 <1>  -0.7070 
  6 C       -1.3840     2.5240    -0.5980 C.2   1 <1>  -0.3020 
  7 C        2.8950     2.8520    -1.1080 C.ar  1 <1>  -0.1500 
  8 C        3.1730     0.7380    -0.0590 C.ar  1 <1>  -0.1500 
  9 C       -0.8310     4.4670     0.1810 C.2   1 <1>   0.1080 
 10 C       -1.9110     3.7190    -0.2730 C.2   1 <1>  -0.1500 
 11 C        4.2660     3.0200    -1.1320 C.ar  1 <1>  -0.1500 
 12 C        4.5440     0.9030    -0.0830 C.ar  1 <1>  -0.1500 
 13 C       -0.9040     5.8940     0.6700 C.3   1 <1>  -0.0590 
 14 C        5.1200     2.0470    -0.6220 C.ar  1 <1>   0.1170 
 15 N        6.5130     2.1660    -0.6130 N.am  1 <1>  -0.5470 
 16 C        7.3590     2.9830    -1.3140 C.2   1 <1>   0.5690 
 17 O        6.9970     3.7680    -2.1530 O.2   1 <1>  -0.5700 
 18 C        8.8440     2.8680    -1.0210 C.3   1 <1>  -0.0990 
 19 C        9.2260     3.2740     0.4160 C.3   1 <1>  -0.0800 
 20 C        8.8690     4.7400     0.6970 C.3   1 <1>  -0.2400 
 21 C       10.7270     3.0560     0.6440 C.3   1 <1>  -0.2400 
 22 H       -1.8620     1.6430    -0.9850 H     1 <1>   0.1500 
 23 H        2.2770     3.6310    -1.5200 H     1 <1>   0.1500 
 24 H        2.7580    -0.1640     0.3580 H     1 <1>   0.1500 
 25 H       -2.9330     4.0500    -0.3360 H     1 <1>   0.1500 
 26 H        4.6710     3.9230    -1.5510 H     1 <1>   0.1500 
 27 H        5.1730     0.1300     0.3180 H     1 <1>   0.1500 
 28 H       -1.9250     6.2260     0.7160 H     1 <1>   0.0800 
 29 H       -0.3550     6.5320     0.0020 H     1 <1>   0.0800 
 30 H       -0.4690     5.9600     1.6500 H     1 <1>   0.0800 
 31 H        6.9870     1.5220     0.0150 H     1 <1>   0.3700 
 32 H        9.3760     3.4890    -1.7200 H     1 <1>   0.0800 
 33 H        9.1430     1.8520    -1.2050 H     1 <1>   0.0800 
 34 H        8.6890     2.6550     1.1150 H     1 <1>   0.0800 
 35 H        9.3740     5.3930     0.0060 H     1 <1>   0.0800 
 36 H        9.1580     5.0110     1.6970 H     1 <1>   0.0800 
 37 H        7.8090     4.9010     0.6020 H     1 <1>   0.0800 
 38 H       11.3050     3.6670    -0.0270 H     1 <1>   0.0800 
 39 H       10.9880     2.0260     0.4810 H     1 <1>   0.0800 
 40 H       10.9920     3.3150     1.6540 H     1 <1>   0.0800 
@<TRIPOS>BOND
  1   1   2  2   
  2   2   3  1   
  3   2   4  1   
  4   3   5  1   
  5   3   6  1   
  6   4   7  ar  
  7   4   8  ar  
  8   5   9  2   
  9   6  10  2   
 10   6  22  1   
 11   7  11  ar  
 12   7  23  1   
 13   8  12  ar  
 14   8  24  1   
 15   9  10  1   
 16   9  13  1   
 17  10  25  1   
 18  11  14  ar  
 19  11  26  1   
 20  12  14  ar  
 21  12  27  1   
 22  13  28  1   
 23  13  29  1   
 24  13  30  1   
 25  14  15  1   
 26  15  16  am  
 27  15  31  1   
 28  16  17  2   
 29  16  18  1   
 30  18  19  1   
 31  18  32  1   
 32  18  33  1   
 33  19  20  1   
 34  19  21  1   
 35  19  34  1   
 36  20  35  1   
 37  20  36  1   
 38  20  37  1   
 39  21  38  1   
 40  21  39  1   
 41  21  40  1   
@<TRIPOS>SUBSTRUCTURE
  1 ****  11 GROUP 4 **** **** 0

# MOE 2024.06 (io_trps.svl 2023.06)
