@<TRIPOS>MOLECULE
NONAME
38 39 1 0 0 
SMALL
USER_CHARGES


@<TRIPOS>ATOM
  1 CL       0.3030     0.2260    -0.7240 Cl    1 <1>  -0.1770 
  2 C        0.9430    -1.3400    -0.2970 C.ar  1 <1>   0.1770 
  3 C        0.0720    -2.3720    -0.0160 C.ar  1 <1>  -0.1500 
  4 C        2.3140    -1.5140    -0.2430 C.ar  1 <1>  -0.1500 
  5 C        0.5540    -3.6360     0.3310 C.ar  1 <1>   0.0280 
  6 C        2.8140    -2.7560     0.1000 C.ar  1 <1>  -0.1500 
  7 C        1.9460    -3.8000     0.3800 C.ar  1 <1>   0.0830 
  8 C       -0.3390    -4.7210     0.6450 C.2   1 <1>  -0.1780 
  9 O        2.4860    -4.9890     0.6890 O.3   1 <1>  -0.5320 
 10 C       -1.4370    -5.1600    -0.0310 C.2   1 <1>   0.0790 
 11 C       -1.8800    -4.5560    -1.2470 C.1   1 <1>   0.4920 
 12 C       -2.2370    -6.2810     0.4060 C.2   1 <1>   0.6160 
 13 N       -2.2840    -4.0950    -2.2080 N.1   1 <1>  -0.5570 
 14 O       -1.8690    -6.9420     1.3580 O.2   1 <1>  -0.5700 
 15 N       -3.4030    -6.6420    -0.2160 N.am  1 <1>  -0.7300 
 16 C       -4.2690    -7.7730     0.1600 C.3   1 <1>   0.2200 
 17 C       -4.3080    -8.7710    -1.0020 C.3   1 <1>  -0.1600 
 18 C       -5.6680    -7.2370     0.4800 C.3   1 <1>  -0.1600 
 19 C       -5.2850    -9.9200    -0.7130 C.3   1 <1>  -0.1600 
 20 C       -6.6480    -8.3830     0.7720 C.3   1 <1>  -0.1600 
 21 C       -6.6870    -9.3880    -0.3880 C.3   1 <1>  -0.1600 
 22 H       -0.9840    -2.1790    -0.0610 H     1 <1>   0.1500 
 23 H        2.9700    -0.6920    -0.4660 H     1 <1>   0.1500 
 24 H        3.8760    -2.9230     0.1490 H     1 <1>   0.1500 
 25 H       -0.0670    -5.2380     1.5510 H     1 <1>   0.1500 
 26 H        1.8340    -5.7020     0.8220 H     1 <1>   0.4500 
 27 H       -3.7350    -6.1220    -1.0320 H     1 <1>   0.3700 
 28 H       -3.8750    -8.2670     1.0340 H     1 <1>   0.0800 
 29 H       -4.6170    -8.2680    -1.9010 H     1 <1>   0.0800 
 30 H       -3.3230    -9.1740    -1.1560 H     1 <1>   0.0800 
 31 H       -5.6130    -6.5910     1.3390 H     1 <1>   0.0800 
 32 H       -6.0370    -6.6670    -0.3540 H     1 <1>   0.0800 
 33 H       -5.3360   -10.5740    -1.5670 H     1 <1>   0.0800 
 34 H       -4.9210   -10.4960     0.1210 H     1 <1>   0.0800 
 35 H       -6.3440    -8.8910     1.6720 H     1 <1>   0.0800 
 36 H       -7.6330    -7.9830     0.9370 H     1 <1>   0.0800 
 37 H       -7.3330   -10.2090    -0.1310 H     1 <1>   0.0800 
 38 H       -7.0980    -8.9080    -1.2610 H     1 <1>   0.0800 
@<TRIPOS>BOND
  1   1   2  1   
  2   2   3  ar  
  3   2   4  ar  
  4   3   5  ar  
  5   3  22  1   
  6   4   6  ar  
  7   4  23  1   
  8   5   7  ar  
  9   5   8  1   
 10   6   7  ar  
 11   6  24  1   
 12   7   9  1   
 13   8  10  2   
 14   8  25  1   
 15   9  26  1   
 16  10  11  1   
 17  10  12  1   
 18  11  13  3   
 19  12  14  2   
 20  12  15  am  
 21  15  16  1   
 22  15  27  1   
 23  16  17  1   
 24  16  18  1   
 25  16  28  1   
 26  17  19  1   
 27  17  29  1   
 28  17  30  1   
 29  18  20  1   
 30  18  31  1   
 31  18  32  1   
 32  19  21  1   
 33  19  33  1   
 34  19  34  1   
 35  20  21  1   
 36  20  35  1   
 37  20  36  1   
 38  21  37  1   
 39  21  38  1   
@<TRIPOS>SUBSTRUCTURE
  1 ****  10 GROUP 4 **** **** 0

# MOE 2024.06 (io_trps.svl 2023.06)
