@<TRIPOS>MOLECULE
NONAME
56 60 1 0 0 
SMALL
USER_CHARGES


@<TRIPOS>ATOM
  1 O       -2.7990    -0.4740     0.6900 O.2   1 <1>  -0.5700 
  2 C       -1.8100    -0.8590     0.0880 C.2   1 <1>   0.5440 
  3 N       -1.5050    -0.1780    -1.0660 N.am  1 <1>  -0.6600 
  4 C       -0.9550    -1.9140     0.6090 C.ar  1 <1>   0.0860 
  5 C       -0.5360     0.9500    -0.9420 C.3   1 <1>   0.1400 
  6 C       -2.6210     0.1400    -2.0180 C.3   1 <1>   0.1400 
  7 C        0.0600    -2.4870    -0.1620 C.ar  1 <1>  -0.1500 
  8 C       -1.1130    -2.3910     1.9100 C.ar  1 <1>  -0.1500 
  9 C       -1.2440     2.2310    -0.4270 C.3   1 <1>   0.3430 
 10 C       -3.1970     1.5580    -1.7820 C.3   1 <1>   0.3430 
 11 C        0.8860    -3.4780     0.3390 C.ar  1 <1>  -0.1440 
 12 C       -0.2940    -3.3800     2.4210 C.ar  1 <1>  -0.1500 
 13 N       -2.7500     2.1090    -0.4540 N.4   1 <1>  -0.9590 
 14 C        0.7070    -3.9220     1.6370 C.ar  1 <1>  -0.1500 
 15 C        1.9840    -4.0850    -0.5170 C.3   1 <1>  -0.0970 
 16 C       -3.5150     3.2740     0.0760 C.3   1 <1>   0.5030 
 17 C       -2.9920     3.6480     1.4830 C.3   1 <1>  -0.1600 
 18 C       -5.0090     2.8960     0.2050 C.3   1 <1>  -0.1600 
 19 C       -3.3810     4.4990    -0.8530 C.3   1 <1>  -0.1600 
 20 C       -3.7890     4.8310     2.0620 C.3   1 <1>  -0.0800 
 21 C       -5.8180     4.0750     0.7750 C.3   1 <1>  -0.0800 
 22 C       -4.1840     5.6860    -0.2830 C.3   1 <1>  -0.0800 
 23 C       -5.2730     4.4390     2.1670 C.3   1 <1>  -0.1600 
 24 C       -3.6480     6.0400     1.1180 C.3   1 <1>  -0.1600 
 25 C       -5.6670     5.2880    -0.1630 C.3   1 <1>  -0.1600 
 26 H       -0.0910     1.1440    -1.9030 H     1 <1>   0.0800 
 27 H        0.2590     0.6820    -0.2660 H     1 <1>   0.0800 
 28 H       -3.4100    -0.5810    -1.8890 H     1 <1>   0.0800 
 29 H       -2.2700     0.0520    -3.0320 H     1 <1>   0.0800 
 30 H        0.2020    -2.1530    -1.1740 H     1 <1>   0.1500 
 31 H       -1.8910    -1.9820     2.5320 H     1 <1>   0.1500 
 32 H       -0.9270     3.0730    -1.0180 H     1 <1>   0.0800 
 33 H       -0.9180     2.4020     0.5850 H     1 <1>   0.0800 
 34 H       -4.2700     1.4950    -1.8300 H     1 <1>   0.0800 
 35 H       -2.8720     2.2120    -2.5730 H     1 <1>   0.0800 
 36 H       -0.4350    -3.7310     3.4300 H     1 <1>   0.1500 
 37 H       -2.9460     1.3190     0.1980 H     1 <1>   0.4500 
 38 H        1.3420    -4.6910     2.0410 H     1 <1>   0.1500 
 39 H        1.8660    -3.8090    -1.5490 H     1 <1>   0.0800 
 40 H        1.9540    -5.1580    -0.4480 H     1 <1>   0.0800 
 41 H        2.9440    -3.7430    -0.1750 H     1 <1>   0.0800 
 42 H       -1.9610     3.9460     1.4470 H     1 <1>   0.0800 
 43 H       -3.0820     2.8040     2.1450 H     1 <1>   0.0800 
 44 H       -5.1190     2.0450     0.8540 H     1 <1>   0.0800 
 45 H       -5.4330     2.6510    -0.7500 H     1 <1>   0.0800 
 46 H       -2.3510     4.7920    -0.9430 H     1 <1>   0.0800 
 47 H       -3.7570     4.2720    -1.8330 H     1 <1>   0.0800 
 48 H       -3.4130     5.0870     3.0390 H     1 <1>   0.0800 
 49 H       -6.8580     3.8040     0.8540 H     1 <1>   0.0800 
 50 H       -4.0900     6.5400    -0.9330 H     1 <1>   0.0800 
 51 H       -5.3880     3.6050     2.8380 H     1 <1>   0.0800 
 52 H       -5.8380     5.2600     2.5750 H     1 <1>   0.0800 
 53 H       -2.6170     6.3410     1.0530 H     1 <1>   0.0800 
 54 H       -4.2000     6.8750     1.5150 H     1 <1>   0.0800 
 55 H       -6.2340     6.1180     0.2260 H     1 <1>   0.0800 
 56 H       -6.0670     5.0560    -1.1350 H     1 <1>   0.0800 
@<TRIPOS>BOND
  1   1   2  2   
  2   2   3  am  
  3   2   4  1   
  4   3   5  1   
  5   3   6  1   
  6   4   7  ar  
  7   4   8  ar  
  8   5   9  1   
  9   5  26  1   
 10   5  27  1   
 11   6  10  1   
 12   6  28  1   
 13   6  29  1   
 14   7  11  ar  
 15   7  30  1   
 16   8  12  ar  
 17   8  31  1   
 18   9  13  1   
 19   9  32  1   
 20   9  33  1   
 21  10  13  1   
 22  10  34  1   
 23  10  35  1   
 24  11  14  ar  
 25  11  15  1   
 26  12  14  ar  
 27  12  36  1   
 28  13  16  1   
 29  13  37  1   
 30  14  38  1   
 31  15  39  1   
 32  15  40  1   
 33  15  41  1   
 34  16  17  1   
 35  16  18  1   
 36  16  19  1   
 37  17  20  1   
 38  17  42  1   
 39  17  43  1   
 40  18  21  1   
 41  18  44  1   
 42  18  45  1   
 43  19  22  1   
 44  19  46  1   
 45  19  47  1   
 46  20  23  1   
 47  20  24  1   
 48  20  48  1   
 49  21  23  1   
 50  21  25  1   
 51  21  49  1   
 52  22  24  1   
 53  22  25  1   
 54  22  50  1   
 55  23  51  1   
 56  23  52  1   
 57  24  53  1   
 58  24  54  1   
 59  25  55  1   
 60  25  56  1   
@<TRIPOS>SUBSTRUCTURE
  1 ****  13 GROUP 4 **** **** 0

# MOE 2024.06 (io_trps.svl 2023.06)
