@<TRIPOS>MOLECULE
NONAME
42 43 1 0 0 
SMALL
USER_CHARGES


@<TRIPOS>ATOM
  1 F       -1.3150     0.9690    -1.9040 F     1 <1>  -0.1900 
  2 C       -2.4410     0.6330    -1.3260 C.ar  1 <1>   0.1900 
  3 C       -2.4090    -0.2660    -0.2770 C.ar  1 <1>  -0.1500 
  4 C       -3.6180     1.1910    -1.7880 C.ar  1 <1>  -0.1500 
  5 C       -3.6050    -0.6150     0.3270 C.ar  1 <1>  -0.1500 
  6 C       -4.8050     0.8310    -1.1730 C.ar  1 <1>  -0.1500 
  7 C       -4.8090    -0.0730    -0.1130 C.ar  1 <1>   0.1000 
  8 N       -5.9900    -0.4470     0.5150 N.pl3 1 <1>  -0.8380 
  9 C       -6.7170     0.6430     1.2390 C.3   1 <1>   0.2090 
 10 C       -6.9190    -1.2840    -0.3040 C.3   1 <1>   0.2090 
 11 C       -7.8520     0.0710     2.1040 C.3   1 <1>   0.1400 
 12 C       -8.0680    -1.8540     0.5480 C.3   1 <1>   0.1400 
 13 N       -8.7790    -0.7710     1.2890 N.am  1 <1>  -0.6600 
 14 C       -9.9170    -0.2200     0.7610 C.2   1 <1>   0.6900 
 15 O       -9.9770     0.9910     0.6190 O.2   1 <1>  -0.5700 
 16 N      -10.9710    -1.0180     0.3780 N.am  1 <1>  -0.6600 
 17 C      -12.0470    -0.4580    -0.4840 C.3   1 <1>   0.1400 
 18 C      -11.3410    -2.2240     1.1680 C.3   1 <1>   0.1400 
 19 C      -11.6450    -0.6100    -1.9490 C.3   1 <1>  -0.2400 
 20 C      -11.5150    -3.4400     0.2570 C.3   1 <1>  -0.2400 
 21 H       -1.4740    -0.6790     0.0550 H     1 <1>   0.1500 
 22 H       -3.6020     1.8870    -2.6070 H     1 <1>   0.1500 
 23 H       -3.6230    -1.3100     1.1460 H     1 <1>   0.1500 
 24 H       -5.7350     1.2490    -1.5110 H     1 <1>   0.1500 
 25 H       -7.1350     1.3370     0.5300 H     1 <1>   0.0800 
 26 H       -6.0240     1.1780     1.8640 H     1 <1>   0.0800 
 27 H       -6.3670    -2.0940    -0.7490 H     1 <1>   0.0800 
 28 H       -7.3350    -0.6870    -1.0980 H     1 <1>   0.0800 
 29 H       -8.3970     0.8800     2.5590 H     1 <1>   0.0800 
 30 H       -7.4290    -0.5270     2.8910 H     1 <1>   0.0800 
 31 H       -7.6700    -2.5630     1.2520 H     1 <1>   0.0800 
 32 H       -8.7520    -2.3700    -0.0990 H     1 <1>   0.0800 
 33 H      -12.1990     0.5840    -0.2550 H     1 <1>   0.0800 
 34 H      -12.9750    -0.9720    -0.3020 H     1 <1>   0.0800 
 35 H      -12.2580    -2.0290     1.6970 H     1 <1>   0.0800 
 36 H      -10.5830    -2.4330     1.9030 H     1 <1>   0.0800 
 37 H      -10.7400    -0.0610    -2.1380 H     1 <1>   0.0800 
 38 H      -12.4210    -0.2160    -2.5790 H     1 <1>   0.0800 
 39 H      -11.4940    -1.6460    -2.1920 H     1 <1>   0.0800 
 40 H      -12.3410    -3.2960    -0.4150 H     1 <1>   0.0800 
 41 H      -11.7180    -4.3090     0.8560 H     1 <1>   0.0800 
 42 H      -10.6210    -3.6190    -0.3100 H     1 <1>   0.0800 
@<TRIPOS>BOND
  1   1   2  1   
  2   2   3  ar  
  3   2   4  ar  
  4   3   5  ar  
  5   3  21  1   
  6   4   6  ar  
  7   4  22  1   
  8   5   7  ar  
  9   5  23  1   
 10   6   7  ar  
 11   6  24  1   
 12   7   8  1   
 13   8   9  1   
 14   8  10  1   
 15   9  11  1   
 16   9  25  1   
 17   9  26  1   
 18  10  12  1   
 19  10  27  1   
 20  10  28  1   
 21  11  13  1   
 22  11  29  1   
 23  11  30  1   
 24  12  13  1   
 25  12  31  1   
 26  12  32  1   
 27  13  14  am  
 28  14  15  2   
 29  14  16  am  
 30  16  17  1   
 31  16  18  1   
 32  17  19  1   
 33  17  33  1   
 34  17  34  1   
 35  18  20  1   
 36  18  35  1   
 37  18  36  1   
 38  19  37  1   
 39  19  38  1   
 40  19  39  1   
 41  20  40  1   
 42  20  41  1   
 43  20  42  1   
@<TRIPOS>SUBSTRUCTURE
  1 ****  10 GROUP 4 **** **** 0

# MOE 2024.06 (io_trps.svl 2023.06)
