@<TRIPOS>MOLECULE
NONAME
52 56 1 0 0 
SMALL
USER_CHARGES


@<TRIPOS>ATOM
  1 S        0.5960    -0.3000    -0.6160 S.3   1 <1>  -0.0800 
  2 C        1.9970     0.7250    -0.2860 C.ar  1 <1>   0.2970 
  3 C       -0.4970     1.0830    -0.4940 C.ar  1 <1>   0.0400 
  4 N        3.1960     0.1930    -0.2400 N.ar  1 <1>  -0.5670 
  5 C        1.6180     2.0500    -0.1090 C.ar  1 <1>   0.0000 
  6 C       -1.8640     1.1120    -0.6300 C.ar  1 <1>   0.4100 
  7 C        0.1860     2.2310    -0.2220 C.ar  1 <1>   0.2560 
  8 C        4.1570     1.0680     0.0190 C.ar  1 <1>   0.4100 
  9 C        2.6470     2.9600     0.1500 C.ar  1 <1>  -0.1430 
 10 N       -2.4910     2.2700    -0.4870 N.ar  1 <1>  -0.3100 
 11 N       -2.5850    -0.0330    -0.9020 N.pl3 1 <1>  -0.8690 
 12 N       -0.4900     3.3690    -0.0830 N.ar  1 <1>  -0.2560 
 13 N        5.4360     0.5510     0.0470 N.pl3 1 <1>  -0.8380 
 14 C        3.9300     2.4430     0.2310 C.ar  1 <1>  -0.1430 
 15 C        2.3510     4.4470     0.3450 C.3   1 <1>  -0.0170 
 16 N       -1.7980     3.3660    -0.2180 N.ar  1 <1>   0.0000 
 17 C       -4.0270    -0.0540    -1.2740 C.3   1 <1>   0.2090 
 18 C        6.1730     0.5030    -1.2490 C.3   1 <1>   0.2090 
 19 C        5.7030    -0.6430     0.9070 C.3   1 <1>   0.2090 
 20 C        5.1260     3.3460     0.5470 C.3   1 <1>  -0.0170 
 21 C        3.6060     5.3250     0.3100 C.3   1 <1>  -0.1600 
 22 C       -4.9000    -0.0680    -0.0190 C.3   1 <1>   0.1200 
 23 C        6.0420    -0.8760    -1.9200 C.3   1 <1>   0.1200 
 24 C        5.6260    -1.9580     0.1060 C.3   1 <1>   0.1200 
 25 C        4.7210     4.6960     1.1440 C.3   1 <1>  -0.1600 
 26 O       -6.2290    -0.2440    -0.4010 O.3   1 <1>  -0.5600 
 27 O        6.4250    -1.8980    -1.0430 O.3   1 <1>  -0.5600 
 28 C       -7.1270    -0.2080     0.6610 C.3   1 <1>   0.0400 
 29 H       -2.0670    -0.8990    -1.0810 H     1 <1>   0.4000 
 30 H        1.8580     4.5740     1.2940 H     1 <1>   0.0800 
 31 H        1.6850     4.7940    -0.4240 H     1 <1>   0.0800 
 32 H       -4.2290    -0.9340    -1.8580 H     1 <1>   0.0800 
 33 H       -4.2650     0.8150    -1.8640 H     1 <1>   0.0800 
 34 H        7.2130     0.7140    -1.0730 H     1 <1>   0.0800 
 35 H        5.7870     1.2580    -1.9120 H     1 <1>   0.0800 
 36 H        4.9880    -0.6750     1.7110 H     1 <1>   0.0800 
 37 H        6.6830    -0.5520     1.3400 H     1 <1>   0.0800 
 38 H        5.6750     3.5090    -0.3630 H     1 <1>   0.0800 
 39 H        5.7830     2.8510     1.2410 H     1 <1>   0.0800 
 40 H        3.3690     6.3050     0.6870 H     1 <1>   0.0800 
 41 H        3.9380     5.4310    -0.7080 H     1 <1>   0.0800 
 42 H       -4.8080     0.8690     0.5040 H     1 <1>   0.0800 
 43 H       -4.6180    -0.8840     0.6220 H     1 <1>   0.0800 
 44 H        6.6770    -0.9300    -2.7860 H     1 <1>   0.0800 
 45 H        5.0230    -1.0470    -2.2250 H     1 <1>   0.0800 
 46 H        4.6100    -2.1540    -0.1920 H     1 <1>   0.0800 
 47 H        5.9730    -2.7780     0.7070 H     1 <1>   0.0800 
 48 H        5.5760     5.3490     1.1710 H     1 <1>   0.0800 
 49 H        4.3770     4.5520     2.1540 H     1 <1>   0.0800 
 50 H       -8.1170    -0.3570     0.2670 H     1 <1>   0.0800 
 51 H       -7.0690     0.7530     1.1420 H     1 <1>   0.0800 
 52 H       -6.8900    -0.9960     1.3550 H     1 <1>   0.0800 
@<TRIPOS>BOND
  1   1   2  1   
  2   1   3  1   
  3   2   4  ar  
  4   2   5  ar  
  5   3   6  ar  
  6   3   7  ar  
  7   4   8  ar  
  8   5   7  1   
  9   5   9  ar  
 10   6  10  ar  
 11   6  11  1   
 12   7  12  ar  
 13   8  13  1   
 14   8  14  ar  
 15   9  14  ar  
 16   9  15  1   
 17  10  16  ar  
 18  11  17  1   
 19  11  29  1   
 20  12  16  ar  
 21  13  18  1   
 22  13  19  1   
 23  14  20  1   
 24  15  21  1   
 25  15  30  1   
 26  15  31  1   
 27  17  22  1   
 28  17  32  1   
 29  17  33  1   
 30  18  23  1   
 31  18  34  1   
 32  18  35  1   
 33  19  24  1   
 34  19  36  1   
 35  19  37  1   
 36  20  25  1   
 37  20  38  1   
 38  20  39  1   
 39  21  25  1   
 40  21  40  1   
 41  21  41  1   
 42  22  26  1   
 43  22  42  1   
 44  22  43  1   
 45  23  27  1   
 46  23  44  1   
 47  23  45  1   
 48  24  27  1   
 49  24  46  1   
 50  24  47  1   
 51  25  48  1   
 52  25  49  1   
 53  26  28  1   
 54  28  50  1   
 55  28  51  1   
 56  28  52  1   
@<TRIPOS>SUBSTRUCTURE
  1 ****   5 GROUP 4 **** **** 0

# MOE 2024.06 (io_trps.svl 2023.06)
