@<TRIPOS>MOLECULE
NONAME
46 48 1 0 0 
SMALL
USER_CHARGES


@<TRIPOS>ATOM
  1 O       -1.9640     0.7880    -0.2890 O.3   1 <1>  -0.3630 
  2 C       -0.9290     1.6380    -0.0320 C.ar  1 <1>   0.0830 
  3 C       -2.0800     0.0470    -1.4880 C.3   1 <1>   0.1200 
  4 C       -1.0010     2.4000     1.1330 C.ar  1 <1>  -0.1440 
  5 C        0.1710     1.7800    -0.8740 C.ar  1 <1>  -0.1500 
  6 C       -2.6320     0.9540    -2.5890 C.3   1 <1>  -0.2400 
  7 C        0.0190     3.2860     1.4460 C.ar  1 <1>  -0.1500 
  8 C       -2.1960     2.2740     2.0590 C.3   1 <1>   0.4860 
  9 C        1.1830     2.6670    -0.5540 C.ar  1 <1>  -0.1500 
 10 C        1.1080     3.4190     0.6040 C.ar  1 <1>  -0.1500 
 11 N       -3.4200     2.5850     1.2830 N.4   1 <1>  -0.9590 
 12 C       -3.4390     3.9970     0.7630 C.3   1 <1>   0.3430 
 13 C       -4.6900     2.2430     2.0070 C.3   1 <1>   0.3430 
 14 C       -4.6770     4.2710    -0.1140 C.3   1 <1>   0.2090 
 15 C       -5.9360     2.5060     1.1370 C.3   1 <1>   0.2090 
 16 N       -5.9450     3.8940     0.5820 N.pl3 1 <1>  -0.8380 
 17 C       -7.0820     4.2030    -0.1330 C.ar  1 <1>   0.4100 
 18 N       -7.2860     3.5010    -1.2390 N.ar  1 <1>  -0.6200 
 19 C       -7.9360     5.2040     0.3190 C.ar  1 <1>  -0.1500 
 20 C       -8.3810     3.8090    -1.9160 C.ar  1 <1>   0.1600 
 21 C       -9.0690     5.5120    -0.3950 C.ar  1 <1>  -0.1500 
 22 C       -9.2890     4.7860    -1.5480 C.ar  1 <1>  -0.1500 
 23 H       -2.7680    -0.7600    -1.3020 H     1 <1>   0.0800 
 24 H       -1.1270    -0.3820    -1.7450 H     1 <1>   0.0800 
 25 H        0.2670     1.2140    -1.7800 H     1 <1>   0.1500 
 26 H       -3.6000     1.3320    -2.3130 H     1 <1>   0.0800 
 27 H       -2.7400     0.3890    -3.4970 H     1 <1>   0.0800 
 28 H       -1.9660     1.7750    -2.7840 H     1 <1>   0.0800 
 29 H       -0.0150     3.8790     2.3450 H     1 <1>   0.1500 
 30 H       -2.0980     2.9480     2.8930 H     1 <1>   0.0800 
 31 H       -2.2420     1.2630     2.4310 H     1 <1>   0.0800 
 32 H        2.0330     2.7720    -1.2070 H     1 <1>   0.1500 
 33 H        1.9030     4.1050     0.8480 H     1 <1>   0.1500 
 34 H       -3.3410     1.9690     0.4550 H     1 <1>   0.4500 
 35 H       -2.5510     4.1870     0.1820 H     1 <1>   0.0800 
 36 H       -3.4500     4.6880     1.5890 H     1 <1>   0.0800 
 37 H       -4.7710     2.8400     2.8990 H     1 <1>   0.0800 
 38 H       -4.6800     1.2060     2.2980 H     1 <1>   0.0800 
 39 H       -4.5930     3.7170    -1.0350 H     1 <1>   0.0800 
 40 H       -4.7100     5.3170    -0.3660 H     1 <1>   0.0800 
 41 H       -6.8230     2.3600     1.7300 H     1 <1>   0.0800 
 42 H       -5.9660     1.7950     0.3280 H     1 <1>   0.0800 
 43 H       -7.6950     5.7230     1.2260 H     1 <1>   0.1500 
 44 H       -8.5670     3.2520    -2.8180 H     1 <1>   0.1500 
 45 H       -9.7520     6.2810    -0.0740 H     1 <1>   0.1500 
 46 H      -10.1570     4.9760    -2.1550 H     1 <1>   0.1500 
@<TRIPOS>BOND
  1   1   2  1   
  2   1   3  1   
  3   2   4  ar  
  4   2   5  ar  
  5   3   6  1   
  6   3  23  1   
  7   3  24  1   
  8   4   7  ar  
  9   4   8  1   
 10   5   9  ar  
 11   5  25  1   
 12   6  26  1   
 13   6  27  1   
 14   6  28  1   
 15   7  10  ar  
 16   7  29  1   
 17   8  11  1   
 18   8  30  1   
 19   8  31  1   
 20   9  10  ar  
 21   9  32  1   
 22  10  33  1   
 23  11  12  1   
 24  11  13  1   
 25  11  34  1   
 26  12  14  1   
 27  12  35  1   
 28  12  36  1   
 29  13  15  1   
 30  13  37  1   
 31  13  38  1   
 32  14  16  1   
 33  14  39  1   
 34  14  40  1   
 35  15  16  1   
 36  15  41  1   
 37  15  42  1   
 38  16  17  1   
 39  17  18  ar  
 40  17  19  ar  
 41  18  20  ar  
 42  19  21  ar  
 43  19  43  1   
 44  20  22  ar  
 45  20  44  1   
 46  21  22  ar  
 47  21  45  1   
 48  22  46  1   
@<TRIPOS>SUBSTRUCTURE
  1 ****  12 GROUP 4 **** **** 0

# MOE 2024.06 (io_trps.svl 2023.06)
