@<TRIPOS>MOLECULE
NONAME
35 36 1 0 0 
SMALL
USER_CHARGES


@<TRIPOS>ATOM
  1 O        0.8860    -1.3140     3.0600 O.3   1 <1>  -0.3370 
  2 N        1.9810    -0.6910     2.6450 N.2   1 <1>  -0.5130 
  3 C        2.5390    -1.1140     1.5770 C.2   1 <1>   0.4750 
  4 C        2.0720    -2.2120     0.7620 C.2   1 <1>  -0.0860 
  5 C        3.7950    -0.4090     1.0870 C.3   1 <1>  -0.0990 
  6 C        0.8400    -2.1880     0.0550 C.ar  1 <1>   0.0000 
  7 C        2.6450    -3.4260     0.4910 C.2   1 <1>  -0.3320 
  8 C        3.5280     0.4160    -0.1820 C.3   1 <1>  -0.1600 
  9 C        0.7300    -3.3950    -0.6230 C.ar  1 <1>  -0.1520 
 10 C       -0.1790    -1.2390    -0.0610 C.ar  1 <1>  -0.1500 
 11 N        1.8450    -4.1400    -0.3500 N.pl3 1 <1>   0.0330 
 12 C        3.9520    -3.9990     1.0110 C.3   1 <1>  -0.0600 
 13 C        4.7950     1.1350    -0.6590 C.3   1 <1>  -0.1600 
 14 C       -0.3840    -3.6770    -1.4170 C.ar  1 <1>  -0.1500 
 15 C       -1.2780    -1.5140    -0.8420 C.ar  1 <1>  -0.1500 
 16 C        4.5180     1.9510    -1.9250 C.3   1 <1>  -0.2400 
 17 C       -1.3800    -2.7340    -1.5200 C.ar  1 <1>  -0.1500 
 18 H        0.5670    -2.0340     2.4730 H     1 <1>   0.4000 
 19 H        4.1570     0.2400     1.8650 H     1 <1>   0.0800 
 20 H        4.5560    -1.1400     0.8890 H     1 <1>   0.0800 
 21 H        3.1700    -0.2340    -0.9630 H     1 <1>   0.0800 
 22 H        2.7580     1.1410     0.0250 H     1 <1>   0.0800 
 23 H       -0.0910    -0.3030     0.4650 H     1 <1>   0.1500 
 24 H        2.0260    -5.0800    -0.7170 H     1 <1>   0.2700 
 25 H        4.6630    -4.0890     0.2090 H     1 <1>   0.0800 
 26 H        3.7850    -4.9710     1.4400 H     1 <1>   0.0800 
 27 H        4.3690    -3.3660     1.7740 H     1 <1>   0.0800 
 28 H        5.1510     1.7930     0.1150 H     1 <1>   0.0800 
 29 H        5.5660     0.4130    -0.8660 H     1 <1>   0.0800 
 30 H       -0.4540    -4.6170    -1.9350 H     1 <1>   0.1500 
 31 H       -2.0700    -0.7920    -0.9380 H     1 <1>   0.1500 
 32 H        3.7650     2.6950    -1.7350 H     1 <1>   0.0800 
 33 H        4.1790     1.3100    -2.7190 H     1 <1>   0.0800 
 34 H        5.4160     2.4480    -2.2470 H     1 <1>   0.0800 
 35 H       -2.2490    -2.9260    -2.1250 H     1 <1>   0.1500 
@<TRIPOS>BOND
  1   1   2  1   
  2   1  18  1   
  3   2   3  2   
  4   3   4  1   
  5   3   5  1   
  6   4   6  1   
  7   4   7  2   
  8   5   8  1   
  9   5  19  1   
 10   5  20  1   
 11   6   9  ar  
 12   6  10  ar  
 13   7  11  1   
 14   7  12  1   
 15   8  13  1   
 16   8  21  1   
 17   8  22  1   
 18   9  11  1   
 19   9  14  ar  
 20  10  15  ar  
 21  10  23  1   
 22  11  24  1   
 23  12  25  1   
 24  12  26  1   
 25  12  27  1   
 26  13  16  1   
 27  13  28  1   
 28  13  29  1   
 29  14  17  ar  
 30  14  30  1   
 31  15  17  ar  
 32  15  31  1   
 33  16  32  1   
 34  16  33  1   
 35  16  34  1   
 36  17  35  1   
@<TRIPOS>SUBSTRUCTURE
  1 ****   4 GROUP 4 **** **** 0

# MOE 2024.06 (io_trps.svl 2023.06)
