@<TRIPOS>MOLECULE
NONAME
37 37 1 0 0 
SMALL
USER_CHARGES


@<TRIPOS>ATOM
  1 CL      -0.8810     0.5340     1.6280 Cl    1 <1>  -0.1770 
  2 C       -0.4330     2.0080     0.7930 C.ar  1 <1>   0.1770 
  3 C        0.9050     2.3520     0.6470 C.ar  1 <1>   0.0830 
  4 C       -1.4450     2.8030     0.2960 C.ar  1 <1>  -0.1500 
  5 O        1.8460     1.5120     1.1690 O.3   1 <1>  -0.3630 
  6 C        1.2210     3.5330    -0.0200 C.ar  1 <1>  -0.1500 
  7 C       -1.1380     3.9840    -0.3670 C.ar  1 <1>   0.1990 
  8 C        3.2260     1.7610     1.0200 C.3   1 <1>   0.0400 
  9 C        0.2080     4.3440    -0.5250 C.ar  1 <1>   0.0830 
 10 N       -2.1280     4.8310    -0.8720 N.am  1 <1>  -0.7570 
 11 O        0.4600     5.5150    -1.1890 O.3   1 <1>  -0.3630 
 12 S       -3.7330     4.4640    -1.3460 S.o2  1 <1>   1.3330 
 13 C        1.7750     5.9070    -1.5230 C.3   1 <1>   0.0400 
 14 O       -4.0670     5.4980    -2.2930 O.2   1 <1>  -0.6500 
 15 O       -3.7750     3.0690    -1.7090 O.2   1 <1>  -0.6500 
 16 C       -4.6450     4.7380     0.1740 C.3   1 <1>  -0.0550 
 17 C       -6.1570     4.4970     0.0380 C.3   1 <1>  -0.1600 
 18 C       -6.8810     4.7410     1.3680 C.3   1 <1>  -0.1600 
 19 C       -8.3860     4.4970     1.2240 C.3   1 <1>  -0.2400 
 20 H       -2.4610     2.4880     0.4290 H     1 <1>   0.1500 
 21 H        2.2460     3.8160    -0.1400 H     1 <1>   0.1500 
 22 H        3.7610     0.9560     1.4910 H     1 <1>   0.0800 
 23 H        3.4690     2.6910     1.5020 H     1 <1>   0.0800 
 24 H        3.4650     1.7920    -0.0290 H     1 <1>   0.0800 
 25 H       -1.7730     5.6180    -1.4140 H     1 <1>   0.4200 
 26 H        1.7180     6.8210    -2.0870 H     1 <1>   0.0800 
 27 H        2.2290     5.1370    -2.1230 H     1 <1>   0.0800 
 28 H        2.3320     6.0730    -0.6180 H     1 <1>   0.0800 
 29 H       -4.4840     5.7490     0.4970 H     1 <1>   0.0800 
 30 H       -4.2590     4.0880     0.9350 H     1 <1>   0.0800 
 31 H       -6.3250     3.4820    -0.2840 H     1 <1>   0.0800 
 32 H       -6.5540     5.1550    -0.7170 H     1 <1>   0.0800 
 33 H       -6.7180     5.7560     1.6900 H     1 <1>   0.0800 
 34 H       -6.4880     4.0820     2.1240 H     1 <1>   0.0800 
 35 H       -8.8070     5.1610     0.4890 H     1 <1>   0.0800 
 36 H       -8.8790     4.6730     2.1640 H     1 <1>   0.0800 
 37 H       -8.5760     3.4820     0.9240 H     1 <1>   0.0800 
@<TRIPOS>BOND
  1   1   2  1   
  2   2   3  ar  
  3   2   4  ar  
  4   3   5  1   
  5   3   6  ar  
  6   4   7  ar  
  7   4  20  1   
  8   5   8  1   
  9   6   9  ar  
 10   6  21  1   
 11   7   9  ar  
 12   7  10  1   
 13   8  22  1   
 14   8  23  1   
 15   8  24  1   
 16   9  11  1   
 17  10  12  am  
 18  10  25  1   
 19  11  13  1   
 20  12  14  2   
 21  12  15  2   
 22  12  16  1   
 23  13  26  1   
 24  13  27  1   
 25  13  28  1   
 26  16  17  1   
 27  16  29  1   
 28  16  30  1   
 29  17  18  1   
 30  17  31  1   
 31  17  32  1   
 32  18  19  1   
 33  18  33  1   
 34  18  34  1   
 35  19  35  1   
 36  19  36  1   
 37  19  37  1   
@<TRIPOS>SUBSTRUCTURE
  1 ****   7 GROUP 4 **** **** 0

# MOE 2024.06 (io_trps.svl 2023.06)
