@<TRIPOS>MOLECULE
NONAME
34 34 1 0 0 
SMALL
USER_CHARGES


@<TRIPOS>ATOM
  1 S        0.0780    -0.1250     0.2250 S.3   1 <1>  -0.3320 
  2 C        1.5200     0.8670    -0.1260 C.ar  1 <1>   0.7220 
  3 C       -1.3640     1.0630     0.1010 C.3   1 <1>   0.0440 
  4 N        2.6790     0.2960     0.1710 N.ar  1 <1>  -0.6200 
  5 N        1.2910     2.0500    -0.6660 N.ar  1 <1>  -0.6200 
  6 C       -1.3010     2.1780     1.1590 C.2   1 <1>   0.9060 
  7 C       -2.6400     0.2040     0.1710 C.3   1 <1>  -0.1600 
  8 C        3.7300     1.0480    -0.0570 C.ar  1 <1>   0.1670 
  9 C        2.3550     2.7840    -0.8660 C.ar  1 <1>   0.1660 
 10 O       -1.0810     1.9010     2.3470 O.co2 1 <1>  -0.9000 
 11 O       -1.5530     3.3400     0.8070 O.co2 1 <1>  -0.9000 
 12 C       -3.9060     1.0240    -0.1190 C.3   1 <1>  -0.1600 
 13 C        3.6180     2.3190    -0.5750 C.ar  1 <1>  -0.1500 
 14 C        5.0790     0.4530     0.2840 C.3   1 <1>  -0.0970 
 15 C        2.1170     4.1710    -1.4220 C.3   1 <1>  -0.0970 
 16 C       -5.1590     0.1410    -0.0890 C.3   1 <1>  -0.1600 
 17 C       -6.4180     0.9620    -0.3780 C.3   1 <1>  -0.2400 
 18 H       -1.2870     1.5220    -0.8650 H     1 <1>   0.0800 
 19 H       -2.7070    -0.2250     1.1560 H     1 <1>   0.0800 
 20 H       -2.5610    -0.5940    -0.5450 H     1 <1>   0.0800 
 21 H       -3.8130     1.4930    -1.0830 H     1 <1>   0.0800 
 22 H       -3.9990     1.8050     0.6190 H     1 <1>   0.0800 
 23 H        4.4830     2.9300    -0.7450 H     1 <1>   0.1500 
 24 H        5.2260    -0.4480    -0.2820 H     1 <1>   0.0800 
 25 H        5.1060     0.2110     1.3310 H     1 <1>   0.0800 
 26 H        5.8730     1.1410     0.0630 H     1 <1>   0.0800 
 27 H        1.6730     4.0960    -2.3970 H     1 <1>   0.0800 
 28 H        3.0340     4.7260    -1.4890 H     1 <1>   0.0800 
 29 H        1.4350     4.6950    -0.7750 H     1 <1>   0.0800 
 30 H       -5.2480    -0.3170     0.8820 H     1 <1>   0.0800 
 31 H       -5.0660    -0.6420    -0.8220 H     1 <1>   0.0800 
 32 H       -6.5320     1.7390     0.3580 H     1 <1>   0.0800 
 33 H       -7.2870     0.3290    -0.3480 H     1 <1>   0.0800 
 34 H       -6.3540     1.4150    -1.3520 H     1 <1>   0.0800 
@<TRIPOS>BOND
  1   1   2  1   
  2   1   3  1   
  3   2   4  ar  
  4   2   5  ar  
  5   3   6  1   
  6   3   7  1   
  7   3  18  1   
  8   4   8  ar  
  9   5   9  ar  
 10   6  10  ar  
 11   6  11  ar  
 12   7  12  1   
 13   7  19  1   
 14   7  20  1   
 15   8  13  ar  
 16   8  14  1   
 17   9  13  ar  
 18   9  15  1   
 19  12  16  1   
 20  12  21  1   
 21  12  22  1   
 22  13  23  1   
 23  14  24  1   
 24  14  25  1   
 25  14  26  1   
 26  15  27  1   
 27  15  28  1   
 28  15  29  1   
 29  16  17  1   
 30  16  30  1   
 31  16  31  1   
 32  17  32  1   
 33  17  33  1   
 34  17  34  1   
@<TRIPOS>SUBSTRUCTURE
  1 ****   3 GROUP 4 **** **** 0

# MOE 2024.06 (io_trps.svl 2023.06)
