@<TRIPOS>MOLECULE
NONAME
53 57 1 0 0 
SMALL
USER_CHARGES


@<TRIPOS>ATOM
  1 O        1.1940     0.9360     0.7660 O.2   1 <1>  -0.5700 
  2 C        1.6180    -0.1510     0.4910 C.2   1 <1>   0.4480 
  3 C        3.0750    -0.4220     0.1170 C.3   1 <1>   0.0610 
  4 C        0.7620    -1.4170     0.4750 C.3   1 <1>   0.0610 
  5 C        3.0480    -1.0540    -1.2870 C.3   1 <1>   0.1100 
  6 C        3.5950    -1.4520     1.1380 C.3   1 <1>   0.1100 
  7 C        3.9540     0.8440     0.1270 C.3   1 <1>  -0.2400 
  8 C        0.8690    -2.0000    -0.9490 C.3   1 <1>   0.1100 
  9 C        1.4130    -2.3980     1.4700 C.3   1 <1>   0.1100 
 10 C       -0.7120    -1.1650     0.8480 C.3   1 <1>  -0.2400 
 11 N        2.2830    -2.3180    -1.2670 N.3   1 <1>  -0.8100 
 12 N        2.8060    -2.6990     1.0560 N.3   1 <1>  -0.8100 
 13 C        2.8340    -3.3460    -0.3070 C.3   1 <1>   0.7440 
 14 C        2.0800    -4.7370    -0.3640 C.2   1 <1>   0.5690 
 15 C        4.2530    -3.8480    -0.7060 C.ar  1 <1>  -0.1440 
 16 O        0.8980    -4.9440    -0.1470 O.2   1 <1>  -0.5700 
 17 N        2.9410    -5.7380    -0.7030 N.am  1 <1>  -0.4770 
 18 C        4.2120    -5.2210    -0.9100 C.ar  1 <1>   0.1170 
 19 C        5.4750    -3.2000    -0.8790 C.ar  1 <1>  -0.1500 
 20 C        2.5370    -7.1600    -0.8300 C.3   1 <1>   0.1400 
 21 C        5.3460    -5.9340    -1.2750 C.ar  1 <1>  -0.1500 
 22 C        6.6130    -3.9020    -1.2460 C.ar  1 <1>  -0.1430 
 23 C        2.5070    -7.8560     0.5390 C.3   1 <1>  -0.1600 
 24 C        6.5450    -5.2710    -1.4420 C.ar  1 <1>  -0.1500 
 25 C        7.9280    -3.1650    -1.4260 C.3   1 <1>  -0.0970 
 26 C        3.8740    -7.9120     1.2350 C.3   1 <1>  -0.2400 
 27 H        2.5770    -0.3710    -1.9740 H     1 <1>   0.0800 
 28 H        4.0340    -1.2220    -1.6680 H     1 <1>   0.0800 
 29 H        3.5040    -1.0440     2.1310 H     1 <1>   0.0800 
 30 H        4.6350    -1.6610     0.9980 H     1 <1>   0.0800 
 31 H        3.5720     1.5670    -0.5720 H     1 <1>   0.0800 
 32 H        4.9690     0.6070    -0.1400 H     1 <1>   0.0800 
 33 H        3.9500     1.2920     1.1060 H     1 <1>   0.0800 
 34 H        0.4980    -1.2800    -1.6600 H     1 <1>   0.0800 
 35 H        0.2510    -2.8730    -1.0480 H     1 <1>   0.0800 
 36 H        1.4210    -1.9590     2.4540 H     1 <1>   0.0800 
 37 H        0.8350    -3.3010     1.5440 H     1 <1>   0.0800 
 38 H       -0.7800    -0.7460     1.8370 H     1 <1>   0.0800 
 39 H       -1.2720    -2.0830     0.8220 H     1 <1>   0.0800 
 40 H       -1.1570    -0.4690     0.1580 H     1 <1>   0.0800 
 41 H        5.5800    -2.1450    -0.7370 H     1 <1>   0.1500 
 42 H        3.2060    -7.6740    -1.4960 H     1 <1>   0.0800 
 43 H        1.5530    -7.1980    -1.2650 H     1 <1>   0.0800 
 44 H        5.2990    -6.9950    -1.4260 H     1 <1>   0.1500 
 45 H        2.1490    -8.8600     0.3990 H     1 <1>   0.0800 
 46 H        1.7990    -7.3490     1.1730 H     1 <1>   0.0800 
 47 H        7.4240    -5.8250    -1.7240 H     1 <1>   0.1500 
 48 H        7.7830    -2.2960    -2.0430 H     1 <1>   0.0800 
 49 H        8.6610    -3.7960    -1.8960 H     1 <1>   0.0800 
 50 H        8.3060    -2.8540    -0.4680 H     1 <1>   0.0800 
 51 H        4.5950    -8.4130     0.6130 H     1 <1>   0.0800 
 52 H        3.7910    -8.4490     2.1630 H     1 <1>   0.0800 
 53 H        4.2300    -6.9200     1.4520 H     1 <1>   0.0800 
@<TRIPOS>BOND
  1   1   2  2   
  2   2   3  1   
  3   2   4  1   
  4   3   5  1   
  5   3   6  1   
  6   3   7  1   
  7   4   8  1   
  8   4   9  1   
  9   4  10  1   
 10   5  11  1   
 11   5  27  1   
 12   5  28  1   
 13   6  12  1   
 14   6  29  1   
 15   6  30  1   
 16   7  31  1   
 17   7  32  1   
 18   7  33  1   
 19   8  11  1   
 20   8  34  1   
 21   8  35  1   
 22   9  12  1   
 23   9  36  1   
 24   9  37  1   
 25  10  38  1   
 26  10  39  1   
 27  10  40  1   
 28  11  13  1   
 29  12  13  1   
 30  13  14  1   
 31  13  15  1   
 32  14  16  2   
 33  14  17  am  
 34  15  18  ar  
 35  15  19  ar  
 36  17  18  1   
 37  17  20  1   
 38  18  21  ar  
 39  19  22  ar  
 40  19  41  1   
 41  20  23  1   
 42  20  42  1   
 43  20  43  1   
 44  21  24  ar  
 45  21  44  1   
 46  22  24  ar  
 47  22  25  1   
 48  23  26  1   
 49  23  45  1   
 50  23  46  1   
 51  24  47  1   
 52  25  48  1   
 53  25  49  1   
 54  25  50  1   
 55  26  51  1   
 56  26  52  1   
 57  26  53  1   
@<TRIPOS>SUBSTRUCTURE
  1 ****  13 GROUP 4 **** **** 0

# MOE 2024.06 (io_trps.svl 2023.06)
