@<TRIPOS>MOLECULE
NONAME
48 50 1 0 0 
SMALL
USER_CHARGES


@<TRIPOS>ATOM
  1 S        0.5370    -0.0050    -1.2280 S.o2  1 <1>   1.4470 
  2 O        0.5730    -0.0010    -2.6720 O.2   1 <1>  -0.6500 
  3 O        0.5640     1.2400    -0.4960 O.2   1 <1>  -0.6500 
  4 N        1.9390    -0.8930    -0.7160 N.am  1 <1>  -0.6930 
  5 C       -0.8350    -1.0330    -0.6370 C.ar  1 <1>  -0.0090 
  6 C        2.4970    -0.7380     0.5450 C.ar  1 <1>   0.1990 
  7 C        2.5140    -1.8930    -1.6700 C.3   1 <1>   0.2570 
  8 C       -1.3140    -2.1020    -1.3880 C.ar  1 <1>  -0.1500 
  9 C       -1.4260    -0.7980     0.6000 C.ar  1 <1>  -0.1500 
 10 C        1.8660    -1.2600     1.6730 C.ar  1 <1>  -0.1500 
 11 C        3.7100    -0.0700     0.6900 C.ar  1 <1>  -0.1500 
 12 C        1.7710    -3.2280    -1.6490 C.2   1 <1>   0.5690 
 13 C       -2.3270    -2.9150    -0.9140 C.ar  1 <1>  -0.1500 
 14 C       -2.4420    -1.6060     1.0840 C.ar  1 <1>  -0.1500 
 15 C        2.4380    -1.1260     2.9270 C.ar  1 <1>  -0.1500 
 16 C        4.2940     0.0730     1.9370 C.ar  1 <1>  -0.1500 
 17 O        1.4100    -3.7150    -2.6930 O.2   1 <1>  -0.5700 
 18 N        1.5270    -3.8140    -0.4450 N.am  1 <1>  -0.5790 
 19 C       -2.8940    -2.6800     0.3260 C.ar  1 <1>   0.0830 
 20 C        3.6450    -0.4610     3.0340 C.ar  1 <1>   0.1900 
 21 C        0.7250    -5.0240    -0.2220 C.3   1 <1>   0.0490 
 22 O       -3.8670    -3.5330     0.7260 O.3   1 <1>  -0.3630 
 23 F        4.1920    -0.3340     4.2150 F     1 <1>  -0.1900 
 24 C       -0.2550    -5.0100     0.9030 C.3   1 <1>  -0.2000 
 25 C        0.9970    -5.8290     1.0050 C.3   1 <1>  -0.2000 
 26 C       -4.5390    -3.3650     1.9520 C.3   1 <1>   0.1200 
 27 C       -5.5670    -4.4840     2.0840 C.3   1 <1>  -0.2400 
 28 H        3.5420    -2.0790    -1.4140 H     1 <1>   0.0800 
 29 H        2.4990    -1.4990    -2.6710 H     1 <1>   0.0800 
 30 H       -0.8890    -2.3070    -2.3580 H     1 <1>   0.1500 
 31 H       -1.0850     0.0330     1.1960 H     1 <1>   0.1500 
 32 H        0.9270    -1.7720     1.5740 H     1 <1>   0.1500 
 33 H        4.1890     0.3440    -0.1800 H     1 <1>   0.1500 
 34 H       -2.6800    -3.7420    -1.5050 H     1 <1>   0.1500 
 35 H       -2.8650    -1.3840     2.0460 H     1 <1>   0.1500 
 36 H        1.9640    -1.5220     3.8070 H     1 <1>   0.1500 
 37 H        5.2300     0.5890     2.0620 H     1 <1>   0.1500 
 38 H        1.8450    -3.3460     0.4030 H     1 <1>   0.3700 
 39 H        0.4540    -5.5330    -1.1340 H     1 <1>   0.1000 
 40 H       -1.1940    -5.5180     0.7670 H     1 <1>   0.1000 
 41 H       -0.3550    -4.1160     1.4910 H     1 <1>   0.1000 
 42 H        1.7760    -5.5140     1.6760 H     1 <1>   0.1000 
 43 H        0.9070    -6.9000     0.9480 H     1 <1>   0.1000 
 44 H       -5.0220    -2.4030     1.9470 H     1 <1>   0.0800 
 45 H       -3.8160    -3.4180     2.7480 H     1 <1>   0.0800 
 46 H       -6.2750    -4.4330     1.2770 H     1 <1>   0.0800 
 47 H       -6.0980    -4.3840     3.0130 H     1 <1>   0.0800 
 48 H       -5.0760    -5.4410     2.0700 H     1 <1>   0.0800 
@<TRIPOS>BOND
  1   1   2  2   
  2   1   3  2   
  3   1   4  am  
  4   1   5  1   
  5   4   6  1   
  6   4   7  1   
  7   5   8  ar  
  8   5   9  ar  
  9   6  10  ar  
 10   6  11  ar  
 11   7  12  1   
 12   7  28  1   
 13   7  29  1   
 14   8  13  ar  
 15   8  30  1   
 16   9  14  ar  
 17   9  31  1   
 18  10  15  ar  
 19  10  32  1   
 20  11  16  ar  
 21  11  33  1   
 22  12  17  2   
 23  12  18  am  
 24  13  19  ar  
 25  13  34  1   
 26  14  19  ar  
 27  14  35  1   
 28  15  20  ar  
 29  15  36  1   
 30  16  20  ar  
 31  16  37  1   
 32  18  21  1   
 33  18  38  1   
 34  19  22  1   
 35  20  23  1   
 36  21  24  1   
 37  21  25  1   
 38  21  39  1   
 39  22  26  1   
 40  24  25  1   
 41  24  40  1   
 42  24  41  1   
 43  25  42  1   
 44  25  43  1   
 45  26  27  1   
 46  26  44  1   
 47  26  45  1   
 48  27  46  1   
 49  27  47  1   
 50  27  48  1   
@<TRIPOS>SUBSTRUCTURE
  1 ****   5 GROUP 4 **** **** 0

# MOE 2024.06 (io_trps.svl 2023.06)
