@<TRIPOS>MOLECULE
NONAME
29 30 1 0 0 
SMALL
USER_CHARGES


@<TRIPOS>ATOM
  1 F       -0.2450    -3.0100     2.6670 F     1 <1>  -0.3400 
  2 C       -0.2050    -2.2930     1.5510 C.3   1 <1>   1.0200 
  3 F       -1.4350    -1.8190     1.3760 F     1 <1>  -0.3400 
  4 F        0.5480    -1.2390     1.8600 F     1 <1>  -0.3400 
  5 C        0.3340    -3.0760     0.3080 C.3   1 <1>   0.4990 
  6 N       -0.6000    -4.0280    -0.4210 N.am  1 <1>  -0.7300 
  7 C        0.7760    -1.9920    -0.6840 C.2   1 <1>   0.5690 
  8 C        1.7000    -3.7340     0.5500 C.2   1 <1>  -0.0730 
  9 C       -1.3940    -4.9530     0.1530 C.2   1 <1>   0.6300 
 10 O        0.0400    -1.2500    -1.2860 O.2   1 <1>  -0.5700 
 11 N        2.1170    -2.0500    -0.8710 N.am  1 <1>  -0.5390 
 12 C        1.8360    -4.8590     1.4150 C.1   1 <1>   0.4920 
 13 C        2.6540    -3.0910    -0.1470 C.2   1 <1>  -0.0290 
 14 O       -1.3080    -5.2130     1.3220 O.2   1 <1>  -0.5700 
 15 C       -2.4140    -5.6710    -0.7130 C.3   1 <1>  -0.1000 
 16 N        2.0340    -5.7540     2.0910 N.1   1 <1>  -0.5570 
 17 C        4.1450    -3.3570    -0.2290 C.3   1 <1>  -0.1020 
 18 C       -3.2210    -4.9480    -1.7570 C.3   1 <1>  -0.2000 
 19 C       -3.8810    -5.4350    -0.5050 C.3   1 <1>  -0.2000 
 20 H       -0.7970    -3.7630    -1.3890 H     1 <1>   0.3700 
 21 H        2.6060    -1.4200    -1.5160 H     1 <1>   0.3700 
 22 H       -2.1130    -6.6830    -0.9150 H     1 <1>   0.1000 
 23 H        4.6930    -2.4950     0.1080 H     1 <1>   0.0800 
 24 H        4.4260    -3.5730    -1.2450 H     1 <1>   0.0800 
 25 H        4.4180    -4.1970     0.3850 H     1 <1>   0.0800 
 26 H       -3.4410    -5.4510    -2.6820 H     1 <1>   0.1000 
 27 H       -3.1220    -3.8830    -1.8810 H     1 <1>   0.1000 
 28 H       -4.1810    -4.7210     0.2430 H     1 <1>   0.1000 
 29 H       -4.5470    -6.2790    -0.5570 H     1 <1>   0.1000 
@<TRIPOS>BOND
  1   1   2  1   
  2   2   3  1   
  3   2   4  1   
  4   2   5  1   
  5   5   6  1   
  6   5   7  1   
  7   5   8  1   
  8   6   9  am  
  9   6  20  1   
 10   7  10  2   
 11   7  11  am  
 12   8  12  1   
 13   8  13  2   
 14   9  14  2   
 15   9  15  1   
 16  11  13  1   
 17  11  21  1   
 18  12  16  3   
 19  13  17  1   
 20  15  18  1   
 21  15  19  1   
 22  15  22  1   
 23  17  23  1   
 24  17  24  1   
 25  17  25  1   
 26  18  19  1   
 27  18  26  1   
 28  18  27  1   
 29  19  28  1   
 30  19  29  1   
@<TRIPOS>SUBSTRUCTURE
  1 ****   5 GROUP 4 **** **** 0

# MOE 2024.06 (io_trps.svl 2023.06)
