@<TRIPOS>MOLECULE
NONAME
59 61 1 0 0 
SMALL
USER_CHARGES


@<TRIPOS>ATOM
  1 O       -0.3780    -0.4230    -0.0100 O.3   1 <1>  -0.3630 
  2 C       -1.3280    -1.1720     0.6340 C.ar  1 <1>   0.0830 
  3 C       -0.4900     0.9780    -0.1050 C.3   1 <1>   0.1200 
  4 C       -1.1250    -2.5610     0.7360 C.ar  1 <1>   0.1000 
  5 C       -2.4730    -0.6030     1.1840 C.ar  1 <1>  -0.1500 
  6 C        0.7400     1.5000    -0.8420 C.3   1 <1>  -0.2400 
  7 N       -0.0060    -3.2290     0.2150 N.pl3 1 <1>  -0.8380 
  8 C       -2.0780    -3.3300     1.3870 C.ar  1 <1>  -0.1500 
  9 C       -3.4110    -1.3930     1.8290 C.ar  1 <1>  -0.1500 
 10 C        1.2810    -2.8840     0.8910 C.3   1 <1>   0.2090 
 11 C        0.0700    -3.2190    -1.2760 C.3   1 <1>   0.2090 
 12 C       -3.2130    -2.7560     1.9310 C.ar  1 <1>  -0.1500 
 13 C        2.4390    -3.7560     0.3650 C.3   1 <1>   0.3430 
 14 C        1.2360    -4.0920    -1.7800 C.3   1 <1>   0.3430 
 15 N        2.5480    -3.7180    -1.1410 N.4   1 <1>  -0.9590 
 16 C        3.6710    -4.5540    -1.6360 C.3   1 <1>   0.4860 
 17 C        4.9670    -3.9550    -1.1270 C.ar  1 <1>  -0.1430 
 18 C        5.6570    -4.5560    -0.0870 C.ar  1 <1>  -0.1500 
 19 C        5.4700    -2.7930    -1.6880 C.ar  1 <1>  -0.1500 
 20 C        6.8340    -4.0100     0.3970 C.ar  1 <1>   0.0830 
 21 C        6.6460    -2.2270    -1.2230 C.ar  1 <1>   0.0830 
 22 O        7.3960    -4.6850     1.4370 O.3   1 <1>  -0.3630 
 23 C        7.3600    -2.8520    -0.1920 C.ar  1 <1>   0.0830 
 24 O        7.0120    -1.0740    -1.8470 O.3   1 <1>  -0.3630 
 25 C        8.0150    -3.9800     2.4940 C.3   1 <1>   0.0400 
 26 O        8.5680    -2.3690     0.2010 O.3   1 <1>  -0.3630 
 27 C        7.6250    -0.0280    -1.1210 C.3   1 <1>   0.0400 
 28 C        9.6720    -2.9080    -0.4910 C.3   1 <1>   0.0400 
 29 H       -0.5380     1.3860     0.8900 H     1 <1>   0.0800 
 30 H       -1.3880     1.2140    -0.6500 H     1 <1>   0.0800 
 31 H       -2.6650     0.4510     1.1250 H     1 <1>   0.1500 
 32 H        1.6330     1.2500    -0.2980 H     1 <1>   0.0800 
 33 H        0.6810     2.5700    -0.9280 H     1 <1>   0.0800 
 34 H        0.7850     1.0810    -1.8310 H     1 <1>   0.0800 
 35 H       -1.9250    -4.3900     1.4670 H     1 <1>   0.1500 
 36 H       -4.2940    -0.9450     2.2510 H     1 <1>   0.1500 
 37 H        1.1720    -3.0380     1.9510 H     1 <1>   0.0800 
 38 H        1.5150    -1.8460     0.7340 H     1 <1>   0.0800 
 39 H        0.1960    -2.2110    -1.6320 H     1 <1>   0.0800 
 40 H       -0.8570    -3.5930    -1.6760 H     1 <1>   0.0800 
 41 H       -3.9410    -3.3710     2.4320 H     1 <1>   0.1500 
 42 H        2.2690    -4.7680     0.6910 H     1 <1>   0.0800 
 43 H        3.3590    -3.4140     0.8100 H     1 <1>   0.0800 
 44 H        1.3060    -3.9960    -2.8510 H     1 <1>   0.0800 
 45 H        1.0030    -5.1190    -1.5530 H     1 <1>   0.0800 
 46 H        2.7600    -2.7440    -1.3910 H     1 <1>   0.4500 
 47 H        3.6840    -4.5620    -2.7130 H     1 <1>   0.0800 
 48 H        3.5680    -5.5680    -1.2850 H     1 <1>   0.0800 
 49 H        5.2980    -5.4610     0.3720 H     1 <1>   0.1500 
 50 H        4.9660    -2.3000    -2.5000 H     1 <1>   0.1500 
 51 H        7.4660    -3.0760     2.6890 H     1 <1>   0.0800 
 52 H        8.0100    -4.6100     3.3650 H     1 <1>   0.0800 
 53 H        9.0290    -3.7550     2.2180 H     1 <1>   0.0800 
 54 H        7.4600     0.8920    -1.6530 H     1 <1>   0.0800 
 55 H        8.6800    -0.2200    -1.0550 H     1 <1>   0.0800 
 56 H        7.1880     0.0290    -0.1400 H     1 <1>   0.0800 
 57 H       10.5670    -2.4570    -0.1020 H     1 <1>   0.0800 
 58 H        9.6960    -3.9720    -0.3350 H     1 <1>   0.0800 
 59 H        9.5710    -2.6840    -1.5380 H     1 <1>   0.0800 
@<TRIPOS>BOND
  1   1   2  1   
  2   1   3  1   
  3   2   4  ar  
  4   2   5  ar  
  5   3   6  1   
  6   3  29  1   
  7   3  30  1   
  8   4   7  1   
  9   4   8  ar  
 10   5   9  ar  
 11   5  31  1   
 12   6  32  1   
 13   6  33  1   
 14   6  34  1   
 15   7  10  1   
 16   7  11  1   
 17   8  12  ar  
 18   8  35  1   
 19   9  12  ar  
 20   9  36  1   
 21  10  13  1   
 22  10  37  1   
 23  10  38  1   
 24  11  14  1   
 25  11  39  1   
 26  11  40  1   
 27  12  41  1   
 28  13  15  1   
 29  13  42  1   
 30  13  43  1   
 31  14  15  1   
 32  14  44  1   
 33  14  45  1   
 34  15  16  1   
 35  15  46  1   
 36  16  17  1   
 37  16  47  1   
 38  16  48  1   
 39  17  18  ar  
 40  17  19  ar  
 41  18  20  ar  
 42  18  49  1   
 43  19  21  ar  
 44  19  50  1   
 45  20  22  1   
 46  20  23  ar  
 47  21  23  ar  
 48  21  24  1   
 49  22  25  1   
 50  23  26  1   
 51  24  27  1   
 52  25  51  1   
 53  25  52  1   
 54  25  53  1   
 55  26  28  1   
 56  27  54  1   
 57  27  55  1   
 58  27  56  1   
 59  28  57  1   
 60  28  58  1   
 61  28  59  1   
@<TRIPOS>SUBSTRUCTURE
  1 ****  13 GROUP 4 **** **** 0

# MOE 2024.06 (io_trps.svl 2023.06)
