@<TRIPOS>MOLECULE
NONAME
48 49 1 0 0 
SMALL
USER_CHARGES


@<TRIPOS>ATOM
  1 O        0.8200     1.7740     1.0220 O.2   1 <1>  -0.5700 
  2 C        1.4360     1.8000    -0.0130 C.2   1 <1>   0.6590 
  3 O        0.8890     2.2270    -1.1440 O.3   1 <1>  -0.4300 
  4 C        2.8930     1.3560    -0.1210 C.3   1 <1>  -0.0190 
  5 C       -0.4450     2.6750    -1.1910 C.3   1 <1>   0.1200 
  6 C        3.3440     0.4790     1.0660 C.3   1 <1>  -0.1600 
  7 C        3.8290     2.5720    -0.2600 C.3   1 <1>  -0.1600 
  8 C       -0.7500     3.1060    -2.6220 C.3   1 <1>  -0.2400 
  9 C        4.8140     0.0740     0.9440 C.3   1 <1>   0.1400 
 10 C        5.2960     2.1500    -0.3660 C.3   1 <1>   0.1400 
 11 N        5.6560     1.2940     0.8000 N.am  1 <1>  -0.6600 
 12 C        6.6970     1.5470     1.6670 C.2   1 <1>   0.5690 
 13 O        6.9530     0.8000     2.5830 O.2   1 <1>  -0.5700 
 14 C        7.5560     2.8040     1.5440 C.3   1 <1>   0.1810 
 15 O        8.2600     2.8310     0.3110 O.3   1 <1>  -0.3630 
 16 C        8.8690     3.9630    -0.1280 C.ar  1 <1>   0.0820 
 17 C        9.2800     3.9990    -1.4570 C.ar  1 <1>  -0.1440 
 18 C        9.0850     5.0690     0.6930 C.ar  1 <1>  -0.1500 
 19 C        9.8890     5.1400    -1.9510 C.ar  1 <1>  -0.1500 
 20 C        9.0680     2.7980    -2.3670 C.3   1 <1>  -0.0970 
 21 C        9.6930     6.2080     0.1920 C.ar  1 <1>  -0.1440 
 22 C       10.0930     6.2380    -1.1330 C.ar  1 <1>  -0.1500 
 23 C        9.9290     7.4140     1.0830 C.3   1 <1>  -0.0970 
 24 H        2.9730     0.7660    -1.0160 H     1 <1>   0.0800 
 25 H       -0.5520     3.5010    -0.5070 H     1 <1>   0.0800 
 26 H       -1.0880     1.8670    -0.8830 H     1 <1>   0.0800 
 27 H        2.7350    -0.4070     1.1130 H     1 <1>   0.0800 
 28 H        3.2100     1.0140     1.9900 H     1 <1>   0.0800 
 29 H        3.7120     3.2190     0.5920 H     1 <1>   0.0800 
 30 H        3.5620     3.1350    -1.1370 H     1 <1>   0.0800 
 31 H       -0.0950     3.9050    -2.9170 H     1 <1>   0.0800 
 32 H       -1.7650     3.4540    -2.6860 H     1 <1>   0.0800 
 33 H       -0.6310     2.2740    -3.2930 H     1 <1>   0.0800 
 34 H        4.9570    -0.5540     0.0810 H     1 <1>   0.0800 
 35 H        5.1030    -0.4900     1.8150 H     1 <1>   0.0800 
 36 H        5.9110     3.0300    -0.4170 H     1 <1>   0.0800 
 37 H        5.4530     1.5880    -1.2710 H     1 <1>   0.0800 
 38 H        8.2780     2.8270     2.3390 H     1 <1>   0.0800 
 39 H        6.9220     3.6680     1.6000 H     1 <1>   0.0800 
 40 H        8.7940     5.0560     1.7240 H     1 <1>   0.1500 
 41 H       10.2120     5.1820    -2.9760 H     1 <1>   0.1500 
 42 H        8.0180     2.5920    -2.4610 H     1 <1>   0.0800 
 43 H        9.5530     1.9350    -1.9470 H     1 <1>   0.0800 
 44 H        9.4750     2.9760    -3.3460 H     1 <1>   0.0800 
 45 H       10.5690     7.1150    -1.5340 H     1 <1>   0.1500 
 46 H        9.2420     7.4170     1.9100 H     1 <1>   0.0800 
 47 H        9.7910     8.3220     0.5250 H     1 <1>   0.0800 
 48 H       10.9330     7.3910     1.4660 H     1 <1>   0.0800 
@<TRIPOS>BOND
  1   1   2  2   
  2   2   3  1   
  3   2   4  1   
  4   3   5  1   
  5   4   6  1   
  6   4   7  1   
  7   4  24  1   
  8   5   8  1   
  9   5  25  1   
 10   5  26  1   
 11   6   9  1   
 12   6  27  1   
 13   6  28  1   
 14   7  10  1   
 15   7  29  1   
 16   7  30  1   
 17   8  31  1   
 18   8  32  1   
 19   8  33  1   
 20   9  11  1   
 21   9  34  1   
 22   9  35  1   
 23  10  11  1   
 24  10  36  1   
 25  10  37  1   
 26  11  12  am  
 27  12  13  2   
 28  12  14  1   
 29  14  15  1   
 30  14  38  1   
 31  14  39  1   
 32  15  16  1   
 33  16  17  ar  
 34  16  18  ar  
 35  17  19  ar  
 36  17  20  1   
 37  18  21  ar  
 38  18  40  1   
 39  19  22  ar  
 40  19  41  1   
 41  20  42  1   
 42  20  43  1   
 43  20  44  1   
 44  21  22  ar  
 45  21  23  1   
 46  22  45  1   
 47  23  46  1   
 48  23  47  1   
 49  23  48  1   
@<TRIPOS>SUBSTRUCTURE
  1 ****  10 GROUP 4 **** **** 0

# MOE 2024.06 (io_trps.svl 2023.06)
