@<TRIPOS>MOLECULE
NONAME
50 51 1 0 0 
SMALL
USER_CHARGES


@<TRIPOS>ATOM
  1 O       -2.1210    -2.1370    -0.0210 O.3   1 <1>  -0.3630 
  2 C       -3.4760    -2.0880    -0.0380 C.ar  1 <1>   0.0830 
  3 C       -1.4340    -3.3670     0.1060 C.3   1 <1>   0.1200 
  4 C       -4.0570    -0.8320    -0.0920 C.ar  1 <1>  -0.1500 
  5 C       -4.2920    -3.2130    -0.0050 C.ar  1 <1>  -0.1500 
  6 C        0.0760    -3.1000     0.1230 C.3   1 <1>   0.2000 
  7 C       -5.4350    -0.6800    -0.1110 C.ar  1 <1>  -0.1440 
  8 C       -5.6670    -3.0670    -0.0230 C.ar  1 <1>  -0.1500 
  9 O        0.4010    -2.3480    -1.0000 O.3   1 <1>  -0.6800 
 10 C        0.8930    -4.4150     0.1680 C.3   1 <1>   0.1100 
 11 C       -6.2480    -1.8080    -0.0760 C.ar  1 <1>  -0.1430 
 12 C       -6.0220     0.7230    -0.1700 C.3   1 <1>  -0.0970 
 13 N        2.3420    -4.2750    -0.1230 N.3   1 <1>  -0.8100 
 14 C       -7.7660    -1.6940    -0.0950 C.3   1 <1>  -0.0970 
 15 C        3.0300    -5.5740    -0.1990 C.3   1 <1>   0.1100 
 16 C        3.0480    -3.3200     0.7500 C.3   1 <1>   0.1100 
 17 C        4.4880    -5.3990    -0.6700 C.3   1 <1>   0.3430 
 18 C        4.5030    -3.1250     0.2810 C.3   1 <1>   0.3430 
 19 N        5.2490    -4.4300     0.1990 N.4   1 <1>  -0.9590 
 20 C        6.6360    -4.2090    -0.2800 C.3   1 <1>   0.3430 
 21 C        7.4770    -5.4520    -0.0120 C.3   1 <1>  -0.2400 
 22 H       -1.6930    -3.9910    -0.7310 H     1 <1>   0.0800 
 23 H       -1.7430    -3.8340     1.0240 H     1 <1>   0.0800 
 24 H       -3.4130     0.0270    -0.1190 H     1 <1>   0.1500 
 25 H       -3.8850    -4.2040     0.0340 H     1 <1>   0.1500 
 26 H        0.3050    -2.5060     0.9900 H     1 <1>   0.0800 
 27 H       -6.2870    -3.9450     0.0030 H     1 <1>   0.1500 
 28 H       -0.3110    -1.6880    -1.1420 H     1 <1>   0.4000 
 29 H        0.4680    -5.0870    -0.5590 H     1 <1>   0.0800 
 30 H        0.7650    -4.8670     1.1370 H     1 <1>   0.0800 
 31 H       -5.2450     1.4660    -0.1920 H     1 <1>   0.0800 
 32 H       -6.6350     0.9020     0.6940 H     1 <1>   0.0800 
 33 H       -6.6200     0.8350    -1.0560 H     1 <1>   0.0800 
 34 H       -8.0860    -1.1990    -0.9940 H     1 <1>   0.0800 
 35 H       -8.1030    -1.1310     0.7560 H     1 <1>   0.0800 
 36 H       -8.2270    -2.6640    -0.0620 H     1 <1>   0.0800 
 37 H        2.5160    -6.2050    -0.9050 H     1 <1>   0.0800 
 38 H        3.0090    -6.0620     0.7600 H     1 <1>   0.0800 
 39 H        3.0280    -3.6620     1.7700 H     1 <1>   0.0800 
 40 H        2.5590    -2.3620     0.7060 H     1 <1>   0.0800 
 41 H        4.4710    -5.0370    -1.6850 H     1 <1>   0.0800 
 42 H        4.9750    -6.3600    -0.6680 H     1 <1>   0.0800 
 43 H        5.0060    -2.4550     0.9590 H     1 <1>   0.0800 
 44 H        4.4800    -2.6600    -0.6910 H     1 <1>   0.0800 
 45 H        5.2860    -4.8240     1.1470 H     1 <1>   0.4500 
 46 H        7.0720    -3.3740     0.2450 H     1 <1>   0.0800 
 47 H        6.6340    -3.9800    -1.3340 H     1 <1>   0.0800 
 48 H        7.4700    -5.7020     1.0340 H     1 <1>   0.0800 
 49 H        8.4950    -5.2530    -0.2970 H     1 <1>   0.0800 
 50 H        7.1360    -6.2910    -0.5900 H     1 <1>   0.0800 
@<TRIPOS>BOND
  1   1   2  1   
  2   1   3  1   
  3   2   4  ar  
  4   2   5  ar  
  5   3   6  1   
  6   3  22  1   
  7   3  23  1   
  8   4   7  ar  
  9   4  24  1   
 10   5   8  ar  
 11   5  25  1   
 12   6   9  1   
 13   6  10  1   
 14   6  26  1   
 15   7  11  ar  
 16   7  12  1   
 17   8  11  ar  
 18   8  27  1   
 19   9  28  1   
 20  10  13  1   
 21  10  29  1   
 22  10  30  1   
 23  11  14  1   
 24  12  31  1   
 25  12  32  1   
 26  12  33  1   
 27  13  15  1   
 28  13  16  1   
 29  14  34  1   
 30  14  35  1   
 31  14  36  1   
 32  15  17  1   
 33  15  37  1   
 34  15  38  1   
 35  16  18  1   
 36  16  39  1   
 37  16  40  1   
 38  17  19  1   
 39  17  41  1   
 40  17  42  1   
 41  18  19  1   
 42  18  43  1   
 43  18  44  1   
 44  19  20  1   
 45  19  45  1   
 46  20  21  1   
 47  20  46  1   
 48  20  47  1   
 49  21  48  1   
 50  21  49  1   
 51  21  50  1   
@<TRIPOS>SUBSTRUCTURE
  1 ****   6 GROUP 4 **** **** 0

# MOE 2024.06 (io_trps.svl 2023.06)
