@<TRIPOS>MOLECULE
Structure1704
34 34 1 0 0 
SMALL
USER_CHARGES


@<TRIPOS>ATOM
  1 O       -0.3360     0.2050    -0.0160 O.2   1 <1>  -0.5700 
  2 C       -0.8230     1.3140    -0.0950 C.2   1 <1>   0.7800 
  3 O       -0.0580     2.3980    -0.2480 O.3   1 <1>  -0.4300 
  4 N       -2.1580     1.4880    -0.0390 N.am  1 <1>  -0.7300 
  5 C        1.3460     2.4370    -0.3810 C.3   1 <1>   0.2800 
  6 C       -2.8930     2.7320    -0.2950 C.3   1 <1>   0.3150 
  7 C        1.6950     3.9160    -0.5470 C.3   1 <1>  -0.2400 
  8 C        1.7790     1.6750    -1.6390 C.3   1 <1>  -0.2400 
  9 C        2.0160     1.9030     0.8910 C.3   1 <1>  -0.2400 
 10 C       -2.8280     3.6270     0.9520 C.3   1 <1>  -0.1950 
 11 C       -4.3430     2.3880    -0.5920 C.3   1 <1>  -0.2660 
 12 C       -3.1880     5.0800     0.8780 C.3   1 <1>  -0.2000 
 13 C       -1.7670     4.6690     1.1300 C.3   1 <1>  -0.2000 
 14 C       -4.4210     1.5200    -1.8060 C.2   1 <1>   0.9060 
 15 O       -4.2070     0.3130    -1.6630 O.co2 1 <1>  -0.9000 
 16 O       -4.6720     2.0450    -2.8920 O.co2 1 <1>  -0.9000 
 17 H       -2.7050     0.6670    -0.3480 H     1 <1>   0.3700 
 18 H       -2.4630     3.2360    -1.1460 H     1 <1>   0.0800 
 19 H        2.7540     4.0390    -0.6820 H     1 <1>   0.0800 
 20 H        1.3990     4.4690     0.3260 H     1 <1>   0.0800 
 21 H        1.1920     4.3210    -1.4070 H     1 <1>   0.0800 
 22 H        1.2310     2.0270    -2.4940 H     1 <1>   0.0800 
 23 H        1.6150     0.6190    -1.5280 H     1 <1>   0.0800 
 24 H        2.8280     1.8240    -1.8180 H     1 <1>   0.0800 
 25 H        1.6250     2.4060     1.7560 H     1 <1>   0.0800 
 26 H        3.0760     2.0680     0.8450 H     1 <1>   0.0800 
 27 H        1.8570     0.8460     0.9970 H     1 <1>   0.0800 
 28 H       -3.1590     3.1020     1.8300 H     1 <1>   0.1000 
 29 H       -4.9010     3.2840    -0.7840 H     1 <1>   0.0800 
 30 H       -4.7910     1.8740     0.2360 H     1 <1>   0.0800 
 31 H       -3.7590     5.5080     1.6830 H     1 <1>   0.1000 
 32 H       -3.4430     5.5010    -0.0800 H     1 <1>   0.1000 
 33 H       -1.0480     4.8190     0.3440 H     1 <1>   0.1000 
 34 H       -1.3410     4.7940     2.1100 H     1 <1>   0.1000 
@<TRIPOS>BOND
  1   1   2  2   
  2   2   3  1   
  3   2   4  am  
  4   3   5  1   
  5   4   6  1   
  6   4  17  1   
  7   5   7  1   
  8   5   8  1   
  9   5   9  1   
 10   6  10  1   
 11   6  11  1   
 12   6  18  1   
 13   7  19  1   
 14   7  20  1   
 15   7  21  1   
 16   8  22  1   
 17   8  23  1   
 18   8  24  1   
 19   9  25  1   
 20   9  26  1   
 21   9  27  1   
 22  10  12  1   
 23  10  13  1   
 24  10  28  1   
 25  11  14  1   
 26  11  29  1   
 27  11  30  1   
 28  12  13  1   
 29  12  31  1   
 30  12  32  1   
 31  13  33  1   
 32  13  34  1   
 33  14  15  ar  
 34  14  16  ar  
@<TRIPOS>SUBSTRUCTURE
  1 ****   4 GROUP 4 **** **** 0

# MOE 2024.06 (io_trps.svl 2023.06)
