@<TRIPOS>MOLECULE
NONAME
50 54 1 0 0 
SMALL
USER_CHARGES


@<TRIPOS>ATOM
  1 BR      -2.1940     0.7130     3.2990 Br    1 <1>  -0.0580 
  2 C       -3.0160     1.3250     1.6730 C.2   1 <1>   0.1980 
  3 O       -2.9820     2.6070     1.4120 O.3   1 <1>  -0.2800 
  4 C       -3.6470     0.6090     0.7240 C.2   1 <1>  -0.1500 
  5 C       -3.6050     2.7860     0.2460 C.2   1 <1>   0.0550 
  6 C       -4.0340     1.5690    -0.2140 C.2   1 <1>  -0.1500 
  7 C       -3.7450     4.1070    -0.3240 C.2   1 <1>   0.7150 
  8 O       -3.0050     5.0270    -0.0220 O.2   1 <1>  -0.5700 
  9 N       -4.7750     4.4010    -1.1940 N.am  1 <1>  -0.6600 
 10 C       -6.1760     4.2390    -0.7200 C.3   1 <1>   0.1400 
 11 C       -4.6120     5.5420    -2.1400 C.3   1 <1>   0.1400 
 12 C       -6.6670     5.5490    -0.0660 C.3   1 <1>   0.3430 
 13 C       -5.0760     6.8490    -1.4710 C.3   1 <1>   0.3430 
 14 N       -6.5010     6.7630    -0.9580 N.4   1 <1>  -0.9590 
 15 C       -6.9840     8.0400    -0.3300 C.3   1 <1>   0.5030 
 16 C       -8.4720     7.8910     0.0680 C.3   1 <1>  -0.1600 
 17 C       -6.8790     9.1940    -1.3560 C.3   1 <1>  -0.1600 
 18 C       -6.1650     8.4120     0.9270 C.3   1 <1>  -0.1600 
 19 C       -9.0090     9.1990     0.6780 C.3   1 <1>  -0.0800 
 20 C       -7.4060    10.5100    -0.7550 C.3   1 <1>  -0.0800 
 21 C       -6.6930     9.7260     1.5380 C.3   1 <1>  -0.0800 
 22 C       -8.8800    10.3310    -0.3550 C.3   1 <1>  -0.1600 
 23 C       -8.1740     9.5510     1.9230 C.3   1 <1>  -0.1600 
 24 C       -6.5790    10.8550     0.4970 C.3   1 <1>  -0.1600 
 25 H       -3.8170    -0.4520     0.6820 H     1 <1>   0.1500 
 26 H       -4.5640     1.3610    -1.1270 H     1 <1>   0.1500 
 27 H       -6.2340     3.4410     0.0010 H     1 <1>   0.0800 
 28 H       -6.8100     3.9780    -1.5490 H     1 <1>   0.0800 
 29 H       -5.1780     5.3570    -3.0360 H     1 <1>   0.0800 
 30 H       -3.5750     5.6350    -2.4210 H     1 <1>   0.0800 
 31 H       -6.1080     5.6960     0.8440 H     1 <1>   0.0800 
 32 H       -7.7020     5.4250     0.2020 H     1 <1>   0.0800 
 33 H       -4.9830     7.6460    -2.1870 H     1 <1>   0.0800 
 34 H       -4.4060     7.0580    -0.6530 H     1 <1>   0.0800 
 35 H       -7.1040     6.6230    -1.7760 H     1 <1>   0.4500 
 36 H       -8.6030     7.1230     0.8070 H     1 <1>   0.0800 
 37 H       -9.0650     7.6400    -0.7940 H     1 <1>   0.0800 
 38 H       -5.8590     9.3680    -1.6450 H     1 <1>   0.0800 
 39 H       -7.4490     8.9620    -2.2390 H     1 <1>   0.0800 
 40 H       -5.1270     8.5480     0.6820 H     1 <1>   0.0800 
 41 H       -6.2360     7.6420     1.6730 H     1 <1>   0.0800 
 42 H      -10.0430     9.0800     0.9570 H     1 <1>   0.0800 
 43 H       -7.3220    11.3060    -1.4760 H     1 <1>   0.0800 
 44 H       -6.1190     9.9810     2.4130 H     1 <1>   0.0800 
 45 H       -9.2560    11.2490     0.0640 H     1 <1>   0.0800 
 46 H       -9.4760    10.1090    -1.2240 H     1 <1>   0.0800 
 47 H       -8.5440    10.4630     2.3600 H     1 <1>   0.0800 
 48 H       -8.2730     8.7780     2.6670 H     1 <1>   0.0800 
 49 H       -6.9360    11.7780     0.9240 H     1 <1>   0.0800 
 50 H       -5.5470    11.0070     0.2290 H     1 <1>   0.0800 
@<TRIPOS>BOND
  1   1   2  1   
  2   2   3  1   
  3   2   4  2   
  4   3   5  1   
  5   4   6  1   
  6   4  25  1   
  7   5   6  2   
  8   5   7  1   
  9   6  26  1   
 10   7   8  2   
 11   7   9  am  
 12   9  10  1   
 13   9  11  1   
 14  10  12  1   
 15  10  27  1   
 16  10  28  1   
 17  11  13  1   
 18  11  29  1   
 19  11  30  1   
 20  12  14  1   
 21  12  31  1   
 22  12  32  1   
 23  13  14  1   
 24  13  33  1   
 25  13  34  1   
 26  14  15  1   
 27  14  35  1   
 28  15  16  1   
 29  15  17  1   
 30  15  18  1   
 31  16  19  1   
 32  16  36  1   
 33  16  37  1   
 34  17  20  1   
 35  17  38  1   
 36  17  39  1   
 37  18  21  1   
 38  18  40  1   
 39  18  41  1   
 40  19  22  1   
 41  19  23  1   
 42  19  42  1   
 43  20  22  1   
 44  20  24  1   
 45  20  43  1   
 46  21  23  1   
 47  21  24  1   
 48  21  44  1   
 49  22  45  1   
 50  22  46  1   
 51  23  47  1   
 52  23  48  1   
 53  24  49  1   
 54  24  50  1   
@<TRIPOS>SUBSTRUCTURE
  1 ****  12 GROUP 4 **** **** 0

# MOE 2024.06 (io_trps.svl 2023.06)
