@<TRIPOS>MOLECULE
NONAME
38 38 1 0 0 
SMALL
USER_CHARGES


@<TRIPOS>ATOM
  1 O        0.0800    -0.3140     0.0520 O.3   1 <1>  -0.3630 
  2 C       -1.1630    -0.8590     0.0390 C.ar  1 <1>   0.0820 
  3 C        1.2310    -1.1150     0.0170 C.3   1 <1>   0.1200 
  4 C       -2.2290     0.0250     0.0710 C.ar  1 <1>  -0.1500 
  5 C       -1.4100    -2.2290    -0.0060 C.ar  1 <1>  -0.1500 
  6 C        2.4330    -0.1710     0.0420 C.3   1 <1>  -0.1600 
  7 C       -3.5330    -0.4390     0.0600 C.ar  1 <1>  -0.1440 
  8 C       -2.7120    -2.7020    -0.0170 C.ar  1 <1>  -0.1440 
  9 C        3.7430    -0.9480     0.0060 C.3   1 <1>   0.3430 
 10 C       -3.7670    -1.8040     0.0140 C.ar  1 <1>  -0.1500 
 11 C       -4.7010     0.5300     0.0940 C.3   1 <1>  -0.0960 
 12 C       -2.9900    -4.1940    -0.0680 C.3   1 <1>  -0.0970 
 13 N        4.8720     0.0140     0.0310 N.4   1 <1>  -0.9060 
 14 C        6.1980    -0.6750    -0.0020 C.3   1 <1>   0.3430 
 15 C        7.3640     0.3220     0.0240 C.3   1 <1>   0.1200 
 16 O        8.5340    -0.4110    -0.0090 O.3   1 <1>  -0.6800 
 17 H        1.2060    -1.6980    -0.8880 H     1 <1>   0.0800 
 18 H        1.2170    -1.7590     0.8810 H     1 <1>   0.0800 
 19 H       -2.0270     1.0800     0.1050 H     1 <1>   0.1500 
 20 H       -0.6080    -2.9380    -0.0340 H     1 <1>   0.1500 
 21 H        2.3810     0.4170     0.9420 H     1 <1>   0.0800 
 22 H        2.3700     0.4780    -0.8150 H     1 <1>   0.0800 
 23 H        3.7860    -1.5470    -0.8910 H     1 <1>   0.0800 
 24 H        3.7980    -1.6060     0.8600 H     1 <1>   0.0800 
 25 H       -4.7790    -2.1680     0.0020 H     1 <1>   0.1500 
 26 H       -4.3750     1.5090     0.3950 H     1 <1>   0.0800 
 27 H       -5.4430     0.1890     0.7920 H     1 <1>   0.0800 
 28 H       -5.1450     0.5970    -0.8830 H     1 <1>   0.0800 
 29 H       -2.1720    -4.7480     0.3550 H     1 <1>   0.0800 
 30 H       -3.1290    -4.5020    -1.0880 H     1 <1>   0.0800 
 31 H       -3.8800    -4.4270     0.4890 H     1 <1>   0.0800 
 32 H        4.8000     0.5920     0.8790 H     1 <1>   0.4500 
 33 H        4.7890     0.6490    -0.7740 H     1 <1>   0.4500 
 34 H        6.2760    -1.2700    -0.8970 H     1 <1>   0.0800 
 35 H        6.2890    -1.3290     0.8510 H     1 <1>   0.0800 
 36 H        7.3620     0.9040     0.9300 H     1 <1>   0.0800 
 37 H        7.3500     0.9650    -0.8390 H     1 <1>   0.0800 
 38 H        9.3300     0.1640     0.0050 H     1 <1>   0.4000 
@<TRIPOS>BOND
  1   1   2  1   
  2   1   3  1   
  3   2   4  ar  
  4   2   5  ar  
  5   3   6  1   
  6   3  17  1   
  7   3  18  1   
  8   4   7  ar  
  9   4  19  1   
 10   5   8  ar  
 11   5  20  1   
 12   6   9  1   
 13   6  21  1   
 14   6  22  1   
 15   7  10  ar  
 16   7  11  1   
 17   8  10  ar  
 18   8  12  1   
 19   9  13  1   
 20   9  23  1   
 21   9  24  1   
 22  10  25  1   
 23  11  26  1   
 24  11  27  1   
 25  11  28  1   
 26  12  29  1   
 27  12  30  1   
 28  12  31  1   
 29  13  14  1   
 30  13  32  1   
 31  13  33  1   
 32  14  15  1   
 33  14  34  1   
 34  14  35  1   
 35  15  16  1   
 36  15  36  1   
 37  15  37  1   
 38  16  38  1   
@<TRIPOS>SUBSTRUCTURE
  1 ****   3 GROUP 4 **** **** 0

# MOE 2024.06 (io_trps.svl 2023.06)
