@<TRIPOS>MOLECULE
NONAME
38 40 1 0 0 
SMALL
USER_CHARGES


@<TRIPOS>ATOM
  1 S        0.1110    -0.1670     0.5340 S.3   1 <1>  -0.4600 
  2 C        0.1420     1.6280     0.2660 C.3   1 <1>   0.2300 
  3 C        1.5660    -0.7830    -0.3640 C.3   1 <1>   0.2500 
  4 C        1.4760     2.1960     0.7960 C.3   1 <1>   0.0210 
  5 C       -0.0600     1.8770    -1.2350 C.3   1 <1>  -0.2400 
  6 C       -1.0460     2.1850     1.0540 C.3   1 <1>  -0.2400 
  7 C        2.6920     0.2210    -0.2180 C.2   1 <1>  -0.1400 
  8 C        2.7150     1.4780     0.2650 C.2   1 <1>  -0.1810 
  9 S        4.2880    -0.2780    -0.7580 S.3   1 <1>  -0.0800 
 10 C        4.0260     2.0820     0.2500 C.2   1 <1>  -0.0860 
 11 C        4.9720     1.2600    -0.2790 C.2   1 <1>   0.1660 
 12 C        4.4840     3.3590     0.6960 C.2   1 <1>   0.7160 
 13 N        6.2850     1.5300    -0.4400 N.2   1 <1>  -0.5760 
 14 O        3.7340     4.1810     1.2080 O.2   1 <1>  -0.5700 
 15 N        5.8260     3.6530     0.5370 N.am  1 <1>  -0.4200 
 16 C        6.6420     2.6980    -0.0300 C.2   1 <1>   0.6510 
 17 C        6.3740     4.9740     0.9750 C.3   1 <1>   0.0600 
 18 S        8.3680     3.1250    -0.2110 S.3   1 <1>  -0.3710 
 19 C        9.1370     1.6350    -0.9870 C.3   1 <1>   0.0700 
 20 C       10.6240     1.9230    -1.1760 C.3   1 <1>  -0.2400 
 21 H        1.2860    -0.9110    -1.3940 H     1 <1>   0.0800 
 22 H        1.8270    -1.7310     0.0710 H     1 <1>   0.0800 
 23 H        1.4910     2.1420     1.8700 H     1 <1>   0.0800 
 24 H        1.5170     3.2340     0.5240 H     1 <1>   0.0800 
 25 H        0.7680     1.5030    -1.8080 H     1 <1>   0.0800 
 26 H       -0.1450     2.9320    -1.4250 H     1 <1>   0.0800 
 27 H       -0.9600     1.3960    -1.5750 H     1 <1>   0.0800 
 28 H       -0.9450     1.9490     2.0990 H     1 <1>   0.0800 
 29 H       -1.9650     1.7550     0.6970 H     1 <1>   0.0800 
 30 H       -1.1010     3.2530     0.9460 H     1 <1>   0.0800 
 31 H        5.6060     5.6040     1.3900 H     1 <1>   0.0800 
 32 H        6.8100     5.4840     0.1340 H     1 <1>   0.0800 
 33 H        7.1280     4.8220     1.7280 H     1 <1>   0.0800 
 34 H        8.6390     1.4660    -1.9260 H     1 <1>   0.0800 
 35 H        8.9710     0.8030    -0.3240 H     1 <1>   0.0800 
 36 H       10.7570     2.7770    -1.8160 H     1 <1>   0.0800 
 37 H       11.1060     1.0750    -1.6270 H     1 <1>   0.0800 
 38 H       11.0870     2.1190    -0.2260 H     1 <1>   0.0800 
@<TRIPOS>BOND
  1   1   2  1   
  2   1   3  1   
  3   2   4  1   
  4   2   5  1   
  5   2   6  1   
  6   3   7  1   
  7   3  21  1   
  8   3  22  1   
  9   4   8  1   
 10   4  23  1   
 11   4  24  1   
 12   5  25  1   
 13   5  26  1   
 14   5  27  1   
 15   6  28  1   
 16   6  29  1   
 17   6  30  1   
 18   7   8  2   
 19   7   9  1   
 20   8  10  1   
 21   9  11  1   
 22  10  11  2   
 23  10  12  1   
 24  11  13  1   
 25  12  14  2   
 26  12  15  am  
 27  13  16  2   
 28  15  16  1   
 29  15  17  1   
 30  16  18  1   
 31  17  31  1   
 32  17  32  1   
 33  17  33  1   
 34  18  19  1   
 35  19  20  1   
 36  19  34  1   
 37  19  35  1   
 38  20  36  1   
 39  20  37  1   
 40  20  38  1   
@<TRIPOS>SUBSTRUCTURE
  1 ****  10 GROUP 4 **** **** 0

# MOE 2024.06 (io_trps.svl 2023.06)
