@<TRIPOS>MOLECULE
NONAME
41 42 1 0 0 
SMALL
USER_CHARGES


@<TRIPOS>ATOM
  1 BR      -3.3840    -1.6630     2.4930 Br    1 <1>  -0.1110 
  2 C       -1.9160    -2.3750     1.4620 C.ar  1 <1>   0.1110 
  3 C       -2.0500    -2.5180     0.0850 C.ar  1 <1>   0.0830 
  4 C       -0.7670    -2.7350     2.1380 C.ar  1 <1>  -0.1500 
  5 O       -3.2170    -2.1410    -0.4950 O.3   1 <1>  -0.3630 
  6 C       -0.9800    -3.0430    -0.6370 C.ar  1 <1>  -0.1500 
  7 C        0.2770    -3.2560     1.3980 C.ar  1 <1>   0.1770 
  8 C       -3.6520    -2.7520    -1.7020 C.3   1 <1>   0.1810 
  9 C        0.1830    -3.4130     0.0240 C.ar  1 <1>  -0.1500 
 10 CL       1.7480    -3.7280     2.2110 Cl    1 <1>  -0.1770 
 11 C       -5.0970    -2.3800    -2.0340 C.2   1 <1>   0.5690 
 12 O       -5.2980    -1.9250    -3.1370 O.2   1 <1>  -0.5700 
 13 N       -6.1290    -2.5770    -1.1450 N.am  1 <1>  -0.6600 
 14 C       -5.9910    -3.1730     0.2250 C.3   1 <1>   0.1400 
 15 C       -7.5180    -2.1110    -1.4540 C.3   1 <1>   0.1400 
 16 C       -7.0260    -4.2850     0.4610 C.3   1 <1>   0.1400 
 17 C       -8.5440    -3.2310    -1.2320 C.3   1 <1>   0.1400 
 18 N       -8.4030    -3.8130     0.1360 N.am  1 <1>  -0.6600 
 19 C       -9.4110    -3.8330     1.0620 C.2   1 <1>   0.7800 
 20 O       -9.2610    -4.2740     2.1850 O.2   1 <1>  -0.5700 
 21 O      -10.5960    -3.3400     0.6990 O.3   1 <1>  -0.4300 
 22 C      -11.6780    -3.3250     1.6020 C.3   1 <1>   0.1200 
 23 C      -12.8760    -2.7000     0.8940 C.3   1 <1>  -0.2400 
 24 H       -0.6850    -2.6170     3.2020 H     1 <1>   0.1500 
 25 H       -1.0300    -3.1600    -1.7040 H     1 <1>   0.1500 
 26 H       -3.5730    -3.8180    -1.5960 H     1 <1>   0.0800 
 27 H       -3.0130    -2.4150    -2.4970 H     1 <1>   0.0800 
 28 H        1.0190    -3.8180    -0.5190 H     1 <1>   0.1500 
 29 H       -6.1330    -2.3980     0.9590 H     1 <1>   0.0800 
 30 H       -5.0120    -3.5870     0.3720 H     1 <1>   0.0800 
 31 H       -7.5870    -1.7710    -2.4730 H     1 <1>   0.0800 
 32 H       -7.7590    -1.2800    -0.8150 H     1 <1>   0.0800 
 33 H       -6.9680    -4.6070     1.4860 H     1 <1>   0.0800 
 34 H       -6.7900    -5.1290    -0.1630 H     1 <1>   0.0800 
 35 H       -8.3850    -4.0050    -1.9620 H     1 <1>   0.0800 
 36 H       -9.5340    -2.8370    -1.3820 H     1 <1>   0.0800 
 37 H      -11.3940    -2.7470     2.4650 H     1 <1>   0.0800 
 38 H      -11.8890    -4.3390     1.8980 H     1 <1>   0.0800 
 39 H      -12.6460    -1.6930     0.5950 H     1 <1>   0.0800 
 40 H      -13.7190    -2.6760     1.5610 H     1 <1>   0.0800 
 41 H      -13.1400    -3.2820     0.0290 H     1 <1>   0.0800 
@<TRIPOS>BOND
  1   1   2  1   
  2   2   3  ar  
  3   2   4  ar  
  4   3   5  1   
  5   3   6  ar  
  6   4   7  ar  
  7   4  24  1   
  8   5   8  1   
  9   6   9  ar  
 10   6  25  1   
 11   7   9  ar  
 12   7  10  1   
 13   8  11  1   
 14   8  26  1   
 15   8  27  1   
 16   9  28  1   
 17  11  12  2   
 18  11  13  am  
 19  13  14  1   
 20  13  15  1   
 21  14  16  1   
 22  14  29  1   
 23  14  30  1   
 24  15  17  1   
 25  15  31  1   
 26  15  32  1   
 27  16  18  1   
 28  16  33  1   
 29  16  34  1   
 30  17  18  1   
 31  17  35  1   
 32  17  36  1   
 33  18  19  am  
 34  19  20  2   
 35  19  21  1   
 36  21  22  1   
 37  22  23  1   
 38  22  37  1   
 39  22  38  1   
 40  23  39  1   
 41  23  40  1   
 42  23  41  1   
@<TRIPOS>SUBSTRUCTURE
  1 ****  14 GROUP 4 **** **** 0

# MOE 2024.06 (io_trps.svl 2023.06)
