@<TRIPOS>MOLECULE
NONAME
32 32 1 0 0 
SMALL
USER_CHARGES


@<TRIPOS>ATOM
  1 BR       1.0550     0.5740     1.7270 Br    1 <1>  -0.1110 
  2 C        1.4320    -1.1050     0.8650 C.ar  1 <1>   0.1110 
  3 C        0.8020    -2.2440     1.3310 C.ar  1 <1>  -0.1500 
  4 C        2.3200    -1.1250    -0.1930 C.ar  1 <1>  -0.1500 
  5 C        1.0680    -3.4600     0.7170 C.ar  1 <1>  -0.1440 
  6 C        2.5840    -2.3350    -0.8080 C.ar  1 <1>  -0.1500 
  7 C        1.9640    -3.4920    -0.3530 C.ar  1 <1>   0.0830 
  8 C        0.3950    -4.7220     1.2290 C.3   1 <1>   0.4870 
  9 O        2.2190    -4.6590    -0.9840 O.3   1 <1>  -0.3630 
 10 N       -0.2830    -5.3840     0.1010 N.4   1 <1>  -0.9060 
 11 C        3.4670    -5.2880    -0.7120 C.3   1 <1>   0.1810 
 12 C       -0.8730    -6.6870     0.4530 C.3   1 <1>   0.3430 
 13 C        3.2410    -6.7260    -0.2450 C.2   1 <1>   0.5690 
 14 C       -1.4480    -7.3000    -0.8140 C.3   1 <1>  -0.2400 
 15 O        2.2240    -7.0110     0.3440 O.2   1 <1>  -0.5700 
 16 N        4.1650    -7.6770    -0.4820 N.am  1 <1>  -0.8000 
 17 H        0.1230    -2.1590     2.1630 H     1 <1>   0.1500 
 18 H        2.7870    -0.2140    -0.5260 H     1 <1>   0.1500 
 19 H        3.2630    -2.3780    -1.6420 H     1 <1>   0.1500 
 20 H       -0.3180    -4.4750     1.9980 H     1 <1>   0.0800 
 21 H        1.1410    -5.3800     1.6470 H     1 <1>   0.0800 
 22 H        0.4710    -5.5430    -0.5890 H     1 <1>   0.4500 
 23 H       -0.9560    -4.7490    -0.3350 H     1 <1>   0.4500 
 24 H        3.9860    -4.7390     0.0530 H     1 <1>   0.0800 
 25 H        4.0450    -5.2750    -1.6170 H     1 <1>   0.0800 
 26 H       -1.6520    -6.5600     1.1890 H     1 <1>   0.0800 
 27 H       -0.1130    -7.3380     0.8590 H     1 <1>   0.0800 
 28 H       -2.2200    -6.6760    -1.2290 H     1 <1>   0.0800 
 29 H       -1.8820    -8.2560    -0.5790 H     1 <1>   0.0800 
 30 H       -0.6740    -7.4580    -1.5440 H     1 <1>   0.0800 
 31 H        4.0020    -8.6340    -0.1580 H     1 <1>   0.3700 
 32 H        5.0500    -7.5290    -0.9720 H     1 <1>   0.3700 
@<TRIPOS>BOND
  1   1   2  1   
  2   2   3  ar  
  3   2   4  ar  
  4   3   5  ar  
  5   3  17  1   
  6   4   6  ar  
  7   4  18  1   
  8   5   7  ar  
  9   5   8  1   
 10   6   7  ar  
 11   6  19  1   
 12   7   9  1   
 13   8  10  1   
 14   8  20  1   
 15   8  21  1   
 16   9  11  1   
 17  10  12  1   
 18  10  22  1   
 19  10  23  1   
 20  11  13  1   
 21  11  24  1   
 22  11  25  1   
 23  12  14  1   
 24  12  26  1   
 25  12  27  1   
 26  13  15  2   
 27  13  16  am  
 28  14  28  1   
 29  14  29  1   
 30  14  30  1   
 31  16  31  1   
 32  16  32  1   
@<TRIPOS>SUBSTRUCTURE
  1 ****   7 GROUP 4 **** **** 0

# MOE 2024.06 (io_trps.svl 2023.06)
