@<TRIPOS>MOLECULE
NONAME
51 53 1 0 0 
SMALL
USER_CHARGES


@<TRIPOS>ATOM
  1 S        0.5280    -1.1150     1.4060 S.o2  1 <1>   1.4470 
  2 O        1.0160    -2.4200     1.7930 O.2   1 <1>  -0.6500 
  3 O        0.6660     0.0170     2.2920 O.2   1 <1>  -0.6500 
  4 N        1.3570    -0.6480     0.0270 N.am  1 <1>  -0.9140 
  5 C       -1.1810    -1.2500     0.8140 C.ar  1 <1>  -0.0090 
  6 C        2.7060    -1.1620    -0.0890 C.3   1 <1>   0.2760 
  7 C       -2.1570    -0.3400     1.1950 C.ar  1 <1>  -0.1500 
  8 C       -1.5510    -2.2650    -0.0590 C.ar  1 <1>  -0.1500 
  9 C        3.6470    -0.4450     0.8780 C.3   1 <1>  -0.1600 
 10 C        3.2420    -0.7270    -1.4480 C.3   1 <1>  -0.1600 
 11 C       -3.4740    -0.4060     0.7410 C.ar  1 <1>   0.0860 
 12 C       -2.8510    -2.3710    -0.5150 C.ar  1 <1>  -0.1500 
 13 C        3.9550     0.9100     0.2320 C.3   1 <1>  -0.1600 
 14 C        3.7150     0.7220    -1.2710 C.3   1 <1>  -0.1600 
 15 C       -3.8190    -1.4660    -0.1130 C.ar  1 <1>   0.0830 
 16 C       -4.3930     0.6330     1.1490 C.2   1 <1>   0.5440 
 17 O       -5.0600    -1.6850    -0.6020 O.3   1 <1>  -0.3630 
 18 O       -4.8160     0.6220     2.2900 O.2   1 <1>  -0.5700 
 19 N       -4.7870     1.6390     0.2900 N.am  1 <1>  -0.6600 
 20 C       -6.2070    -1.5320     0.2100 C.3   1 <1>   0.0400 
 21 C       -4.3170     1.7570    -1.1190 C.3   1 <1>   0.1400 
 22 C       -5.7580     2.6930     0.6960 C.3   1 <1>   0.1400 
 23 C       -5.5180     1.7050    -2.0670 C.3   1 <1>  -0.1600 
 24 C       -6.9730     2.6620    -0.2370 C.3   1 <1>  -0.1600 
 25 C       -6.5630     2.7730    -1.7130 C.3   1 <1>  -0.1600 
 26 H        1.4590     0.3580     0.1320 H     1 <1>   0.4200 
 27 H        2.7260    -2.2350     0.0190 H     1 <1>   0.0800 
 28 H       -1.8950     0.4590     1.8690 H     1 <1>   0.1500 
 29 H       -0.8110    -2.9810    -0.3790 H     1 <1>   0.1500 
 30 H        4.5600    -1.0130     0.9340 H     1 <1>   0.0800 
 31 H        3.2570    -0.3520     1.8760 H     1 <1>   0.0800 
 32 H        2.5090    -0.8330    -2.2290 H     1 <1>   0.0800 
 33 H        4.0900    -1.3430    -1.6910 H     1 <1>   0.0800 
 34 H       -3.1260    -3.1670    -1.1850 H     1 <1>   0.1500 
 35 H        4.9680     1.2120     0.4370 H     1 <1>   0.0800 
 36 H        3.2860     1.6610     0.6190 H     1 <1>   0.0800 
 37 H        2.9500     1.4020    -1.6060 H     1 <1>   0.0800 
 38 H        4.6120     0.9030    -1.8380 H     1 <1>   0.0800 
 39 H       -6.9790    -2.1710    -0.1770 H     1 <1>   0.0800 
 40 H       -6.5340    -0.5090     0.1700 H     1 <1>   0.0800 
 41 H       -5.9700    -1.8140     1.2210 H     1 <1>   0.0800 
 42 H       -3.6280     0.9700    -1.3700 H     1 <1>   0.0800 
 43 H       -3.8030     2.6960    -1.2360 H     1 <1>   0.0800 
 44 H       -5.2750     3.6530     0.6380 H     1 <1>   0.0800 
 45 H       -6.0810     2.5460     1.7130 H     1 <1>   0.0800 
 46 H       -5.9620     0.7260    -2.0110 H     1 <1>   0.0800 
 47 H       -5.1800     1.8510    -3.0770 H     1 <1>   0.0800 
 48 H       -7.6340     3.4710     0.0160 H     1 <1>   0.0800 
 49 H       -7.5090     1.7420    -0.0760 H     1 <1>   0.0800 
 50 H       -7.4290     2.6570    -2.3410 H     1 <1>   0.0800 
 51 H       -6.1490     3.7500    -1.8940 H     1 <1>   0.0800 
@<TRIPOS>BOND
  1   1   2  2   
  2   1   3  2   
  3   1   4  am  
  4   1   5  1   
  5   4   6  1   
  6   4  26  1   
  7   5   7  ar  
  8   5   8  ar  
  9   6   9  1   
 10   6  10  1   
 11   6  27  1   
 12   7  11  ar  
 13   7  28  1   
 14   8  12  ar  
 15   8  29  1   
 16   9  13  1   
 17   9  30  1   
 18   9  31  1   
 19  10  14  1   
 20  10  32  1   
 21  10  33  1   
 22  11  15  ar  
 23  11  16  1   
 24  12  15  ar  
 25  12  34  1   
 26  13  14  1   
 27  13  35  1   
 28  13  36  1   
 29  14  37  1   
 30  14  38  1   
 31  15  17  1   
 32  16  18  2   
 33  16  19  am  
 34  17  20  1   
 35  19  21  1   
 36  19  22  1   
 37  20  39  1   
 38  20  40  1   
 39  20  41  1   
 40  21  23  1   
 41  21  42  1   
 42  21  43  1   
 43  22  24  1   
 44  22  44  1   
 45  22  45  1   
 46  23  25  1   
 47  23  46  1   
 48  23  47  1   
 49  24  25  1   
 50  24  48  1   
 51  24  49  1   
 52  25  50  1   
 53  25  51  1   
@<TRIPOS>SUBSTRUCTURE
  1 ****   7 GROUP 4 **** **** 0

# MOE 2024.06 (io_trps.svl 2023.06)
