@<TRIPOS>MOLECULE
Structure981
20 22 1 0 0 
SMALL
USER_CHARGES


@<TRIPOS>ATOM
  1 CL      -0.2190     0.0070    -1.0970 Cl    1 <1>  -0.1770 
  2 C       -1.6600     0.8170    -0.5500 C.ar  1 <1>   0.4870 
  3 N       -1.5710     2.1000    -0.3050 N.ar  1 <1>  -0.6200 
  4 C       -2.8370     0.0840    -0.3930 C.ar  1 <1>   0.2270 
  5 C       -2.7060     2.6810     0.1150 C.ar  1 <1>   0.4700 
  6 N       -3.1810    -1.2320    -0.5730 N.2   1 <1>  -0.5650 
  7 C       -3.9220     0.8070     0.0410 C.ar  1 <1>   0.1050 
  8 N       -3.8770     2.1210     0.3060 N.ar  1 <1>  -0.5670 
  9 C       -4.4300    -1.2670    -0.2530 C.2   1 <1>   0.0360 
 10 N       -4.9530    -0.0690     0.1260 N.pl3 1 <1>   0.2940 
 11 C       -6.3400     0.2100     0.5690 C.3   1 <1>  -0.0910 
 12 C       -7.5000    -0.4010    -0.1620 C.3   1 <1>  -0.2000 
 13 C       -7.2250     1.0640    -0.2890 C.3   1 <1>  -0.2000 
 14 H       -2.6340     3.7380     0.3180 H     1 <1>   0.1500 
 15 H       -5.0390    -2.1540    -0.2720 H     1 <1>   0.1500 
 16 H       -6.4010     0.3360     1.6360 H     1 <1>   0.1000 
 17 H       -8.3720    -0.7010     0.3950 H     1 <1>   0.1000 
 18 H       -7.3300    -1.0230    -1.0250 H     1 <1>   0.1000 
 19 H       -6.8360     1.4460    -1.2180 H     1 <1>   0.1000 
 20 H       -7.9020     1.7520     0.1870 H     1 <1>   0.1000 
@<TRIPOS>BOND
  1   1   2  1   
  2   2   3  ar  
  3   2   4  ar  
  4   3   5  ar  
  5   4   6  1   
  6   4   7  ar  
  7   5   8  ar  
  8   5  14  1   
  9   6   9  2   
 10   7   8  ar  
 11   7  10  1   
 12   9  10  1   
 13   9  15  1   
 14  10  11  1   
 15  11  12  1   
 16  11  13  1   
 17  11  16  1   
 18  12  13  1   
 19  12  17  1   
 20  12  18  1   
 21  13  19  1   
 22  13  20  1   
@<TRIPOS>SUBSTRUCTURE
  1 ****   7 GROUP 4 **** **** 0

# MOE 2024.06 (io_trps.svl 2023.06)
