@<TRIPOS>MOLECULE
NONAME
46 48 1 0 0 
SMALL
USER_CHARGES


@<TRIPOS>ATOM
  1 F        0.4770    -0.4570    -0.6660 F     1 <1>  -0.1900 
  2 C        1.6460    -0.9960    -0.4580 C.ar  1 <1>   0.1900 
  3 C        2.1180    -1.0880     0.8380 C.ar  1 <1>  -0.1500 
  4 C        2.3720    -1.4590    -1.5380 C.ar  1 <1>  -0.1500 
  5 C        3.3610    -1.6580     1.0500 C.ar  1 <1>  -0.1500 
  6 C        3.6130    -2.0270    -1.3060 C.ar  1 <1>  -0.1500 
  7 C        4.1350    -2.1310    -0.0140 C.ar  1 <1>   0.0860 
  8 C        5.4410    -2.7220     0.2070 C.2   1 <1>   0.5440 
  9 O        5.6370    -3.8630    -0.1660 O.2   1 <1>  -0.5700 
 10 N        6.4670    -2.0270     0.8180 N.am  1 <1>  -0.6600 
 11 C        7.7550    -2.6900     1.1640 C.3   1 <1>   0.1400 
 12 C        6.4670    -0.5500     1.0050 C.3   1 <1>   0.1400 
 13 C        8.8840    -2.0900     0.3210 C.3   1 <1>  -0.1600 
 14 C        7.5890     0.0700     0.1680 C.3   1 <1>  -0.1600 
 15 C        8.9630    -0.5590     0.4830 C.3   1 <1>  -0.0190 
 16 C       10.0960     0.0250    -0.3650 C.2   1 <1>   0.5690 
 17 O        9.8420     0.6490    -1.3660 O.2   1 <1>  -0.5700 
 18 N       11.3760    -0.2030     0.0620 N.am  1 <1>  -0.5470 
 19 C       12.5970     0.1770    -0.5250 C.ar  1 <1>   0.1170 
 20 C       13.7020    -0.6820    -0.5340 C.ar  1 <1>  -0.1430 
 21 C       12.7240     1.4400    -1.0940 C.ar  1 <1>  -0.1500 
 22 C       14.8960    -0.2510    -1.1070 C.ar  1 <1>  -0.1500 
 23 C       13.5930    -2.0880     0.0670 C.3   1 <1>   1.1630 
 24 C       13.9130     1.8570    -1.6600 C.ar  1 <1>  -0.1500 
 25 C       15.0030     1.0100    -1.6650 C.ar  1 <1>  -0.1500 
 26 F       14.7550    -2.7270     0.1410 F     1 <1>  -0.3400 
 27 F       13.1090    -2.0690     1.3070 F     1 <1>  -0.3400 
 28 F       12.7830    -2.8750    -0.6290 F     1 <1>  -0.3400 
 29 H        1.5220    -0.7220     1.6540 H     1 <1>   0.1500 
 30 H        1.9710    -1.3770    -2.5320 H     1 <1>   0.1500 
 31 H        3.7460    -1.7480     2.0510 H     1 <1>   0.1500 
 32 H        4.1960    -2.4020    -2.1300 H     1 <1>   0.1500 
 33 H        7.7000    -3.7510     0.9900 H     1 <1>   0.0800 
 34 H        7.9550    -2.5390     2.2110 H     1 <1>   0.0800 
 35 H        6.6190    -0.3280     2.0470 H     1 <1>   0.0800 
 36 H        5.5290    -0.1190     0.7040 H     1 <1>   0.0800 
 37 H        8.7090    -2.3370    -0.7130 H     1 <1>   0.0800 
 38 H        9.8130    -2.5460     0.6100 H     1 <1>   0.0800 
 39 H        7.6260     1.1290     0.3500 H     1 <1>   0.0800 
 40 H        7.3560    -0.0700    -0.8740 H     1 <1>   0.0800 
 41 H        9.1900    -0.3400     1.5110 H     1 <1>   0.0800 
 42 H       11.4500    -0.7810     0.9000 H     1 <1>   0.3700 
 43 H       11.8810     2.1090    -1.0970 H     1 <1>   0.1500 
 44 H       15.7630    -0.8910    -1.1310 H     1 <1>   0.1500 
 45 H       13.9870     2.8380    -2.0970 H     1 <1>   0.1500 
 46 H       15.9320     1.3310    -2.1060 H     1 <1>   0.1500 
@<TRIPOS>BOND
  1   1   2  1   
  2   2   3  ar  
  3   2   4  ar  
  4   3   5  ar  
  5   3  29  1   
  6   4   6  ar  
  7   4  30  1   
  8   5   7  ar  
  9   5  31  1   
 10   6   7  ar  
 11   6  32  1   
 12   7   8  1   
 13   8   9  2   
 14   8  10  am  
 15  10  11  1   
 16  10  12  1   
 17  11  13  1   
 18  11  33  1   
 19  11  34  1   
 20  12  14  1   
 21  12  35  1   
 22  12  36  1   
 23  13  15  1   
 24  13  37  1   
 25  13  38  1   
 26  14  15  1   
 27  14  39  1   
 28  14  40  1   
 29  15  16  1   
 30  15  41  1   
 31  16  17  2   
 32  16  18  am  
 33  18  19  1   
 34  18  42  1   
 35  19  20  ar  
 36  19  21  ar  
 37  20  22  ar  
 38  20  23  1   
 39  21  24  ar  
 40  21  43  1   
 41  22  25  ar  
 42  22  44  1   
 43  23  26  1   
 44  23  27  1   
 45  23  28  1   
 46  24  25  ar  
 47  24  45  1   
 48  25  46  1   
@<TRIPOS>SUBSTRUCTURE
  1 ****  15 GROUP 4 **** **** 0

# MOE 2024.06 (io_trps.svl 2023.06)
