@<TRIPOS>MOLECULE
NONAME
27 28 1 0 0 
SMALL
USER_CHARGES


@<TRIPOS>ATOM
  1 S       -0.4080    -1.1920    -0.2010 S.o2  1 <1>   1.5680 
  2 S        1.2050    -0.3310    -1.1880 S.3   1 <1>  -0.3480 
  3 O        0.2340    -2.2950     0.5530 O.co2 1 <1>  -0.8170 
  4 O       -1.3330    -1.5950    -1.2860 O.co2 1 <1>  -0.8170 
  5 O       -0.8770    -0.0690     0.6530 O.co2 1 <1>  -0.8170 
  6 C        2.2960     0.0060     0.2180 C.3   1 <1>   0.1310 
  7 C        3.4540     0.8990    -0.1940 C.2   1 <1>   0.5690 
  8 O        4.5030     0.3480    -0.4530 O.2   1 <1>  -0.5700 
  9 N        3.3620     2.2780    -0.2300 N.am  1 <1>  -0.4770 
 10 C        2.3180     3.1870     0.0250 C.ar  1 <1>   0.1170 
 11 C        4.5990     3.0550    -0.5180 C.3   1 <1>   0.1400 
 12 C        2.7900     4.4850     0.0610 C.ar  1 <1>  -0.1440 
 13 C        0.9570     2.9730     0.2200 C.ar  1 <1>  -0.1500 
 14 C        4.2710     4.5200    -0.2030 C.3   1 <1>  -0.0160 
 15 C        1.9620     5.5640     0.3060 C.ar  1 <1>  -0.1500 
 16 C        0.1140     4.0440     0.4680 C.ar  1 <1>  -0.1500 
 17 C        0.6120     5.3370     0.5140 C.ar  1 <1>  -0.1500 
 18 H        2.6570    -0.9490     0.5530 H     1 <1>   0.0800 
 19 H        1.7120     0.4490     1.0020 H     1 <1>   0.0800 
 20 H        4.8530     2.9370    -1.5570 H     1 <1>   0.0800 
 21 H        5.4120     2.7030     0.0930 H     1 <1>   0.0800 
 22 H        0.5230     1.9950     0.1770 H     1 <1>   0.1500 
 23 H        4.5090     5.1560    -1.0360 H     1 <1>   0.0800 
 24 H        4.8040     4.8470     0.6720 H     1 <1>   0.0800 
 25 H        2.3560     6.5640     0.3330 H     1 <1>   0.1500 
 26 H       -0.9360     3.8600     0.6220 H     1 <1>   0.1500 
 27 H       -0.0520     6.1600     0.7080 H     1 <1>   0.1500 
@<TRIPOS>BOND
  1   1   2  1   
  2   1   3  ar  
  3   1   4  ar  
  4   1   5  ar  
  5   2   6  1   
  6   6   7  1   
  7   6  18  1   
  8   6  19  1   
  9   7   8  2   
 10   7   9  am  
 11   9  10  1   
 12   9  11  1   
 13  10  12  ar  
 14  10  13  ar  
 15  11  14  1   
 16  11  20  1   
 17  11  21  1   
 18  12  14  1   
 19  12  15  ar  
 20  13  16  ar  
 21  13  22  1   
 22  14  23  1   
 23  14  24  1   
 24  15  17  ar  
 25  15  25  1   
 26  16  17  ar  
 27  16  26  1   
 28  17  27  1   
@<TRIPOS>SUBSTRUCTURE
  1 ****  13 GROUP 4 **** **** 0

# MOE 2024.06 (io_trps.svl 2023.06)
