@<TRIPOS>MOLECULE
NONAME
40 41 1 0 0 
SMALL
USER_CHARGES


@<TRIPOS>ATOM
  1 S       -0.1500    -0.0290     0.3840 S.o2  1 <1>   1.4470 
  2 O       -0.3030    -0.9980    -0.6770 O.2   1 <1>  -0.6500 
  3 O       -0.5090    -0.3730     1.7410 O.2   1 <1>  -0.6500 
  4 N       -1.1670     1.2160    -0.0750 N.am  1 <1>  -0.9140 
  5 C        1.4910     0.7390     0.3370 C.ar  1 <1>  -0.0090 
  6 C       -2.5360     0.9230     0.2530 C.3   1 <1>   0.3340 
  7 C        1.8350     1.7430     1.2340 C.ar  1 <1>  -0.1500 
  8 C        2.4450     0.3590    -0.6000 C.ar  1 <1>  -0.1500 
  9 C       -3.3770     1.9410    -0.4820 C.2   1 <1>  -0.2880 
 10 C        3.0820     2.3410     1.2010 C.ar  1 <1>  -0.1500 
 11 C        3.6930     0.9560    -0.6380 C.ar  1 <1>  -0.1500 
 12 C       -4.2640     1.6660    -1.4430 C.2   1 <1>  -0.3000 
 13 C        4.0350     1.9560     0.2660 C.ar  1 <1>   0.1170 
 14 N        5.2800     2.5960     0.2630 N.am  1 <1>  -0.5470 
 15 C        6.5020     2.2010    -0.2060 C.2   1 <1>   0.6900 
 16 O        6.6770     1.0860    -0.6580 O.2   1 <1>  -0.5700 
 17 N        7.5450     3.0860    -0.1400 N.am  1 <1>  -0.6600 
 18 C        8.8890     2.7460    -0.6550 C.3   1 <1>   0.1400 
 19 C        7.4610     4.5190     0.2190 C.3   1 <1>   0.1400 
 20 C        9.5770     4.0890    -0.8670 C.3   1 <1>  -0.1600 
 21 C        8.8950     5.0300     0.1220 C.3   1 <1>  -0.1600 
 22 H       -1.1320     1.2030    -1.0910 H     1 <1>   0.4200 
 23 H       -2.6920     1.0010     1.3170 H     1 <1>   0.0800 
 24 H       -2.7980    -0.0730    -0.0680 H     1 <1>   0.0800 
 25 H        1.1130     2.0560     1.9690 H     1 <1>   0.1500 
 26 H        2.2130    -0.4160    -1.3120 H     1 <1>   0.1500 
 27 H       -3.1800     2.9440    -0.1420 H     1 <1>   0.1500 
 28 H        3.3170     3.1110     1.9130 H     1 <1>   0.1500 
 29 H        4.4030     0.6390    -1.3800 H     1 <1>   0.1500 
 30 H       -4.8490     2.4160    -1.9500 H     1 <1>   0.1500 
 31 H       -4.4850     0.6770    -1.8070 H     1 <1>   0.1500 
 32 H        5.3280     3.4710     0.7690 H     1 <1>   0.3700 
 33 H        8.8230     2.1840    -1.5720 H     1 <1>   0.0800 
 34 H        9.4090     2.1630     0.0870 H     1 <1>   0.0800 
 35 H        7.0720     4.6470     1.2140 H     1 <1>   0.0800 
 36 H        6.8350     5.0260    -0.4950 H     1 <1>   0.0800 
 37 H        9.3920     4.4190    -1.8740 H     1 <1>   0.0800 
 38 H       10.6390     4.0230    -0.7080 H     1 <1>   0.0800 
 39 H        9.3630     4.9450     1.0870 H     1 <1>   0.0800 
 40 H        8.9330     6.0570    -0.1960 H     1 <1>   0.0800 
@<TRIPOS>BOND
  1   1   2  2   
  2   1   3  2   
  3   1   4  am  
  4   1   5  1   
  5   4   6  1   
  6   4  22  1   
  7   5   7  ar  
  8   5   8  ar  
  9   6   9  1   
 10   6  23  1   
 11   6  24  1   
 12   7  10  ar  
 13   7  25  1   
 14   8  11  ar  
 15   8  26  1   
 16   9  12  2   
 17   9  27  1   
 18  10  13  ar  
 19  10  28  1   
 20  11  13  ar  
 21  11  29  1   
 22  12  30  1   
 23  12  31  1   
 24  13  14  1   
 25  14  15  am  
 26  14  32  1   
 27  15  16  2   
 28  15  17  am  
 29  17  18  1   
 30  17  19  1   
 31  18  20  1   
 32  18  33  1   
 33  18  34  1   
 34  19  21  1   
 35  19  35  1   
 36  19  36  1   
 37  20  21  1   
 38  20  37  1   
 39  20  38  1   
 40  21  39  1   
 41  21  40  1   
@<TRIPOS>SUBSTRUCTURE
  1 ****  13 GROUP 4 **** **** 0

# MOE 2024.06 (io_trps.svl 2023.06)
