@<TRIPOS>MOLECULE
NONAME
51 53 1 0 0 
SMALL
USER_CHARGES


@<TRIPOS>ATOM
  1 O       -0.4690     0.6970     0.6500 O.2   1 <1>  -0.5700 
  2 C       -0.3790     1.8460     0.2820 C.2   1 <1>   0.5690 
  3 N       -1.3170     2.7840     0.6310 N.am  1 <1>  -0.6600 
  4 C        0.8100     2.2410    -0.5840 C.3   1 <1>  -0.0990 
  5 C       -2.4910     2.4290     1.4920 C.3   1 <1>   0.1400 
  6 C       -1.3410     4.2130     0.1730 C.3   1 <1>   0.1400 
  7 C        1.8110     1.0960    -0.8310 C.3   1 <1>  -0.0990 
  8 C       -3.8200     2.7950     0.8110 C.3   1 <1>   0.2090 
  9 C       -2.6830     4.5700    -0.4910 C.3   1 <1>   0.2090 
 10 C        3.0060     1.5120    -1.6750 C.2   1 <1>   0.5690 
 11 N       -3.8360     4.2290     0.3970 N.pl3 1 <1>  -0.8380 
 12 O        2.8620     2.3470    -2.5330 O.2   1 <1>  -0.5700 
 13 N        4.2390     0.9800    -1.4670 N.am  1 <1>  -0.5470 
 14 C       -5.0700     4.7720     0.0960 C.ar  1 <1>   0.4100 
 15 C        4.6720     0.0080    -0.5460 C.ar  1 <1>   0.1170 
 16 N       -5.3390     5.0060    -1.1840 N.ar  1 <1>  -0.6200 
 17 C       -5.9690     5.0410     1.1250 C.ar  1 <1>  -0.1500 
 18 C        4.1240    -1.2800    -0.4780 C.ar  1 <1>   0.0820 
 19 C        5.6940     0.3490     0.3300 C.ar  1 <1>  -0.1500 
 20 C       -6.5340     5.5140    -1.4390 C.ar  1 <1>   0.1600 
 21 C       -7.2070     5.5690     0.8460 C.ar  1 <1>  -0.1500 
 22 O        3.1400    -1.6160    -1.3600 O.3   1 <1>  -0.3630 
 23 C        4.5970    -2.1850     0.4660 C.ar  1 <1>  -0.1500 
 24 C        6.1600    -0.5560     1.2670 C.ar  1 <1>  -0.1500 
 25 C       -7.4900     5.8090    -0.4830 C.ar  1 <1>  -0.1500 
 26 C        2.1740    -2.5860    -1.0150 C.3   1 <1>   0.0400 
 27 C        5.6110    -1.8230     1.3360 C.ar  1 <1>  -0.1500 
 28 H        1.3270     3.0530    -0.1070 H     1 <1>   0.0800 
 29 H        0.4360     2.5830    -1.5320 H     1 <1>   0.0800 
 30 H       -2.4160     2.9630     2.4230 H     1 <1>   0.0800 
 31 H       -2.4930     1.3770     1.7170 H     1 <1>   0.0800 
 32 H       -0.5490     4.4150    -0.5230 H     1 <1>   0.0800 
 33 H       -1.2000     4.8530     1.0260 H     1 <1>   0.0800 
 34 H        1.3070     0.2960    -1.3410 H     1 <1>   0.0800 
 35 H        2.1530     0.7240     0.1170 H     1 <1>   0.0800 
 36 H       -4.6330     2.6020     1.4890 H     1 <1>   0.0800 
 37 H       -3.9570     2.1740    -0.0580 H     1 <1>   0.0800 
 38 H       -2.7770     4.0330    -1.4200 H     1 <1>   0.0800 
 39 H       -2.7050     5.6230    -0.7130 H     1 <1>   0.0800 
 40 H        4.9470     1.3640    -2.0900 H     1 <1>   0.3700 
 41 H       -5.6720     4.8340     2.1350 H     1 <1>   0.1500 
 42 H        6.1230     1.3330     0.2830 H     1 <1>   0.1500 
 43 H       -6.7640     5.7060    -2.4730 H     1 <1>   0.1500 
 44 H       -7.9200     5.7860     1.6220 H     1 <1>   0.1500 
 45 H        4.1950    -3.1780     0.5310 H     1 <1>   0.1500 
 46 H        6.9500    -0.2740     1.9420 H     1 <1>   0.1500 
 47 H       -8.4390     6.2200    -0.7750 H     1 <1>   0.1500 
 48 H        2.6310    -3.5590    -1.0310 H     1 <1>   0.0800 
 49 H        1.7810    -2.3580    -0.0400 H     1 <1>   0.0800 
 50 H        1.3860    -2.5450    -1.7450 H     1 <1>   0.0800 
 51 H        5.9730    -2.5280     2.0650 H     1 <1>   0.1500 
@<TRIPOS>BOND
  1   1   2  2   
  2   2   3  am  
  3   2   4  1   
  4   3   5  1   
  5   3   6  1   
  6   4   7  1   
  7   4  28  1   
  8   4  29  1   
  9   5   8  1   
 10   5  30  1   
 11   5  31  1   
 12   6   9  1   
 13   6  32  1   
 14   6  33  1   
 15   7  10  1   
 16   7  34  1   
 17   7  35  1   
 18   8  11  1   
 19   8  36  1   
 20   8  37  1   
 21   9  11  1   
 22   9  38  1   
 23   9  39  1   
 24  10  12  2   
 25  10  13  am  
 26  11  14  1   
 27  13  15  1   
 28  13  40  1   
 29  14  16  ar  
 30  14  17  ar  
 31  15  18  ar  
 32  15  19  ar  
 33  16  20  ar  
 34  17  21  ar  
 35  17  41  1   
 36  18  22  1   
 37  18  23  ar  
 38  19  24  ar  
 39  19  42  1   
 40  20  25  ar  
 41  20  43  1   
 42  21  25  ar  
 43  21  44  1   
 44  22  26  1   
 45  23  27  ar  
 46  23  45  1   
 47  24  27  ar  
 48  24  46  1   
 49  25  47  1   
 50  26  48  1   
 51  26  49  1   
 52  26  50  1   
 53  27  51  1   
@<TRIPOS>SUBSTRUCTURE
  1 ****   2 GROUP 4 **** **** 0

# MOE 2024.06 (io_trps.svl 2023.06)
