@<TRIPOS>MOLECULE
NONAME
50 52 1 0 0 
SMALL
USER_CHARGES


@<TRIPOS>ATOM
  1 N        0.1030     0.0440     0.6700 N.4   1 <1>  -0.9590 
  2 C        1.2890     0.9610     0.5960 C.3   1 <1>   0.4230 
  3 C        0.0970    -1.0440    -0.3870 C.3   1 <1>   0.3430 
  4 C       -1.1910     0.8290     0.6870 C.3   1 <1>   0.3430 
  5 C        1.4450     1.6360    -0.7780 C.3   1 <1>  -0.1600 
  6 C        2.5660     0.2000     0.9780 C.3   1 <1>  -0.1600 
  7 C       -1.1740    -1.9420    -0.3440 C.3   1 <1>   0.3430 
  8 C       -2.4630    -0.0680     0.7250 C.3   1 <1>   0.3430 
  9 C        2.6510     2.5900    -0.7730 C.3   1 <1>  -0.1600 
 10 C        3.7780     1.1460     0.9870 C.3   1 <1>  -0.1600 
 11 N       -2.4670    -1.1570    -0.3280 N.4   1 <1>  -0.9590 
 12 C        3.9470     1.8700    -0.3600 C.3   1 <1>   0.0630 
 13 C       -3.6300    -2.0830    -0.1650 C.3   1 <1>   0.3430 
 14 C        5.1240     2.8400    -0.3190 C.ar  1 <1>  -0.1440 
 15 C       -4.9200    -1.3590    -0.5340 C.3   1 <1>  -0.2400 
 16 C        5.1460     3.9200     0.5550 C.ar  1 <1>  -0.1500 
 17 C        6.2030     2.6480    -1.1700 C.ar  1 <1>  -0.1500 
 18 C        6.2230     4.7880     0.5770 C.ar  1 <1>  -0.1500 
 19 C        7.2820     3.5150    -1.1500 C.ar  1 <1>  -0.1500 
 20 C        7.2930     4.5870    -0.2760 C.ar  1 <1>  -0.1500 
 21 H        0.2010    -0.4150     1.5890 H     1 <1>   0.4500 
 22 H        1.1600     1.7450     1.3280 H     1 <1>   0.0800 
 23 H        0.9680    -1.6690    -0.2720 H     1 <1>   0.0800 
 24 H        0.1550    -0.5960    -1.3650 H     1 <1>   0.0800 
 25 H       -1.2450     1.4500    -0.1930 H     1 <1>   0.0800 
 26 H       -1.2040     1.4880     1.5410 H     1 <1>   0.0800 
 27 H        0.5700     2.2100    -1.0250 H     1 <1>   0.0800 
 28 H        1.6110     0.9050    -1.5490 H     1 <1>   0.0800 
 29 H        2.7660    -0.5890     0.2750 H     1 <1>   0.0800 
 30 H        2.4640    -0.2280     1.9600 H     1 <1>   0.0800 
 31 H       -1.1220    -2.5610     0.5370 H     1 <1>   0.0800 
 32 H       -1.1630    -2.6030    -1.1970 H     1 <1>   0.0800 
 33 H       -3.3310     0.5590     0.6020 H     1 <1>   0.0800 
 34 H       -2.5330    -0.5170     1.7030 H     1 <1>   0.0800 
 35 H        2.4600     3.4070    -0.0970 H     1 <1>   0.0800 
 36 H        2.7860     3.0140    -1.7550 H     1 <1>   0.0800 
 37 H        4.6750     0.5870     1.1980 H     1 <1>   0.0800 
 38 H        3.6610     1.8700     1.7750 H     1 <1>   0.0800 
 39 H       -2.5960    -0.7190    -1.2550 H     1 <1>   0.4500 
 40 H        4.1570     1.1230    -1.1070 H     1 <1>   0.0800 
 41 H       -3.6880    -2.4460     0.8500 H     1 <1>   0.0800 
 42 H       -3.5160    -2.9340    -0.8190 H     1 <1>   0.0800 
 43 H       -5.1440    -0.5620     0.1520 H     1 <1>   0.0800 
 44 H       -5.7360    -2.0590    -0.4880 H     1 <1>   0.0800 
 45 H       -4.8770    -0.9760    -1.5390 H     1 <1>   0.0800 
 46 H        4.3280     4.0990     1.2280 H     1 <1>   0.1500 
 47 H        6.2180     1.8220    -1.8590 H     1 <1>   0.1500 
 48 H        6.2300     5.6210     1.2580 H     1 <1>   0.1500 
 49 H        8.1130     3.3560    -1.8140 H     1 <1>   0.1500 
 50 H        8.1310     5.2610    -0.2590 H     1 <1>   0.1500 
@<TRIPOS>BOND
  1   1   2  1   
  2   1   3  1   
  3   1   4  1   
  4   1  21  1   
  5   2   5  1   
  6   2   6  1   
  7   2  22  1   
  8   3   7  1   
  9   3  23  1   
 10   3  24  1   
 11   4   8  1   
 12   4  25  1   
 13   4  26  1   
 14   5   9  1   
 15   5  27  1   
 16   5  28  1   
 17   6  10  1   
 18   6  29  1   
 19   6  30  1   
 20   7  11  1   
 21   7  31  1   
 22   7  32  1   
 23   8  11  1   
 24   8  33  1   
 25   8  34  1   
 26   9  12  1   
 27   9  35  1   
 28   9  36  1   
 29  10  12  1   
 30  10  37  1   
 31  10  38  1   
 32  11  13  1   
 33  11  39  1   
 34  12  14  1   
 35  12  40  1   
 36  13  15  1   
 37  13  41  1   
 38  13  42  1   
 39  14  16  ar  
 40  14  17  ar  
 41  15  43  1   
 42  15  44  1   
 43  15  45  1   
 44  16  18  ar  
 45  16  46  1   
 46  17  19  ar  
 47  17  47  1   
 48  18  20  ar  
 49  18  48  1   
 50  19  20  ar  
 51  19  49  1   
 52  20  50  1   
@<TRIPOS>SUBSTRUCTURE
  1 ****   2 GROUP 4 **** **** 0

# MOE 2024.06 (io_trps.svl 2023.06)
