@<TRIPOS>MOLECULE
NONAME
47 50 1 0 0 
SMALL
USER_CHARGES


@<TRIPOS>ATOM
  1 BR       3.5120     1.8540    -2.7340 Br    1 <1>  -0.1110 
  2 C        2.1100     2.5170    -1.5820 C.ar  1 <1>   0.1110 
  3 C        2.3630     2.6750    -0.2260 C.ar  1 <1>   0.0830 
  4 C        0.8870     2.8160    -2.1490 C.ar  1 <1>  -0.1500 
  5 O        3.5980     2.3530     0.2370 O.3   1 <1>  -0.3630 
  6 C        1.3340     3.1560     0.5790 C.ar  1 <1>  -0.1500 
  7 C       -0.1310     3.2920    -1.3380 C.ar  1 <1>  -0.1430 
  8 C        3.9470     2.4820     1.6100 C.3   1 <1>   0.1810 
  9 C        0.1010     3.4590     0.0210 C.ar  1 <1>  -0.1500 
 10 C       -1.4880     3.6330    -1.9280 C.3   1 <1>  -0.0960 
 11 C        5.3900     2.0500     1.8430 C.2   1 <1>   0.5690 
 12 O        5.8400     2.1010     2.9630 O.2   1 <1>  -0.5700 
 13 N        6.1240     1.6220     0.7850 N.am  1 <1>  -0.7300 
 14 C        7.5250     1.1650     0.7980 C.3   1 <1>   0.2200 
 15 C        8.3830     2.0670    -0.1160 C.3   1 <1>  -0.0800 
 16 C        7.6090    -0.2950     0.3020 C.3   1 <1>  -0.0800 
 17 C        9.8510     1.5990    -0.0250 C.3   1 <1>  -0.1600 
 18 C        7.9210     1.9570    -1.5880 C.3   1 <1>  -0.1600 
 19 C        9.0780    -0.7590     0.3920 C.3   1 <1>  -0.1600 
 20 C        7.1470    -0.4030    -1.1700 C.3   1 <1>  -0.1600 
 21 C        9.9690     0.1350    -0.4940 C.3   1 <1>  -0.0800 
 22 C        8.0240     0.4950    -2.0650 C.3   1 <1>  -0.0800 
 23 C        9.4900     0.0330    -1.9540 C.3   1 <1>  -0.1600 
 24 H        0.7410     2.6780    -3.2050 H     1 <1>   0.1500 
 25 H        1.4690     3.3000     1.6350 H     1 <1>   0.1500 
 26 H        3.2910     1.8590     2.1890 H     1 <1>   0.0800 
 27 H        3.8330     3.5110     1.8970 H     1 <1>   0.0800 
 28 H       -0.6860     3.8310     0.6540 H     1 <1>   0.1500 
 29 H       -1.6460     3.1010    -2.8500 H     1 <1>   0.0800 
 30 H       -1.5460     4.6890    -2.1230 H     1 <1>   0.0800 
 31 H       -2.2720     3.3620    -1.2440 H     1 <1>   0.0800 
 32 H        5.6750     1.6070    -0.1340 H     1 <1>   0.3700 
 33 H        7.9000     1.2210     1.8070 H     1 <1>   0.0800 
 34 H        8.3130     3.0860     0.2220 H     1 <1>   0.0800 
 35 H        7.0000    -0.9200     0.9310 H     1 <1>   0.0800 
 36 H       10.1990     1.6870     0.9890 H     1 <1>   0.0800 
 37 H       10.4730     2.2290    -0.6380 H     1 <1>   0.0800 
 38 H        8.5380     2.5830    -2.2070 H     1 <1>   0.0800 
 39 H        6.9090     2.3060    -1.6910 H     1 <1>   0.0800 
 40 H        9.1570    -1.7830     0.0730 H     1 <1>   0.0800 
 41 H        9.4140    -0.7090     1.4140 H     1 <1>   0.0800 
 42 H        6.1150    -0.1170    -1.2620 H     1 <1>   0.0800 
 43 H        7.2240    -1.4250    -1.4970 H     1 <1>   0.0800 
 44 H       10.9930    -0.1880    -0.4240 H     1 <1>   0.0800 
 45 H        7.6950     0.4210    -3.0870 H     1 <1>   0.0800 
 46 H        9.5780    -0.9830    -2.2970 H     1 <1>   0.0800 
 47 H       10.1120     0.6440    -2.5850 H     1 <1>   0.0800 
@<TRIPOS>BOND
  1   1   2  1   
  2   2   3  ar  
  3   2   4  ar  
  4   3   5  1   
  5   3   6  ar  
  6   4   7  ar  
  7   4  24  1   
  8   5   8  1   
  9   6   9  ar  
 10   6  25  1   
 11   7   9  ar  
 12   7  10  1   
 13   8  11  1   
 14   8  26  1   
 15   8  27  1   
 16   9  28  1   
 17  10  29  1   
 18  10  30  1   
 19  10  31  1   
 20  11  12  2   
 21  11  13  am  
 22  13  14  1   
 23  13  32  1   
 24  14  15  1   
 25  14  16  1   
 26  14  33  1   
 27  15  17  1   
 28  15  18  1   
 29  15  34  1   
 30  16  19  1   
 31  16  20  1   
 32  16  35  1   
 33  17  21  1   
 34  17  36  1   
 35  17  37  1   
 36  18  22  1   
 37  18  38  1   
 38  18  39  1   
 39  19  21  1   
 40  19  40  1   
 41  19  41  1   
 42  20  22  1   
 43  20  42  1   
 44  20  43  1   
 45  21  23  1   
 46  21  44  1   
 47  22  23  1   
 48  22  45  1   
 49  23  46  1   
 50  23  47  1   
@<TRIPOS>SUBSTRUCTURE
  1 ****  13 GROUP 4 **** **** 0

# MOE 2024.06 (io_trps.svl 2023.06)
