@<TRIPOS>MOLECULE
NONAME
32 33 1 0 0 
SMALL
USER_CHARGES


@<TRIPOS>ATOM
  1 S       -0.1000    -0.0660    -0.1170 S.3   1 <1>  -0.4600 
  2 C        1.4990     0.7810    -0.2120 C.3   1 <1>   0.0700 
  3 C        0.3340    -1.7770    -0.5190 C.3   1 <1>   0.0700 
  4 C        2.5120     0.0410     0.6710 C.3   1 <1>   0.3430 
  5 C        1.4740    -2.2330     0.4020 C.3   1 <1>   0.3430 
  6 N        2.7120    -1.3930     0.2490 N.4   1 <1>  -0.9590 
  7 C        3.8580    -2.0040     0.9780 C.3   1 <1>   0.4860 
  8 C        5.1230    -1.2700     0.5820 C.ar  1 <1>  -0.1430 
  9 C        5.7340    -0.4000     1.4740 C.ar  1 <1>  -0.1500 
 10 C        5.6780    -1.4550    -0.6760 C.ar  1 <1>  -0.1500 
 11 C        6.8750     0.2880     1.1040 C.ar  1 <1>  -0.1500 
 12 C        6.8190    -0.7640    -1.0420 C.ar  1 <1>  -0.1500 
 13 C        7.4230     0.1110    -0.1550 C.ar  1 <1>  -0.1430 
 14 C        8.6770     0.8670    -0.5590 C.3   1 <1>  -0.0970 
 15 H        1.3440     1.7870     0.1370 H     1 <1>   0.0800 
 16 H        1.8050     0.8020    -1.2430 H     1 <1>   0.0800 
 17 H        0.6140    -1.8130    -1.5570 H     1 <1>   0.0800 
 18 H       -0.5510    -2.3690    -0.3640 H     1 <1>   0.0800 
 19 H        2.1710     0.0760     1.6930 H     1 <1>   0.0800 
 20 H        3.4500     0.5690     0.6170 H     1 <1>   0.0800 
 21 H        1.7050    -3.2610     0.1730 H     1 <1>   0.0800 
 22 H        1.1300    -2.1900     1.4230 H     1 <1>   0.0800 
 23 H        2.9850    -1.3760    -0.7410 H     1 <1>   0.4500 
 24 H        3.9580    -3.0450     0.7140 H     1 <1>   0.0800 
 25 H        3.7070    -1.9340     2.0430 H     1 <1>   0.0800 
 26 H        5.3370    -0.2460     2.4630 H     1 <1>   0.1500 
 27 H        5.2400    -2.1360    -1.3860 H     1 <1>   0.1500 
 28 H        7.3430     0.9630     1.8020 H     1 <1>   0.1500 
 29 H        7.2440    -0.9110    -2.0210 H     1 <1>   0.1500 
 30 H        8.4090     1.7980    -1.0230 H     1 <1>   0.0800 
 31 H        9.2590     0.2880    -1.2530 H     1 <1>   0.0800 
 32 H        9.2880     1.0720     0.3020 H     1 <1>   0.0800 
@<TRIPOS>BOND
  1   1   2  1   
  2   1   3  1   
  3   2   4  1   
  4   2  15  1   
  5   2  16  1   
  6   3   5  1   
  7   3  17  1   
  8   3  18  1   
  9   4   6  1   
 10   4  19  1   
 11   4  20  1   
 12   5   6  1   
 13   5  21  1   
 14   5  22  1   
 15   6   7  1   
 16   6  23  1   
 17   7   8  1   
 18   7  24  1   
 19   7  25  1   
 20   8   9  ar  
 21   8  10  ar  
 22   9  11  ar  
 23   9  26  1   
 24  10  12  ar  
 25  10  27  1   
 26  11  13  ar  
 27  11  28  1   
 28  12  13  ar  
 29  12  29  1   
 30  13  14  1   
 31  14  30  1   
 32  14  31  1   
 33  14  32  1   
@<TRIPOS>SUBSTRUCTURE
  1 ****   8 GROUP 4 **** **** 0

# MOE 2024.06 (io_trps.svl 2023.06)
