@<TRIPOS>MOLECULE
NONAME
46 49 1 0 0 
SMALL
USER_CHARGES


@<TRIPOS>ATOM
  1 O       -0.2030     0.6000     0.2670 O.2   1 <1>  -0.5700 
  2 C       -0.0320     1.7980     0.4050 C.2   1 <1>   0.5440 
  3 N       -1.1300     2.6160     0.5950 N.am  1 <1>  -0.6600 
  4 C        1.3170     2.3230     0.3610 C.ar  1 <1>   0.0860 
  5 C       -1.1090     4.0910     0.3820 C.3   1 <1>   0.1400 
  6 C       -2.4860     2.0550     0.8570 C.3   1 <1>   0.1400 
  7 C        2.1540     2.0700    -0.7250 C.ar  1 <1>  -0.1500 
  8 C        1.8380     3.0940     1.4000 C.ar  1 <1>  -0.1500 
  9 C       -2.0440     4.4610    -0.7750 C.3   1 <1>  -0.1600 
 10 C       -3.4250     2.4070    -0.3010 C.3   1 <1>  -0.1600 
 11 C        3.4380     2.5780    -0.7810 C.ar  1 <1>  -0.1500 
 12 C        3.1230     3.6010     1.3480 C.ar  1 <1>  -0.1500 
 13 C       -3.4640     3.9200    -0.5580 C.3   1 <1>  -0.1600 
 14 C        3.9470     3.3550     0.2550 C.ar  1 <1>   0.1170 
 15 N        5.2310     3.9100     0.2430 N.am  1 <1>  -0.5470 
 16 C        6.3620     3.5900    -0.4760 C.2   1 <1>   0.5440 
 17 O        6.3990     2.5740    -1.1400 O.2   1 <1>  -0.5700 
 18 C        7.5180     4.4600    -0.4030 C.ar  1 <1>   0.0860 
 19 C        8.8120     3.9270    -0.4520 C.ar  1 <1>  -0.1500 
 20 C        7.3820     5.8550    -0.2820 C.ar  1 <1>  -0.1500 
 21 C        9.8940     4.7760    -0.3610 C.ar  1 <1>   0.0820 
 22 C        8.4820     6.6960    -0.1930 C.ar  1 <1>  -0.1500 
 23 O       11.1960     4.4670    -0.3810 O.3   1 <1>  -0.3630 
 24 C        9.7370     6.1240    -0.2330 C.ar  1 <1>   0.0820 
 25 C       11.9110     5.6950    -0.2630 C.3   1 <1>   0.4000 
 26 O       10.9270     6.7220    -0.1650 O.3   1 <1>  -0.3620 
 27 H       -0.1170     4.4350     0.1520 H     1 <1>   0.0800 
 28 H       -1.4350     4.5780     1.2850 H     1 <1>   0.0800 
 29 H       -2.8640     2.4730     1.7740 H     1 <1>   0.0800 
 30 H       -2.4420     0.9860     0.9760 H     1 <1>   0.0800 
 31 H        1.7810     1.4630    -1.5320 H     1 <1>   0.1500 
 32 H        1.2180     3.2880     2.2580 H     1 <1>   0.1500 
 33 H       -1.6400     4.0560    -1.6880 H     1 <1>   0.0800 
 34 H       -2.0770     5.5310    -0.8780 H     1 <1>   0.0800 
 35 H       -4.4150     2.0510    -0.0760 H     1 <1>   0.0800 
 36 H       -3.0860     1.8940    -1.1840 H     1 <1>   0.0800 
 37 H        4.0450     2.3650    -1.6420 H     1 <1>   0.1500 
 38 H        3.4900     4.1890     2.1680 H     1 <1>   0.1500 
 39 H       -4.0690     4.1260    -1.4230 H     1 <1>   0.0800 
 40 H       -3.9100     4.4140     0.2880 H     1 <1>   0.0800 
 41 H        5.3840     4.6360     0.9400 H     1 <1>   0.3700 
 42 H        8.9640     2.8680    -0.5580 H     1 <1>   0.1500 
 43 H        6.3990     6.2920    -0.2690 H     1 <1>   0.1500 
 44 H        8.3790     7.7630    -0.1000 H     1 <1>   0.1500 
 45 H       12.5090     5.8510    -1.1440 H     1 <1>   0.0800 
 46 H       12.5100     5.6810     0.6300 H     1 <1>   0.0800 
@<TRIPOS>BOND
  1   1   2  2   
  2   2   3  am  
  3   2   4  1   
  4   3   5  1   
  5   3   6  1   
  6   4   7  ar  
  7   4   8  ar  
  8   5   9  1   
  9   5  27  1   
 10   5  28  1   
 11   6  10  1   
 12   6  29  1   
 13   6  30  1   
 14   7  11  ar  
 15   7  31  1   
 16   8  12  ar  
 17   8  32  1   
 18   9  13  1   
 19   9  33  1   
 20   9  34  1   
 21  10  13  1   
 22  10  35  1   
 23  10  36  1   
 24  11  14  ar  
 25  11  37  1   
 26  12  14  ar  
 27  12  38  1   
 28  13  39  1   
 29  13  40  1   
 30  14  15  1   
 31  15  16  am  
 32  15  41  1   
 33  16  17  2   
 34  16  18  1   
 35  18  19  ar  
 36  18  20  ar  
 37  19  21  ar  
 38  19  42  1   
 39  20  22  ar  
 40  20  43  1   
 41  21  23  1   
 42  21  24  ar  
 43  22  24  ar  
 44  22  44  1   
 45  23  25  1   
 46  24  26  1   
 47  25  26  1   
 48  25  45  1   
 49  25  46  1   
@<TRIPOS>SUBSTRUCTURE
  1 ****  14 GROUP 4 **** **** 0

# MOE 2024.06 (io_trps.svl 2023.06)
