@<TRIPOS>MOLECULE
NONAME
56 60 1 0 0 
SMALL
USER_CHARGES


@<TRIPOS>ATOM
  1 O       -2.2960     0.6140     1.4780 O.2   1 <1>  -0.5700 
  2 C       -2.3270     1.6410     0.8320 C.2   1 <1>   0.7060 
  3 O       -1.6900     2.6990     1.3490 O.3   1 <1>  -0.2320 
  4 C       -3.0150     1.7980    -0.4190 C.2   1 <1>   0.0290 
  5 C       -1.6600     3.9120     0.7580 C.ar  1 <1>   0.0830 
  6 C       -3.6840     0.6550    -0.9750 C.2   1 <1>   0.6160 
  7 C       -2.9910     3.0060    -1.0460 C.2   1 <1>  -0.1780 
  8 C       -2.3110     4.1120    -0.4640 C.ar  1 <1>   0.0280 
  9 C       -0.9810     4.9500     1.3780 C.ar  1 <1>  -0.1500 
 10 O       -3.3480     0.2810    -2.0830 O.2   1 <1>  -0.5700 
 11 N       -4.7280     0.0090    -0.3470 N.am  1 <1>  -0.6600 
 12 C       -2.2590     5.3790    -1.0450 C.ar  1 <1>  -0.1500 
 13 C       -0.9410     6.1980     0.7880 C.ar  1 <1>  -0.1500 
 14 C       -5.3340    -1.2460    -0.8990 C.3   1 <1>   0.1400 
 15 C       -5.3920     0.4700     0.9150 C.3   1 <1>   0.1400 
 16 C       -1.5820     6.4110    -0.4250 C.ar  1 <1>  -0.1500 
 17 C       -6.8570    -1.1060    -1.0630 C.3   1 <1>   0.2090 
 18 C       -6.9170     0.5790     0.7410 C.3   1 <1>   0.2090 
 19 N       -7.5060    -0.6900     0.2160 N.pl3 1 <1>  -0.8380 
 20 C       -8.8950    -0.7160     0.1740 C.ar  1 <1>   0.4100 
 21 N       -9.5320     0.2790    -0.4500 N.ar  1 <1>  -0.3100 
 22 C       -9.5690    -1.7670     0.7640 C.ar  1 <1>  -0.1500 
 23 N      -10.8460     0.2820    -0.5110 N.ar  1 <1>  -0.3100 
 24 C      -10.9390    -1.7620     0.6970 C.ar  1 <1>  -0.1500 
 25 C      -11.5540    -0.7060     0.0480 C.ar  1 <1>   0.4100 
 26 N      -12.9480    -0.6680    -0.0250 N.pl3 1 <1>  -0.8380 
 27 C      -13.7060    -0.5350     1.2470 C.3   1 <1>   0.2090 
 28 C      -13.5970    -0.0330    -1.2090 C.3   1 <1>   0.2090 
 29 C      -14.0120     0.9390     1.5330 C.3   1 <1>  -0.1600 
 30 C      -13.9380     1.4350    -0.9280 C.3   1 <1>  -0.1600 
 31 C      -14.7500     1.6010     0.3630 C.3   1 <1>  -0.1600 
 32 H       -3.4790     3.1510    -1.9950 H     1 <1>   0.1500 
 33 H       -0.4860     4.7740     2.3170 H     1 <1>   0.1500 
 34 H       -2.7510     5.5510    -1.9860 H     1 <1>   0.1500 
 35 H       -0.4150     7.0070     1.2660 H     1 <1>   0.1500 
 36 H       -5.1290    -2.0580    -0.2250 H     1 <1>   0.0800 
 37 H       -4.9020    -1.4940    -1.8520 H     1 <1>   0.0800 
 38 H       -5.0140     1.4280     1.2200 H     1 <1>   0.0800 
 39 H       -5.1770    -0.2350     1.7000 H     1 <1>   0.0800 
 40 H       -1.5470     7.3860    -0.8810 H     1 <1>   0.1500 
 41 H       -7.2680    -2.0480    -1.3830 H     1 <1>   0.0800 
 42 H       -7.0660    -0.3760    -1.8280 H     1 <1>   0.0800 
 43 H       -7.1370     1.3860     0.0630 H     1 <1>   0.0800 
 44 H       -7.3690     0.8130     1.6900 H     1 <1>   0.0800 
 45 H       -9.0200    -2.5490     1.2510 H     1 <1>   0.1500 
 46 H      -11.5300    -2.5480     1.1240 H     1 <1>   0.1500 
 47 H      -13.1380    -0.9470     2.0630 H     1 <1>   0.0800 
 48 H      -14.6250    -1.0890     1.1650 H     1 <1>   0.0800 
 49 H      -14.4970    -0.5760    -1.4400 H     1 <1>   0.0800 
 50 H      -12.9430    -0.0990    -2.0630 H     1 <1>   0.0800 
 51 H      -13.0840     1.4540     1.7140 H     1 <1>   0.0800 
 52 H      -14.6070     1.0120     2.4250 H     1 <1>   0.0800 
 53 H      -14.4900     1.8350    -1.7590 H     1 <1>   0.0800 
 54 H      -13.0200     1.9920    -0.8500 H     1 <1>   0.0800 
 55 H      -14.8960     2.6470     0.5690 H     1 <1>   0.0800 
 56 H      -15.7160     1.1430     0.2410 H     1 <1>   0.0800 
@<TRIPOS>BOND
  1   1   2  2   
  2   2   3  1   
  3   2   4  1   
  4   3   5  1   
  5   4   6  1   
  6   4   7  2   
  7   5   8  ar  
  8   5   9  ar  
  9   6  10  2   
 10   6  11  am  
 11   7   8  1   
 12   7  32  1   
 13   8  12  ar  
 14   9  13  ar  
 15   9  33  1   
 16  11  14  1   
 17  11  15  1   
 18  12  16  ar  
 19  12  34  1   
 20  13  16  ar  
 21  13  35  1   
 22  14  17  1   
 23  14  36  1   
 24  14  37  1   
 25  15  18  1   
 26  15  38  1   
 27  15  39  1   
 28  16  40  1   
 29  17  19  1   
 30  17  41  1   
 31  17  42  1   
 32  18  19  1   
 33  18  43  1   
 34  18  44  1   
 35  19  20  1   
 36  20  21  ar  
 37  20  22  ar  
 38  21  23  ar  
 39  22  24  ar  
 40  22  45  1   
 41  23  25  ar  
 42  24  25  ar  
 43  24  46  1   
 44  25  26  1   
 45  26  27  1   
 46  26  28  1   
 47  27  29  1   
 48  27  47  1   
 49  27  48  1   
 50  28  30  1   
 51  28  49  1   
 52  28  50  1   
 53  29  31  1   
 54  29  51  1   
 55  29  52  1   
 56  30  31  1   
 57  30  53  1   
 58  30  54  1   
 59  31  55  1   
 60  31  56  1   
@<TRIPOS>SUBSTRUCTURE
  1 ****  18 GROUP 4 **** **** 0

# MOE 2024.06 (io_trps.svl 2023.06)
