@<TRIPOS>MOLECULE
NONAME
38 39 1 0 0 
SMALL
USER_CHARGES


@<TRIPOS>ATOM
  1 O        1.7770    -3.8290    -2.3240 O.2   1 <1>  -0.5700 
  2 C        1.5800    -3.5070    -1.1710 C.2   1 <1>   0.6340 
  3 O        0.3320    -3.5910    -0.7010 O.3   1 <1>  -0.4300 
  4 C        2.6150    -2.9950    -0.3010 C.ar  1 <1>   0.0860 
  5 C       -0.7460    -4.1050    -1.4640 C.3   1 <1>   0.2000 
  6 C        2.6790    -3.2800     1.0730 C.ar  1 <1>   0.0830 
  7 C        3.6080    -2.1750    -0.8440 C.ar  1 <1>  -0.1500 
  8 C       -2.0370    -3.5920    -0.8060 C.3   1 <1>   0.3430 
  9 C       -0.7180    -5.6460    -1.4030 C.3   1 <1>  -0.1600 
 10 O        1.7570    -4.1200     1.6130 O.3   1 <1>  -0.3630 
 11 C        3.6900    -2.7200     1.8540 C.ar  1 <1>  -0.1500 
 12 C        4.6100    -1.6320    -0.0650 C.ar  1 <1>  -0.1500 
 13 N       -2.0470    -3.9080     0.6720 N.4   1 <1>  -0.9590 
 14 C       -1.4910    -6.2110    -0.1910 C.3   1 <1>  -0.1600 
 15 C        1.9670    -4.7400     2.8680 C.3   1 <1>   0.0400 
 16 C        4.6480    -1.9020     1.2900 C.ar  1 <1>  -0.1500 
 17 C       -1.4760    -5.2600     1.0120 C.3   1 <1>   0.3430 
 18 C       -3.3950    -3.6950     1.2740 C.3   1 <1>   0.2630 
 19 H       -0.6630    -3.7500    -2.4780 H     1 <1>   0.0800 
 20 H        3.5890    -1.9610    -1.9000 H     1 <1>   0.1500 
 21 H       -2.8760    -4.0640    -1.2870 H     1 <1>   0.0800 
 22 H       -2.1180    -2.5280    -0.9600 H     1 <1>   0.0800 
 23 H        0.3040    -5.9870    -1.3880 H     1 <1>   0.0800 
 24 H       -1.1620    -6.0390    -2.3010 H     1 <1>   0.0800 
 25 H        3.7530    -2.9070     2.9100 H     1 <1>   0.1500 
 26 H        5.3610    -1.0010    -0.5100 H     1 <1>   0.1500 
 27 H       -1.3810    -3.2370     1.0870 H     1 <1>   0.4500 
 28 H       -1.0560    -7.1530     0.0970 H     1 <1>   0.0800 
 29 H       -2.5130    -6.4060    -0.4650 H     1 <1>   0.0800 
 30 H        1.2030    -5.4810     3.0130 H     1 <1>   0.0800 
 31 H        1.9060    -3.9960     3.6420 H     1 <1>   0.0800 
 32 H        2.9340    -5.2120     2.8670 H     1 <1>   0.0800 
 33 H        5.4260    -1.4750     1.9000 H     1 <1>   0.1500 
 34 H       -2.0170    -5.6980     1.8360 H     1 <1>   0.0800 
 35 H       -0.4500    -5.1330     1.3200 H     1 <1>   0.0800 
 36 H       -4.1040    -4.3920     0.8580 H     1 <1>   0.0800 
 37 H       -3.7380    -2.6920     1.0770 H     1 <1>   0.0800 
 38 H       -3.3540    -3.8400     2.3410 H     1 <1>   0.0800 
@<TRIPOS>BOND
  1   1   2  2   
  2   2   3  1   
  3   2   4  1   
  4   3   5  1   
  5   4   6  ar  
  6   4   7  ar  
  7   5   8  1   
  8   5   9  1   
  9   5  19  1   
 10   6  10  1   
 11   6  11  ar  
 12   7  12  ar  
 13   7  20  1   
 14   8  13  1   
 15   8  21  1   
 16   8  22  1   
 17   9  14  1   
 18   9  23  1   
 19   9  24  1   
 20  10  15  1   
 21  11  16  ar  
 22  11  25  1   
 23  12  16  ar  
 24  12  26  1   
 25  13  17  1   
 26  13  18  1   
 27  13  27  1   
 28  14  17  1   
 29  14  28  1   
 30  14  29  1   
 31  15  30  1   
 32  15  31  1   
 33  15  32  1   
 34  16  33  1   
 35  17  34  1   
 36  17  35  1   
 37  18  36  1   
 38  18  37  1   
 39  18  38  1   
@<TRIPOS>SUBSTRUCTURE
  1 ****   3 GROUP 4 **** **** 0

# MOE 2024.06 (io_trps.svl 2023.06)
