@<TRIPOS>MOLECULE
22261
41 43 1 0 0 
SMALL
USER_CHARGES


@<TRIPOS>ATOM
  1 BR       0.4490    -0.5860     0.1730 Br    1 <1>  -0.1110 
  2 C        1.9800     0.5600    -0.0480 C.ar  1 <1>   0.1110 
  3 C        2.7660     0.4070    -1.1750 C.ar  1 <1>  -0.1500 
  4 C        2.2540     1.5020     0.9260 C.ar  1 <1>  -0.1500 
  5 C        3.8770     1.2210    -1.3170 C.ar  1 <1>  -0.1500 
  6 C        3.3640     2.3160     0.7720 C.ar  1 <1>  -0.1500 
  7 C        4.1830     2.1660    -0.3470 C.ar  1 <1>   0.0830 
  8 O        5.3030     2.9000    -0.5490 O.3   1 <1>  -0.3630 
  9 C        6.0150     3.4690     0.5400 C.3   1 <1>   0.1810 
 10 C        7.5050     3.5330     0.2170 C.2   1 <1>   0.5690 
 11 O        8.0770     4.5850     0.3430 O.2   1 <1>  -0.5700 
 12 N        8.2040     2.4510    -0.2310 N.am  1 <1>  -0.4940 
 13 C        7.8750     1.1180    -0.3460 C.2   1 <1>   0.4420 
 14 S        6.8440     0.3520     0.8220 S.3   1 <1>  -0.0800 
 15 N        8.2890     0.2970    -1.2380 N.2   1 <1>  -0.3380 
 16 C        7.0120    -1.1080    -0.0910 C.2   1 <1>   0.1980 
 17 N        7.7820    -0.9650    -1.0950 N.2   1 <1>  -0.3380 
 18 C        6.2420    -2.3310     0.3970 C.3   1 <1>   0.1000 
 19 C        6.7240    -3.6230    -0.2890 C.3   1 <1>  -0.1600 
 20 C        4.7300    -2.1400     0.1760 C.3   1 <1>  -0.1600 
 21 C        5.9240    -4.8470     0.1760 C.3   1 <1>  -0.1600 
 22 C        3.9230    -3.3630     0.6350 C.3   1 <1>  -0.1600 
 23 C        4.4200    -4.6420    -0.0500 C.3   1 <1>  -0.1600 
 24 H        2.5170    -0.3310    -1.9160 H     1 <1>   0.1500 
 25 H        1.6100     1.5950     1.7830 H     1 <1>   0.1500 
 26 H        4.5160     1.1240    -2.1780 H     1 <1>   0.1500 
 27 H        3.5750     3.0590     1.5180 H     1 <1>   0.1500 
 28 H        5.8660     2.8760     1.4220 H     1 <1>   0.0800 
 29 H        5.6310     4.4590     0.7040 H     1 <1>   0.0800 
 30 H        9.0930     2.7020    -0.6580 H     1 <1>   0.3700 
 31 H        6.4220    -2.4300     1.4540 H     1 <1>   0.0800 
 32 H        7.7690    -3.7730    -0.0770 H     1 <1>   0.0800 
 33 H        6.6200    -3.5180    -1.3560 H     1 <1>   0.0800 
 34 H        4.5490    -1.9700    -0.8710 H     1 <1>   0.0800 
 35 H        4.3880    -1.2730     0.7140 H     1 <1>   0.0800 
 36 H        6.1080    -5.0220     1.2220 H     1 <1>   0.0800 
 37 H        6.2530    -5.7180    -0.3660 H     1 <1>   0.0800 
 38 H        2.8820    -3.2130     0.4060 H     1 <1>   0.0800 
 39 H        4.0130    -3.4720     1.7020 H     1 <1>   0.0800 
 40 H        3.8790    -5.4900     0.3340 H     1 <1>   0.0800 
 41 H        4.2240    -4.5790    -1.1070 H     1 <1>   0.0800 
@<TRIPOS>BOND
  1   1   2  1   
  2   2   3  ar  
  3   2   4  ar  
  4   3   5  ar  
  5   3  24  1   
  6   4   6  ar  
  7   4  25  1   
  8   5   7  ar  
  9   5  26  1   
 10   6   7  ar  
 11   6  27  1   
 12   7   8  1   
 13   8   9  1   
 14   9  10  1   
 15   9  28  1   
 16   9  29  1   
 17  10  11  2   
 18  10  12  am  
 19  12  13  1   
 20  12  30  1   
 21  13  14  1   
 22  13  15  2   
 23  14  16  1   
 24  15  17  1   
 25  16  17  2   
 26  16  18  1   
 27  18  19  1   
 28  18  20  1   
 29  18  31  1   
 30  19  21  1   
 31  19  32  1   
 32  19  33  1   
 33  20  22  1   
 34  20  34  1   
 35  20  35  1   
 36  21  23  1   
 37  21  36  1   
 38  21  37  1   
 39  22  23  1   
 40  22  38  1   
 41  22  39  1   
 42  23  40  1   
 43  23  41  1   
@<TRIPOS>SUBSTRUCTURE
  1 ****  14 GROUP 4 **** **** 0

# MOE 2024.06 (io_trps.svl 2023.06)
