@<TRIPOS>MOLECULE
NONAME
43 44 1 0 0 
SMALL
USER_CHARGES


@<TRIPOS>ATOM
  1 O        0.0010    -0.4320    -0.7300 O.2   1 <1>  -0.5700 
  2 C       -0.4340    -1.5050    -0.3920 C.2   1 <1>   0.5690 
  3 N        0.2870    -2.6110    -0.0530 N.am  1 <1>  -0.4770 
  4 C       -1.9090    -1.7550    -0.2540 C.3   1 <1>  -0.0990 
  5 C        1.6830    -2.7150     0.0720 C.ar  1 <1>   0.1170 
  6 C       -0.6010    -3.6970     0.4050 C.3   1 <1>   0.1400 
  7 C       -1.9580    -3.0130     0.6250 C.3   1 <1>  -0.0190 
  8 C        2.4300    -3.6720    -0.6240 C.ar  1 <1>  -0.1440 
  9 C        2.3460    -1.8430     0.9290 C.ar  1 <1>  -0.1500 
 10 C       -3.1360    -3.9180     0.3140 C.2   1 <1>   0.5690 
 11 C        3.7990    -3.7540    -0.4210 C.ar  1 <1>  -0.1500 
 12 C        1.7900    -4.6270    -1.6230 C.3   1 <1>  -0.0970 
 13 C        3.7110    -1.9280     1.1220 C.ar  1 <1>  -0.1500 
 14 O       -3.1120    -4.6000    -0.6800 O.2   1 <1>  -0.5700 
 15 N       -4.1960    -3.9270     1.1610 N.am  1 <1>  -0.7300 
 16 C        4.4400    -2.8900     0.4480 C.ar  1 <1>  -0.1500 
 17 C       -5.3720    -4.8110     1.0230 C.3   1 <1>   0.2200 
 18 C       -6.3140    -4.2670    -0.0640 C.3   1 <1>   0.1200 
 19 C       -6.0340    -4.9020     2.3990 C.3   1 <1>  -0.2400 
 20 O       -7.4770    -5.0400    -0.1200 O.3   1 <1>  -0.5600 
 21 C       -8.3550    -4.6650    -1.1310 C.3   1 <1>   0.0400 
 22 H       -2.3180    -1.9390    -1.2310 H     1 <1>   0.0800 
 23 H       -2.4040    -0.9190     0.2050 H     1 <1>   0.0800 
 24 H       -0.2270    -4.1390     1.3130 H     1 <1>   0.0800 
 25 H       -0.6650    -4.4460    -0.3640 H     1 <1>   0.0800 
 26 H       -2.0040    -2.7120     1.6560 H     1 <1>   0.0800 
 27 H        1.7810    -1.0890     1.4470 H     1 <1>   0.1500 
 28 H        4.3800    -4.4920    -0.9460 H     1 <1>   0.1500 
 29 H        1.0290    -4.1210    -2.1910 H     1 <1>   0.0800 
 30 H        1.3510    -5.4610    -1.1070 H     1 <1>   0.0800 
 31 H        2.5230    -5.0010    -2.3150 H     1 <1>   0.0800 
 32 H        4.2050    -1.2450     1.7910 H     1 <1>   0.1500 
 33 H       -4.2130    -3.3230     1.9820 H     1 <1>   0.3700 
 34 H        5.5030    -2.9620     0.5950 H     1 <1>   0.1500 
 35 H       -5.0350    -5.7890     0.7200 H     1 <1>   0.0800 
 36 H       -5.8250    -4.3150    -1.0220 H     1 <1>   0.0800 
 37 H       -6.5950    -3.2530     0.1580 H     1 <1>   0.0800 
 38 H       -6.4120    -3.9430     2.7040 H     1 <1>   0.0800 
 39 H       -5.3360    -5.2710     3.1280 H     1 <1>   0.0800 
 40 H       -6.8610    -5.5880     2.3540 H     1 <1>   0.0800 
 41 H       -9.2110    -5.3140    -1.0880 H     1 <1>   0.0800 
 42 H       -7.8660    -4.7720    -2.0840 H     1 <1>   0.0800 
 43 H       -8.6640    -3.6460    -0.9740 H     1 <1>   0.0800 
@<TRIPOS>BOND
  1   1   2  2   
  2   2   3  am  
  3   2   4  1   
  4   3   5  1   
  5   3   6  1   
  6   4   7  1   
  7   4  22  1   
  8   4  23  1   
  9   5   8  ar  
 10   5   9  ar  
 11   6   7  1   
 12   6  24  1   
 13   6  25  1   
 14   7  10  1   
 15   7  26  1   
 16   8  11  ar  
 17   8  12  1   
 18   9  13  ar  
 19   9  27  1   
 20  10  14  2   
 21  10  15  am  
 22  11  16  ar  
 23  11  28  1   
 24  12  29  1   
 25  12  30  1   
 26  12  31  1   
 27  13  16  ar  
 28  13  32  1   
 29  15  17  1   
 30  15  33  1   
 31  16  34  1   
 32  17  18  1   
 33  17  19  1   
 34  17  35  1   
 35  18  20  1   
 36  18  36  1   
 37  18  37  1   
 38  19  38  1   
 39  19  39  1   
 40  19  40  1   
 41  20  21  1   
 42  21  41  1   
 43  21  42  1   
 44  21  43  1   
@<TRIPOS>SUBSTRUCTURE
  1 ****   7 GROUP 4 **** **** 0

# MOE 2024.06 (io_trps.svl 2023.06)
