@<TRIPOS>MOLECULE
NONAME
36 36 1 0 0 
SMALL
USER_CHARGES


@<TRIPOS>ATOM
  1 O       -0.1690     0.2640    -0.8310 O.2   1 <1>  -0.5700 
  2 C       -0.1110     1.4040    -0.4140 C.2   1 <1>   0.5440 
  3 N       -1.2690     1.9970    -0.0010 N.am  1 <1>  -0.7300 
  4 C        1.1570     2.1080    -0.3390 C.ar  1 <1>   0.0860 
  5 C       -2.5950     1.3690    -0.0480 C.3   1 <1>   0.2780 
  6 C        2.3620     1.4060    -0.2550 C.ar  1 <1>  -0.1500 
  7 C        1.2350     3.5040    -0.3460 C.ar  1 <1>  -0.1500 
  8 C       -3.6140     2.4840    -0.1420 C.2   1 <1>  -0.2880 
  9 C        3.5810     2.0540    -0.1710 C.ar  1 <1>  -0.1500 
 10 C        2.4490     4.1590    -0.2610 C.ar  1 <1>  -0.1500 
 11 C       -4.5270     2.7820     0.7880 C.2   1 <1>  -0.3000 
 12 C        3.6310     3.4440    -0.1710 C.ar  1 <1>   0.0830 
 13 O        4.7750     4.1590    -0.0900 O.3   1 <1>  -0.3630 
 14 C        6.0360     3.5340    -0.0100 C.3   1 <1>   0.1200 
 15 C        7.1070     4.6240     0.0620 C.3   1 <1>  -0.1600 
 16 C        8.5120     4.0160     0.1510 C.3   1 <1>  -0.1600 
 17 C        9.5800     5.1110     0.2220 C.3   1 <1>  -0.2400 
 18 H       -1.2470     2.8950     0.4800 H     1 <1>   0.3700 
 19 H       -2.7460     0.7890     0.8470 H     1 <1>   0.0800 
 20 H       -2.6690     0.7160    -0.9020 H     1 <1>   0.0800 
 21 H        2.3330     0.3300    -0.2580 H     1 <1>   0.1500 
 22 H        0.3360     4.0870    -0.4280 H     1 <1>   0.1500 
 23 H       -3.5260     3.0310    -1.0660 H     1 <1>   0.1500 
 24 H        4.4750     1.4640    -0.1080 H     1 <1>   0.1500 
 25 H        2.4920     5.2340    -0.2660 H     1 <1>   0.1500 
 26 H       -5.2420     3.5820     0.6920 H     1 <1>   0.1500 
 27 H       -4.6400     2.2550     1.7200 H     1 <1>   0.1500 
 28 H        6.1700     2.9270    -0.8880 H     1 <1>   0.0800 
 29 H        6.0560     2.9230     0.8760 H     1 <1>   0.0800 
 30 H        6.9250     5.2370     0.9270 H     1 <1>   0.0800 
 31 H        7.0380     5.2400    -0.8180 H     1 <1>   0.0800 
 32 H        8.6970     3.3990    -0.7120 H     1 <1>   0.0800 
 33 H        8.5850     3.3960     1.0290 H     1 <1>   0.0800 
 34 H        9.5410     5.7320    -0.6560 H     1 <1>   0.0800 
 35 H       10.5590     4.6690     0.2840 H     1 <1>   0.0800 
 36 H        9.4290     5.7300     1.0890 H     1 <1>   0.0800 
@<TRIPOS>BOND
  1   1   2  2   
  2   2   3  am  
  3   2   4  1   
  4   3   5  1   
  5   3  18  1   
  6   4   6  ar  
  7   4   7  ar  
  8   5   8  1   
  9   5  19  1   
 10   5  20  1   
 11   6   9  ar  
 12   6  21  1   
 13   7  10  ar  
 14   7  22  1   
 15   8  11  2   
 16   8  23  1   
 17   9  12  ar  
 18   9  24  1   
 19  10  12  ar  
 20  10  25  1   
 21  11  26  1   
 22  11  27  1   
 23  12  13  1   
 24  13  14  1   
 25  14  15  1   
 26  14  28  1   
 27  14  29  1   
 28  15  16  1   
 29  15  30  1   
 30  15  31  1   
 31  16  17  1   
 32  16  32  1   
 33  16  33  1   
 34  17  34  1   
 35  17  35  1   
 36  17  36  1   
@<TRIPOS>SUBSTRUCTURE
  1 ****   7 GROUP 4 **** **** 0

# MOE 2024.06 (io_trps.svl 2023.06)
