@<TRIPOS>MOLECULE
NONAME
52 53 1 0 0 
SMALL
USER_CHARGES


@<TRIPOS>ATOM
  1 CL      -2.1360    -1.2810    -0.9230 Cl    1 <1>  -0.1770 
  2 C       -3.1160     0.0950    -0.4860 C.ar  1 <1>   0.1770 
  3 C       -3.0480     0.5950     0.8010 C.ar  1 <1>  -0.1500 
  4 C       -3.9470     0.6630    -1.4330 C.ar  1 <1>  -0.1500 
  5 C       -3.8280     1.6860     1.1460 C.ar  1 <1>  -0.1500 
  6 C       -4.7250     1.7540    -1.0820 C.ar  1 <1>  -0.1500 
  7 C       -4.6680     2.2690     0.2060 C.ar  1 <1>  -0.1430 
  8 C       -5.5300     3.4620     0.5800 C.3   1 <1>   0.2840 
  9 N       -6.8940     2.9740     0.8390 N.am  1 <1>  -0.7300 
 10 C       -8.0160     3.6900     0.6000 C.2   1 <1>   0.5690 
 11 O       -7.9770     4.8230     0.1910 O.2   1 <1>  -0.5700 
 12 C       -9.3610     3.0440     0.8380 C.3   1 <1>  -0.0990 
 13 C       -9.9900     2.5940    -0.4850 C.3   1 <1>  -0.0170 
 14 C      -11.3550     1.9780    -0.2340 C.ar  1 <1>  -0.1430 
 15 C      -11.4980     0.6090    -0.0890 C.ar  1 <1>  -0.1500 
 16 C      -12.4730     2.7880    -0.1390 C.ar  1 <1>  -0.1500 
 17 C      -12.7460     0.0600     0.1500 C.ar  1 <1>  -0.1500 
 18 C      -13.7180     2.2320     0.1010 C.ar  1 <1>  -0.1500 
 19 C      -13.8780     0.8600     0.2500 C.ar  1 <1>  -0.0090 
 20 S      -15.5140     0.1470     0.5720 S.o2  1 <1>   1.4470 
 21 O      -15.4790    -1.2840     0.3790 O.2   1 <1>  -0.6500 
 22 O      -16.0600     0.7100     1.7860 O.2   1 <1>  -0.6500 
 23 N      -16.4360     0.7130    -0.7120 N.am  1 <1>  -0.9140 
 24 C      -17.8560     0.8900    -0.4320 C.3   1 <1>   0.1960 
 25 C      -18.6010    -0.4510    -0.2810 C.3   1 <1>  -0.0800 
 26 C      -18.4380    -1.3590    -1.5120 C.3   1 <1>  -0.2400 
 27 C      -20.0920    -0.1900    -0.0360 C.3   1 <1>  -0.2400 
 28 H       -2.3920     0.1340     1.5180 H     1 <1>   0.1500 
 29 H       -3.9810     0.2560    -2.4270 H     1 <1>   0.1500 
 30 H       -3.7780     2.0770     2.1480 H     1 <1>   0.1500 
 31 H       -5.3770     2.2010    -1.8140 H     1 <1>   0.1500 
 32 H       -5.5410     4.1820    -0.2230 H     1 <1>   0.0800 
 33 H       -5.1490     3.9450     1.4630 H     1 <1>   0.0800 
 34 H       -6.9400     2.0070     1.1600 H     1 <1>   0.3700 
 35 H      -10.0020     3.7630     1.3150 H     1 <1>   0.0800 
 36 H       -9.2540     2.2040     1.4980 H     1 <1>   0.0800 
 37 H       -9.3470     1.8800    -0.9710 H     1 <1>   0.0800 
 38 H      -10.0910     3.4410    -1.1420 H     1 <1>   0.0800 
 39 H      -10.6400    -0.0370    -0.1600 H     1 <1>   0.1500 
 40 H      -12.3800     3.8550    -0.2490 H     1 <1>   0.1500 
 41 H      -12.8410    -1.0070     0.2620 H     1 <1>   0.1500 
 42 H      -14.5800     2.8730     0.1750 H     1 <1>   0.1500 
 43 H      -16.3640    -0.0310    -1.4030 H     1 <1>   0.4200 
 44 H      -18.2930     1.4350    -1.2520 H     1 <1>   0.0800 
 45 H      -17.9850     1.4890     0.4550 H     1 <1>   0.0800 
 46 H      -18.2190    -0.9670     0.5850 H     1 <1>   0.0800 
 47 H      -18.7560    -0.8510    -2.4060 H     1 <1>   0.0800 
 48 H      -19.0320    -2.2490    -1.3960 H     1 <1>   0.0800 
 49 H      -17.4150    -1.6690    -1.6300 H     1 <1>   0.0800 
 50 H      -20.5360     0.3160    -0.8760 H     1 <1>   0.0800 
 51 H      -20.2250     0.4190     0.8420 H     1 <1>   0.0800 
 52 H      -20.6140    -1.1180     0.1200 H     1 <1>   0.0800 
@<TRIPOS>BOND
  1   1   2  1   
  2   2   3  ar  
  3   2   4  ar  
  4   3   5  ar  
  5   3  28  1   
  6   4   6  ar  
  7   4  29  1   
  8   5   7  ar  
  9   5  30  1   
 10   6   7  ar  
 11   6  31  1   
 12   7   8  1   
 13   8   9  1   
 14   8  32  1   
 15   8  33  1   
 16   9  10  am  
 17   9  34  1   
 18  10  11  2   
 19  10  12  1   
 20  12  13  1   
 21  12  35  1   
 22  12  36  1   
 23  13  14  1   
 24  13  37  1   
 25  13  38  1   
 26  14  15  ar  
 27  14  16  ar  
 28  15  17  ar  
 29  15  39  1   
 30  16  18  ar  
 31  16  40  1   
 32  17  19  ar  
 33  17  41  1   
 34  18  19  ar  
 35  18  42  1   
 36  19  20  1   
 37  20  21  2   
 38  20  22  2   
 39  20  23  am  
 40  23  24  1   
 41  23  43  1   
 42  24  25  1   
 43  24  44  1   
 44  24  45  1   
 45  25  26  1   
 46  25  27  1   
 47  25  46  1   
 48  26  47  1   
 49  26  48  1   
 50  26  49  1   
 51  27  50  1   
 52  27  51  1   
 53  27  52  1   
@<TRIPOS>SUBSTRUCTURE
  1 ****  14 GROUP 4 **** **** 0

# MOE 2024.06 (io_trps.svl 2023.06)
