@<TRIPOS>MOLECULE
NONAME
33 35 1 0 0 
SMALL
USER_CHARGES


@<TRIPOS>ATOM
  1 F       -0.3510     0.9720     0.7760 F     1 <1>  -0.1900 
  2 C       -1.5750     1.3360     0.4910 C.ar  1 <1>   0.1900 
  3 C       -1.8050     2.6290     0.0640 C.ar  1 <1>  -0.1500 
  4 C       -2.5940     0.4130     0.6280 C.ar  1 <1>  -0.1500 
  5 C       -3.1030     3.0030    -0.2380 C.ar  1 <1>  -0.1500 
  6 C       -3.8870     0.8040     0.3230 C.ar  1 <1>  -0.1500 
  7 C       -4.1560     2.1000    -0.1180 C.ar  1 <1>   0.1170 
  8 N       -5.4360     2.5630    -0.4440 N.am  1 <1>  -0.5470 
  9 C       -6.6520     1.9630    -0.5990 C.2   1 <1>   0.5690 
 10 O       -6.7700     0.7580    -0.5650 O.2   1 <1>  -0.5700 
 11 C       -7.9260     2.7670    -0.9120 C.3   1 <1>  -0.0190 
 12 C       -8.0510     4.3120    -0.7350 C.3   1 <1>  -0.1860 
 13 C       -9.0310     2.3080     0.0530 C.3   1 <1>   0.2000 
 14 C       -6.8200     5.1590    -0.4990 C.2   1 <1>   0.9060 
 15 C       -9.0790     4.4060     0.4020 C.3   1 <1>   0.2000 
 16 O       -8.8860     3.2160     1.0750 O.3   1 <1>  -0.5600 
 17 C      -10.4320     2.6710    -0.4590 C.3   1 <1>  -0.1600 
 18 O       -6.7510     5.9370     0.4520 O.co2 1 <1>  -0.9000 
 19 O       -5.9020     5.0690    -1.3220 O.co2 1 <1>  -0.9000 
 20 C      -10.4870     4.1710    -0.1530 C.3   1 <1>  -0.1600 
 21 H       -0.9920     3.3260    -0.0290 H     1 <1>   0.1500 
 22 H       -2.3810    -0.5840     0.9650 H     1 <1>   0.1500 
 23 H       -3.3170     4.0070    -0.5690 H     1 <1>   0.1500 
 24 H       -4.6900     0.0980     0.4310 H     1 <1>   0.1500 
 25 H       -5.4470     3.5690    -0.6930 H     1 <1>   0.3700 
 26 H       -8.1980     2.5020    -1.9170 H     1 <1>   0.0800 
 27 H       -8.4820     4.7290    -1.6240 H     1 <1>   0.0800 
 28 H       -8.9440     1.2990     0.4190 H     1 <1>   0.0800 
 29 H       -8.9850     5.2530     1.0610 H     1 <1>   0.0800 
 30 H      -11.1780     2.1370     0.1020 H     1 <1>   0.0800 
 31 H      -10.5420     2.4540    -1.5060 H     1 <1>   0.0800 
 32 H      -10.6900     4.7750    -1.0190 H     1 <1>   0.0800 
 33 H      -11.2120     4.3830     0.6120 H     1 <1>   0.0800 
@<TRIPOS>BOND
  1   1   2  1   
  2   2   3  ar  
  3   2   4  ar  
  4   3   5  ar  
  5   3  21  1   
  6   4   6  ar  
  7   4  22  1   
  8   5   7  ar  
  9   5  23  1   
 10   6   7  ar  
 11   6  24  1   
 12   7   8  1   
 13   8   9  am  
 14   8  25  1   
 15   9  10  2   
 16   9  11  1   
 17  11  12  1   
 18  11  13  1   
 19  11  26  1   
 20  12  14  1   
 21  12  15  1   
 22  12  27  1   
 23  13  16  1   
 24  13  17  1   
 25  13  28  1   
 26  14  18  ar  
 27  14  19  ar  
 28  15  16  1   
 29  15  20  1   
 30  15  29  1   
 31  17  20  1   
 32  17  30  1   
 33  17  31  1   
 34  20  32  1   
 35  20  33  1   
@<TRIPOS>SUBSTRUCTURE
  1 ****   8 GROUP 4 **** **** 0

# MOE 2024.06 (io_trps.svl 2023.06)
