@<TRIPOS>MOLECULE
NONAME
36 39 1 0 0 
SMALL
USER_CHARGES


@<TRIPOS>ATOM
  1 O        0.2640     0.4460     0.6790 O.2   1 <1>  -0.5700 
  2 C        0.4940     1.6150     0.5030 C.2   1 <1>   0.5690 
  3 N        1.7010     2.1850     0.1310 N.am  1 <1>  -0.2370 
  4 C       -0.4970     2.7400     0.6910 C.3   1 <1>  -0.0190 
  5 C        2.9590     1.5400     0.1380 C.ar  1 <1>   0.1170 
  6 C        1.4680     3.4970    -0.2370 C.2   1 <1>   0.5690 
  7 C       -2.0180     3.0820     0.8400 C.3   1 <1>   0.4180 
  8 C       -0.0080     3.6500    -0.4240 C.3   1 <1>  -0.0190 
  9 C        4.0760     2.1600     0.6890 C.ar  1 <1>  -0.1500 
 10 C        3.1120     0.2670    -0.4050 C.ar  1 <1>  -0.1500 
 11 O        2.2650     4.3810    -0.4180 O.2   1 <1>  -0.5700 
 12 O       -1.6250     4.4470     0.9240 O.3   1 <1>  -0.5600 
 13 C       -2.7530     3.4130    -0.4880 C.2   1 <1>  -0.2880 
 14 C       -2.4950     1.6150     0.8630 C.3   1 <1>  -0.2400 
 15 C       -1.0020     4.7830    -0.2730 C.3   1 <1>   0.3380 
 16 C        5.3060     1.5280     0.6970 C.ar  1 <1>  -0.1500 
 17 C        4.3400    -0.3700    -0.3980 C.ar  1 <1>  -0.1500 
 18 C       -2.1610     4.4130    -1.1300 C.2   1 <1>  -0.2880 
 19 C        5.4490     0.2610     0.1570 C.ar  1 <1>   0.0830 
 20 O        6.6890    -0.2900     0.2070 O.3   1 <1>  -0.3630 
 21 C        6.9330    -1.5810    -0.3040 C.3   1 <1>   0.0400 
 22 H       -0.1170     3.0890     1.6450 H     1 <1>   0.0800 
 23 H       -0.1850     3.1960    -1.3860 H     1 <1>   0.0800 
 24 H        3.9900     3.1460     1.1120 H     1 <1>   0.1500 
 25 H        2.2630    -0.2350    -0.8340 H     1 <1>   0.1500 
 26 H       -3.6440     2.8900    -0.7940 H     1 <1>   0.1500 
 27 H       -2.0760     1.0900     1.7050 H     1 <1>   0.0800 
 28 H       -2.2450     1.0700    -0.0340 H     1 <1>   0.0800 
 29 H       -3.5620     1.5700     0.9950 H     1 <1>   0.0800 
 30 H       -0.6610     5.8050    -0.2810 H     1 <1>   0.0800 
 31 H        6.1660     2.0140     1.1220 H     1 <1>   0.1500 
 32 H        4.4120    -1.3520    -0.8250 H     1 <1>   0.1500 
 33 H       -2.3680     4.9200    -2.0570 H     1 <1>   0.1500 
 34 H        7.9730    -1.8090    -0.1530 H     1 <1>   0.0800 
 35 H        6.7070    -1.5890    -1.3560 H     1 <1>   0.0800 
 36 H        6.3230    -2.2890     0.2280 H     1 <1>   0.0800 
@<TRIPOS>BOND
  1   1   2  2   
  2   2   3  am  
  3   2   4  1   
  4   3   5  1   
  5   3   6  am  
  6   4   7  1   
  7   4   8  1   
  8   4  22  1   
  9   5   9  ar  
 10   5  10  ar  
 11   6   8  1   
 12   6  11  2   
 13   7  12  1   
 14   7  13  1   
 15   7  14  1   
 16   8  15  1   
 17   8  23  1   
 18   9  16  ar  
 19   9  24  1   
 20  10  17  ar  
 21  10  25  1   
 22  12  15  1   
 23  13  18  2   
 24  13  26  1   
 25  14  27  1   
 26  14  28  1   
 27  14  29  1   
 28  15  18  1   
 29  15  30  1   
 30  16  19  ar  
 31  16  31  1   
 32  17  19  ar  
 33  17  32  1   
 34  18  33  1   
 35  19  20  1   
 36  20  21  1   
 37  21  34  1   
 38  21  35  1   
 39  21  36  1   
@<TRIPOS>SUBSTRUCTURE
  1 ****   3 GROUP 4 **** **** 0

# MOE 2024.06 (io_trps.svl 2023.06)
