@<TRIPOS>MOLECULE
NONAME
38 40 1 0 0 
SMALL
USER_CHARGES


@<TRIPOS>ATOM
  1 O        0.4560     1.0640    -0.3010 O.2   1 <1>  -0.5700 
  2 C        0.0930     2.0060     0.3790 C.2   1 <1>   0.5440 
  3 N        1.0760     2.7200     1.0270 N.am  1 <1>  -0.6600 
  4 C       -1.3060     2.3970     0.4330 C.ar  1 <1>   0.0860 
  5 C        2.3500     2.0290     1.3820 C.3   1 <1>   0.1400 
  6 C        1.2600     4.1600     0.6900 C.3   1 <1>   0.1400 
  7 C       -2.1790     2.1060    -0.5930 C.ar  1 <1>  -0.1500 
  8 C       -1.8240     3.0980     1.5440 C.ar  1 <1>  -0.1500 
  9 C        3.3520     2.1550     0.2200 C.3   1 <1>   0.3430 
 10 C        2.2850     4.3050    -0.4560 C.3   1 <1>   0.3430 
 11 C       -3.5300     2.4990    -0.5790 C.ar  1 <1>   0.0000 
 12 C       -3.1300     3.4940     1.5910 C.ar  1 <1>  -0.1500 
 13 N        3.5880     3.5970    -0.1660 N.4   1 <1>  -0.9590 
 14 C       -4.0180     3.2150     0.5340 C.ar  1 <1>   0.0000 
 15 C       -4.4150     2.2080    -1.6370 C.ar  1 <1>  -0.1500 
 16 C        4.5090     3.6790    -1.3390 C.3   1 <1>   0.2630 
 17 C       -5.3680     3.6160     0.5460 C.ar  1 <1>  -0.1500 
 18 C       -5.7220     2.6100    -1.6000 C.ar  1 <1>  -0.1500 
 19 C       -6.2040     3.3230    -0.4970 C.ar  1 <1>  -0.1500 
 20 H        2.1550     0.9860     1.5730 H     1 <1>   0.0800 
 21 H        2.7590     2.4560     2.2800 H     1 <1>   0.0800 
 22 H        1.5980     4.6940     1.5620 H     1 <1>   0.0800 
 23 H        0.3230     4.5920     0.3820 H     1 <1>   0.0800 
 24 H       -1.8260     1.5540    -1.4460 H     1 <1>   0.1500 
 25 H       -1.1680     3.3130     2.3690 H     1 <1>   0.1500 
 26 H        2.9520     1.6130    -0.6230 H     1 <1>   0.0800 
 27 H        4.2820     1.6900     0.5010 H     1 <1>   0.0800 
 28 H        2.4690     5.3520    -0.6350 H     1 <1>   0.0800 
 29 H        1.8460     3.8910    -1.3490 H     1 <1>   0.0800 
 30 H       -3.5100     4.0270     2.4450 H     1 <1>   0.1500 
 31 H        4.0300     4.0640     0.6380 H     1 <1>   0.4500 
 32 H       -4.0420     1.6580    -2.4820 H     1 <1>   0.1500 
 33 H        4.0710     3.1880    -2.1940 H     1 <1>   0.0800 
 34 H        5.4480     3.1990    -1.1130 H     1 <1>   0.0800 
 35 H        4.7030     4.7080    -1.5940 H     1 <1>   0.0800 
 36 H       -5.7350     4.1610     1.3960 H     1 <1>   0.1500 
 37 H       -6.3930     2.3850    -2.4110 H     1 <1>   0.1500 
 38 H       -7.2350     3.6320    -0.4830 H     1 <1>   0.1500 
@<TRIPOS>BOND
  1   1   2  2   
  2   2   3  am  
  3   2   4  1   
  4   3   5  1   
  5   3   6  1   
  6   4   7  ar  
  7   4   8  ar  
  8   5   9  1   
  9   5  20  1   
 10   5  21  1   
 11   6  10  1   
 12   6  22  1   
 13   6  23  1   
 14   7  11  ar  
 15   7  24  1   
 16   8  12  ar  
 17   8  25  1   
 18   9  13  1   
 19   9  26  1   
 20   9  27  1   
 21  10  13  1   
 22  10  28  1   
 23  10  29  1   
 24  11  14  ar  
 25  11  15  ar  
 26  12  14  ar  
 27  12  30  1   
 28  13  16  1   
 29  13  31  1   
 30  14  17  ar  
 31  15  18  ar  
 32  15  32  1   
 33  16  33  1   
 34  16  34  1   
 35  16  35  1   
 36  17  19  ar  
 37  17  36  1   
 38  18  19  ar  
 39  18  37  1   
 40  19  38  1   
@<TRIPOS>SUBSTRUCTURE
  1 ****   4 GROUP 4 **** **** 0

# MOE 2024.06 (io_trps.svl 2023.06)
