@<TRIPOS>MOLECULE
NONAME
32 33 1 0 0 
SMALL
USER_CHARGES


@<TRIPOS>ATOM
  1 S        0.7510     0.4710    -0.2270 S.3   1 <1>  -0.0800 
  2 C       -0.8510    -0.2660    -0.2360 C.2   1 <1>   0.4620 
  3 C        1.4610    -1.1200    -0.3810 C.ar  1 <1>   0.0400 
  4 N       -0.8600    -1.5380    -0.3430 N.2   1 <1>  -0.5650 
  5 N       -1.9310     0.5420    -0.1310 N.pl3 1 <1>  -0.8840 
  6 C        0.4300    -2.0380    -0.4250 C.ar  1 <1>   0.2270 
  7 C        2.7990    -1.4570    -0.4480 C.ar  1 <1>  -0.1500 
  8 C        0.7700    -3.3760    -0.5440 C.ar  1 <1>  -0.1500 
  9 C        3.1400    -2.8040    -0.5670 C.ar  1 <1>  -0.1430 
 10 C        2.1040    -3.7460    -0.6140 C.ar  1 <1>  -0.1500 
 11 C        4.6100    -3.2900    -0.6350 C.3   1 <1>   0.4840 
 12 O        4.6570    -4.2340    -1.7010 O.3   1 <1>  -0.6800 
 13 C        5.6060    -2.1610    -0.9600 C.2   1 <1>   0.6590 
 14 C        5.0730    -3.9200     0.7160 C.3   1 <1>   1.0200 
 15 O        6.0580    -2.0310    -2.0730 O.2   1 <1>  -0.5700 
 16 O        5.9330    -1.3060     0.0060 O.3   1 <1>  -0.4300 
 17 F        4.8340    -3.1460     1.7730 F     1 <1>  -0.3400 
 18 F        4.4700    -5.0750     0.9890 F     1 <1>  -0.3400 
 19 F        6.3780    -4.1860     0.7500 F     1 <1>  -0.3400 
 20 C        6.8330    -0.2420    -0.2050 C.3   1 <1>   0.1200 
 21 C        6.9690     0.5230     1.1060 C.3   1 <1>  -0.2400 
 22 H       -2.8670     0.1360    -0.1290 H     1 <1>   0.4000 
 23 H       -1.8580     1.5550    -0.0430 H     1 <1>   0.4000 
 24 H        3.5210    -0.6610    -0.4010 H     1 <1>   0.1500 
 25 H       -0.0150    -4.1090    -0.5810 H     1 <1>   0.1500 
 26 H        2.3350    -4.7960    -0.7070 H     1 <1>   0.1500 
 27 H        4.8760    -3.7500    -2.5260 H     1 <1>   0.4000 
 28 H        6.4420     0.3910    -0.9840 H     1 <1>   0.0800 
 29 H        7.7810    -0.6520    -0.5140 H     1 <1>   0.0800 
 30 H        6.0160     0.9190     1.4080 H     1 <1>   0.0800 
 31 H        7.6550     1.3420     0.9790 H     1 <1>   0.0800 
 32 H        7.3500    -0.1240     1.8760 H     1 <1>   0.0800 
@<TRIPOS>BOND
  1   1   2  1   
  2   1   3  1   
  3   2   4  2   
  4   2   5  1   
  5   3   6  ar  
  6   3   7  ar  
  7   4   6  1   
  8   5  22  1   
  9   5  23  1   
 10   6   8  ar  
 11   7   9  ar  
 12   7  24  1   
 13   8  10  ar  
 14   8  25  1   
 15   9  10  ar  
 16   9  11  1   
 17  10  26  1   
 18  11  12  1   
 19  11  13  1   
 20  11  14  1   
 21  12  27  1   
 22  13  15  2   
 23  13  16  1   
 24  14  17  1   
 25  14  18  1   
 26  14  19  1   
 27  16  20  1   
 28  20  21  1   
 29  20  28  1   
 30  20  29  1   
 31  21  30  1   
 32  21  31  1   
 33  21  32  1   
@<TRIPOS>SUBSTRUCTURE
  1 ****   9 GROUP 4 **** **** 0

# MOE 2024.06 (io_trps.svl 2023.06)
