@<TRIPOS>MOLECULE
NONAME
44 46 1 0 0 
SMALL
USER_CHARGES


@<TRIPOS>ATOM
  1 O       -0.8040     4.4660    -1.5530 O.2   1 <1>  -0.5700 
  2 C        0.1810     4.2780    -0.8630 C.2   1 <1>   0.7060 
  3 O        1.3720     4.3980    -1.4570 O.3   1 <1>  -0.2320 
  4 C        0.1320     3.9970     0.5440 C.2   1 <1>   0.0290 
  5 C        2.5450     4.2980    -0.7920 C.ar  1 <1>   0.0830 
  6 C       -1.1610     3.8120     1.1440 C.2   1 <1>   0.6160 
  7 C        1.2970     3.8740     1.2370 C.2   1 <1>  -0.1780 
  8 C        2.5500     4.0360     0.5820 C.ar  1 <1>   0.0280 
  9 C        3.7320     4.4610    -1.4890 C.ar  1 <1>  -0.1500 
 10 O       -1.4040     2.7370     1.6520 O.2   1 <1>  -0.5700 
 11 N       -2.1440     4.7880     1.1920 N.am  1 <1>  -0.6600 
 12 C        3.7800     3.9430     1.2320 C.ar  1 <1>  -0.1500 
 13 C        4.9420     4.3680    -0.8280 C.ar  1 <1>  -0.1500 
 14 C       -2.0150     6.1730     0.6430 C.3   1 <1>   0.1400 
 15 C       -3.5470     4.4480     1.5900 C.3   1 <1>   0.1400 
 16 C        4.9670     4.1070     0.5440 C.ar  1 <1>   0.0830 
 17 C       -2.9810     6.3740    -0.5460 C.3   1 <1>   0.3430 
 18 C       -4.4930     4.6310     0.3900 C.3   1 <1>   0.3430 
 19 O        6.1110     4.0010     1.2660 O.3   1 <1>  -0.3630 
 20 N       -4.4070     6.0200    -0.2010 N.4   1 <1>  -0.9590 
 21 C        7.3780     4.1400     0.6610 C.3   1 <1>   0.0400 
 22 C       -5.2680     6.1620    -1.4040 C.3   1 <1>   0.3430 
 23 C       -6.7340     6.1840    -0.9890 C.3   1 <1>  -0.2400 
 24 H        1.3040     3.6410     2.2890 H     1 <1>   0.1500 
 25 H        3.7030     4.6610    -2.5460 H     1 <1>   0.1500 
 26 H        3.8150     3.7400     2.2870 H     1 <1>   0.1500 
 27 H        5.8490     4.4980    -1.3870 H     1 <1>   0.1500 
 28 H       -1.0070     6.3690     0.3240 H     1 <1>   0.0800 
 29 H       -2.2460     6.8820     1.4190 H     1 <1>   0.0800 
 30 H       -3.8530     5.0820     2.4030 H     1 <1>   0.0800 
 31 H       -3.6180     3.4300     1.9340 H     1 <1>   0.0800 
 32 H       -2.6490     5.7560    -1.3640 H     1 <1>   0.0800 
 33 H       -2.9280     7.4000    -0.8720 H     1 <1>   0.0800 
 34 H       -5.5020     4.4280     0.7080 H     1 <1>   0.0800 
 35 H       -4.2300     3.9020    -0.3600 H     1 <1>   0.0800 
 36 H       -4.7370     6.6870     0.5070 H     1 <1>   0.4500 
 37 H        8.1270     4.0130     1.4220 H     1 <1>   0.0800 
 38 H        7.4550     5.1240     0.2330 H     1 <1>   0.0800 
 39 H        7.4910     3.3810    -0.0930 H     1 <1>   0.0800 
 40 H       -5.0860     5.3490    -2.0910 H     1 <1>   0.0800 
 41 H       -5.0360     7.0860    -1.9100 H     1 <1>   0.0800 
 42 H       -7.0410     5.2440    -0.5680 H     1 <1>   0.0800 
 43 H       -7.3410     6.3620    -1.8600 H     1 <1>   0.0800 
 44 H       -6.9240     6.9780    -0.2890 H     1 <1>   0.0800 
@<TRIPOS>BOND
  1   1   2  2   
  2   2   3  1   
  3   2   4  1   
  4   3   5  1   
  5   4   6  1   
  6   4   7  2   
  7   5   8  ar  
  8   5   9  ar  
  9   6  10  2   
 10   6  11  am  
 11   7   8  1   
 12   7  24  1   
 13   8  12  ar  
 14   9  13  ar  
 15   9  25  1   
 16  11  14  1   
 17  11  15  1   
 18  12  16  ar  
 19  12  26  1   
 20  13  16  ar  
 21  13  27  1   
 22  14  17  1   
 23  14  28  1   
 24  14  29  1   
 25  15  18  1   
 26  15  30  1   
 27  15  31  1   
 28  16  19  1   
 29  17  20  1   
 30  17  32  1   
 31  17  33  1   
 32  18  20  1   
 33  18  34  1   
 34  18  35  1   
 35  19  21  1   
 36  20  22  1   
 37  20  36  1   
 38  21  37  1   
 39  21  38  1   
 40  21  39  1   
 41  22  23  1   
 42  22  40  1   
 43  22  41  1   
 44  23  42  1   
 45  23  43  1   
 46  23  44  1   
@<TRIPOS>SUBSTRUCTURE
  1 ****   4 GROUP 4 **** **** 0

# MOE 2024.06 (io_trps.svl 2023.06)
