@<TRIPOS>MOLECULE
NONAME
50 52 1 0 0 
SMALL
USER_CHARGES


@<TRIPOS>ATOM
  1 O        0.1290     1.2130    -2.5460 O.2   1 <1>  -0.5700 
  2 C       -0.0080     2.1870    -1.8270 C.2   1 <1>   0.5440 
  3 N        1.0900     2.9770    -1.5470 N.am  1 <1>  -0.6600 
  4 C       -1.3280     2.4900    -1.3200 C.ar  1 <1>   0.0860 
  5 C        1.0260     4.2270    -0.7430 C.3   1 <1>   0.1400 
  6 C        2.4660     2.5960    -1.9650 C.3   1 <1>   0.1400 
  7 C       -1.6690     2.3200     0.0250 C.ar  1 <1>   0.0820 
  8 C       -2.3110     2.9650    -2.1880 C.ar  1 <1>  -0.1500 
  9 C        1.8950     4.0780     0.5090 C.3   1 <1>  -0.1600 
 10 C        3.3460     2.4250    -0.7240 C.3   1 <1>  -0.1600 
 11 O       -0.7440     1.8560     0.8970 O.3   1 <1>  -0.3620 
 12 C       -2.9460     2.6370     0.4910 C.ar  1 <1>   0.0820 
 13 C       -3.5790     3.2780    -1.7380 C.ar  1 <1>  -0.1500 
 14 C        3.3420     3.6850     0.1630 C.3   1 <1>  -0.0800 
 15 C       -0.5710     0.4590     0.9440 C.3   1 <1>   0.0400 
 16 O       -3.2070     2.4540     1.8170 O.3   1 <1>  -0.3630 
 17 C       -3.8990     3.1180    -0.4010 C.ar  1 <1>  -0.1500 
 18 C        4.1620     3.4820     1.4500 C.3   1 <1>  -0.0170 
 19 C       -4.4570     2.7850     2.3800 C.3   1 <1>   0.0400 
 20 C        5.6270     3.1860     1.1610 C.ar  1 <1>  -0.1430 
 21 C        6.4880     4.2120     0.8040 C.ar  1 <1>  -0.1500 
 22 C        6.1150     1.8920     1.2520 C.ar  1 <1>  -0.1500 
 23 C        7.8210     3.9480     0.5380 C.ar  1 <1>  -0.1500 
 24 C        7.4470     1.6250     0.9870 C.ar  1 <1>  -0.1500 
 25 C        8.3010     2.6530     0.6290 C.ar  1 <1>  -0.1500 
 26 H        0.0150     4.4520    -0.4530 H     1 <1>   0.0800 
 27 H        1.3880     5.0440    -1.3420 H     1 <1>   0.0800 
 28 H        2.8670     3.3690    -2.5980 H     1 <1>   0.0800 
 29 H        2.4560     1.6780    -2.5270 H     1 <1>   0.0800 
 30 H       -2.0650     3.0830    -3.2290 H     1 <1>   0.1500 
 31 H        1.4540     3.3300     1.1450 H     1 <1>   0.0800 
 32 H        1.8880     5.0090     1.0490 H     1 <1>   0.0800 
 33 H        4.3480     2.2050    -1.0460 H     1 <1>   0.0800 
 34 H        2.9870     1.5790    -0.1650 H     1 <1>   0.0800 
 35 H       -4.3200     3.6440    -2.4280 H     1 <1>   0.1500 
 36 H        3.7860     4.4910    -0.3970 H     1 <1>   0.0800 
 37 H        0.1710     0.2370     1.6880 H     1 <1>   0.0800 
 38 H       -0.2420     0.1100    -0.0200 H     1 <1>   0.0800 
 39 H       -1.5090     0.0040     1.2080 H     1 <1>   0.0800 
 40 H       -4.8920     3.3710    -0.0810 H     1 <1>   0.1500 
 41 H        3.7360     2.6780     2.0250 H     1 <1>   0.0800 
 42 H        4.1050     4.3700     2.0540 H     1 <1>   0.0800 
 43 H       -4.4150     2.5700     3.4330 H     1 <1>   0.0800 
 44 H       -5.2190     2.1850     1.9160 H     1 <1>   0.0800 
 45 H       -4.6420     3.8330     2.2290 H     1 <1>   0.0800 
 46 H        6.1240     5.2220     0.7300 H     1 <1>   0.1500 
 47 H        5.4590     1.0850     1.5280 H     1 <1>   0.1500 
 48 H        8.4840     4.7490     0.2610 H     1 <1>   0.1500 
 49 H        7.8180     0.6180     1.0590 H     1 <1>   0.1500 
 50 H        9.3370     2.4470     0.4230 H     1 <1>   0.1500 
@<TRIPOS>BOND
  1   1   2  2   
  2   2   3  am  
  3   2   4  1   
  4   3   5  1   
  5   3   6  1   
  6   4   7  ar  
  7   4   8  ar  
  8   5   9  1   
  9   5  26  1   
 10   5  27  1   
 11   6  10  1   
 12   6  28  1   
 13   6  29  1   
 14   7  11  1   
 15   7  12  ar  
 16   8  13  ar  
 17   8  30  1   
 18   9  14  1   
 19   9  31  1   
 20   9  32  1   
 21  10  14  1   
 22  10  33  1   
 23  10  34  1   
 24  11  15  1   
 25  12  16  1   
 26  12  17  ar  
 27  13  17  ar  
 28  13  35  1   
 29  14  18  1   
 30  14  36  1   
 31  15  37  1   
 32  15  38  1   
 33  15  39  1   
 34  16  19  1   
 35  17  40  1   
 36  18  20  1   
 37  18  41  1   
 38  18  42  1   
 39  19  43  1   
 40  19  44  1   
 41  19  45  1   
 42  20  21  ar  
 43  20  22  ar  
 44  21  23  ar  
 45  21  46  1   
 46  22  24  ar  
 47  22  47  1   
 48  23  25  ar  
 49  23  48  1   
 50  24  25  ar  
 51  24  49  1   
 52  25  50  1   
@<TRIPOS>SUBSTRUCTURE
  1 ****   9 GROUP 4 **** **** 0

# MOE 2024.06 (io_trps.svl 2023.06)
