@<TRIPOS>MOLECULE
NONAME
35 37 1 0 0 
SMALL
USER_CHARGES


@<TRIPOS>ATOM
  1 O        0.7340     0.9960    -0.2310 O.3   1 <1>  -0.5600 
  2 C       -0.3550     1.1310     0.5740 C.3   1 <1>   0.4800 
  3 C        1.7580     1.4500     0.5130 C.3   1 <1>   0.2000 
  4 O        0.0740     0.0520     1.3390 O.3   1 <1>  -0.5600 
  5 C       -0.9070     2.3430    -0.2270 C.3   1 <1>   0.1660 
  6 C        1.7300     2.8580    -0.1860 C.3   1 <1>   0.2000 
  7 C        1.4850     0.2490     1.4510 C.3   1 <1>   0.1200 
  8 N       -1.3510     2.0190    -1.6000 N.2   1 <1>  -0.5640 
  9 C        0.2450     3.4350    -0.2330 C.3   1 <1>   0.2000 
 10 O        2.2300     2.8530    -1.5060 O.3   1 <1>  -0.5600 
 11 N       -2.5670     2.1160    -1.8680 N.1   1 <1>   0.6880 
 12 O        0.0630     4.2350     0.8980 O.3   1 <1>  -0.6800 
 13 C        3.4080     2.1380    -1.7470 C.3   1 <1>   0.2640 
 14 N       -3.7710     2.2260    -2.1080 N.1   1 <1>  -0.3700 
 15 C        4.5250     2.5930    -0.8130 C.ar  1 <1>  -0.1440 
 16 C        4.9250     3.9200    -0.7980 C.ar  1 <1>  -0.1500 
 17 C        5.1470     1.6860     0.0320 C.ar  1 <1>  -0.1500 
 18 C        5.9310     4.3390     0.0550 C.ar  1 <1>  -0.1500 
 19 C        6.1540     2.1030     0.8860 C.ar  1 <1>  -0.1500 
 20 C        6.5450     3.4300     0.8980 C.ar  1 <1>  -0.1500 
 21 H       -0.2700     1.7970     1.4210 H     1 <1>   0.0800 
 22 H        1.5860     2.0360     1.4040 H     1 <1>   0.0800 
 23 H       -1.7490     2.7440     0.3120 H     1 <1>   0.0800 
 24 H        2.3550     3.5440     0.3590 H     1 <1>   0.0800 
 25 H        1.7450     0.4320     2.4800 H     1 <1>   0.0800 
 26 H        1.9840    -0.6380     1.1010 H     1 <1>   0.0800 
 27 H        0.1300     4.0800    -1.0870 H     1 <1>   0.0800 
 28 H        0.5770     5.0630     0.8070 H     1 <1>   0.4000 
 29 H        3.6900     2.3230    -2.7690 H     1 <1>   0.0800 
 30 H        3.2000     1.0880    -1.6420 H     1 <1>   0.0800 
 31 H        4.4470     4.6290    -1.4540 H     1 <1>   0.1500 
 32 H        4.8540     0.6500     0.0280 H     1 <1>   0.1500 
 33 H        6.2360     5.3710     0.0600 H     1 <1>   0.1500 
 34 H        6.6340     1.3960     1.5390 H     1 <1>   0.1500 
 35 H        7.3290     3.7550     1.5610 H     1 <1>   0.1500 
@<TRIPOS>BOND
  1   1   2  1   
  2   1   3  1   
  3   2   4  1   
  4   2   5  1   
  5   2  21  1   
  6   3   6  1   
  7   3   7  1   
  8   3  22  1   
  9   4   7  1   
 10   5   8  1   
 11   5   9  1   
 12   5  23  1   
 13   6   9  1   
 14   6  10  1   
 15   6  24  1   
 16   7  25  1   
 17   7  26  1   
 18   8  11  2   
 19   9  12  1   
 20   9  27  1   
 21  10  13  1   
 22  11  14  3   
 23  12  28  1   
 24  13  15  1   
 25  13  29  1   
 26  13  30  1   
 27  15  16  ar  
 28  15  17  ar  
 29  16  18  ar  
 30  16  31  1   
 31  17  19  ar  
 32  17  32  1   
 33  18  20  ar  
 34  18  33  1   
 35  19  20  ar  
 36  19  34  1   
 37  20  35  1   
@<TRIPOS>SUBSTRUCTURE
  1 ****   6 GROUP 4 **** **** 0

# MOE 2024.06 (io_trps.svl 2023.06)
