@<TRIPOS>MOLECULE
NONAME
36 36 1 0 0 
SMALL
USER_CHARGES


@<TRIPOS>ATOM
  1 CL      -0.7360     2.2860    -3.7270 Cl    1 <1>  -0.1770 
  2 C       -0.8850     2.6830    -2.0350 C.ar  1 <1>   0.1770 
  3 C       -1.8820     3.5470    -1.6330 C.ar  1 <1>  -0.1500 
  4 C       -0.0030     2.1240    -1.1280 C.ar  1 <1>  -0.1500 
  5 C       -2.0210     3.8640    -0.2890 C.ar  1 <1>   0.1990 
  6 C       -0.1280     2.4440     0.2130 C.ar  1 <1>  -0.1500 
  7 N       -3.0280     4.7370     0.1140 N.am  1 <1>  -0.6930 
  8 C       -1.1270     3.3090     0.6240 C.ar  1 <1>  -0.1500 
  9 S       -2.5770     6.3620     0.5070 S.o2  1 <1>   1.3330 
 10 C       -4.1780     4.2160     0.9340 C.3   1 <1>   0.3370 
 11 O       -1.5040     6.2970     1.4660 O.2   1 <1>  -0.6500 
 12 O       -3.7870     7.0890     0.8040 O.2   1 <1>  -0.6500 
 13 C       -1.9500     6.9700    -1.0440 C.3   1 <1>  -0.1350 
 14 C       -4.0390     2.7720     1.4970 C.2   1 <1>   0.5690 
 15 C       -5.4990     4.4660     0.1860 C.3   1 <1>  -0.2400 
 16 O       -3.7690     2.6960     2.6760 O.2   1 <1>  -0.5700 
 17 N       -4.2170     1.6130     0.7560 N.am  1 <1>  -0.6600 
 18 C       -4.1330     0.2730     1.4060 C.3   1 <1>   0.0600 
 19 C       -4.4350     1.5250    -0.7130 C.3   1 <1>   0.0600 
 20 H       -2.5510     3.9690    -2.3580 H     1 <1>   0.1500 
 21 H        0.7660     1.4530    -1.4680 H     1 <1>   0.1500 
 22 H        0.5500     2.0230     0.9370 H     1 <1>   0.1500 
 23 H       -1.2200     3.5600     1.6680 H     1 <1>   0.1500 
 24 H       -4.2300     4.8260     1.8210 H     1 <1>   0.0800 
 25 H       -1.0910     6.4040    -1.3460 H     1 <1>   0.0800 
 26 H       -1.6640     7.9980    -0.9430 H     1 <1>   0.0800 
 27 H       -2.7030     6.8950    -1.8030 H     1 <1>   0.0800 
 28 H       -5.4730     4.0860    -0.8160 H     1 <1>   0.0800 
 29 H       -5.7060     5.5200     0.1440 H     1 <1>   0.0800 
 30 H       -6.3070     3.9950     0.7160 H     1 <1>   0.0800 
 31 H       -4.1570     0.3580     2.4790 H     1 <1>   0.0800 
 32 H       -3.2140    -0.2090     1.1210 H     1 <1>   0.0800 
 33 H       -4.9650    -0.3360     1.0980 H     1 <1>   0.0800 
 34 H       -4.1990     2.4480    -1.2010 H     1 <1>   0.0800 
 35 H       -5.4620     1.2740    -0.9110 H     1 <1>   0.0800 
 36 H       -3.8000     0.7610    -1.1280 H     1 <1>   0.0800 
@<TRIPOS>BOND
  1   1   2  1   
  2   2   3  ar  
  3   2   4  ar  
  4   3   5  ar  
  5   3  20  1   
  6   4   6  ar  
  7   4  21  1   
  8   5   7  1   
  9   5   8  ar  
 10   6   8  ar  
 11   6  22  1   
 12   7   9  am  
 13   7  10  1   
 14   8  23  1   
 15   9  11  2   
 16   9  12  2   
 17   9  13  1   
 18  10  14  1   
 19  10  15  1   
 20  10  24  1   
 21  13  25  1   
 22  13  26  1   
 23  13  27  1   
 24  14  16  2   
 25  14  17  am  
 26  15  28  1   
 27  15  29  1   
 28  15  30  1   
 29  17  18  1   
 30  17  19  1   
 31  18  31  1   
 32  18  32  1   
 33  18  33  1   
 34  19  34  1   
 35  19  35  1   
 36  19  36  1   
@<TRIPOS>SUBSTRUCTURE
  1 ****   5 GROUP 4 **** **** 0

# MOE 2024.06 (io_trps.svl 2023.06)
