@<TRIPOS>MOLECULE
NONAME
51 54 1 0 0 
SMALL
USER_CHARGES


@<TRIPOS>ATOM
  1 O       -1.7580    -0.2610    -1.7100 O.3   1 <1>  -0.6800 
  2 C       -1.8580    -0.7910    -0.4190 C.3   1 <1>   0.2800 
  3 C       -1.4650    -2.2940    -0.4360 C.3   1 <1>   0.0000 
  4 C       -3.3410    -0.7040    -0.0140 C.3   1 <1>  -0.0800 
  5 C       -0.9500     0.0710     0.5190 C.3   1 <1>   0.3430 
  6 C       -2.3680    -3.0670    -1.4290 C.3   1 <1>   0.3430 
  7 C       -1.6430    -2.8610     0.9870 C.3   1 <1>   0.1100 
  8 C        0.0050    -2.5250    -0.8650 C.3   1 <1>  -0.2400 
  9 C       -4.2250    -1.4230    -1.0440 C.3   1 <1>   0.3430 
 10 C       -3.5490    -1.2750     1.3970 C.3   1 <1>   0.1100 
 11 N       -1.0500     1.5410     0.2250 N.4   1 <1>  -0.9590 
 12 N       -3.8470    -2.8560    -1.2640 N.4   1 <1>  -0.9590 
 13 N       -2.9990    -2.6300     1.5090 N.3   1 <1>  -0.8100 
 14 C        0.2970     2.1740     0.1040 C.3   1 <1>   0.3430 
 15 C       -1.8980     2.2770     1.2110 C.3   1 <1>   0.3430 
 16 C       -4.4760    -3.7840    -0.2560 C.3   1 <1>   0.3430 
 17 C       -3.9560    -3.7090     1.1980 C.3   1 <1>   0.1100 
 18 C        0.1430     3.6100    -0.3990 C.3   1 <1>  -0.1600 
 19 C       -2.1080     3.7140     0.7330 C.3   1 <1>  -0.1600 
 20 C       -0.7730     4.4370     0.5110 C.3   1 <1>  -0.1600 
 21 H       -0.8830    -0.4500    -2.1130 H     1 <1>   0.4000 
 22 H       -3.6510     0.3240     0.0010 H     1 <1>   0.0800 
 23 H        0.0700    -0.2400     0.3760 H     1 <1>   0.0800 
 24 H       -1.1900    -0.1240     1.5500 H     1 <1>   0.0800 
 25 H       -2.0970    -2.7510    -2.4230 H     1 <1>   0.0800 
 26 H       -2.1480    -4.1200    -1.3600 H     1 <1>   0.0800 
 27 H       -0.9420    -2.3970     1.6610 H     1 <1>   0.0800 
 28 H       -1.4240    -3.9160     1.0010 H     1 <1>   0.0800 
 29 H        0.1990    -2.1290    -1.8470 H     1 <1>   0.0800 
 30 H        0.2200    -3.5810    -0.8970 H     1 <1>   0.0800 
 31 H        0.7030    -2.0850    -0.1750 H     1 <1>   0.0800 
 32 H       -4.1330    -0.8960    -1.9810 H     1 <1>   0.0800 
 33 H       -5.2580    -1.3620    -0.7390 H     1 <1>   0.0800 
 34 H       -3.0620    -0.6520     2.1270 H     1 <1>   0.0800 
 35 H       -4.5970    -1.2830     1.6510 H     1 <1>   0.0800 
 36 H       -1.4980     1.6190    -0.7040 H     1 <1>   0.4500 
 37 H       -4.2700    -3.1170    -2.1660 H     1 <1>   0.4500 
 38 H        0.9100     1.6190    -0.5870 H     1 <1>   0.0800 
 39 H        0.7870     2.1820     1.0650 H     1 <1>   0.0800 
 40 H       -1.4120     2.2890     2.1740 H     1 <1>   0.0800 
 41 H       -2.8550     1.7950     1.3210 H     1 <1>   0.0800 
 42 H       -4.3540    -4.8000    -0.5920 H     1 <1>   0.0800 
 43 H       -5.5370    -3.6010    -0.2320 H     1 <1>   0.0800 
 44 H       -4.8060    -3.6130     1.8530 H     1 <1>   0.0800 
 45 H       -3.5050    -4.6550     1.4470 H     1 <1>   0.0800 
 46 H       -0.2490     3.5990    -1.4020 H     1 <1>   0.0800 
 47 H        1.1140     4.0750    -0.4410 H     1 <1>   0.0800 
 48 H       -2.6830     4.2510     1.4680 H     1 <1>   0.0800 
 49 H       -2.6790     3.7100    -0.1800 H     1 <1>   0.0800 
 50 H       -0.9500     5.4060     0.0720 H     1 <1>   0.0800 
 51 H       -0.2890     4.5940     1.4610 H     1 <1>   0.0800 
@<TRIPOS>BOND
  1   1   2  1   
  2   1  21  1   
  3   2   3  1   
  4   2   4  1   
  5   2   5  1   
  6   3   6  1   
  7   3   7  1   
  8   3   8  1   
  9   4   9  1   
 10   4  10  1   
 11   4  22  1   
 12   5  11  1   
 13   5  23  1   
 14   5  24  1   
 15   6  12  1   
 16   6  25  1   
 17   6  26  1   
 18   7  13  1   
 19   7  27  1   
 20   7  28  1   
 21   8  29  1   
 22   8  30  1   
 23   8  31  1   
 24   9  12  1   
 25   9  32  1   
 26   9  33  1   
 27  10  13  1   
 28  10  34  1   
 29  10  35  1   
 30  11  14  1   
 31  11  15  1   
 32  11  36  1   
 33  12  16  1   
 34  12  37  1   
 35  13  17  1   
 36  14  18  1   
 37  14  38  1   
 38  14  39  1   
 39  15  19  1   
 40  15  40  1   
 41  15  41  1   
 42  16  17  1   
 43  16  42  1   
 44  16  43  1   
 45  17  44  1   
 46  17  45  1   
 47  18  20  1   
 48  18  46  1   
 49  18  47  1   
 50  19  20  1   
 51  19  48  1   
 52  19  49  1   
 53  20  50  1   
 54  20  51  1   
@<TRIPOS>SUBSTRUCTURE
  1 ****   2 GROUP 4 **** **** 0

# MOE 2024.06 (io_trps.svl 2023.06)
