@<TRIPOS>MOLECULE
NONAME
45 47 1 0 0 
SMALL
USER_CHARGES


@<TRIPOS>ATOM
  1 CL       3.0860     2.0230    -2.1630 Cl    1 <1>  -0.1770 
  2 C        2.0350     2.7400    -0.9660 C.ar  1 <1>   0.1770 
  3 C        0.9860     3.5390    -1.3750 C.ar  1 <1>  -0.1500 
  4 C        2.2760     2.4930     0.3720 C.ar  1 <1>  -0.1500 
  5 C        0.1470     4.1130    -0.4280 C.ar  1 <1>   0.1170 
  6 C        1.4480     3.0610     1.3250 C.ar  1 <1>  -0.1500 
  7 N       -0.9390     4.9380    -0.7650 N.am  1 <1>  -0.5470 
  8 C        0.3850     3.8700     0.9320 C.ar  1 <1>   0.0830 
  9 C       -1.6320     5.1530    -1.9240 C.2   1 <1>   0.5690 
 10 O       -0.4690     4.4590     1.8240 O.3   1 <1>  -0.3630 
 11 O       -1.3070     4.6800    -2.9870 O.2   1 <1>  -0.5700 
 12 C       -2.8520     6.0840    -1.8630 C.3   1 <1>   0.1710 
 13 C       -0.3500     4.2310     3.2130 C.3   1 <1>   0.0400 
 14 N       -4.0910     5.5310    -1.2370 N.3   1 <1>  -0.8100 
 15 C       -5.2150     6.4840    -1.4130 C.3   1 <1>   0.1100 
 16 C       -3.9350     5.1750     0.1980 C.3   1 <1>   0.1100 
 17 C       -6.5340     5.9760    -0.8010 C.3   1 <1>   0.2090 
 18 C       -5.2410     4.6530     0.8250 C.3   1 <1>   0.2090 
 19 N       -6.3390     5.6470     0.6420 N.pl3 1 <1>  -0.8380 
 20 C       -6.8270     6.4350     1.6630 C.ar  1 <1>   0.7200 
 21 N       -6.2680     6.2930     2.8660 N.ar  1 <1>  -0.6200 
 22 N       -7.8160     7.2760     1.3610 N.ar  1 <1>  -0.6200 
 23 C       -6.7540     7.0400     3.8280 C.ar  1 <1>   0.1600 
 24 C       -8.2810     8.0090     2.3420 C.ar  1 <1>   0.1600 
 25 C       -7.7780     7.9290     3.6160 C.ar  1 <1>  -0.1500 
 26 H        0.8360     3.7060    -2.4250 H     1 <1>   0.1500 
 27 H        3.1020     1.8660     0.6570 H     1 <1>   0.1500 
 28 H        1.6500     2.8600     2.3610 H     1 <1>   0.1500 
 29 H       -1.3590     5.3560     0.0660 H     1 <1>   0.3700 
 30 H       -3.0810     6.3560    -2.8780 H     1 <1>   0.0800 
 31 H       -2.5650     6.9830    -1.3480 H     1 <1>   0.0800 
 32 H       -1.1340     4.7750     3.7090 H     1 <1>   0.0800 
 33 H        0.6080     4.5890     3.5460 H     1 <1>   0.0800 
 34 H       -0.4590     3.1790     3.4060 H     1 <1>   0.0800 
 35 H       -5.3720     6.6560    -2.4640 H     1 <1>   0.0800 
 36 H       -4.9710     7.4260    -0.9530 H     1 <1>   0.0800 
 37 H       -3.6080     6.0350     0.7590 H     1 <1>   0.0800 
 38 H       -3.2000     4.3980     0.3000 H     1 <1>   0.0800 
 39 H       -6.8490     5.0910    -1.3250 H     1 <1>   0.0800 
 40 H       -7.2970     6.7210    -0.9370 H     1 <1>   0.0800 
 41 H       -5.0790     4.4320     1.8650 H     1 <1>   0.0800 
 42 H       -5.5170     3.7330     0.3420 H     1 <1>   0.0800 
 43 H       -6.3240     6.9400     4.8100 H     1 <1>   0.1500 
 44 H       -9.0850     8.6920     2.1240 H     1 <1>   0.1500 
 45 H       -8.1680     8.5340     4.4120 H     1 <1>   0.1500 
@<TRIPOS>BOND
  1   1   2  1   
  2   2   3  ar  
  3   2   4  ar  
  4   3   5  ar  
  5   3  26  1   
  6   4   6  ar  
  7   4  27  1   
  8   5   7  1   
  9   5   8  ar  
 10   6   8  ar  
 11   6  28  1   
 12   7   9  am  
 13   7  29  1   
 14   8  10  1   
 15   9  11  2   
 16   9  12  1   
 17  10  13  1   
 18  12  14  1   
 19  12  30  1   
 20  12  31  1   
 21  13  32  1   
 22  13  33  1   
 23  13  34  1   
 24  14  15  1   
 25  14  16  1   
 26  15  17  1   
 27  15  35  1   
 28  15  36  1   
 29  16  18  1   
 30  16  37  1   
 31  16  38  1   
 32  17  19  1   
 33  17  39  1   
 34  17  40  1   
 35  18  19  1   
 36  18  41  1   
 37  18  42  1   
 38  19  20  1   
 39  20  21  ar  
 40  20  22  ar  
 41  21  23  ar  
 42  22  24  ar  
 43  23  25  ar  
 44  23  43  1   
 45  24  25  ar  
 46  24  44  1   
 47  25  45  1   
@<TRIPOS>SUBSTRUCTURE
  1 ****  16 GROUP 4 **** **** 0

# MOE 2024.06 (io_trps.svl 2023.06)
