@<TRIPOS>MOLECULE
NONAME
54 56 1 0 0 
SMALL
USER_CHARGES


@<TRIPOS>ATOM
  1 CL      -5.8930    -0.7890     4.8320 Cl    1 <1>  -0.1770 
  2 C       -6.2210     0.4220     3.6190 C.ar  1 <1>   0.1770 
  3 C       -6.9900     1.5210     3.9490 C.ar  1 <1>  -0.1500 
  4 C       -5.7070     0.2620     2.3460 C.ar  1 <1>  -0.1500 
  5 C       -7.2500     2.4810     2.9840 C.ar  1 <1>  -0.1500 
  6 C       -5.9690     1.2250     1.3850 C.ar  1 <1>  -0.1500 
  7 C       -6.7400     2.3360     1.7000 C.ar  1 <1>  -0.1430 
  8 C       -7.0250     3.3810     0.6360 C.3   1 <1>   0.2840 
  9 N       -8.1070     2.8710    -0.2230 N.am  1 <1>  -0.7300 
 10 C       -8.2320     3.1400    -1.5460 C.2   1 <1>   0.5690 
 11 O       -7.4950     3.9140    -2.1080 O.2   1 <1>  -0.5700 
 12 C       -9.3480     2.4630    -2.3520 C.3   1 <1>   0.1710 
 13 N      -10.6820     3.1280    -2.2470 N.3   1 <1>  -0.8100 
 14 C      -10.6030     4.5420    -2.7050 C.3   1 <1>   0.1100 
 15 C      -11.7100     2.3920    -3.0170 C.3   1 <1>   0.1100 
 16 C      -11.9830     5.2390    -2.7650 C.3   1 <1>   0.3430 
 17 C      -13.1110     3.0440    -2.9060 C.3   1 <1>   0.3430 
 18 N      -13.0560     4.3640    -2.1930 N.4   1 <1>  -0.9590 
 19 C      -14.3590     5.0460    -2.0510 C.3   1 <1>   0.4810 
 20 C      -15.2140     4.2140    -1.1250 C.2   1 <1>  -0.2880 
 21 C      -15.4790     4.5230     0.1560 C.2   1 <1>  -0.1780 
 22 C      -16.2860     3.7790     1.0990 C.ar  1 <1>   0.0280 
 23 C      -17.1550     2.7620     0.7050 C.ar  1 <1>  -0.1500 
 24 C      -16.2150     4.0730     2.4590 C.ar  1 <1>  -0.1500 
 25 C      -17.9110     2.0640     1.6290 C.ar  1 <1>  -0.1500 
 26 C      -16.9690     3.3790     3.3880 C.ar  1 <1>  -0.1500 
 27 C      -17.8190     2.3710     2.9740 C.ar  1 <1>  -0.1500 
 28 H       -7.3770     1.6210     4.9470 H     1 <1>   0.1500 
 29 H       -5.1110    -0.6020     2.1140 H     1 <1>   0.1500 
 30 H       -7.8490     3.3380     3.2390 H     1 <1>   0.1500 
 31 H       -5.5730     1.1060     0.3910 H     1 <1>   0.1500 
 32 H       -6.1420     3.5660     0.0470 H     1 <1>   0.0800 
 33 H       -7.3330     4.3080     1.0880 H     1 <1>   0.0800 
 34 H       -8.7540     2.2340     0.2450 H     1 <1>   0.3700 
 35 H       -9.4320     1.4470    -2.0090 H     1 <1>   0.0800 
 36 H       -9.0380     2.4340    -3.3820 H     1 <1>   0.0800 
 37 H       -9.9720     5.0990    -2.0330 H     1 <1>   0.0800 
 38 H      -10.1440     4.5890    -3.6790 H     1 <1>   0.0800 
 39 H      -11.4250     2.3490    -4.0560 H     1 <1>   0.0800 
 40 H      -11.7710     1.3780    -2.6590 H     1 <1>   0.0800 
 41 H      -12.2120     5.4760    -3.7910 H     1 <1>   0.0800 
 42 H      -11.9270     6.1660    -2.2180 H     1 <1>   0.0800 
 43 H      -13.7590     2.3700    -2.3690 H     1 <1>   0.0800 
 44 H      -13.5200     3.1710    -3.8940 H     1 <1>   0.0800 
 45 H      -12.7190     4.1220    -1.2480 H     1 <1>   0.4500 
 46 H      -14.2120     6.0200    -1.6130 H     1 <1>   0.0800 
 47 H      -14.8400     5.1670    -3.0080 H     1 <1>   0.0800 
 48 H      -15.6040     3.3320    -1.5980 H     1 <1>   0.1500 
 49 H      -15.0620     5.4190     0.5850 H     1 <1>   0.1500 
 50 H      -17.2550     2.5090    -0.3330 H     1 <1>   0.1500 
 51 H      -15.5610     4.8540     2.8030 H     1 <1>   0.1500 
 52 H      -18.5750     1.2810     1.3040 H     1 <1>   0.1500 
 53 H      -16.8960     3.6230     4.4340 H     1 <1>   0.1500 
 54 H      -18.4070     1.8280     3.6950 H     1 <1>   0.1500 
@<TRIPOS>BOND
  1   1   2  1   
  2   2   3  ar  
  3   2   4  ar  
  4   3   5  ar  
  5   3  28  1   
  6   4   6  ar  
  7   4  29  1   
  8   5   7  ar  
  9   5  30  1   
 10   6   7  ar  
 11   6  31  1   
 12   7   8  1   
 13   8   9  1   
 14   8  32  1   
 15   8  33  1   
 16   9  10  am  
 17   9  34  1   
 18  10  11  2   
 19  10  12  1   
 20  12  13  1   
 21  12  35  1   
 22  12  36  1   
 23  13  14  1   
 24  13  15  1   
 25  14  16  1   
 26  14  37  1   
 27  14  38  1   
 28  15  17  1   
 29  15  39  1   
 30  15  40  1   
 31  16  18  1   
 32  16  41  1   
 33  16  42  1   
 34  17  18  1   
 35  17  43  1   
 36  17  44  1   
 37  18  19  1   
 38  18  45  1   
 39  19  20  1   
 40  19  46  1   
 41  19  47  1   
 42  20  21  2   
 43  20  48  1   
 44  21  22  1   
 45  21  49  1   
 46  22  23  ar  
 47  22  24  ar  
 48  23  25  ar  
 49  23  50  1   
 50  24  26  ar  
 51  24  51  1   
 52  25  27  ar  
 53  25  52  1   
 54  26  27  ar  
 55  26  53  1   
 56  27  54  1   
@<TRIPOS>SUBSTRUCTURE
  1 ****  13 GROUP 4 **** **** 0

# MOE 2024.06 (io_trps.svl 2023.06)
