@<TRIPOS>MOLECULE
NONAME
42 43 1 0 0 
SMALL
USER_CHARGES


@<TRIPOS>ATOM
  1 BR       0.9090    -0.2390    -2.4140 Br    1 <1>  -0.1110 
  2 C        0.3050    -1.8120    -1.4760 C.ar  1 <1>   0.1110 
  3 C        1.1180    -2.4170    -0.5310 C.ar  1 <1>   0.0830 
  4 C       -0.9520    -2.2990    -1.7780 C.ar  1 <1>  -0.1500 
  5 O        2.3410    -1.9310    -0.2380 O.3   1 <1>  -0.5330 
  6 C        0.6600    -3.5540     0.1280 C.ar  1 <1>   0.0830 
  7 C       -1.4200    -3.4230    -1.1100 C.ar  1 <1>  -0.1430 
  8 O        1.4970    -4.1220     1.0420 O.3   1 <1>  -0.3630 
  9 C       -0.6100    -4.0500    -0.1670 C.ar  1 <1>  -0.1500 
 10 C       -2.8110    -3.9560    -1.4090 C.3   1 <1>   0.4860 
 11 C        1.2310    -5.3870     1.6090 C.3   1 <1>   0.0400 
 12 N       -3.7270    -3.6140    -0.2790 N.4   1 <1>  -0.9590 
 13 C       -5.0800    -4.2540    -0.3720 C.3   1 <1>   0.4230 
 14 C       -3.8140    -2.1280    -0.1250 C.3   1 <1>   0.3430 
 15 C       -5.8930    -3.8950     0.8860 C.3   1 <1>  -0.1600 
 16 C       -4.9510    -5.7860    -0.5340 C.3   1 <1>  -0.1600 
 17 C       -4.5790    -1.7710     1.1460 C.3   1 <1>  -0.1600 
 18 C       -5.9790    -2.3850     1.1330 C.3   1 <1>  -0.1600 
 19 C       -6.2930    -6.5370    -0.5680 C.3   1 <1>  -0.2400 
 20 H       -1.5370    -1.7910    -2.5260 H     1 <1>   0.1500 
 21 H        2.7710    -2.4900     0.4410 H     1 <1>   0.4500 
 22 H       -0.9690    -4.9280     0.3380 H     1 <1>   0.1500 
 23 H       -2.7420    -5.0230    -1.5320 H     1 <1>   0.0800 
 24 H       -3.1800    -3.5310    -2.3280 H     1 <1>   0.0800 
 25 H        2.0690    -5.6590     2.2260 H     1 <1>   0.0800 
 26 H        1.1130    -6.1080     0.8190 H     1 <1>   0.0800 
 27 H        0.3440    -5.3230     2.2130 H     1 <1>   0.0800 
 28 H       -3.2900    -3.9660     0.5790 H     1 <1>   0.4500 
 29 H       -5.5980    -3.8600    -1.2330 H     1 <1>   0.0800 
 30 H       -4.3160    -1.7000    -0.9780 H     1 <1>   0.0800 
 31 H       -2.8270    -1.6980    -0.0640 H     1 <1>   0.0800 
 32 H       -5.4600    -4.3780     1.7460 H     1 <1>   0.0800 
 33 H       -6.8980    -4.2640     0.7850 H     1 <1>   0.0800 
 34 H       -4.3580    -6.1900     0.2690 H     1 <1>   0.0800 
 35 H       -4.4650    -6.0130    -1.4640 H     1 <1>   0.0800 
 36 H       -4.6610    -0.7000     1.2190 H     1 <1>   0.0800 
 37 H       -4.0300    -2.1120     2.0060 H     1 <1>   0.0800 
 38 H       -6.4710    -2.1950     2.0730 H     1 <1>   0.0800 
 39 H       -6.5690    -1.9250     0.3570 H     1 <1>   0.0800 
 40 H       -6.7810    -6.5170     0.3910 H     1 <1>   0.0800 
 41 H       -6.1250    -7.5700    -0.8230 H     1 <1>   0.0800 
 42 H       -6.9530    -6.1140    -1.3060 H     1 <1>   0.0800 
@<TRIPOS>BOND
  1   1   2  1   
  2   2   3  ar  
  3   2   4  ar  
  4   3   5  1   
  5   3   6  ar  
  6   4   7  ar  
  7   4  20  1   
  8   5  21  1   
  9   6   8  1   
 10   6   9  ar  
 11   7   9  ar  
 12   7  10  1   
 13   8  11  1   
 14   9  22  1   
 15  10  12  1   
 16  10  23  1   
 17  10  24  1   
 18  11  25  1   
 19  11  26  1   
 20  11  27  1   
 21  12  13  1   
 22  12  14  1   
 23  12  28  1   
 24  13  15  1   
 25  13  16  1   
 26  13  29  1   
 27  14  17  1   
 28  14  30  1   
 29  14  31  1   
 30  15  18  1   
 31  15  32  1   
 32  15  33  1   
 33  16  19  1   
 34  16  34  1   
 35  16  35  1   
 36  17  18  1   
 37  17  36  1   
 38  17  37  1   
 39  18  38  1   
 40  18  39  1   
 41  19  40  1   
 42  19  41  1   
 43  19  42  1   
@<TRIPOS>SUBSTRUCTURE
  1 ****   7 GROUP 4 **** **** 0

# MOE 2024.06 (io_trps.svl 2023.06)
