@<TRIPOS>MOLECULE
NONAME
44 47 1 0 0 
SMALL
USER_CHARGES


@<TRIPOS>ATOM
  1 S        0.5910     0.2010     0.0150 S.3   1 <1>  -0.3320 
  2 C        1.4650     1.7550    -0.0930 C.ar  1 <1>   0.7220 
  3 C       -1.1410     0.5720    -0.5080 C.3   1 <1>   0.2080 
  4 N        0.7790     2.8020    -0.5630 N.ar  1 <1>  -0.3100 
  5 N        2.7140     1.7120     0.2990 N.ar  1 <1>  -0.6200 
  6 C       -1.8740     1.1810     0.6740 C.2   1 <1>  -0.2880 
  7 N        1.3720     3.9620    -0.6640 N.ar  1 <1>  -0.3100 
  8 C        3.3000     2.8870     0.1790 C.ar  1 <1>   0.3930 
  9 C       -2.9300     0.6390     1.2880 C.2   1 <1>  -0.3000 
 10 C        2.6550     4.0330    -0.2920 C.ar  1 <1>   0.3100 
 11 O        4.5690     2.9350     0.5940 O.3   1 <1>  -0.3630 
 12 C        3.3390     5.3000    -0.3640 C.ar  1 <1>   0.0000 
 13 C        5.6160     3.0920    -0.3330 C.3   1 <1>   0.6490 
 14 C        4.6660     5.3640    -0.8140 C.ar  1 <1>   0.1000 
 15 C        2.7070     6.4880     0.0070 C.ar  1 <1>  -0.1500 
 16 N        5.3500     4.2290    -1.2310 N.pl3 1 <1>  -0.8690 
 17 C        5.7720     1.8120    -1.1700 C.3   1 <1>  -0.1600 
 18 C        6.8980     3.3720     0.4620 C.3   1 <1>  -0.1600 
 19 C        5.3100     6.5940    -0.8840 C.ar  1 <1>  -0.1500 
 20 C        3.3600     7.7030    -0.0610 C.ar  1 <1>  -0.1500 
 21 C        6.1920     0.6010    -0.3170 C.3   1 <1>  -0.1600 
 22 C        7.3300     2.1700     1.3220 C.3   1 <1>  -0.1600 
 23 C        4.6680     7.7560    -0.5080 C.ar  1 <1>  -0.1500 
 24 C        7.4750     0.9000     0.4710 C.3   1 <1>  -0.1600 
 25 H       -1.5820    -0.3650    -0.7990 H     1 <1>   0.0800 
 26 H       -1.1090     1.2350    -1.3540 H     1 <1>   0.0800 
 27 H       -1.4490     2.1220     0.9810 H     1 <1>   0.1500 
 28 H       -3.4320     1.0920     2.1250 H     1 <1>   0.1500 
 29 H       -3.3810    -0.2990     1.0110 H     1 <1>   0.1500 
 30 H        1.6880     6.4560     0.3520 H     1 <1>   0.1500 
 31 H        6.1890     4.4240    -1.7780 H     1 <1>   0.4000 
 32 H        6.5270     1.9790    -1.9160 H     1 <1>   0.0800 
 33 H        4.8510     1.5970    -1.6820 H     1 <1>   0.0800 
 34 H        6.7420     4.2310     1.0900 H     1 <1>   0.0800 
 35 H        7.6910     3.6000    -0.2260 H     1 <1>   0.0800 
 36 H        6.3240     6.6400    -1.2350 H     1 <1>   0.1500 
 37 H        2.8530     8.6070     0.2300 H     1 <1>   0.1500 
 38 H        6.3470    -0.2530    -0.9530 H     1 <1>   0.0800 
 39 H        5.3990     0.3560     0.3700 H     1 <1>   0.0800 
 40 H        6.5950     1.9980     2.0920 H     1 <1>   0.0800 
 41 H        8.2660     2.3890     1.8080 H     1 <1>   0.0800 
 42 H        5.1790     8.7020    -0.5640 H     1 <1>   0.1500 
 43 H        8.2960     1.0220    -0.2160 H     1 <1>   0.0800 
 44 H        7.7040     0.0650     1.1100 H     1 <1>   0.0800 
@<TRIPOS>BOND
  1   1   2  1   
  2   1   3  1   
  3   2   4  ar  
  4   2   5  ar  
  5   3   6  1   
  6   3  25  1   
  7   3  26  1   
  8   4   7  ar  
  9   5   8  ar  
 10   6   9  2   
 11   6  27  1   
 12   7  10  ar  
 13   8  10  ar  
 14   8  11  1   
 15   9  28  1   
 16   9  29  1   
 17  10  12  1   
 18  11  13  1   
 19  12  14  ar  
 20  12  15  ar  
 21  13  16  1   
 22  13  17  1   
 23  13  18  1   
 24  14  16  1   
 25  14  19  ar  
 26  15  20  ar  
 27  15  30  1   
 28  16  31  1   
 29  17  21  1   
 30  17  32  1   
 31  17  33  1   
 32  18  22  1   
 33  18  34  1   
 34  18  35  1   
 35  19  23  ar  
 36  19  36  1   
 37  20  23  ar  
 38  20  37  1   
 39  21  24  1   
 40  21  38  1   
 41  21  39  1   
 42  22  24  1   
 43  22  40  1   
 44  22  41  1   
 45  23  42  1   
 46  24  43  1   
 47  24  44  1   
@<TRIPOS>SUBSTRUCTURE
  1 ****   8 GROUP 4 **** **** 0

# MOE 2024.06 (io_trps.svl 2023.06)
