@<TRIPOS>MOLECULE
NONAME
38 38 1 0 0 
SMALL
USER_CHARGES


@<TRIPOS>ATOM
  1 O       -0.1960    -0.2040    -0.0270 O.2   1 <1>  -0.5700 
  2 C       -0.1060    -1.4060     0.1260 C.2   1 <1>   0.5440 
  3 N       -1.2130    -2.1050     0.5230 N.am  1 <1>  -0.7300 
  4 C        1.1510    -2.0890    -0.1220 C.ar  1 <1>   0.0860 
  5 C       -2.5470    -1.5270     0.7890 C.3   1 <1>   0.1400 
  6 C        2.0680    -1.5890    -1.0470 C.ar  1 <1>  -0.1500 
  7 C        1.5040    -3.2660     0.5410 C.ar  1 <1>  -0.1500 
  8 C       -3.5830    -2.2500    -0.0710 C.3   1 <1>  -0.1600 
  9 C        3.2650    -2.2310    -1.3020 C.ar  1 <1>  -0.1500 
 10 C        2.7020    -3.9070     0.2860 C.ar  1 <1>  -0.1500 
 11 C       -4.9910    -1.6940     0.1680 C.3   1 <1>  -0.2400 
 12 C        3.6170    -3.4040    -0.6370 C.ar  1 <1>   0.0860 
 13 C        4.8730    -4.0890    -0.8870 C.2   1 <1>   0.5440 
 14 O        4.9090    -5.2960    -0.9890 O.2   1 <1>  -0.5700 
 15 N        6.0640    -3.4420    -1.0050 N.am  1 <1>  -0.7300 
 16 C        6.4220    -2.0990    -0.5050 C.3   1 <1>   0.1400 
 17 C        7.6380    -2.2210     0.4130 C.3   1 <1>  -0.1600 
 18 C        8.0490    -0.8560     0.9760 C.3   1 <1>  -0.2400 
 19 H       -1.1680    -3.1230     0.5580 H     1 <1>   0.3700 
 20 H       -2.5500    -0.4740     0.5580 H     1 <1>   0.0800 
 21 H       -2.7830    -1.6440     1.8330 H     1 <1>   0.0800 
 22 H        1.8260    -0.6810    -1.5740 H     1 <1>   0.1500 
 23 H        0.8360    -3.6830     1.2730 H     1 <1>   0.1500 
 24 H       -3.5770    -3.3010     0.1610 H     1 <1>   0.0800 
 25 H       -3.3280    -2.1230    -1.1100 H     1 <1>   0.0800 
 26 H        3.9410    -1.8220    -2.0330 H     1 <1>   0.1500 
 27 H        2.9460    -4.8180     0.8070 H     1 <1>   0.1500 
 28 H       -5.2780    -1.8200     1.1970 H     1 <1>   0.0800 
 29 H       -5.7020    -2.2130    -0.4510 H     1 <1>   0.0800 
 30 H       -5.0270    -0.6470    -0.0770 H     1 <1>   0.0800 
 31 H        6.8530    -4.0560    -1.2180 H     1 <1>   0.3700 
 32 H        5.5980    -1.6740     0.0420 H     1 <1>   0.0800 
 33 H        6.6510    -1.4590    -1.3400 H     1 <1>   0.0800 
 34 H        8.4640    -2.6370    -0.1370 H     1 <1>   0.0800 
 35 H        7.4020    -2.8810     1.2300 H     1 <1>   0.0800 
 36 H        8.3080    -0.1810     0.1800 H     1 <1>   0.0800 
 37 H        8.9030    -0.9670     1.6200 H     1 <1>   0.0800 
 38 H        7.2450    -0.4260     1.5480 H     1 <1>   0.0800 
@<TRIPOS>BOND
  1   1   2  2   
  2   2   3  am  
  3   2   4  1   
  4   3   5  1   
  5   3  19  1   
  6   4   6  ar  
  7   4   7  ar  
  8   5   8  1   
  9   5  20  1   
 10   5  21  1   
 11   6   9  ar  
 12   6  22  1   
 13   7  10  ar  
 14   7  23  1   
 15   8  11  1   
 16   8  24  1   
 17   8  25  1   
 18   9  12  ar  
 19   9  26  1   
 20  10  12  ar  
 21  10  27  1   
 22  11  28  1   
 23  11  29  1   
 24  11  30  1   
 25  12  13  1   
 26  13  14  2   
 27  13  15  am  
 28  15  16  1   
 29  15  31  1   
 30  16  17  1   
 31  16  32  1   
 32  16  33  1   
 33  17  18  1   
 34  17  34  1   
 35  17  35  1   
 36  18  36  1   
 37  18  37  1   
 38  18  38  1   
@<TRIPOS>SUBSTRUCTURE
  1 ****   4 GROUP 4 **** **** 0

# MOE 2024.06 (io_trps.svl 2023.06)
