@<TRIPOS>MOLECULE
NONAME
46 47 1 0 0 
SMALL
USER_CHARGES


@<TRIPOS>ATOM
  1 S       -0.0760    -0.4180    -0.4510 S.3   1 <1>  -0.0800 
  2 C        0.4460     1.2450    -0.3480 C.2   1 <1>   0.1040 
  3 C       -1.7760     0.0180    -0.6180 C.2   1 <1>  -0.0450 
  4 N        1.7840     1.5580    -0.2080 N.am  1 <1>  -0.4940 
  5 C       -0.6290     2.0930    -0.4340 C.2   1 <1>  -0.0860 
  6 C       -1.8700     1.3810    -0.6290 C.2   1 <1>  -0.1810 
  7 C       -2.7000    -1.0780    -0.7040 C.2   1 <1>   0.5940 
  8 C        2.9320     0.8250     0.0240 C.2   1 <1>   0.5440 
  9 C       -0.4610     3.5250    -0.3200 C.2   1 <1>   0.8060 
 10 C       -3.1830     2.1150    -0.8880 C.3   1 <1>  -0.0590 
 11 O       -2.4580    -2.1060    -1.2890 O.2   1 <1>  -0.5700 
 12 C       -4.0600    -0.9760    -0.0190 C.3   1 <1>  -0.0990 
 13 O        2.8720    -0.3760     0.1780 O.2   1 <1>  -0.5700 
 14 C        4.2110     1.5130     0.0830 C.ar  1 <1>   0.0860 
 15 O        0.6280     4.0720    -0.4000 O.2   1 <1>  -0.5700 
 16 O       -1.5280     4.2970    -0.0890 O.3   1 <1>  -0.4300 
 17 C       -4.3530    -2.1560     0.9220 C.3   1 <1>  -0.2400 
 18 C        5.3990     0.8290    -0.1770 C.ar  1 <1>  -0.1500 
 19 C        4.3200     2.8720     0.3940 C.ar  1 <1>  -0.1500 
 20 C       -1.4220     5.6960     0.0530 C.3   1 <1>   0.1200 
 21 C        6.6280     1.4620    -0.1400 C.ar  1 <1>  -0.1500 
 22 C        5.5460     3.5100     0.4300 C.ar  1 <1>  -0.1500 
 23 C       -2.8230     6.2540     0.2870 C.3   1 <1>  -0.2400 
 24 C        6.7100     2.8090     0.1640 C.ar  1 <1>  -0.1430 
 25 C        8.0570     3.5080     0.2020 C.3   1 <1>  -0.0970 
 26 H        1.9660     2.5620    -0.3030 H     1 <1>   0.3700 
 27 H       -3.9370     1.4530    -1.2700 H     1 <1>   0.0800 
 28 H       -3.0390     2.8830    -1.6270 H     1 <1>   0.0800 
 29 H       -3.5450     2.5670     0.0190 H     1 <1>   0.0800 
 30 H       -4.8170    -0.9320    -0.7800 H     1 <1>   0.0800 
 31 H       -4.1050    -0.0710     0.5570 H     1 <1>   0.0800 
 32 H       -4.3580    -3.0810     0.3700 H     1 <1>   0.0800 
 33 H       -5.3140    -2.0310     1.3900 H     1 <1>   0.0800 
 34 H       -3.6000    -2.2200     1.6880 H     1 <1>   0.0800 
 35 H        5.3530    -0.2210    -0.4120 H     1 <1>   0.1500 
 36 H        3.4410     3.4500     0.6190 H     1 <1>   0.1500 
 37 H       -0.9910     6.1020    -0.8470 H     1 <1>   0.0800 
 38 H       -0.7780     5.9080     0.8910 H     1 <1>   0.0800 
 39 H        7.5220     0.8990    -0.3490 H     1 <1>   0.1500 
 40 H        5.5940     4.5590     0.6700 H     1 <1>   0.1500 
 41 H       -3.4570     6.0310    -0.5520 H     1 <1>   0.0800 
 42 H       -2.7730     7.3220     0.4020 H     1 <1>   0.0800 
 43 H       -3.2460     5.8340     1.1820 H     1 <1>   0.0800 
 44 H        8.8260     2.8230     0.5090 H     1 <1>   0.0800 
 45 H        8.0370     4.3280     0.8980 H     1 <1>   0.0800 
 46 H        8.2980     3.8870    -0.7740 H     1 <1>   0.0800 
@<TRIPOS>BOND
  1   1   2  1   
  2   1   3  1   
  3   2   4  1   
  4   2   5  2   
  5   3   6  2   
  6   3   7  1   
  7   4   8  am  
  8   4  26  1   
  9   5   6  1   
 10   5   9  1   
 11   6  10  1   
 12   7  11  2   
 13   7  12  1   
 14   8  13  2   
 15   8  14  1   
 16   9  15  2   
 17   9  16  1   
 18  10  27  1   
 19  10  28  1   
 20  10  29  1   
 21  12  17  1   
 22  12  30  1   
 23  12  31  1   
 24  14  18  ar  
 25  14  19  ar  
 26  16  20  1   
 27  17  32  1   
 28  17  33  1   
 29  17  34  1   
 30  18  21  ar  
 31  18  35  1   
 32  19  22  ar  
 33  19  36  1   
 34  20  23  1   
 35  20  37  1   
 36  20  38  1   
 37  21  24  ar  
 38  21  39  1   
 39  22  24  ar  
 40  22  40  1   
 41  23  41  1   
 42  23  42  1   
 43  23  43  1   
 44  24  25  1   
 45  25  44  1   
 46  25  45  1   
 47  25  46  1   
@<TRIPOS>SUBSTRUCTURE
  1 ****   2 GROUP 4 **** **** 0

# MOE 2024.06 (io_trps.svl 2023.06)
