@<TRIPOS>MOLECULE
NONAME
41 43 1 0 0 
SMALL
USER_CHARGES


@<TRIPOS>ATOM
  1 O        0.0070    -0.0080    -0.8100 O.2   1 <1>  -0.5700 
  2 C       -0.0470     1.0870    -0.2860 C.2   1 <1>   0.6900 
  3 N        1.0670     1.7540     0.1290 N.am  1 <1>  -0.5470 
  4 N       -1.2360     1.7090    -0.1070 N.am  1 <1>  -0.7300 
  5 C        2.4260     1.4020     0.1340 C.ar  1 <1>   0.1170 
  6 C       -2.5140     1.2380    -0.6740 C.3   1 <1>   0.2200 
  7 C        3.4090     2.4340     0.1290 C.ar  1 <1>   0.0000 
  8 C        2.8270     0.0850     0.1810 C.ar  1 <1>  -0.1500 
  9 C       -3.5130     2.4210    -0.7550 C.3   1 <1>   0.2000 
 10 C       -3.0430     0.0700     0.1650 C.3   1 <1>  -0.2400 
 11 C        4.7760     2.0760     0.2080 C.ar  1 <1>   0.0000 
 12 C        3.0990     3.8120     0.0390 C.ar  1 <1>  -0.1500 
 13 C        4.1770    -0.2620     0.2380 C.ar  1 <1>  -0.1500 
 14 O       -2.8780     3.5650    -1.2390 O.3   1 <1>  -0.5600 
 15 C       -4.1090     2.8880     0.5720 C.3   1 <1>  -0.1600 
 16 C        5.1300     0.7150     0.2560 C.ar  1 <1>  -0.1500 
 17 C        5.7550     3.0900     0.2300 C.ar  1 <1>  -0.1500 
 18 C        4.0700     4.7750     0.0580 C.ar  1 <1>  -0.1500 
 19 C       -3.6460     4.6890    -0.9530 C.3   1 <1>   0.1200 
 20 C       -4.4200     4.3560     0.3190 C.3   1 <1>  -0.1600 
 21 C        5.4150     4.4110     0.1590 C.ar  1 <1>  -0.1500 
 22 H        0.8650     2.6700     0.5090 H     1 <1>   0.3700 
 23 H       -1.2310     2.7300    -0.0910 H     1 <1>   0.3700 
 24 H       -2.3340     0.8870    -1.6770 H     1 <1>   0.0800 
 25 H        2.1020    -0.7080     0.1850 H     1 <1>   0.1500 
 26 H       -4.3070     2.1750    -1.4390 H     1 <1>   0.0800 
 27 H       -3.1350     0.3460     1.2000 H     1 <1>   0.0800 
 28 H       -2.3720    -0.7670     0.0890 H     1 <1>   0.0800 
 29 H       -4.0040    -0.2410    -0.2010 H     1 <1>   0.0800 
 30 H        2.0750     4.1160    -0.0540 H     1 <1>   0.1500 
 31 H        4.4480    -1.3030     0.2710 H     1 <1>   0.1500 
 32 H       -3.3770     2.7980     1.3560 H     1 <1>   0.0800 
 33 H       -4.9830     2.3210     0.8380 H     1 <1>   0.0800 
 34 H        6.1720     0.4540     0.3050 H     1 <1>   0.1500 
 35 H        6.7880     2.8020     0.3020 H     1 <1>   0.1500 
 36 H        3.8150     5.8190    -0.0080 H     1 <1>   0.1500 
 37 H       -4.3110     4.8600    -1.7830 H     1 <1>   0.0800 
 38 H       -2.9900     5.5330    -0.8260 H     1 <1>   0.0800 
 39 H       -4.0990     4.9730     1.1400 H     1 <1>   0.0800 
 40 H       -5.4720     4.5110     0.1550 H     1 <1>   0.0800 
 41 H        6.1680     5.1800     0.1760 H     1 <1>   0.1500 
@<TRIPOS>BOND
  1   1   2  2   
  2   2   3  am  
  3   2   4  am  
  4   3   5  1   
  5   3  22  1   
  6   4   6  1   
  7   4  23  1   
  8   5   7  ar  
  9   5   8  ar  
 10   6   9  1   
 11   6  10  1   
 12   6  24  1   
 13   7  11  ar  
 14   7  12  ar  
 15   8  13  ar  
 16   8  25  1   
 17   9  14  1   
 18   9  15  1   
 19   9  26  1   
 20  10  27  1   
 21  10  28  1   
 22  10  29  1   
 23  11  16  ar  
 24  11  17  ar  
 25  12  18  ar  
 26  12  30  1   
 27  13  16  ar  
 28  13  31  1   
 29  14  19  1   
 30  15  20  1   
 31  15  32  1   
 32  15  33  1   
 33  16  34  1   
 34  17  21  ar  
 35  17  35  1   
 36  18  21  ar  
 37  18  36  1   
 38  19  20  1   
 39  19  37  1   
 40  19  38  1   
 41  20  39  1   
 42  20  40  1   
 43  21  41  1   
@<TRIPOS>SUBSTRUCTURE
  1 ****   3 GROUP 4 **** **** 0

# MOE 2024.06 (io_trps.svl 2023.06)
