@<TRIPOS>MOLECULE
NONAME
43 43 1 0 0 
SMALL
USER_CHARGES


@<TRIPOS>ATOM
  1 O       -0.6400     5.1120    -1.5660 O.2   1 <1>  -0.5700 
  2 C       -0.6160     4.2410    -0.7240 C.2   1 <1>   0.7060 
  3 O        0.5720     3.8310    -0.2650 O.3   1 <1>  -0.4300 
  4 C       -1.7850     3.6160    -0.1850 C.2   1 <1>  -0.1360 
  5 C        1.7650     4.4030    -0.7600 C.3   1 <1>   0.1200 
  6 C       -3.0730     3.8800    -0.5090 C.2   1 <1>  -0.1780 
  7 C        2.9540     3.7580    -0.0390 C.3   1 <1>   0.3430 
  8 C       -4.2800     3.2800     0.0040 C.ar  1 <1>   0.0280 
  9 N        4.2890     4.2020    -0.5900 N.4   1 <1>  -0.9590 
 10 C       -5.5200     3.7100    -0.4690 C.ar  1 <1>  -0.1500 
 11 C       -4.2780     2.2710     0.9680 C.ar  1 <1>  -0.1500 
 12 C        5.4400     3.3790    -0.1060 C.3   1 <1>   0.5030 
 13 C        4.4740     5.6810    -0.3810 C.3   1 <1>   0.2630 
 14 C       -6.7020     3.1630    -0.0040 C.ar  1 <1>  -0.1500 
 15 C       -5.4560     1.7200     1.4370 C.ar  1 <1>  -0.1500 
 16 C        5.5960     3.4820     1.4140 C.3   1 <1>  -0.2400 
 17 C        5.2130     1.9180    -0.5070 C.3   1 <1>  -0.2400 
 18 C        6.7230     3.8590    -0.7920 C.3   1 <1>  -0.2400 
 19 C       -6.6730     2.1640     0.9520 C.ar  1 <1>  -0.1500 
 20 H       -1.5560     2.8690     0.5480 H     1 <1>   0.1500 
 21 H        1.8060     4.2110    -1.8190 H     1 <1>   0.0800 
 22 H        1.7210     5.4630    -0.5760 H     1 <1>   0.0800 
 23 H       -3.2540     4.6400    -1.2520 H     1 <1>   0.1500 
 24 H        2.8540     2.6930    -0.1470 H     1 <1>   0.0800 
 25 H        2.8990     3.9990     1.0100 H     1 <1>   0.0800 
 26 H        4.2680     4.0360    -1.6040 H     1 <1>   0.4500 
 27 H       -5.5630     4.4860    -1.2120 H     1 <1>   0.1500 
 28 H       -3.3510     1.9050     1.3650 H     1 <1>   0.1500 
 29 H        4.5200     5.9100     0.6720 H     1 <1>   0.0800 
 30 H        3.6570     6.2320    -0.8160 H     1 <1>   0.0800 
 31 H        5.3840     6.0210    -0.8470 H     1 <1>   0.0800 
 32 H       -7.6450     3.5130    -0.3860 H     1 <1>   0.1500 
 33 H       -5.4300     0.9420     2.1810 H     1 <1>   0.1500 
 34 H        6.4330     2.8850     1.7300 H     1 <1>   0.0800 
 35 H        4.7290     3.1120     1.9300 H     1 <1>   0.0800 
 36 H        5.7900     4.4920     1.7250 H     1 <1>   0.0800 
 37 H        6.0960     1.3400    -0.2910 H     1 <1>   0.0800 
 38 H        5.0170     1.8300    -1.5600 H     1 <1>   0.0800 
 39 H        4.4120     1.4650     0.0470 H     1 <1>   0.0800 
 40 H        6.6100     3.8690    -1.8620 H     1 <1>   0.0800 
 41 H        7.0200     4.8350    -0.4530 H     1 <1>   0.0800 
 42 H        7.5350     3.1930    -0.5560 H     1 <1>   0.0800 
 43 H       -7.5900     1.7360     1.3150 H     1 <1>   0.1500 
@<TRIPOS>BOND
  1   1   2  2   
  2   2   3  1   
  3   2   4  1   
  4   3   5  1   
  5   4   6  2   
  6   4  20  1   
  7   5   7  1   
  8   5  21  1   
  9   5  22  1   
 10   6   8  1   
 11   6  23  1   
 12   7   9  1   
 13   7  24  1   
 14   7  25  1   
 15   8  10  ar  
 16   8  11  ar  
 17   9  12  1   
 18   9  13  1   
 19   9  26  1   
 20  10  14  ar  
 21  10  27  1   
 22  11  15  ar  
 23  11  28  1   
 24  12  16  1   
 25  12  17  1   
 26  12  18  1   
 27  13  29  1   
 28  13  30  1   
 29  13  31  1   
 30  14  19  ar  
 31  14  32  1   
 32  15  19  ar  
 33  15  33  1   
 34  16  34  1   
 35  16  35  1   
 36  16  36  1   
 37  17  37  1   
 38  17  38  1   
 39  17  39  1   
 40  18  40  1   
 41  18  41  1   
 42  18  42  1   
 43  19  43  1   
@<TRIPOS>SUBSTRUCTURE
  1 ****   3 GROUP 4 **** **** 0

# MOE 2024.06 (io_trps.svl 2023.06)
