@<TRIPOS>MOLECULE
NONAME
41 42 1 0 0 
SMALL
USER_CHARGES


@<TRIPOS>ATOM
  1 BR       1.6040    -0.6110    -1.6100 Br    1 <1>  -0.1110 
  2 C        0.5510    -2.0630    -0.9160 C.ar  1 <1>   0.1110 
  3 C       -0.7590    -2.1910    -1.3350 C.ar  1 <1>  -0.1500 
  4 C        1.1290    -2.9370    -0.0170 C.ar  1 <1>  -0.1500 
  5 C       -1.5230    -3.2350    -0.8330 C.ar  1 <1>  -0.1440 
  6 C        0.3660    -3.9790     0.4810 C.ar  1 <1>  -0.1500 
  7 C       -0.9610    -4.1320     0.0760 C.ar  1 <1>   0.0830 
  8 C       -2.9640    -3.4000    -1.2780 C.3   1 <1>   0.4870 
  9 O       -1.7600    -5.1320     0.5400 O.3   1 <1>  -0.3630 
 10 N       -3.8430    -3.3010    -0.0830 N.4   1 <1>  -0.9590 
 11 C       -1.2180    -6.2170     1.2710 C.3   1 <1>   0.0400 
 12 C       -5.2170    -3.7990    -0.3860 C.3   1 <1>   0.3430 
 13 C       -3.8150    -1.9280     0.5130 C.3   1 <1>   0.2630 
 14 C       -6.0190    -4.0740     0.8870 C.3   1 <1>  -0.0170 
 15 C       -7.3550    -4.6730     0.4940 C.ar  1 <1>  -0.1430 
 16 C       -8.4460    -3.8520     0.2530 C.ar  1 <1>  -0.1500 
 17 C       -7.4930    -6.0460     0.3600 C.ar  1 <1>  -0.1500 
 18 C       -9.6610    -4.3990    -0.1240 C.ar  1 <1>  -0.1500 
 19 C       -8.7070    -6.5920    -0.0160 C.ar  1 <1>  -0.1500 
 20 C       -9.7910    -5.7690    -0.2600 C.ar  1 <1>  -0.1500 
 21 H       -1.1520    -1.4810    -2.0420 H     1 <1>   0.1500 
 22 H        2.1540    -2.8040     0.2830 H     1 <1>   0.1500 
 23 H        0.8250    -4.6530     1.1810 H     1 <1>   0.1500 
 24 H       -3.0740    -4.3690    -1.7370 H     1 <1>   0.0800 
 25 H       -3.2240    -2.6440    -2.0010 H     1 <1>   0.0800 
 26 H       -3.3910    -3.9560     0.5820 H     1 <1>   0.4500 
 27 H       -2.0020    -6.9330     1.4470 H     1 <1>   0.0800 
 28 H       -0.8400    -5.8560     2.2120 H     1 <1>   0.0800 
 29 H       -0.4330    -6.6740     0.6940 H     1 <1>   0.0800 
 30 H       -5.1520    -4.7200    -0.9440 H     1 <1>   0.0800 
 31 H       -5.7470    -3.0830    -0.9940 H     1 <1>   0.0800 
 32 H       -4.2440    -1.2130    -0.1700 H     1 <1>   0.0800 
 33 H       -2.7990    -1.6350     0.7270 H     1 <1>   0.0800 
 34 H       -4.3740    -1.9060     1.4340 H     1 <1>   0.0800 
 35 H       -6.1870    -3.1660     1.4370 H     1 <1>   0.0800 
 36 H       -5.4900    -4.7670     1.5170 H     1 <1>   0.0800 
 37 H       -8.3690    -2.7840     0.3570 H     1 <1>   0.1500 
 38 H       -6.6630    -6.7060     0.5490 H     1 <1>   0.1500 
 39 H      -10.5070    -3.7600    -0.3090 H     1 <1>   0.1500 
 40 H       -8.8120    -7.6590    -0.1180 H     1 <1>   0.1500 
 41 H      -10.7370    -6.1940    -0.5510 H     1 <1>   0.1500 
@<TRIPOS>BOND
  1   1   2  1   
  2   2   3  ar  
  3   2   4  ar  
  4   3   5  ar  
  5   3  21  1   
  6   4   6  ar  
  7   4  22  1   
  8   5   7  ar  
  9   5   8  1   
 10   6   7  ar  
 11   6  23  1   
 12   7   9  1   
 13   8  10  1   
 14   8  24  1   
 15   8  25  1   
 16   9  11  1   
 17  10  12  1   
 18  10  13  1   
 19  10  26  1   
 20  11  27  1   
 21  11  28  1   
 22  11  29  1   
 23  12  14  1   
 24  12  30  1   
 25  12  31  1   
 26  13  32  1   
 27  13  33  1   
 28  13  34  1   
 29  14  15  1   
 30  14  35  1   
 31  14  36  1   
 32  15  16  ar  
 33  15  17  ar  
 34  16  18  ar  
 35  16  37  1   
 36  17  19  ar  
 37  17  38  1   
 38  18  20  ar  
 39  18  39  1   
 40  19  20  ar  
 41  19  40  1   
 42  20  41  1   
@<TRIPOS>SUBSTRUCTURE
  1 ****  10 GROUP 4 **** **** 0

# MOE 2024.06 (io_trps.svl 2023.06)
