@<TRIPOS>MOLECULE
NONAME
43 44 1 0 0 
SMALL
USER_CHARGES


@<TRIPOS>ATOM
  1 S        0.5190    -0.9400     1.5770 S.o2  1 <1>   1.3330 
  2 O       -0.6550    -0.6890     2.3800 O.2   1 <1>  -0.6500 
  3 O        1.6540    -1.5970     2.1870 O.2   1 <1>  -0.6500 
  4 N        0.0980    -1.8380     0.1970 N.am  1 <1>  -0.8490 
  5 C        1.0290     0.6240     0.8900 C.3   1 <1>  -0.1350 
  6 C       -1.2470    -2.4510     0.2930 C.3   1 <1>   0.2760 
  7 C        1.2130    -2.6900    -0.3250 C.3   1 <1>   0.2570 
  8 C       -1.4320    -3.7620    -0.5000 C.3   1 <1>  -0.1600 
  9 C       -2.2740    -1.4180    -0.2040 C.3   1 <1>  -0.1600 
 10 C        2.4850    -1.9520    -0.7780 C.2   1 <1>   0.5690 
 11 C       -2.8640    -4.3020    -0.3710 C.3   1 <1>  -0.1600 
 12 C       -3.7140    -1.9390    -0.0870 C.3   1 <1>  -0.1600 
 13 O        2.5650    -1.6100    -1.9330 O.2   1 <1>  -0.5700 
 14 N        3.4800    -1.7090     0.1310 N.am  1 <1>  -0.5470 
 15 C       -3.8890    -3.2630    -0.8390 C.3   1 <1>  -0.1600 
 16 C        4.7370    -1.0900    -0.0240 C.ar  1 <1>   0.1170 
 17 C        5.3470    -0.4460     1.0520 C.ar  1 <1>   0.1900 
 18 C        5.4350    -1.0960    -1.2280 C.ar  1 <1>  -0.1500 
 19 F        4.7290    -0.4140     2.2070 F     1 <1>  -0.1900 
 20 C        6.5810     0.1700     0.9640 C.ar  1 <1>  -0.1500 
 21 C        6.6740    -0.4830    -1.3390 C.ar  1 <1>  -0.1500 
 22 C        7.2490     0.1500    -0.2480 C.ar  1 <1>  -0.1500 
 23 H        1.8510     0.4990     0.2150 H     1 <1>   0.0800 
 24 H        1.3300     1.2870     1.6770 H     1 <1>   0.0800 
 25 H        0.2140     1.0710     0.3570 H     1 <1>   0.0800 
 26 H       -1.4580    -2.6860     1.3240 H     1 <1>   0.0800 
 27 H        0.8860    -3.2150    -1.2020 H     1 <1>   0.0800 
 28 H        1.4790    -3.4270     0.4120 H     1 <1>   0.0800 
 29 H       -0.7600    -4.5150    -0.1290 H     1 <1>   0.0800 
 30 H       -1.2330    -3.5870    -1.5430 H     1 <1>   0.0800 
 31 H       -2.0670    -1.1830    -1.2330 H     1 <1>   0.0800 
 32 H       -2.1990    -0.5100     0.3660 H     1 <1>   0.0800 
 33 H       -3.0600    -4.5590     0.6570 H     1 <1>   0.0800 
 34 H       -2.9670    -5.1980    -0.9590 H     1 <1>   0.0800 
 35 H       -4.3960    -1.2070    -0.4840 H     1 <1>   0.0800 
 36 H       -3.9550    -2.0830     0.9530 H     1 <1>   0.0800 
 37 H        3.2000    -1.8490     1.1160 H     1 <1>   0.3700 
 38 H       -4.8850    -3.6400    -0.6800 H     1 <1>   0.0800 
 39 H       -3.7670    -3.0920    -1.8950 H     1 <1>   0.0800 
 40 H        5.0150    -1.5830    -2.0890 H     1 <1>   0.1500 
 41 H        7.0060     0.6530     1.8250 H     1 <1>   0.1500 
 42 H        7.1930    -0.4990    -2.2820 H     1 <1>   0.1500 
 43 H        8.2120     0.6240    -0.3430 H     1 <1>   0.1500 
@<TRIPOS>BOND
  1   1   2  2   
  2   1   3  2   
  3   1   4  am  
  4   1   5  1   
  5   4   6  1   
  6   4   7  1   
  7   5  23  1   
  8   5  24  1   
  9   5  25  1   
 10   6   8  1   
 11   6   9  1   
 12   6  26  1   
 13   7  10  1   
 14   7  27  1   
 15   7  28  1   
 16   8  11  1   
 17   8  29  1   
 18   8  30  1   
 19   9  12  1   
 20   9  31  1   
 21   9  32  1   
 22  10  13  2   
 23  10  14  am  
 24  11  15  1   
 25  11  33  1   
 26  11  34  1   
 27  12  15  1   
 28  12  35  1   
 29  12  36  1   
 30  14  16  1   
 31  14  37  1   
 32  15  38  1   
 33  15  39  1   
 34  16  17  ar  
 35  16  18  ar  
 36  17  19  1   
 37  17  20  ar  
 38  18  21  ar  
 39  18  40  1   
 40  20  22  ar  
 41  20  41  1   
 42  21  22  ar  
 43  21  42  1   
 44  22  43  1   
@<TRIPOS>SUBSTRUCTURE
  1 ****  10 GROUP 4 **** **** 0

# MOE 2024.06 (io_trps.svl 2023.06)
