@<TRIPOS>MOLECULE
NONAME
50 52 1 0 0 
SMALL
USER_CHARGES


@<TRIPOS>ATOM
  1 O       -2.7540     2.0960    -2.3400 O.2   1 <1>  -0.5700 
  2 C       -2.2690     2.2150    -1.2410 C.2   1 <1>   0.6590 
  3 O       -2.1700     1.1860    -0.4010 O.3   1 <1>  -0.4300 
  4 C       -1.7050     3.5720    -0.7640 C.3   1 <1>   0.2510 
  5 C       -2.5450    -0.1270    -0.7460 C.3   1 <1>   0.1200 
  6 N       -0.2180     3.6060    -0.5810 N.3   1 <1>  -0.8100 
  7 C       -2.3930     4.0020     0.5460 C.3   1 <1>  -0.1600 
  8 C       -1.3710    -0.8000    -1.4540 C.3   1 <1>  -0.2400 
  9 C        0.2540     4.9500    -0.2000 C.3   1 <1>   0.1100 
 10 C        0.4900     3.1210    -1.7850 C.3   1 <1>   0.2530 
 11 C       -1.9180     5.3790     1.0200 C.3   1 <1>  -0.1600 
 12 C       -0.3900     5.3890     1.1160 C.3   1 <1>  -0.1600 
 13 C        1.9820     2.9560    -1.5250 C.ar  1 <1>  -0.1440 
 14 C        2.4180     2.1850    -0.4600 C.ar  1 <1>  -0.1500 
 15 C        2.9170     3.5680    -2.3480 C.ar  1 <1>  -0.1500 
 16 C        3.7720     2.0180    -0.2190 C.ar  1 <1>   0.0820 
 17 C        4.2720     3.4130    -2.1070 C.ar  1 <1>  -0.1500 
 18 O        4.1480     1.2530     0.8370 O.3   1 <1>  -0.1650 
 19 C        4.7020     2.6410    -1.0420 C.ar  1 <1>  -0.1500 
 20 C        5.2220     0.4260     0.7710 C.ar  1 <1>   0.0820 
 21 C        5.5310    -0.2870    -0.3820 C.ar  1 <1>  -0.1500 
 22 C        6.0120     0.2870     1.9010 C.ar  1 <1>  -0.1500 
 23 C        6.6360    -1.1200    -0.4040 C.ar  1 <1>  -0.1500 
 24 C        7.1160    -0.5470     1.8770 C.ar  1 <1>  -0.1500 
 25 C        7.4290    -1.2490     0.7250 C.ar  1 <1>  -0.1500 
 26 H       -1.9620     4.2900    -1.5220 H     1 <1>   0.0800 
 27 H       -3.4210    -0.0960    -1.3720 H     1 <1>   0.0800 
 28 H       -2.7820    -0.6480     0.1660 H     1 <1>   0.0800 
 29 H       -2.1810     3.2700     1.3060 H     1 <1>   0.0800 
 30 H       -3.4590     4.0230     0.3990 H     1 <1>   0.0800 
 31 H       -1.1520    -0.2930    -2.3770 H     1 <1>   0.0800 
 32 H       -1.6210    -1.8210    -1.6800 H     1 <1>   0.0800 
 33 H       -0.5010    -0.7910    -0.8220 H     1 <1>   0.0800 
 34 H        0.0200     5.6560    -0.9780 H     1 <1>   0.0800 
 35 H        1.3230     4.9390    -0.0640 H     1 <1>   0.0800 
 36 H        0.3250     3.8010    -2.6030 H     1 <1>   0.0800 
 37 H        0.1120     2.1560    -2.0730 H     1 <1>   0.0800 
 38 H       -2.3470     5.6060     1.9810 H     1 <1>   0.0800 
 39 H       -2.2390     6.1330     0.3210 H     1 <1>   0.0800 
 40 H       -0.0490     6.3780     1.3670 H     1 <1>   0.0800 
 41 H       -0.0680     4.7220     1.8970 H     1 <1>   0.0800 
 42 H        1.7020     1.7140     0.1910 H     1 <1>   0.1500 
 43 H        2.5950     4.1700    -3.1800 H     1 <1>   0.1500 
 44 H        4.9910     3.8940    -2.7460 H     1 <1>   0.1500 
 45 H        5.7540     2.5280    -0.8490 H     1 <1>   0.1500 
 46 H        4.9100    -0.1950    -1.2550 H     1 <1>   0.1500 
 47 H        5.7600     0.8340     2.7910 H     1 <1>   0.1500 
 48 H        6.8770    -1.6700    -1.2970 H     1 <1>   0.1500 
 49 H        7.7310    -0.6510     2.7540 H     1 <1>   0.1500 
 50 H        8.2880    -1.8970     0.7060 H     1 <1>   0.1500 
@<TRIPOS>BOND
  1   1   2  2   
  2   2   3  1   
  3   2   4  1   
  4   3   5  1   
  5   4   6  1   
  6   4   7  1   
  7   4  26  1   
  8   5   8  1   
  9   5  27  1   
 10   5  28  1   
 11   6   9  1   
 12   6  10  1   
 13   7  11  1   
 14   7  29  1   
 15   7  30  1   
 16   8  31  1   
 17   8  32  1   
 18   8  33  1   
 19   9  12  1   
 20   9  34  1   
 21   9  35  1   
 22  10  13  1   
 23  10  36  1   
 24  10  37  1   
 25  11  12  1   
 26  11  38  1   
 27  11  39  1   
 28  12  40  1   
 29  12  41  1   
 30  13  14  ar  
 31  13  15  ar  
 32  14  16  ar  
 33  14  42  1   
 34  15  17  ar  
 35  15  43  1   
 36  16  18  1   
 37  16  19  ar  
 38  17  19  ar  
 39  17  44  1   
 40  18  20  1   
 41  19  45  1   
 42  20  21  ar  
 43  20  22  ar  
 44  21  23  ar  
 45  21  46  1   
 46  22  24  ar  
 47  22  47  1   
 48  23  25  ar  
 49  23  48  1   
 50  24  25  ar  
 51  24  49  1   
 52  25  50  1   
@<TRIPOS>SUBSTRUCTURE
  1 ****  14 GROUP 4 **** **** 0

# MOE 2024.06 (io_trps.svl 2023.06)
