@<TRIPOS>MOLECULE
NONAME
61 64 1 0 0 
SMALL
USER_CHARGES


@<TRIPOS>ATOM
  1 O       -1.3910    -0.6650     0.9100 O.3   1 <1>  -0.3630 
  2 C       -0.7870    -1.5440     0.0640 C.ar  1 <1>   0.0830 
  3 C       -0.7190     0.5430     1.1920 C.3   1 <1>   0.0400 
  4 C        0.4690    -2.0990     0.3470 C.ar  1 <1>   0.0830 
  5 C       -1.4640    -1.8970    -1.1010 C.ar  1 <1>  -0.1440 
  6 O        1.0820    -1.7790     1.5240 O.3   1 <1>  -0.3620 
  7 C        1.0460    -2.9730    -0.5700 C.ar  1 <1>  -0.1500 
  8 C       -0.8690    -2.7700    -1.9990 C.ar  1 <1>  -0.1500 
  9 C       -2.8510    -1.3410    -1.4060 C.3   1 <1>   0.2530 
 10 C        2.2980    -2.3750     1.9180 C.3   1 <1>   0.0400 
 11 C        0.3800    -3.3020    -1.7370 C.ar  1 <1>  -0.1500 
 12 N       -3.8880    -1.8930    -0.4950 N.3   1 <1>  -0.8100 
 13 C       -5.2860    -1.4170    -0.7310 C.3   1 <1>   0.1900 
 14 C       -3.8080    -3.3730    -0.4060 C.3   1 <1>   0.1100 
 15 C       -5.3800     0.1320    -0.8330 C.3   1 <1>  -0.0800 
 16 C       -6.2310    -1.9420     0.4000 C.3   1 <1>   0.4230 
 17 C       -4.8850    -4.0020     0.5010 C.3   1 <1>   0.3430 
 18 C       -4.8390     0.8670     0.4150 C.3   1 <1>  -0.1600 
 19 C       -6.8120     0.6200    -1.1440 C.3   1 <1>  -0.1600 
 20 N       -5.6250    -2.9690     1.2930 N.4   1 <1>  -0.9590 
 21 C       -7.5300    -2.6060    -0.0540 C.3   1 <1>  -0.1600 
 22 C       -4.8720     2.3890     0.2200 C.3   1 <1>  -0.1600 
 23 C       -6.8440     2.1400    -1.3500 C.3   1 <1>  -0.1600 
 24 C       -6.7420    -3.5420     2.0740 C.3   1 <1>   0.3430 
 25 C       -7.9450    -3.4910     1.1290 C.3   1 <1>  -0.1600 
 26 C       -6.2850     2.8760    -0.1250 C.3   1 <1>  -0.1600 
 27 H        0.0090     0.3700     1.9630 H     1 <1>   0.0800 
 28 H       -1.4440     1.2590     1.5330 H     1 <1>   0.0800 
 29 H       -0.2410     0.8990     0.2960 H     1 <1>   0.0800 
 30 H        2.0100    -3.4090    -0.3980 H     1 <1>   0.1500 
 31 H       -1.3730    -3.0430    -2.9100 H     1 <1>   0.1500 
 32 H       -3.1160    -1.5550    -2.4270 H     1 <1>   0.0800 
 33 H       -2.7940    -0.2730    -1.2950 H     1 <1>   0.0800 
 34 H        2.1660    -3.4420     1.9660 H     1 <1>   0.0800 
 35 H        2.5550    -1.9960     2.8910 H     1 <1>   0.0800 
 36 H        3.0630    -2.1110     1.2100 H     1 <1>   0.0800 
 37 H        0.8360    -3.9760    -2.4420 H     1 <1>   0.1500 
 38 H       -5.6190    -1.8210    -1.6720 H     1 <1>   0.0800 
 39 H       -2.8510    -3.6540     0.0000 H     1 <1>   0.0800 
 40 H       -3.8780    -3.8050    -1.3890 H     1 <1>   0.0800 
 41 H       -4.7900     0.4370    -1.6780 H     1 <1>   0.0800 
 42 H       -6.5050    -1.1010     1.0130 H     1 <1>   0.0800 
 43 H       -4.4140    -4.7090     1.1640 H     1 <1>   0.0800 
 44 H       -5.5780    -4.5460    -0.1170 H     1 <1>   0.0800 
 45 H       -3.8260     0.5680     0.6140 H     1 <1>   0.0800 
 46 H       -5.4230     0.6220     1.2830 H     1 <1>   0.0800 
 47 H       -7.4800     0.3830    -0.3360 H     1 <1>   0.0800 
 48 H       -7.1770     0.1410    -2.0370 H     1 <1>   0.0800 
 49 H       -4.9160    -2.4770     1.8590 H     1 <1>   0.4500 
 50 H       -7.3530    -3.2100    -0.9270 H     1 <1>   0.0800 
 51 H       -8.2840    -1.8750    -0.2900 H     1 <1>   0.0800 
 52 H       -4.1980     2.6610    -0.5750 H     1 <1>   0.0800 
 53 H       -4.5330     2.8760     1.1180 H     1 <1>   0.0800 
 54 H       -7.8560     2.4610    -1.5290 H     1 <1>   0.0800 
 55 H       -6.2610     2.3990    -2.2170 H     1 <1>   0.0800 
 56 H       -6.9350    -2.9240     2.9360 H     1 <1>   0.0800 
 57 H       -6.5260    -4.5480     2.3990 H     1 <1>   0.0800 
 58 H       -8.2040    -4.4810     0.7950 H     1 <1>   0.0800 
 59 H       -8.7920    -3.0770     1.6480 H     1 <1>   0.0800 
 60 H       -6.2620     3.9350    -0.3220 H     1 <1>   0.0800 
 61 H       -6.9350     2.7140     0.7180 H     1 <1>   0.0800 
@<TRIPOS>BOND
  1   1   2  1   
  2   1   3  1   
  3   2   4  ar  
  4   2   5  ar  
  5   3  27  1   
  6   3  28  1   
  7   3  29  1   
  8   4   6  1   
  9   4   7  ar  
 10   5   8  ar  
 11   5   9  1   
 12   6  10  1   
 13   7  11  ar  
 14   7  30  1   
 15   8  11  ar  
 16   8  31  1   
 17   9  12  1   
 18   9  32  1   
 19   9  33  1   
 20  10  34  1   
 21  10  35  1   
 22  10  36  1   
 23  11  37  1   
 24  12  13  1   
 25  12  14  1   
 26  13  15  1   
 27  13  16  1   
 28  13  38  1   
 29  14  17  1   
 30  14  39  1   
 31  14  40  1   
 32  15  18  1   
 33  15  19  1   
 34  15  41  1   
 35  16  20  1   
 36  16  21  1   
 37  16  42  1   
 38  17  20  1   
 39  17  43  1   
 40  17  44  1   
 41  18  22  1   
 42  18  45  1   
 43  18  46  1   
 44  19  23  1   
 45  19  47  1   
 46  19  48  1   
 47  20  24  1   
 48  20  49  1   
 49  21  25  1   
 50  21  50  1   
 51  21  51  1   
 52  22  26  1   
 53  22  52  1   
 54  22  53  1   
 55  23  26  1   
 56  23  54  1   
 57  23  55  1   
 58  24  25  1   
 59  24  56  1   
 60  24  57  1   
 61  25  58  1   
 62  25  59  1   
 63  26  60  1   
 64  26  61  1   
@<TRIPOS>SUBSTRUCTURE
  1 ****  12 GROUP 4 **** **** 0

# MOE 2024.06 (io_trps.svl 2023.06)
