@<TRIPOS>MOLECULE
NONAME
46 47 1 0 0 
SMALL
USER_CHARGES


@<TRIPOS>ATOM
  1 F        2.4990    -3.6420     2.4540 F     1 <1>  -0.1900 
  2 C        3.1920    -2.8750     1.6540 C.ar  1 <1>   0.1900 
  3 C        3.5670    -3.3670     0.4180 C.ar  1 <1>  -0.1500 
  4 C        3.5240    -1.6020     2.0740 C.ar  1 <1>  -0.1500 
  5 C        4.3040    -2.5550    -0.4280 C.ar  1 <1>  -0.1500 
  6 C        4.2620    -0.7970     1.2230 C.ar  1 <1>  -0.1500 
  7 C        4.6590    -1.2660    -0.0240 C.ar  1 <1>   0.0830 
  8 O        5.3900    -0.4070    -0.7790 O.3   1 <1>  -0.3630 
  9 C        5.9300    -0.7750    -2.0450 C.3   1 <1>   0.2610 
 10 C        7.0150    -1.8680    -1.9290 C.2   1 <1>   0.5690 
 11 C        6.4550     0.4910    -2.7490 C.3   1 <1>  -0.1600 
 12 O        7.0010    -2.7240    -2.7820 O.2   1 <1>  -0.5700 
 13 N        7.9660    -1.9150    -0.9260 N.am  1 <1>  -0.6600 
 14 C        5.3800     1.5760    -2.9220 C.3   1 <1>  -0.2400 
 15 C        8.8200    -3.1350    -0.7560 C.3   1 <1>   0.1400 
 16 C        8.1600    -0.8740     0.1350 C.3   1 <1>   0.1400 
 17 C       10.3000    -2.7640    -0.5640 C.3   1 <1>   0.3430 
 18 C        9.6520    -0.5480     0.3450 C.3   1 <1>   0.3430 
 19 N       10.4890    -1.7820     0.5580 N.4   1 <1>  -0.9590 
 20 C       11.9190    -1.4370     0.7360 C.3   1 <1>   0.4810 
 21 C       12.0420    -0.6290     2.0080 C.2   1 <1>  -0.2880 
 22 C       12.3810     0.6640     2.0750 C.2   1 <1>  -0.3000 
 23 H        3.2830    -4.3630     0.1280 H     1 <1>   0.1500 
 24 H        3.2090    -1.2530     3.0420 H     1 <1>   0.1500 
 25 H        4.5820    -2.9470    -1.3890 H     1 <1>   0.1500 
 26 H        4.5280     0.2010     1.5200 H     1 <1>   0.1500 
 27 H        5.1180    -1.1640    -2.6320 H     1 <1>   0.0800 
 28 H        6.8120     0.2080    -3.7240 H     1 <1>   0.0800 
 29 H        7.2890     0.8940    -2.2070 H     1 <1>   0.0800 
 30 H        4.5410     1.1910    -3.4750 H     1 <1>   0.0800 
 31 H        5.7850     2.4160    -3.4590 H     1 <1>   0.0800 
 32 H        5.0310     1.9230    -1.9650 H     1 <1>   0.0800 
 33 H        8.7390    -3.7820    -1.6130 H     1 <1>   0.0800 
 34 H        8.4710    -3.6920     0.0970 H     1 <1>   0.0800 
 35 H        7.7290    -1.2260     1.0560 H     1 <1>   0.0800 
 36 H        7.6580     0.0390    -0.1280 H     1 <1>   0.0800 
 37 H       10.6640    -2.3410    -1.4860 H     1 <1>   0.0800 
 38 H       10.8630    -3.6630    -0.3680 H     1 <1>   0.0800 
 39 H        9.7480     0.1120     1.1920 H     1 <1>   0.0800 
 40 H       10.0080    -0.0170    -0.5230 H     1 <1>   0.0800 
 41 H       10.1720    -2.2220     1.4300 H     1 <1>   0.4500 
 42 H       12.2680    -0.8590    -0.1040 H     1 <1>   0.0800 
 43 H       12.5190    -2.3300     0.8140 H     1 <1>   0.0800 
 44 H       11.8360    -1.2080     2.8930 H     1 <1>   0.1500 
 45 H       12.4680     1.2120     3.0000 H     1 <1>   0.1500 
 46 H       12.6090     1.2920     1.2290 H     1 <1>   0.1500 
@<TRIPOS>BOND
  1   1   2  1   
  2   2   3  ar  
  3   2   4  ar  
  4   3   5  ar  
  5   3  23  1   
  6   4   6  ar  
  7   4  24  1   
  8   5   7  ar  
  9   5  25  1   
 10   6   7  ar  
 11   6  26  1   
 12   7   8  1   
 13   8   9  1   
 14   9  10  1   
 15   9  11  1   
 16   9  27  1   
 17  10  12  2   
 18  10  13  am  
 19  11  14  1   
 20  11  28  1   
 21  11  29  1   
 22  13  15  1   
 23  13  16  1   
 24  14  30  1   
 25  14  31  1   
 26  14  32  1   
 27  15  17  1   
 28  15  33  1   
 29  15  34  1   
 30  16  18  1   
 31  16  35  1   
 32  16  36  1   
 33  17  19  1   
 34  17  37  1   
 35  17  38  1   
 36  18  19  1   
 37  18  39  1   
 38  18  40  1   
 39  19  20  1   
 40  19  41  1   
 41  20  21  1   
 42  20  42  1   
 43  20  43  1   
 44  21  22  2   
 45  21  44  1   
 46  22  45  1   
 47  22  46  1   
@<TRIPOS>SUBSTRUCTURE
  1 ****  16 GROUP 4 **** **** 0

# MOE 2024.06 (io_trps.svl 2023.06)
