@<TRIPOS>MOLECULE
NONAME
52 53 1 0 0 
SMALL
USER_CHARGES


@<TRIPOS>ATOM
  1 O       -2.2260    -0.4550     1.8980 O.2   1 <1>  -0.5700 
  2 C       -2.0040    -0.2420     0.7290 C.2   1 <1>   0.5690 
  3 N       -1.9020     1.0240     0.2380 N.am  1 <1>  -0.7300 
  4 C       -1.9880    -1.4610    -0.2180 C.3   1 <1>   0.4840 
  5 C       -2.4050     2.2020     0.9760 C.3   1 <1>   0.2840 
  6 N       -3.2140    -2.3020    -0.0610 N.4   1 <1>  -0.9590 
  7 C       -0.8560    -2.4450     0.0520 C.3   1 <1>  -0.1600 
  8 C       -3.8630     2.3750     0.5880 C.ar  1 <1>  -0.1430 
  9 C       -2.8920    -3.6760    -0.5270 C.3   1 <1>   0.3430 
 10 C       -4.4210    -1.6850    -0.6730 C.3   1 <1>   0.3430 
 11 C       -1.3700    -3.7910    -0.4620 C.3   1 <1>  -0.1600 
 12 C       -4.8280     1.5610     1.1620 C.ar  1 <1>  -0.1500 
 13 C       -4.2470     3.3310    -0.3420 C.ar  1 <1>  -0.1500 
 14 C       -5.6860    -2.3510    -0.1370 C.3   1 <1>  -0.1600 
 15 C       -6.1610     1.6830     0.8080 C.ar  1 <1>   0.0830 
 16 C       -5.5790     3.4610    -0.7000 C.ar  1 <1>  -0.1500 
 17 C       -6.9220    -1.7970    -0.8550 C.3   1 <1>  -0.1600 
 18 O       -7.0410     0.8530     1.4180 O.3   1 <1>  -0.3630 
 19 C       -6.5420     2.6370    -0.1420 C.ar  1 <1>   0.0830 
 20 C       -8.2100    -2.3570    -0.2470 C.3   1 <1>  -0.2400 
 21 C       -7.9240     1.4600     2.3350 C.3   1 <1>   0.0400 
 22 O       -7.8230     2.8190    -0.5490 O.3   1 <1>  -0.3630 
 23 C       -8.4770     1.7380    -1.1760 C.3   1 <1>   0.0400 
 24 H       -1.7480     1.2100    -0.7550 H     1 <1>   0.3700 
 25 H       -1.9200    -1.1210    -1.2370 H     1 <1>   0.0800 
 26 H       -1.8290     3.0730     0.7150 H     1 <1>   0.0800 
 27 H       -2.3200     2.0460     2.0400 H     1 <1>   0.0800 
 28 H       -3.3590    -2.3250     0.9630 H     1 <1>   0.4500 
 29 H       -0.6740    -2.5050     1.1130 H     1 <1>   0.0800 
 30 H        0.0560    -2.1420    -0.4340 H     1 <1>   0.0800 
 31 H       -3.2230    -3.8150    -1.5440 H     1 <1>   0.0800 
 32 H       -3.3660    -4.4130     0.1020 H     1 <1>   0.0800 
 33 H       -4.3820    -1.7840    -1.7460 H     1 <1>   0.0800 
 34 H       -4.4610    -0.6330    -0.4320 H     1 <1>   0.0800 
 35 H       -1.0730    -4.5980     0.1850 H     1 <1>   0.0800 
 36 H       -0.9900    -3.9920    -1.4490 H     1 <1>   0.0800 
 37 H       -4.5550     0.8270     1.9000 H     1 <1>   0.1500 
 38 H       -3.5170     3.9820    -0.7930 H     1 <1>   0.1500 
 39 H       -5.7730    -2.1460     0.9170 H     1 <1>   0.0800 
 40 H       -5.6500    -3.4150    -0.2860 H     1 <1>   0.0800 
 41 H       -5.8800     4.2050    -1.4150 H     1 <1>   0.1500 
 42 H       -6.8870    -2.0510    -1.9020 H     1 <1>   0.0800 
 43 H       -6.9390    -0.7250    -0.7730 H     1 <1>   0.0800 
 44 H       -8.2320    -3.4310    -0.3190 H     1 <1>   0.0800 
 45 H       -9.0650    -1.9640    -0.7690 H     1 <1>   0.0800 
 46 H       -8.2900    -2.0770     0.7890 H     1 <1>   0.0800 
 47 H       -8.5330     0.6930     2.7770 H     1 <1>   0.0800 
 48 H       -7.3470     1.9570     3.0960 H     1 <1>   0.0800 
 49 H       -8.5450     2.1700     1.8180 H     1 <1>   0.0800 
 50 H       -8.6850     0.9750    -0.4500 H     1 <1>   0.0800 
 51 H       -9.3990     2.1020    -1.5930 H     1 <1>   0.0800 
 52 H       -7.8460     1.3560    -1.9590 H     1 <1>   0.0800 
@<TRIPOS>BOND
  1   1   2  2   
  2   2   3  am  
  3   2   4  1   
  4   3   5  1   
  5   3  24  1   
  6   4   6  1   
  7   4   7  1   
  8   4  25  1   
  9   5   8  1   
 10   5  26  1   
 11   5  27  1   
 12   6   9  1   
 13   6  10  1   
 14   6  28  1   
 15   7  11  1   
 16   7  29  1   
 17   7  30  1   
 18   8  12  ar  
 19   8  13  ar  
 20   9  11  1   
 21   9  31  1   
 22   9  32  1   
 23  10  14  1   
 24  10  33  1   
 25  10  34  1   
 26  11  35  1   
 27  11  36  1   
 28  12  15  ar  
 29  12  37  1   
 30  13  16  ar  
 31  13  38  1   
 32  14  17  1   
 33  14  39  1   
 34  14  40  1   
 35  15  18  1   
 36  15  19  ar  
 37  16  19  ar  
 38  16  41  1   
 39  17  20  1   
 40  17  42  1   
 41  17  43  1   
 42  18  21  1   
 43  19  22  1   
 44  20  44  1   
 45  20  45  1   
 46  20  46  1   
 47  21  47  1   
 48  21  48  1   
 49  21  49  1   
 50  22  23  1   
 51  23  50  1   
 52  23  51  1   
 53  23  52  1   
@<TRIPOS>SUBSTRUCTURE
  1 ****  12 GROUP 4 **** **** 0

# MOE 2024.06 (io_trps.svl 2023.06)
