@<TRIPOS>MOLECULE
NONAME
48 49 1 0 0 
SMALL
USER_CHARGES


@<TRIPOS>ATOM
  1 O       -1.9350     0.1480     1.5360 O.3   1 <1>  -0.3630 
  2 C       -2.3260     0.9080     0.4860 C.ar  1 <1>   0.0830 
  3 C       -1.2370    -1.0480     1.2590 C.3   1 <1>   0.1200 
  4 C       -1.6200     2.0540     0.1160 C.ar  1 <1>   0.0830 
  5 C       -3.4770     0.5430    -0.1900 C.ar  1 <1>  -0.1500 
  6 C        0.2330    -0.7400     0.9780 C.3   1 <1>  -0.2400 
  7 O       -0.5070     2.3840     0.8300 O.3   1 <1>  -0.3620 
  8 C       -2.0800     2.8080    -0.9580 C.ar  1 <1>  -0.1500 
  9 C       -3.9490     1.3180    -1.2390 C.ar  1 <1>  -0.1440 
 10 C        0.3130     3.4740     0.4720 C.3   1 <1>   0.0400 
 11 C       -3.2350     2.4420    -1.6300 C.ar  1 <1>  -0.1500 
 12 C       -5.2510     0.9510    -1.9190 C.3   1 <1>   0.4860 
 13 N       -6.3470     1.2390    -0.9390 N.4   1 <1>  -0.9590 
 14 C       -7.6300     0.5550    -1.3390 C.3   1 <1>   0.3430 
 15 C       -6.4390     2.7200    -0.7330 C.3   1 <1>   0.3430 
 16 C       -8.5210     0.1320    -0.1330 C.3   1 <1>   0.3430 
 17 C       -7.6790     3.1730     0.0410 C.3   1 <1>  -0.1600 
 18 N       -9.0720     1.2420     0.7360 N.4   1 <1>  -0.9590 
 19 C       -8.0930     2.2720     1.2030 C.3   1 <1>   0.3430 
 20 C       -9.7690     0.6470     1.9270 C.3   1 <1>   0.2630 
 21 H       -1.6980    -1.5420     0.4210 H     1 <1>   0.0800 
 22 H       -1.3210    -1.6760     2.1290 H     1 <1>   0.0800 
 23 H       -3.9830    -0.3490     0.1320 H     1 <1>   0.1500 
 24 H        0.3320    -0.1640     0.0760 H     1 <1>   0.0800 
 25 H        0.7810    -1.6570     0.8570 H     1 <1>   0.0800 
 26 H        0.6580    -0.1920     1.8000 H     1 <1>   0.0800 
 27 H       -1.5520     3.6860    -1.2830 H     1 <1>   0.1500 
 28 H        1.1380     3.5090     1.1610 H     1 <1>   0.0800 
 29 H       -0.2590     4.3820     0.5450 H     1 <1>   0.0800 
 30 H        0.6800     3.3240    -0.5270 H     1 <1>   0.0800 
 31 H       -3.5620     3.0510    -2.4570 H     1 <1>   0.1500 
 32 H       -5.2310    -0.0960    -2.1750 H     1 <1>   0.0800 
 33 H       -5.3810     1.5260    -2.8220 H     1 <1>   0.0800 
 34 H       -5.9850     0.8330    -0.0640 H     1 <1>   0.4500 
 35 H       -7.3890    -0.3430    -1.8850 H     1 <1>   0.0800 
 36 H       -8.1950     1.1880    -2.0040 H     1 <1>   0.0800 
 37 H       -6.4300     3.2220    -1.6880 H     1 <1>   0.0800 
 38 H       -5.5600     3.0480    -0.1970 H     1 <1>   0.0800 
 39 H       -7.9470    -0.5430     0.4810 H     1 <1>   0.0800 
 40 H       -9.3510    -0.4370    -0.5220 H     1 <1>   0.0800 
 41 H       -8.5030     3.3310    -0.6330 H     1 <1>   0.0800 
 42 H       -7.4440     4.1410     0.4490 H     1 <1>   0.0800 
 43 H       -9.8050     1.7430     0.2060 H     1 <1>   0.4500 
 44 H       -8.5700     2.8880     1.9510 H     1 <1>   0.0800 
 45 H       -7.2330     1.8110     1.6610 H     1 <1>   0.0800 
 46 H       -9.0680     0.1180     2.5530 H     1 <1>   0.0800 
 47 H      -10.5370    -0.0420     1.6120 H     1 <1>   0.0800 
 48 H      -10.2340     1.4220     2.5170 H     1 <1>   0.0800 
@<TRIPOS>BOND
  1   1   2  1   
  2   1   3  1   
  3   2   4  ar  
  4   2   5  ar  
  5   3   6  1   
  6   3  21  1   
  7   3  22  1   
  8   4   7  1   
  9   4   8  ar  
 10   5   9  ar  
 11   5  23  1   
 12   6  24  1   
 13   6  25  1   
 14   6  26  1   
 15   7  10  1   
 16   8  11  ar  
 17   8  27  1   
 18   9  11  ar  
 19   9  12  1   
 20  10  28  1   
 21  10  29  1   
 22  10  30  1   
 23  11  31  1   
 24  12  13  1   
 25  12  32  1   
 26  12  33  1   
 27  13  14  1   
 28  13  15  1   
 29  13  34  1   
 30  14  16  1   
 31  14  35  1   
 32  14  36  1   
 33  15  17  1   
 34  15  37  1   
 35  15  38  1   
 36  16  18  1   
 37  16  39  1   
 38  16  40  1   
 39  17  19  1   
 40  17  41  1   
 41  17  42  1   
 42  18  19  1   
 43  18  20  1   
 44  18  43  1   
 45  19  44  1   
 46  19  45  1   
 47  20  46  1   
 48  20  47  1   
 49  20  48  1   
@<TRIPOS>SUBSTRUCTURE
  1 ****   5 GROUP 4 **** **** 0

# MOE 2024.06 (io_trps.svl 2023.06)
