@<TRIPOS>MOLECULE
NONAME
56 58 1 0 0 
SMALL
USER_CHARGES


@<TRIPOS>ATOM
  1 O       -2.2270    -0.7750     2.8380 O.2   1 <1>  -0.5700 
  2 C       -2.7780    -1.3090     1.8950 C.2   1 <1>   0.7060 
  3 O       -3.9620    -0.8250     1.5300 O.3   1 <1>  -0.2330 
  4 C       -2.2380    -2.4290     1.1720 C.2   1 <1>  -0.1240 
  5 C       -4.7100    -1.3460     0.5330 C.ar  1 <1>   0.0820 
  6 C       -2.9340    -2.9850     0.1430 C.2   1 <1>  -0.1670 
  7 C       -0.8570    -2.9160     1.6270 C.3   1 <1>   0.0390 
  8 C       -4.2300    -2.4500    -0.1900 C.ar  1 <1>   0.0280 
  9 C       -5.9470    -0.7660     0.2630 C.ar  1 <1>  -0.1440 
 10 C       -2.4110    -4.1490    -0.7050 C.3   1 <1>  -0.1020 
 11 C        0.2430    -2.3470     0.7560 C.2   1 <1>   0.6590 
 12 C       -5.0570    -2.9580    -1.1970 C.ar  1 <1>  -0.1500 
 13 C       -6.7450    -1.3060    -0.7380 C.ar  1 <1>   0.0830 
 14 C       -6.4100     0.4430     1.0780 C.3   1 <1>  -0.0960 
 15 O        0.9310    -3.0600     0.0710 O.2   1 <1>  -0.5700 
 16 O        0.4020    -1.0300     0.7870 O.3   1 <1>  -0.4300 
 17 C       -6.2880    -2.4000    -1.4680 C.ar  1 <1>  -0.1500 
 18 O       -7.9570    -0.7500    -0.9680 O.3   1 <1>  -0.3630 
 19 C        1.3860    -0.3770     0.0130 C.3   1 <1>   0.0400 
 20 C       -9.0020    -1.4700    -1.6060 C.3   1 <1>   0.1810 
 21 C      -10.3500    -0.7790    -1.4110 C.2   1 <1>   0.5690 
 22 O      -10.9340    -0.4360    -2.4150 O.2   1 <1>  -0.5700 
 23 N      -10.8890    -0.5840    -0.1590 N.am  1 <1>  -0.6600 
 24 C      -10.2380    -0.9840     1.1240 C.3   1 <1>   0.1400 
 25 C      -12.1910     0.1180     0.0200 C.3   1 <1>   0.1400 
 26 C      -11.1800    -1.8840     1.9400 C.3   1 <1>  -0.0800 
 27 C      -13.1520    -0.7680     0.8190 C.3   1 <1>  -0.1600 
 28 C      -12.5400    -1.2010     2.1590 C.3   1 <1>  -0.1600 
 29 C      -10.5450    -2.2520     3.2870 C.3   1 <1>  -0.2400 
 30 H       -0.8090    -3.9870     1.5960 H     1 <1>   0.0800 
 31 H       -0.6570    -2.6380     2.6450 H     1 <1>   0.0800 
 32 H       -3.0420    -5.0100    -0.5760 H     1 <1>   0.0800 
 33 H       -1.4070    -4.4380    -0.4620 H     1 <1>   0.0800 
 34 H       -2.4090    -3.8700    -1.7440 H     1 <1>   0.0800 
 35 H       -4.7440    -3.8010    -1.7840 H     1 <1>   0.1500 
 36 H       -5.5970     1.1320     1.2210 H     1 <1>   0.0800 
 37 H       -6.7600     0.1180     2.0410 H     1 <1>   0.0800 
 38 H       -7.2020     0.9790     0.5870 H     1 <1>   0.0800 
 39 H       -6.8800    -2.8210    -2.2580 H     1 <1>   0.1500 
 40 H        1.3240     0.6790     0.2050 H     1 <1>   0.0800 
 41 H        1.1990    -0.5780    -1.0270 H     1 <1>   0.0800 
 42 H        2.3550    -0.7510     0.2970 H     1 <1>   0.0800 
 43 H       -9.0470    -2.4580    -1.1880 H     1 <1>   0.0800 
 44 H       -8.7760    -1.5260    -2.6550 H     1 <1>   0.0800 
 45 H      -10.0060    -0.0950     1.6840 H     1 <1>   0.0800 
 46 H       -9.3180    -1.5110     0.9490 H     1 <1>   0.0800 
 47 H      -12.6320     0.3560    -0.9340 H     1 <1>   0.0800 
 48 H      -12.0200     1.0410     0.5450 H     1 <1>   0.0800 
 49 H      -11.3350    -2.7920     1.3830 H     1 <1>   0.0800 
 50 H      -13.3920    -1.6360     0.2290 H     1 <1>   0.0800 
 51 H      -14.0660    -0.2300     0.9950 H     1 <1>   0.0800 
 52 H      -12.4140    -0.3350     2.7850 H     1 <1>   0.0800 
 53 H      -13.2130    -1.8780     2.6580 H     1 <1>   0.0800 
 54 H      -10.3650    -1.3700     3.8770 H     1 <1>   0.0800 
 55 H       -9.6090    -2.7590     3.1330 H     1 <1>   0.0800 
 56 H      -11.1970    -2.9070     3.8390 H     1 <1>   0.0800 
@<TRIPOS>BOND
  1   1   2  2   
  2   2   3  1   
  3   2   4  1   
  4   3   5  1   
  5   4   6  2   
  6   4   7  1   
  7   5   8  ar  
  8   5   9  ar  
  9   6   8  1   
 10   6  10  1   
 11   7  11  1   
 12   7  30  1   
 13   7  31  1   
 14   8  12  ar  
 15   9  13  ar  
 16   9  14  1   
 17  10  32  1   
 18  10  33  1   
 19  10  34  1   
 20  11  15  2   
 21  11  16  1   
 22  12  17  ar  
 23  12  35  1   
 24  13  17  ar  
 25  13  18  1   
 26  14  36  1   
 27  14  37  1   
 28  14  38  1   
 29  16  19  1   
 30  17  39  1   
 31  18  20  1   
 32  19  40  1   
 33  19  41  1   
 34  19  42  1   
 35  20  21  1   
 36  20  43  1   
 37  20  44  1   
 38  21  22  2   
 39  21  23  am  
 40  23  24  1   
 41  23  25  1   
 42  24  26  1   
 43  24  45  1   
 44  24  46  1   
 45  25  27  1   
 46  25  47  1   
 47  25  48  1   
 48  26  28  1   
 49  26  29  1   
 50  26  49  1   
 51  27  28  1   
 52  27  50  1   
 53  27  51  1   
 54  28  52  1   
 55  28  53  1   
 56  29  54  1   
 57  29  55  1   
 58  29  56  1   
@<TRIPOS>SUBSTRUCTURE
  1 ****   9 GROUP 4 **** **** 0

# MOE 2024.06 (io_trps.svl 2023.06)
