@<TRIPOS>MOLECULE
NONAME
35 36 1 0 0 
SMALL
USER_CHARGES


@<TRIPOS>ATOM
  1 BR       1.2480    -1.4690    -3.2700 Br    1 <1>  -0.1110 
  2 C        2.2780    -1.7300    -1.6650 C.ar  1 <1>   0.1110 
  3 C        3.1940    -0.7570    -1.3020 C.ar  1 <1>  -0.1500 
  4 C        2.0710    -2.8850    -0.9240 C.ar  1 <1>  -0.1500 
  5 C        3.9210    -0.9670    -0.1410 C.ar  1 <1>  -0.1440 
  6 C        2.8120    -3.0830     0.2310 C.ar  1 <1>  -0.1500 
  7 C        3.7330    -2.1160     0.6080 C.ar  1 <1>   0.1170 
  8 C        4.9960    -0.0970     0.5160 C.3   1 <1>   0.4850 
  9 N        4.5770    -2.1060     1.7020 N.am  1 <1>  -0.5470 
 10 P        6.4710     0.1340    -0.5060 P.3   1 <1>   1.2420 
 11 O        4.3250     1.0880     0.9200 O.3   1 <1>  -0.6800 
 12 C        5.3340    -0.9800     1.7230 C.2   1 <1>   0.5690 
 13 O        6.2510     0.9670    -1.6920 O.2   1 <1>  -0.7000 
 14 O        7.6720     0.6960     0.4030 O.3   1 <1>  -0.5510 
 15 O        6.9810    -1.3390    -0.9000 O.3   1 <1>  -0.5510 
 16 O        6.1340    -0.7350     2.5940 O.2   1 <1>  -0.5700 
 17 C        7.5980     1.9520     0.9720 C.3   1 <1>   0.1200 
 18 C        8.1530    -1.4820    -1.6160 C.3   1 <1>   0.1200 
 19 C        8.9010     2.1930     1.7240 C.3   1 <1>  -0.2400 
 20 C        8.3610    -2.9710    -1.8670 C.3   1 <1>  -0.2400 
 21 H        3.3280     0.1190    -1.9130 H     1 <1>   0.1500 
 22 H        1.3470    -3.6100    -1.2500 H     1 <1>   0.1500 
 23 H        2.6790    -3.9680     0.8270 H     1 <1>   0.1500 
 24 H        4.6350    -2.8130     2.4360 H     1 <1>   0.3700 
 25 H        3.9510     1.5280     0.1320 H     1 <1>   0.4000 
 26 H        6.7610     1.9820     1.6500 H     1 <1>   0.0800 
 27 H        7.4650     2.6800     0.1880 H     1 <1>   0.0800 
 28 H        8.9650    -1.0720    -1.0390 H     1 <1>   0.0800 
 29 H        8.0580    -0.9440    -2.5450 H     1 <1>   0.0800 
 30 H        9.0220     1.4520     2.4940 H     1 <1>   0.0800 
 31 H        8.8810     3.1650     2.1830 H     1 <1>   0.0800 
 32 H        9.7340     2.1490     1.0460 H     1 <1>   0.0800 
 33 H        8.4440    -3.4950    -0.9320 H     1 <1>   0.0800 
 34 H        9.2670    -3.1210    -2.4250 H     1 <1>   0.0800 
 35 H        7.5390    -3.3700    -2.4330 H     1 <1>   0.0800 
@<TRIPOS>BOND
  1   1   2  1   
  2   2   3  ar  
  3   2   4  ar  
  4   3   5  ar  
  5   3  21  1   
  6   4   6  ar  
  7   4  22  1   
  8   5   7  ar  
  9   5   8  1   
 10   6   7  ar  
 11   6  23  1   
 12   7   9  1   
 13   8  10  1   
 14   8  11  1   
 15   8  12  1   
 16   9  12  am  
 17   9  24  1   
 18  10  13  2   
 19  10  14  1   
 20  10  15  1   
 21  11  25  1   
 22  12  16  2   
 23  14  17  1   
 24  15  18  1   
 25  17  19  1   
 26  17  26  1   
 27  17  27  1   
 28  18  20  1   
 29  18  28  1   
 30  18  29  1   
 31  19  30  1   
 32  19  31  1   
 33  19  32  1   
 34  20  33  1   
 35  20  34  1   
 36  20  35  1   
@<TRIPOS>SUBSTRUCTURE
  1 ****   8 GROUP 4 **** **** 0

# MOE 2024.06 (io_trps.svl 2023.06)
