@<TRIPOS>MOLECULE
NONAME
44 45 1 0 0 
SMALL
USER_CHARGES


@<TRIPOS>ATOM
  1 S       -0.6880     0.3080    -0.9070 S.o2  1 <1>   1.3330 
  2 O        0.2520    -0.3570    -1.7780 O.2   1 <1>  -0.6500 
  3 O       -1.1720     1.6320    -1.2220 O.2   1 <1>  -0.6500 
  4 N       -2.0310    -0.7060    -0.7160 N.am  1 <1>  -0.8490 
  5 C        0.0460     0.3780     0.7170 C.3   1 <1>  -0.1350 
  6 C       -3.0730    -0.1680     0.1690 C.3   1 <1>   0.1960 
  7 C       -1.7060    -2.1090    -0.4510 C.3   1 <1>   0.1960 
  8 C       -4.3650    -0.9820     0.0410 C.3   1 <1>  -0.0190 
  9 C       -2.9620    -2.9760    -0.5950 C.3   1 <1>  -0.1600 
 10 C       -5.4100    -0.4260     0.9940 C.2   1 <1>   0.5690 
 11 C       -4.1030    -2.4760     0.3020 C.3   1 <1>  -0.1600 
 12 O       -5.1190    -0.2460     2.1530 O.2   1 <1>  -0.5700 
 13 N       -6.6420    -0.1430     0.5130 N.am  1 <1>  -0.7300 
 14 C       -7.7820     0.3450     1.3040 C.3   1 <1>   0.2840 
 15 C       -9.0110    -0.4610     0.9160 C.ar  1 <1>  -0.1430 
 16 C       -9.6030    -0.2990    -0.3350 C.ar  1 <1>   0.0820 
 17 C       -9.5470    -1.3670     1.8180 C.ar  1 <1>  -0.1500 
 18 O       -9.0330     0.5880    -1.1940 O.3   1 <1>  -0.3630 
 19 C      -10.7350    -1.0440    -0.6600 C.ar  1 <1>  -0.1500 
 20 C      -10.6710    -2.1050     1.4880 C.ar  1 <1>  -0.1500 
 21 C       -9.6210     0.8930    -2.4400 C.3   1 <1>   0.0400 
 22 C      -11.2640    -1.9420     0.2490 C.ar  1 <1>  -0.1500 
 23 H        0.9190     1.0000     0.6900 H     1 <1>   0.0800 
 24 H        0.3370    -0.6010     1.0410 H     1 <1>   0.0800 
 25 H       -0.6430     0.7940     1.4240 H     1 <1>   0.0800 
 26 H       -3.2840     0.8550    -0.0970 H     1 <1>   0.0800 
 27 H       -2.7320    -0.1880     1.1910 H     1 <1>   0.0800 
 28 H       -1.3020    -2.2140     0.5410 H     1 <1>   0.0800 
 29 H       -0.9680    -2.4510    -1.1590 H     1 <1>   0.0800 
 30 H       -4.7240    -0.8620    -0.9650 H     1 <1>   0.0800 
 31 H       -2.7230    -3.9940    -0.3430 H     1 <1>   0.0800 
 32 H       -3.2740    -2.9590    -1.6250 H     1 <1>   0.0800 
 33 H       -4.9980    -3.0430     0.1100 H     1 <1>   0.0800 
 34 H       -3.8350    -2.6170     1.3360 H     1 <1>   0.0800 
 35 H       -6.8860    -0.3060    -0.4660 H     1 <1>   0.3700 
 36 H       -7.9450     1.3870     1.0880 H     1 <1>   0.0800 
 37 H       -7.5760     0.2440     2.3560 H     1 <1>   0.0800 
 38 H       -9.0910    -1.5040     2.7830 H     1 <1>   0.1500 
 39 H      -11.2160    -0.9430    -1.6140 H     1 <1>   0.1500 
 40 H      -11.0810    -2.8050     2.1940 H     1 <1>   0.1500 
 41 H       -9.0230     1.6500    -2.9160 H     1 <1>   0.0800 
 42 H      -10.6160     1.2660    -2.2740 H     1 <1>   0.0800 
 43 H       -9.6370     0.0050    -3.0460 H     1 <1>   0.0800 
 44 H      -12.1380    -2.5150    -0.0050 H     1 <1>   0.1500 
@<TRIPOS>BOND
  1   1   2  2   
  2   1   3  2   
  3   1   4  am  
  4   1   5  1   
  5   4   6  1   
  6   4   7  1   
  7   5  23  1   
  8   5  24  1   
  9   5  25  1   
 10   6   8  1   
 11   6  26  1   
 12   6  27  1   
 13   7   9  1   
 14   7  28  1   
 15   7  29  1   
 16   8  10  1   
 17   8  11  1   
 18   8  30  1   
 19   9  11  1   
 20   9  31  1   
 21   9  32  1   
 22  10  12  2   
 23  10  13  am  
 24  11  33  1   
 25  11  34  1   
 26  13  14  1   
 27  13  35  1   
 28  14  15  1   
 29  14  36  1   
 30  14  37  1   
 31  15  16  ar  
 32  15  17  ar  
 33  16  18  1   
 34  16  19  ar  
 35  17  20  ar  
 36  17  38  1   
 37  18  21  1   
 38  19  22  ar  
 39  19  39  1   
 40  20  22  ar  
 41  20  40  1   
 42  21  41  1   
 43  21  42  1   
 44  21  43  1   
 45  22  44  1   
@<TRIPOS>SUBSTRUCTURE
  1 ****  10 GROUP 4 **** **** 0

# MOE 2024.06 (io_trps.svl 2023.06)
