@<TRIPOS>MOLECULE
NONAME
32 32 1 0 0 
SMALL
USER_CHARGES


@<TRIPOS>ATOM
  1 O       -0.6930    -1.0600    -1.4900 O.2   1 <1>  -0.5700 
  2 C       -0.4730    -1.7840    -0.5380 C.2   1 <1>   0.5440 
  3 N        0.7520    -1.7190     0.0650 N.am  1 <1>  -0.7300 
  4 C       -1.5000    -2.6820    -0.0360 C.ar  1 <1>   0.0860 
  5 C        1.8740    -0.8670    -0.3730 C.3   1 <1>   0.1400 
  6 C       -2.8510    -2.3770    -0.1970 C.ar  1 <1>  -0.1500 
  7 C       -1.1800    -3.8730     0.6200 C.ar  1 <1>  -0.1500 
  8 C        3.1730    -1.6400    -0.1850 C.3   1 <1>  -0.2400 
  9 C       -3.8490    -3.2150     0.2870 C.ar  1 <1>   0.0830 
 10 C       -2.1650    -4.7140     1.1080 C.ar  1 <1>  -0.1500 
 11 O       -5.1790    -2.9730     0.1620 O.3   1 <1>  -0.3630 
 12 C       -3.4960    -4.3820     0.9420 C.ar  1 <1>  -0.1500 
 13 C       -5.7020    -1.8380    -0.4930 C.3   1 <1>   0.2000 
 14 C       -5.6830    -0.6550     0.4780 C.3   1 <1>  -0.2400 
 15 C       -7.1290    -2.1820    -0.9110 C.3   1 <1>  -0.2400 
 16 H        0.8980    -2.2160     0.9430 H     1 <1>   0.3700 
 17 H        1.8860     0.0370     0.2120 H     1 <1>   0.0800 
 18 H        1.7500    -0.6010    -1.4110 H     1 <1>   0.0800 
 19 H       -3.0930    -1.4660    -0.7100 H     1 <1>   0.1500 
 20 H       -0.1490    -4.1520     0.7440 H     1 <1>   0.1500 
 21 H        3.3210    -1.8850     0.8510 H     1 <1>   0.0800 
 22 H        4.0000    -1.0360    -0.5130 H     1 <1>   0.0800 
 23 H        3.1570    -2.5400    -0.7730 H     1 <1>   0.0800 
 24 H       -1.8990    -5.6270     1.6120 H     1 <1>   0.1500 
 25 H       -4.2710    -5.0270     1.3160 H     1 <1>   0.1500 
 26 H       -5.1160    -1.6390    -1.3730 H     1 <1>   0.0800 
 27 H       -6.2660    -0.8820     1.3530 H     1 <1>   0.0800 
 28 H       -6.1010     0.2140     0.0030 H     1 <1>   0.0800 
 29 H       -4.6780    -0.4230     0.7760 H     1 <1>   0.0800 
 30 H       -7.7260    -2.4180    -0.0490 H     1 <1>   0.0800 
 31 H       -7.1200    -3.0230    -1.5800 H     1 <1>   0.0800 
 32 H       -7.5740    -1.3470    -1.4210 H     1 <1>   0.0800 
@<TRIPOS>BOND
  1   1   2  2   
  2   2   3  am  
  3   2   4  1   
  4   3   5  1   
  5   3  16  1   
  6   4   6  ar  
  7   4   7  ar  
  8   5   8  1   
  9   5  17  1   
 10   5  18  1   
 11   6   9  ar  
 12   6  19  1   
 13   7  10  ar  
 14   7  20  1   
 15   8  21  1   
 16   8  22  1   
 17   8  23  1   
 18   9  11  1   
 19   9  12  ar  
 20  10  12  ar  
 21  10  24  1   
 22  11  13  1   
 23  12  25  1   
 24  13  14  1   
 25  13  15  1   
 26  13  26  1   
 27  14  27  1   
 28  14  28  1   
 29  14  29  1   
 30  15  30  1   
 31  15  31  1   
 32  15  32  1   
@<TRIPOS>SUBSTRUCTURE
  1 ****   6 GROUP 4 **** **** 0

# MOE 2024.06 (io_trps.svl 2023.06)
