@<TRIPOS>MOLECULE
NONAME
46 48 1 0 0 
SMALL
USER_CHARGES


@<TRIPOS>ATOM
  1 CL      -0.8230     0.6440    -1.7930 Cl    1 <1>  -0.1770 
  2 C       -2.0140    -0.3580    -0.9910 C.ar  1 <1>   0.1770 
  3 C       -3.3090     0.0980    -0.7670 C.ar  1 <1>  -0.1440 
  4 C       -1.6010    -1.6140    -0.5900 C.ar  1 <1>  -0.1500 
  5 C       -4.2080    -0.7420    -0.1020 C.ar  1 <1>   0.1170 
  6 C       -3.7470     1.4880    -1.2370 C.3   1 <1>  -0.0970 
  7 C       -2.4930    -2.4440     0.0610 C.ar  1 <1>  -0.1500 
  8 N       -5.5100    -0.2910     0.1740 N.am  1 <1>  -0.5470 
  9 C       -3.7800    -2.0050     0.3020 C.ar  1 <1>  -0.1500 
 10 C       -6.7030    -0.9670     0.2960 C.2   1 <1>   0.5440 
 11 O       -6.7460    -2.1740     0.1880 O.2   1 <1>  -0.5700 
 12 C       -7.9240    -0.2280     0.5540 C.ar  1 <1>   0.0860 
 13 C       -8.8800    -0.7270     1.4370 C.ar  1 <1>  -0.1500 
 14 C       -8.2010     0.9920    -0.0650 C.ar  1 <1>  -0.1500 
 15 C      -10.0560    -0.0480     1.6930 C.ar  1 <1>  -0.1500 
 16 C       -9.3770     1.6770     0.1840 C.ar  1 <1>  -0.1500 
 17 C      -10.3190     1.1570     1.0600 C.ar  1 <1>  -0.1430 
 18 C      -11.6270     1.8840     1.3150 C.3   1 <1>   0.4860 
 19 N      -12.5330     1.6530     0.1570 N.4   1 <1>  -0.9590 
 20 C      -13.7870     2.4780     0.2530 C.3   1 <1>   0.3430 
 21 C      -12.8680     0.1920    -0.0110 C.3   1 <1>   0.3430 
 22 C      -14.7690     2.1490    -0.8890 C.3   1 <1>   0.1200 
 23 C      -13.8930    -0.0260    -1.1390 C.3   1 <1>   0.1200 
 24 O      -15.0200     0.7750    -0.9290 O.3   1 <1>  -0.5600 
 25 H       -0.5930    -1.9330    -0.7840 H     1 <1>   0.1500 
 26 H       -3.0840     1.8890    -1.9800 H     1 <1>   0.0800 
 27 H       -3.7680     2.1660    -0.4020 H     1 <1>   0.0800 
 28 H       -4.7240     1.4430    -1.6820 H     1 <1>   0.0800 
 29 H       -2.1880    -3.4260     0.3800 H     1 <1>   0.1500 
 30 H       -5.5750     0.7170     0.2900 H     1 <1>   0.3700 
 31 H       -4.4590    -2.6590     0.8190 H     1 <1>   0.1500 
 32 H       -8.6860    -1.6690     1.9260 H     1 <1>   0.1500 
 33 H       -7.4900     1.4030    -0.7610 H     1 <1>   0.1500 
 34 H      -10.7580    -0.4760     2.3900 H     1 <1>   0.1500 
 35 H       -9.5450     2.6180    -0.3150 H     1 <1>   0.1500 
 36 H      -11.4320     2.9380     1.4310 H     1 <1>   0.0800 
 37 H      -12.0800     1.5190     2.2230 H     1 <1>   0.0800 
 38 H      -12.0210     1.9360    -0.6870 H     1 <1>   0.4500 
 39 H      -13.5440     3.5270     0.2210 H     1 <1>   0.0800 
 40 H      -14.2840     2.2800     1.1890 H     1 <1>   0.0800 
 41 H      -13.2850    -0.1950     0.9030 H     1 <1>   0.0800 
 42 H      -11.9740    -0.3700    -0.2310 H     1 <1>   0.0800 
 43 H      -14.3790     2.4600    -1.8430 H     1 <1>   0.0800 
 44 H      -15.7090     2.6480    -0.7250 H     1 <1>   0.0800 
 45 H      -14.2190    -1.0520    -1.1500 H     1 <1>   0.0800 
 46 H      -13.4730     0.2090    -2.1020 H     1 <1>   0.0800 
@<TRIPOS>BOND
  1   1   2  1   
  2   2   3  ar  
  3   2   4  ar  
  4   3   5  ar  
  5   3   6  1   
  6   4   7  ar  
  7   4  25  1   
  8   5   8  1   
  9   5   9  ar  
 10   6  26  1   
 11   6  27  1   
 12   6  28  1   
 13   7   9  ar  
 14   7  29  1   
 15   8  10  am  
 16   8  30  1   
 17   9  31  1   
 18  10  11  2   
 19  10  12  1   
 20  12  13  ar  
 21  12  14  ar  
 22  13  15  ar  
 23  13  32  1   
 24  14  16  ar  
 25  14  33  1   
 26  15  17  ar  
 27  15  34  1   
 28  16  17  ar  
 29  16  35  1   
 30  17  18  1   
 31  18  19  1   
 32  18  36  1   
 33  18  37  1   
 34  19  20  1   
 35  19  21  1   
 36  19  38  1   
 37  20  22  1   
 38  20  39  1   
 39  20  40  1   
 40  21  23  1   
 41  21  41  1   
 42  21  42  1   
 43  22  24  1   
 44  22  43  1   
 45  22  44  1   
 46  23  24  1   
 47  23  45  1   
 48  23  46  1   
@<TRIPOS>SUBSTRUCTURE
  1 ****  12 GROUP 4 **** **** 0

# MOE 2024.06 (io_trps.svl 2023.06)
