@<TRIPOS>MOLECULE
NONAME
42 44 1 0 0 
SMALL
USER_CHARGES


@<TRIPOS>ATOM
  1 CL      -0.1280     2.8530    -2.5290 Cl    1 <1>  -0.1770 
  2 C        0.7000     2.8220    -0.9900 C.ar  1 <1>   0.1770 
  3 C        0.0000     2.8090     0.2220 C.ar  1 <1>   0.0860 
  4 C        2.0800     2.7990    -1.0470 C.ar  1 <1>  -0.1500 
  5 C       -1.4470     2.8360     0.3440 C.2   1 <1>   0.5440 
  6 C        0.7830     2.7610     1.3790 C.ar  1 <1>  -0.1500 
  7 C        2.8370     2.7560     0.1170 C.ar  1 <1>  -0.0230 
  8 O       -1.9800     2.2840     1.2860 O.2   1 <1>  -0.5700 
  9 N       -2.2420     3.5010    -0.5460 N.am  1 <1>  -0.7300 
 10 C        2.1650     2.7360     1.3340 C.ar  1 <1>  -0.1500 
 11 N        4.2550     2.7310     0.0670 N.pl3 1 <1>   0.3260 
 12 C       -3.7240     3.5720    -0.4970 C.3   1 <1>   0.1400 
 13 C        5.0640     2.0030    -0.7160 C.2   1 <1>   0.0360 
 14 C        5.1430     3.4330     0.7850 C.2   1 <1>   0.0360 
 15 C       -4.1650     4.9860    -0.1150 C.3   1 <1>  -0.0220 
 16 N        6.3100     2.2400    -0.4960 N.2   1 <1>  -0.3380 
 17 N        6.3600     3.1600     0.4700 N.2   1 <1>  -0.3380 
 18 C       -5.6820     5.1220    -0.1340 C.2   1 <1>  -0.2760 
 19 C       -6.3360     5.7760    -1.1000 C.2   1 <1>  -0.2880 
 20 C       -6.3990     4.4720     1.0480 C.3   1 <1>  -0.0220 
 21 C       -7.8430     5.9670    -1.1410 C.3   1 <1>  -0.0220 
 22 C       -7.9100     4.3460     0.8000 C.3   1 <1>  -0.1600 
 23 C       -8.4860     5.6410     0.2140 C.3   1 <1>  -0.1600 
 24 H        2.5620     2.8160    -2.0100 H     1 <1>   0.1500 
 25 H        0.2870     2.7400     2.3370 H     1 <1>   0.1500 
 26 H       -1.8170     3.9060    -1.3840 H     1 <1>   0.3700 
 27 H        2.7200     2.6940     2.2580 H     1 <1>   0.1500 
 28 H       -4.1010     2.8630     0.2190 H     1 <1>   0.0800 
 29 H       -4.1250     3.3160    -1.4630 H     1 <1>   0.0800 
 30 H        4.6910     1.3020    -1.4380 H     1 <1>   0.1500 
 31 H        4.8470     4.1430     1.5340 H     1 <1>   0.1500 
 32 H       -3.7420     5.6810    -0.8180 H     1 <1>   0.0800 
 33 H       -3.7930     5.2300     0.8650 H     1 <1>   0.0800 
 34 H       -5.8390     6.2270    -1.9420 H     1 <1>   0.1500 
 35 H       -6.2270     5.0710     1.9250 H     1 <1>   0.0800 
 36 H       -6.0040     3.4900     1.2390 H     1 <1>   0.0800 
 37 H       -8.2520     5.3270    -1.9030 H     1 <1>   0.0800 
 38 H       -8.0710     6.9860    -1.4020 H     1 <1>   0.0800 
 39 H       -8.4060     4.1060     1.7240 H     1 <1>   0.0800 
 40 H       -8.0850     3.5400     0.1090 H     1 <1>   0.0800 
 41 H       -9.5520     5.5510     0.0950 H     1 <1>   0.0800 
 42 H       -8.2930     6.4500     0.8970 H     1 <1>   0.0800 
@<TRIPOS>BOND
  1   1   2  1   
  2   2   3  ar  
  3   2   4  ar  
  4   3   5  1   
  5   3   6  ar  
  6   4   7  ar  
  7   4  24  1   
  8   5   8  2   
  9   5   9  am  
 10   6  10  ar  
 11   6  25  1   
 12   7  10  ar  
 13   7  11  1   
 14   9  12  1   
 15   9  26  1   
 16  10  27  1   
 17  11  13  1   
 18  11  14  1   
 19  12  15  1   
 20  12  28  1   
 21  12  29  1   
 22  13  16  2   
 23  13  30  1   
 24  14  17  2   
 25  14  31  1   
 26  15  18  1   
 27  15  32  1   
 28  15  33  1   
 29  16  17  1   
 30  18  19  2   
 31  18  20  1   
 32  19  21  1   
 33  19  34  1   
 34  20  22  1   
 35  20  35  1   
 36  20  36  1   
 37  21  23  1   
 38  21  37  1   
 39  21  38  1   
 40  22  23  1   
 41  22  39  1   
 42  22  40  1   
 43  23  41  1   
 44  23  42  1   
@<TRIPOS>SUBSTRUCTURE
  1 ****   5 GROUP 4 **** **** 0

# MOE 2024.06 (io_trps.svl 2023.06)
