@<TRIPOS>MOLECULE
NONAME
51 52 1 0 0 
SMALL
USER_CHARGES


@<TRIPOS>ATOM
  1 O       -0.6750    -0.3780     0.6580 O.3   1 <1>  -0.5600 
  2 C       -0.6060     0.4580    -0.4660 C.3   1 <1>   0.1200 
  3 C       -1.0320    -1.7020     0.3670 C.3   1 <1>   0.1200 
  4 C       -1.9420     0.4650    -1.2470 C.3   1 <1>   0.3430 
  5 C       -2.4180    -1.7680    -0.3170 C.3   1 <1>   0.3430 
  6 N       -2.9750    -0.3930    -0.5740 N.4   1 <1>  -0.9590 
  7 C       -4.2780    -0.3810    -1.2890 C.3   1 <1>   0.3430 
  8 C       -5.3800    -0.9620    -0.4020 C.3   1 <1>  -0.1600 
  9 C       -6.7520    -0.8400    -1.0790 C.3   1 <1>  -0.1600 
 10 C       -7.8550    -1.4210    -0.1840 C.3   1 <1>  -0.1600 
 11 C       -9.2320    -1.3050    -0.8390 C.3   1 <1>   0.1200 
 12 O      -10.1750    -1.8600     0.0450 O.3   1 <1>  -0.3630 
 13 C      -11.5030    -1.9130    -0.2520 C.ar  1 <1>   0.0830 
 14 C      -12.3620    -2.4960     0.6820 C.ar  1 <1>  -0.1430 
 15 C      -12.0150    -1.4140    -1.4470 C.ar  1 <1>  -0.1500 
 16 C      -13.7220    -2.5890     0.3970 C.ar  1 <1>  -0.1430 
 17 C      -11.8060    -3.0370     2.0010 C.3   1 <1>  -0.0970 
 18 C      -13.3670    -1.4960    -1.7220 C.ar  1 <1>  -0.1430 
 19 C      -14.2100    -2.0860    -0.7990 C.ar  1 <1>  -0.1500 
 20 C      -14.7080    -3.2350     1.3610 C.3   1 <1>  -0.0970 
 21 C      -13.9250    -0.9520    -3.0250 C.3   1 <1>  -0.0970 
 22 H        0.2020     0.1250    -1.0950 H     1 <1>   0.0800 
 23 H       -0.3740     1.4510    -0.1210 H     1 <1>   0.0800 
 24 H       -1.0490    -2.2490     1.2940 H     1 <1>   0.0800 
 25 H       -0.2740    -2.1330    -0.2640 H     1 <1>   0.0800 
 26 H       -1.7620     0.1090    -2.2470 H     1 <1>   0.0800 
 27 H       -2.2960     1.4800    -1.3230 H     1 <1>   0.0800 
 28 H       -3.0890    -2.3240     0.3160 H     1 <1>   0.0800 
 29 H       -2.3250    -2.3090    -1.2440 H     1 <1>   0.0800 
 30 H       -3.0940     0.0250     0.3620 H     1 <1>   0.4500 
 31 H       -4.2060    -0.9470    -2.2040 H     1 <1>   0.0800 
 32 H       -4.5400     0.6350    -1.5420 H     1 <1>   0.0800 
 33 H       -5.4070    -0.4310     0.5340 H     1 <1>   0.0800 
 34 H       -5.1880    -2.0020    -0.2060 H     1 <1>   0.0800 
 35 H       -6.7460    -1.3690    -2.0180 H     1 <1>   0.0800 
 36 H       -6.9700     0.1970    -1.2780 H     1 <1>   0.0800 
 37 H       -7.8770    -0.8940     0.7550 H     1 <1>   0.0800 
 38 H       -7.6560    -2.4610     0.0110 H     1 <1>   0.0800 
 39 H       -9.2680    -1.8580    -1.7610 H     1 <1>   0.0800 
 40 H       -9.4930    -0.2740    -1.0060 H     1 <1>   0.0800 
 41 H      -11.3740    -0.9600    -2.1770 H     1 <1>   0.1500 
 42 H      -10.8820    -2.5580     2.2660 H     1 <1>   0.0800 
 43 H      -11.6300    -4.0930     1.9110 H     1 <1>   0.0800 
 44 H      -12.4920    -2.8620     2.8090 H     1 <1>   0.0800 
 45 H      -15.2610    -2.1540    -1.0180 H     1 <1>   0.1500 
 46 H      -14.3470    -4.2000     1.6690 H     1 <1>   0.0800 
 47 H      -15.6680    -3.3710     0.8990 H     1 <1>   0.0800 
 48 H      -14.8330    -2.6120     2.2280 H     1 <1>   0.0800 
 49 H      -13.2900    -0.1780    -3.4160 H     1 <1>   0.0800 
 50 H      -14.9050    -0.5380    -2.8670 H     1 <1>   0.0800 
 51 H      -13.9950    -1.7440    -3.7480 H     1 <1>   0.0800 
@<TRIPOS>BOND
  1   1   2  1   
  2   1   3  1   
  3   2   4  1   
  4   2  22  1   
  5   2  23  1   
  6   3   5  1   
  7   3  24  1   
  8   3  25  1   
  9   4   6  1   
 10   4  26  1   
 11   4  27  1   
 12   5   6  1   
 13   5  28  1   
 14   5  29  1   
 15   6   7  1   
 16   6  30  1   
 17   7   8  1   
 18   7  31  1   
 19   7  32  1   
 20   8   9  1   
 21   8  33  1   
 22   8  34  1   
 23   9  10  1   
 24   9  35  1   
 25   9  36  1   
 26  10  11  1   
 27  10  37  1   
 28  10  38  1   
 29  11  12  1   
 30  11  39  1   
 31  11  40  1   
 32  12  13  1   
 33  13  14  ar  
 34  13  15  ar  
 35  14  16  ar  
 36  14  17  1   
 37  15  18  ar  
 38  15  41  1   
 39  16  19  ar  
 40  16  20  1   
 41  17  42  1   
 42  17  43  1   
 43  17  44  1   
 44  18  19  ar  
 45  18  21  1   
 46  19  45  1   
 47  20  46  1   
 48  20  47  1   
 49  20  48  1   
 50  21  49  1   
 51  21  50  1   
 52  21  51  1   
@<TRIPOS>SUBSTRUCTURE
  1 ****  10 GROUP 4 **** **** 0

# MOE 2024.06 (io_trps.svl 2023.06)
