@<TRIPOS>MOLECULE
NONAME
43 45 1 0 0 
SMALL
USER_CHARGES


@<TRIPOS>ATOM
  1 O        3.9860    -5.8260    -0.1160 O.3   1 <1>  -0.3630 
  2 C        5.2620    -5.4260    -0.3470 C.ar  1 <1>   0.0830 
  3 C        2.8940    -5.3280    -0.8510 C.3   1 <1>   0.1200 
  4 C        6.2690    -5.9890     0.4800 C.ar  1 <1>   0.0000 
  5 C        5.5920    -4.5170    -1.3280 C.ar  1 <1>  -0.1500 
  6 C        1.6260    -5.9810    -0.3030 C.3   1 <1>  -0.1600 
  7 C        7.6120    -5.5970     0.2770 C.ar  1 <1>   0.0000 
  8 C        6.0000    -6.9260     1.5020 C.ar  1 <1>  -0.1500 
  9 C        6.9220    -4.1360    -1.5230 C.ar  1 <1>  -0.1500 
 10 C        0.3820    -5.4450    -1.0160 C.3   1 <1>   0.1100 
 11 C        7.9070    -4.6650    -0.7370 C.ar  1 <1>  -0.1500 
 12 C        8.6180    -6.1510     1.0950 C.ar  1 <1>  -0.1500 
 13 C        6.9950    -7.4480     2.2810 C.ar  1 <1>  -0.1500 
 14 N       -0.8130    -6.2140    -0.6280 N.3   1 <1>  -0.8100 
 15 C        8.3210    -7.0560     2.0760 C.ar  1 <1>  -0.1500 
 16 C       -1.2660    -5.9190     0.7500 C.3   1 <1>   0.1100 
 17 C       -1.9010    -6.0360    -1.6090 C.3   1 <1>   0.1100 
 18 C       -2.4780    -6.7890     1.1370 C.3   1 <1>   0.3430 
 19 C       -3.1220    -6.9100    -1.2550 C.3   1 <1>   0.3430 
 20 N       -3.5960    -6.6520     0.1450 N.4   1 <1>  -0.9060 
 21 H        3.0400    -5.5790    -1.8870 H     1 <1>   0.0800 
 22 H        2.8620    -4.2600    -0.7230 H     1 <1>   0.0800 
 23 H        4.8540    -4.0760    -1.9700 H     1 <1>   0.1500 
 24 H        1.5710    -5.7730     0.7490 H     1 <1>   0.0800 
 25 H        1.6920    -7.0440    -0.4570 H     1 <1>   0.0800 
 26 H        4.9810    -7.2310     1.6610 H     1 <1>   0.1500 
 27 H        7.1560    -3.4250    -2.2950 H     1 <1>   0.1500 
 28 H        0.5370    -5.5470    -2.0770 H     1 <1>   0.0800 
 29 H        0.2440    -4.3980    -0.7970 H     1 <1>   0.0800 
 30 H        8.9320    -4.3750    -0.8830 H     1 <1>   0.1500 
 31 H        9.6350    -5.8450     0.9320 H     1 <1>   0.1500 
 32 H        6.7720    -8.1620     3.0550 H     1 <1>   0.1500 
 33 H        9.0940    -7.4740     2.6970 H     1 <1>   0.1500 
 34 H       -1.5180    -4.8760     0.8410 H     1 <1>   0.0800 
 35 H       -0.4720    -6.1280     1.4460 H     1 <1>   0.0800 
 36 H       -1.5480    -6.3240    -2.5850 H     1 <1>   0.0800 
 37 H       -2.1930    -5.0000    -1.6550 H     1 <1>   0.0800 
 38 H       -2.8180    -6.5110     2.1210 H     1 <1>   0.0800 
 39 H       -2.1530    -7.8170     1.1760 H     1 <1>   0.0800 
 40 H       -2.8340    -7.9440    -1.3550 H     1 <1>   0.0800 
 41 H       -3.9160    -6.7160    -1.9570 H     1 <1>   0.0800 
 42 H       -3.9700    -5.6980     0.1990 H     1 <1>   0.4500 
 43 H       -4.3560    -7.3000     0.3830 H     1 <1>   0.4500 
@<TRIPOS>BOND
  1   1   2  1   
  2   1   3  1   
  3   2   4  ar  
  4   2   5  ar  
  5   3   6  1   
  6   3  21  1   
  7   3  22  1   
  8   4   7  ar  
  9   4   8  ar  
 10   5   9  ar  
 11   5  23  1   
 12   6  10  1   
 13   6  24  1   
 14   6  25  1   
 15   7  11  ar  
 16   7  12  ar  
 17   8  13  ar  
 18   8  26  1   
 19   9  11  ar  
 20   9  27  1   
 21  10  14  1   
 22  10  28  1   
 23  10  29  1   
 24  11  30  1   
 25  12  15  ar  
 26  12  31  1   
 27  13  15  ar  
 28  13  32  1   
 29  14  16  1   
 30  14  17  1   
 31  15  33  1   
 32  16  18  1   
 33  16  34  1   
 34  16  35  1   
 35  17  19  1   
 36  17  36  1   
 37  17  37  1   
 38  18  20  1   
 39  18  38  1   
 40  18  39  1   
 41  19  20  1   
 42  19  40  1   
 43  19  41  1   
 44  20  42  1   
 45  20  43  1   
@<TRIPOS>SUBSTRUCTURE
  1 ****   1 GROUP 4 **** **** 0

# MOE 2024.06 (io_trps.svl 2023.06)
