@<TRIPOS>MOLECULE
NONAME
45 47 1 0 0 
SMALL
USER_CHARGES


@<TRIPOS>ATOM
  1 O        1.9170     0.3990     1.9290 O.3   1 <1>  -0.3630 
  2 C        2.7760    -0.3770     1.2270 C.ar  1 <1>   0.0830 
  3 C        2.1740     1.7670     2.1560 C.3   1 <1>   0.0400 
  4 C        4.0080     0.0350     0.7760 C.ar  1 <1>  -0.1500 
  5 C        2.3480    -1.6790     0.9580 C.ar  1 <1>  -0.1500 
  6 C        4.8500    -0.8220     0.0510 C.ar  1 <1>   0.3100 
  7 C        3.1400    -2.5360     0.2440 C.ar  1 <1>  -0.1500 
  8 N        6.0590    -0.3390    -0.3350 N.ar  1 <1>  -0.6200 
  9 C        4.4050    -2.1360    -0.2370 C.ar  1 <1>   0.0000 
 10 C        6.8090    -1.1360    -1.0420 C.ar  1 <1>   0.4100 
 11 C        5.2570    -2.9690    -0.9950 C.ar  1 <1>  -0.1430 
 12 N        8.0360    -0.6540    -1.4310 N.pl3 1 <1>  -0.8380 
 13 C        6.4490    -2.4470    -1.3900 C.ar  1 <1>  -0.1500 
 14 C        4.8640    -4.3910    -1.3700 C.3   1 <1>  -0.0970 
 15 C        9.2440    -0.9460    -0.5990 C.3   1 <1>   0.2090 
 16 C        8.1340     0.4500    -2.4230 C.3   1 <1>   0.2090 
 17 C        9.2780    -0.0880     0.6860 C.3   1 <1>   0.3430 
 18 C        8.0090     1.8330    -1.7660 C.3   1 <1>  -0.1600 
 19 N        8.4370     1.1430     0.5510 N.4   1 <1>  -0.9590 
 20 C        8.8870     2.0510    -0.5320 C.3   1 <1>   0.3430 
 21 C        8.1790     1.8260     1.8470 C.3   1 <1>   0.2630 
 22 H        1.3340     2.1790     2.6870 H     1 <1>   0.0800 
 23 H        2.2860     2.2630     1.2090 H     1 <1>   0.0800 
 24 H        3.0640     1.8610     2.7520 H     1 <1>   0.0800 
 25 H        4.3680     1.0260     0.9620 H     1 <1>   0.1500 
 26 H        1.3830    -1.9840     1.3230 H     1 <1>   0.1500 
 27 H        2.7880    -3.5310     0.0450 H     1 <1>   0.1500 
 28 H        7.1480    -3.0110    -1.9780 H     1 <1>   0.1500 
 29 H        4.7060    -4.9770    -0.4820 H     1 <1>   0.0800 
 30 H        5.6360    -4.8620    -1.9530 H     1 <1>   0.0800 
 31 H        3.9600    -4.3830    -1.9520 H     1 <1>   0.0800 
 32 H       10.1320    -0.7610    -1.1780 H     1 <1>   0.0800 
 33 H        9.2520    -1.9880    -0.3270 H     1 <1>   0.0800 
 34 H        7.3480     0.3340    -3.1530 H     1 <1>   0.0800 
 35 H        9.0730     0.3720    -2.9450 H     1 <1>   0.0800 
 36 H       10.2950     0.1690     0.9300 H     1 <1>   0.0800 
 37 H        8.8870    -0.6880     1.4900 H     1 <1>   0.0800 
 38 H        6.9800     2.0100    -1.5100 H     1 <1>   0.0800 
 39 H        8.2710     2.5700    -2.5030 H     1 <1>   0.0800 
 40 H        7.5370     0.7410     0.1860 H     1 <1>   0.4500 
 41 H        8.7890     3.0760    -0.2120 H     1 <1>   0.0800 
 42 H        9.9220     1.8680    -0.7730 H     1 <1>   0.0800 
 43 H        9.0960     2.2200     2.2520 H     1 <1>   0.0800 
 44 H        7.7560     1.1300     2.5540 H     1 <1>   0.0800 
 45 H        7.4830     2.6360     1.7070 H     1 <1>   0.0800 
@<TRIPOS>BOND
  1   1   2  1   
  2   1   3  1   
  3   2   4  ar  
  4   2   5  ar  
  5   3  22  1   
  6   3  23  1   
  7   3  24  1   
  8   4   6  ar  
  9   4  25  1   
 10   5   7  ar  
 11   5  26  1   
 12   6   8  ar  
 13   6   9  ar  
 14   7   9  ar  
 15   7  27  1   
 16   8  10  ar  
 17   9  11  ar  
 18  10  12  1   
 19  10  13  ar  
 20  11  13  ar  
 21  11  14  1   
 22  12  15  1   
 23  12  16  1   
 24  13  28  1   
 25  14  29  1   
 26  14  30  1   
 27  14  31  1   
 28  15  17  1   
 29  15  32  1   
 30  15  33  1   
 31  16  18  1   
 32  16  34  1   
 33  16  35  1   
 34  17  19  1   
 35  17  36  1   
 36  17  37  1   
 37  18  20  1   
 38  18  38  1   
 39  18  39  1   
 40  19  20  1   
 41  19  21  1   
 42  19  40  1   
 43  20  41  1   
 44  20  42  1   
 45  21  43  1   
 46  21  44  1   
 47  21  45  1   
@<TRIPOS>SUBSTRUCTURE
  1 ****   8 GROUP 4 **** **** 0

# MOE 2024.06 (io_trps.svl 2023.06)
