@<TRIPOS>MOLECULE
NONAME
38 39 1 0 0 
SMALL
USER_CHARGES


@<TRIPOS>ATOM
  1 CL       1.7100    -3.1530    -2.6720 Cl    1 <1>  -0.1770 
  2 C        2.3250    -2.4330    -1.1990 C.ar  1 <1>   0.1770 
  3 C        1.8220    -2.8220     0.0370 C.ar  1 <1>   0.0830 
  4 C        3.3160    -1.4780    -1.3090 C.ar  1 <1>  -0.1500 
  5 O        0.8480    -3.7680     0.0730 O.3   1 <1>  -0.3630 
  6 C        2.3460    -2.2210     1.1780 C.ar  1 <1>  -0.1500 
  7 C        3.8450    -0.8740    -0.1740 C.ar  1 <1>  -0.0090 
  8 C        0.2690    -4.1960     1.2850 C.3   1 <1>   0.0400 
  9 C        3.3430    -1.2650     1.0640 C.ar  1 <1>  -0.1500 
 10 S        5.1710     0.3570    -0.2970 S.o2  1 <1>   1.4470 
 11 O        5.0660     1.3110     0.7820 O.2   1 <1>  -0.6500 
 12 O        5.3270     0.8000    -1.6600 O.2   1 <1>  -0.6500 
 13 N        6.5510    -0.5570    -0.0470 N.am  1 <1>  -0.9140 
 14 C        7.6970     0.2530     0.3930 C.3   1 <1>   0.3370 
 15 C        9.0150    -0.2280    -0.2490 C.2   1 <1>   0.5690 
 16 C        7.7870     0.1640     1.9210 C.3   1 <1>  -0.2400 
 17 O        9.7940     0.5890    -0.6800 O.2   1 <1>  -0.5700 
 18 N        9.2450    -1.5700    -0.3260 N.am  1 <1>  -0.5790 
 19 C       10.4280    -2.2100    -0.9170 C.3   1 <1>   0.0490 
 20 C       10.2430    -3.5190    -1.6090 C.3   1 <1>  -0.2000 
 21 C       10.9380    -3.4600    -0.2820 C.3   1 <1>  -0.2000 
 22 H        3.6740    -1.2060    -2.2870 H     1 <1>   0.1500 
 23 H        1.9940    -2.4840     2.1580 H     1 <1>   0.1500 
 24 H       -0.4780    -4.9350     1.0540 H     1 <1>   0.0800 
 25 H       -0.1910    -3.3540     1.7710 H     1 <1>   0.0800 
 26 H        1.0330    -4.6320     1.9040 H     1 <1>   0.0800 
 27 H        3.7410    -0.8090     1.9560 H     1 <1>   0.1500 
 28 H        6.7780    -0.8270    -1.0050 H     1 <1>   0.4200 
 29 H        7.5640     1.2830     0.1010 H     1 <1>   0.0800 
 30 H        7.9110    -0.8570     2.2350 H     1 <1>   0.0800 
 31 H        6.9080     0.5730     2.3830 H     1 <1>   0.0800 
 32 H        8.6350     0.7310     2.2620 H     1 <1>   0.0800 
 33 H        8.5570    -2.2060     0.0800 H     1 <1>   0.3700 
 34 H       11.1400    -1.5050    -1.3190 H     1 <1>   0.1000 
 35 H       10.8350    -3.7270    -2.4830 H     1 <1>   0.1000 
 36 H        9.2580    -3.9480    -1.6640 H     1 <1>   0.1000 
 37 H       10.4390    -3.8450     0.5900 H     1 <1>   0.1000 
 38 H       12.0010    -3.6270    -0.2580 H     1 <1>   0.1000 
@<TRIPOS>BOND
  1   1   2  1   
  2   2   3  ar  
  3   2   4  ar  
  4   3   5  1   
  5   3   6  ar  
  6   4   7  ar  
  7   4  22  1   
  8   5   8  1   
  9   6   9  ar  
 10   6  23  1   
 11   7   9  ar  
 12   7  10  1   
 13   8  24  1   
 14   8  25  1   
 15   8  26  1   
 16   9  27  1   
 17  10  11  2   
 18  10  12  2   
 19  10  13  am  
 20  13  14  1   
 21  13  28  1   
 22  14  15  1   
 23  14  16  1   
 24  14  29  1   
 25  15  17  2   
 26  15  18  am  
 27  16  30  1   
 28  16  31  1   
 29  16  32  1   
 30  18  19  1   
 31  18  33  1   
 32  19  20  1   
 33  19  21  1   
 34  19  34  1   
 35  20  21  1   
 36  20  35  1   
 37  20  36  1   
 38  21  37  1   
 39  21  38  1   
@<TRIPOS>SUBSTRUCTURE
  1 ****  13 GROUP 4 **** **** 0

# MOE 2024.06 (io_trps.svl 2023.06)
