@<TRIPOS>MOLECULE
NONAME
41 43 1 0 0 
SMALL
USER_CHARGES


@<TRIPOS>ATOM
  1 S        0.6750     0.0830    -1.1330 S.o2  1 <1>   1.2040 
  2 O        0.2750    -0.8640    -2.1530 O.2   1 <1>  -0.6500 
  3 O        1.5360     1.1550    -1.5750 O.2   1 <1>  -0.6500 
  4 C       -0.8690     0.7930    -0.4890 C.ar  1 <1>  -0.0090 
  5 C        1.4980    -0.8420     0.1960 C.3   1 <1>   0.2100 
  6 C       -0.9420     2.1050    -0.0350 C.ar  1 <1>  -0.1500 
  7 C       -2.0360     0.0350    -0.4470 C.ar  1 <1>  -0.1500 
  8 S        2.3300     0.3550     1.2690 S.o2  1 <1>   1.2040 
  9 C        2.4750    -1.9020    -0.3710 C.3   1 <1>  -0.1600 
 10 C        0.5260    -1.7540     0.9890 C.3   1 <1>  -0.1600 
 11 C       -2.1200     2.6330     0.4660 C.ar  1 <1>  -0.1500 
 12 C       -3.2190     0.5530     0.0510 C.ar  1 <1>  -0.1500 
 13 O        1.4220     1.4390     1.5660 O.2   1 <1>  -0.6500 
 14 O        2.8350    -0.3890     2.4040 O.2   1 <1>  -0.6500 
 15 C        3.7990     0.9960     0.4100 C.ar  1 <1>  -0.0090 
 16 C        1.6620    -3.1750    -0.6350 C.3   1 <1>  -0.1600 
 17 C        0.3670    -3.0340     0.1680 C.3   1 <1>  -0.1600 
 18 C       -3.2610     1.8550     0.5130 C.ar  1 <1>  -0.1500 
 19 C        3.8140     2.2610    -0.1680 C.ar  1 <1>  -0.1500 
 20 C        4.9650     0.2400     0.3240 C.ar  1 <1>  -0.1500 
 21 C        4.9300     2.7430    -0.8280 C.ar  1 <1>  -0.1500 
 22 C        6.0870     0.7130    -0.3340 C.ar  1 <1>  -0.1500 
 23 C        6.0700     1.9660    -0.9140 C.ar  1 <1>  -0.1500 
 24 H       -0.0660     2.7310    -0.0690 H     1 <1>   0.1500 
 25 H       -2.0260    -0.9760    -0.8170 H     1 <1>   0.1500 
 26 H        3.2160    -2.1420     0.3730 H     1 <1>   0.0800 
 27 H        2.9780    -1.5580    -1.2600 H     1 <1>   0.0800 
 28 H       -0.4150    -1.2870     1.2150 H     1 <1>   0.0800 
 29 H        0.9790    -2.0260     1.9270 H     1 <1>   0.0800 
 30 H       -2.1450     3.6500     0.8190 H     1 <1>   0.1500 
 31 H       -4.1080    -0.0540     0.0760 H     1 <1>   0.1500 
 32 H        2.2130    -4.0490    -0.3310 H     1 <1>   0.0800 
 33 H        1.4310    -3.2640    -1.6850 H     1 <1>   0.0800 
 34 H       -0.4670    -2.9440    -0.5080 H     1 <1>   0.0800 
 35 H        0.2010    -3.8880     0.8050 H     1 <1>   0.0800 
 36 H       -4.1780     2.2630     0.9030 H     1 <1>   0.1500 
 37 H        2.9350     2.8810    -0.1090 H     1 <1>   0.1500 
 38 H        5.0100    -0.7290     0.7890 H     1 <1>   0.1500 
 39 H        4.9090     3.7230    -1.2740 H     1 <1>   0.1500 
 40 H        6.9760     0.1080    -0.3900 H     1 <1>   0.1500 
 41 H        6.9390     2.3380    -1.4290 H     1 <1>   0.1500 
@<TRIPOS>BOND
  1   1   2  2   
  2   1   3  2   
  3   1   4  1   
  4   1   5  1   
  5   4   6  ar  
  6   4   7  ar  
  7   5   8  1   
  8   5   9  1   
  9   5  10  1   
 10   6  11  ar  
 11   6  24  1   
 12   7  12  ar  
 13   7  25  1   
 14   8  13  2   
 15   8  14  2   
 16   8  15  1   
 17   9  16  1   
 18   9  26  1   
 19   9  27  1   
 20  10  17  1   
 21  10  28  1   
 22  10  29  1   
 23  11  18  ar  
 24  11  30  1   
 25  12  18  ar  
 26  12  31  1   
 27  15  19  ar  
 28  15  20  ar  
 29  16  17  1   
 30  16  32  1   
 31  16  33  1   
 32  17  34  1   
 33  17  35  1   
 34  18  36  1   
 35  19  21  ar  
 36  19  37  1   
 37  20  22  ar  
 38  20  38  1   
 39  21  23  ar  
 40  21  39  1   
 41  22  23  ar  
 42  22  40  1   
 43  23  41  1   
@<TRIPOS>SUBSTRUCTURE
  1 ****   5 GROUP 4 **** **** 0

# MOE 2024.06 (io_trps.svl 2023.06)
