@<TRIPOS>MOLECULE
NONAME
49 50 1 0 0 
SMALL
USER_CHARGES


@<TRIPOS>ATOM
  1 N        1.8030    -3.9670    -0.5050 N.4   1 <1>  -0.9590 
  2 C        0.3110    -4.0780    -0.3700 C.3   1 <1>   0.4230 
  3 C        2.5940    -4.6530     0.5820 C.3   1 <1>   0.4230 
  4 C        2.2810    -2.5560    -0.7010 C.3   1 <1>   0.3430 
  5 C       -0.3990    -3.6480    -1.6570 C.3   1 <1>  -0.1600 
  6 C       -0.2340    -3.2880     0.8260 C.3   1 <1>  -0.1600 
  7 C        4.0860    -4.6450     0.1970 C.3   1 <1>  -0.1600 
  8 C        2.0920    -6.0970     0.8130 C.3   1 <1>  -0.1600 
  9 C        3.7420    -2.5470    -1.1360 C.3   1 <1>  -0.1600 
 10 C       -1.9100    -3.8400    -1.5190 C.3   1 <1>   0.3430 
 11 C       -1.7480    -3.4710     0.9420 C.3   1 <1>   0.3430 
 12 C        4.6230    -3.2420    -0.1000 C.3   1 <1>  -0.1600 
 13 C        2.8910    -6.8890     1.8620 C.3   1 <1>  -0.2400 
 14 N       -2.4170    -3.0810    -0.3380 N.4   1 <1>  -0.9590 
 15 C       -3.9010    -3.2360    -0.2450 C.3   1 <1>   0.3430 
 16 C       -4.4990    -2.1610     0.6660 C.3   1 <1>  -0.1600 
 17 C       -6.0290    -2.2420     0.6690 C.3   1 <1>  -0.2400 
 18 H        2.0740    -4.4690    -1.3590 H     1 <1>   0.4500 
 19 H        0.0620    -5.1160    -0.2200 H     1 <1>   0.0800 
 20 H        2.4830    -4.1010     1.5020 H     1 <1>   0.0800 
 21 H        2.1830    -2.0030     0.2200 H     1 <1>   0.0800 
 22 H        1.6980    -2.0590    -1.4580 H     1 <1>   0.0800 
 23 H       -0.0560    -4.2520    -2.4780 H     1 <1>   0.0800 
 24 H       -0.2100    -2.6170    -1.8920 H     1 <1>   0.0800 
 25 H       -0.0230    -2.2380     0.7320 H     1 <1>   0.0800 
 26 H        0.2130    -3.6410     1.7380 H     1 <1>   0.0800 
 27 H        4.2440    -5.2820    -0.6560 H     1 <1>   0.0800 
 28 H        4.6710    -5.0470     1.0060 H     1 <1>   0.0800 
 29 H        2.1170    -6.6460    -0.1130 H     1 <1>   0.0800 
 30 H        1.0820    -6.0790     1.1740 H     1 <1>   0.0800 
 31 H        4.0710    -1.5280    -1.2530 H     1 <1>   0.0800 
 32 H        3.8420    -3.0280    -2.0940 H     1 <1>   0.0800 
 33 H       -2.1350    -4.8890    -1.4010 H     1 <1>   0.0800 
 34 H       -2.4000    -3.4940    -2.4160 H     1 <1>   0.0800 
 35 H       -2.1190    -2.8640     1.7530 H     1 <1>   0.0800 
 36 H       -1.9750    -4.5010     1.1690 H     1 <1>   0.0800 
 37 H        5.6360    -3.3070    -0.4640 H     1 <1>   0.0800 
 38 H        4.6410    -2.6620     0.8090 H     1 <1>   0.0800 
 39 H        3.8810    -7.1240     1.5110 H     1 <1>   0.0800 
 40 H        2.3950    -7.8220     2.0700 H     1 <1>   0.0800 
 41 H        2.9690    -6.3400     2.7850 H     1 <1>   0.0800 
 42 H       -2.2540    -2.0750    -0.5020 H     1 <1>   0.4500 
 43 H       -4.1550    -4.2160     0.1290 H     1 <1>   0.0800 
 44 H       -4.3390    -3.1310    -1.2260 H     1 <1>   0.0800 
 45 H       -4.2120    -1.1830     0.3180 H     1 <1>   0.0800 
 46 H       -4.1560    -2.2860     1.6780 H     1 <1>   0.0800 
 47 H       -6.4250    -2.0910    -0.3210 H     1 <1>   0.0800 
 48 H       -6.4360    -1.4790     1.3110 H     1 <1>   0.0800 
 49 H       -6.3640    -3.1990     1.0330 H     1 <1>   0.0800 
@<TRIPOS>BOND
  1   1   2  1   
  2   1   3  1   
  3   1   4  1   
  4   1  18  1   
  5   2   5  1   
  6   2   6  1   
  7   2  19  1   
  8   3   7  1   
  9   3   8  1   
 10   3  20  1   
 11   4   9  1   
 12   4  21  1   
 13   4  22  1   
 14   5  10  1   
 15   5  23  1   
 16   5  24  1   
 17   6  11  1   
 18   6  25  1   
 19   6  26  1   
 20   7  12  1   
 21   7  27  1   
 22   7  28  1   
 23   8  13  1   
 24   8  29  1   
 25   8  30  1   
 26   9  12  1   
 27   9  31  1   
 28   9  32  1   
 29  10  14  1   
 30  10  33  1   
 31  10  34  1   
 32  11  14  1   
 33  11  35  1   
 34  11  36  1   
 35  12  37  1   
 36  12  38  1   
 37  13  39  1   
 38  13  40  1   
 39  13  41  1   
 40  14  15  1   
 41  14  42  1   
 42  15  16  1   
 43  15  43  1   
 44  15  44  1   
 45  16  17  1   
 46  16  45  1   
 47  16  46  1   
 48  17  47  1   
 49  17  48  1   
 50  17  49  1   
@<TRIPOS>SUBSTRUCTURE
  1 ****   2 GROUP 4 **** **** 0

# MOE 2024.06 (io_trps.svl 2023.06)
