@<TRIPOS>MOLECULE
NONAME
49 50 1 0 0 
SMALL
USER_CHARGES


@<TRIPOS>ATOM
  1 S        0.2820     0.2060     0.0490 S.o2  1 <1>   1.4470 
  2 O        0.5770     1.1740    -0.9830 O.2   1 <1>  -0.6500 
  3 O        0.5290     0.5710     1.4270 O.2   1 <1>  -0.6500 
  4 N        1.3870    -0.9940    -0.3450 N.am  1 <1>  -0.9140 
  5 C       -1.3770    -0.5730    -0.1280 C.ar  1 <1>  -0.0090 
  6 C        2.7070    -0.7500     0.2030 C.3   1 <1>   0.1960 
  7 C       -2.4250     0.0940    -0.7880 C.ar  1 <1>  -0.1430 
  8 C       -1.6350    -1.8520     0.3970 C.ar  1 <1>  -0.1430 
  9 C        3.6640    -1.8070    -0.3380 C.3   1 <1>  -0.1600 
 10 C       -3.6390    -0.5470    -1.0240 C.ar  1 <1>  -0.1430 
 11 C       -2.2600     1.5460    -1.2520 C.3   1 <1>  -0.0970 
 12 C       -2.8510    -2.4860     0.1560 C.ar  1 <1>  -0.1430 
 13 C       -0.5990    -2.5890     1.2550 C.3   1 <1>  -0.0970 
 14 C        5.0630    -1.6130     0.2470 C.3   1 <1>   0.1400 
 15 C       -3.8320    -1.8300    -0.5560 C.ar  1 <1>  -0.1500 
 16 C       -4.7920     0.0960    -1.7880 C.3   1 <1>  -0.0970 
 17 C       -3.1660    -3.8980     0.6410 C.3   1 <1>  -0.0970 
 18 N        5.9590    -2.6790    -0.2470 N.am  1 <1>  -0.6600 
 19 C        6.3240    -3.7750     0.4570 C.2   1 <1>   0.5690 
 20 C        6.5710    -2.6260    -1.5850 C.3   1 <1>   0.1400 
 21 O        5.9610    -4.0520     1.5740 O.2   1 <1>  -0.5700 
 22 C        7.2560    -4.6390    -0.3450 C.3   1 <1>  -0.0990 
 23 C        7.5900    -3.7740    -1.5740 C.3   1 <1>  -0.1600 
 24 H        1.4570    -0.9070    -1.3570 H     1 <1>   0.4200 
 25 H        2.6660    -0.8120     1.2790 H     1 <1>   0.0800 
 26 H        3.0440     0.2370    -0.0730 H     1 <1>   0.0800 
 27 H        3.7100    -1.7350    -1.4090 H     1 <1>   0.0800 
 28 H        3.3040    -2.7810    -0.0580 H     1 <1>   0.0800 
 29 H       -1.7310     2.1230    -0.5160 H     1 <1>   0.0800 
 30 H       -3.1990     2.0460    -1.3910 H     1 <1>   0.0800 
 31 H       -1.7210     1.5770    -2.1820 H     1 <1>   0.0800 
 32 H        0.0060    -1.9090     1.8240 H     1 <1>   0.0800 
 33 H        0.0410    -3.1850     0.6300 H     1 <1>   0.0800 
 34 H       -1.0640    -3.2320     1.9780 H     1 <1>   0.0800 
 35 H        5.0160    -1.6650     1.3230 H     1 <1>   0.0800 
 36 H        5.4620    -0.6520    -0.0290 H     1 <1>   0.0800 
 37 H       -4.7690    -2.3240    -0.7420 H     1 <1>   0.1500 
 38 H       -4.4400     0.5080    -2.7170 H     1 <1>   0.0800 
 39 H       -5.2340     0.8770    -1.1970 H     1 <1>   0.0800 
 40 H       -5.5560    -0.6240    -2.0190 H     1 <1>   0.0800 
 41 H       -2.3570    -4.5650     0.4020 H     1 <1>   0.0800 
 42 H       -4.0540    -4.2810     0.1710 H     1 <1>   0.0800 
 43 H       -3.3220    -3.8950     1.7040 H     1 <1>   0.0800 
 44 H        7.0510    -1.6760    -1.7470 H     1 <1>   0.0800 
 45 H        5.8140    -2.7910    -2.3330 H     1 <1>   0.0800 
 46 H        6.7410    -5.5380    -0.6280 H     1 <1>   0.0800 
 47 H        8.1320    -4.8800     0.2280 H     1 <1>   0.0800 
 48 H        8.5780    -3.3610    -1.4670 H     1 <1>   0.0800 
 49 H        7.5520    -4.3410    -2.4870 H     1 <1>   0.0800 
@<TRIPOS>BOND
  1   1   2  2   
  2   1   3  2   
  3   1   4  am  
  4   1   5  1   
  5   4   6  1   
  6   4  24  1   
  7   5   7  ar  
  8   5   8  ar  
  9   6   9  1   
 10   6  25  1   
 11   6  26  1   
 12   7  10  ar  
 13   7  11  1   
 14   8  12  ar  
 15   8  13  1   
 16   9  14  1   
 17   9  27  1   
 18   9  28  1   
 19  10  15  ar  
 20  10  16  1   
 21  11  29  1   
 22  11  30  1   
 23  11  31  1   
 24  12  15  ar  
 25  12  17  1   
 26  13  32  1   
 27  13  33  1   
 28  13  34  1   
 29  14  18  1   
 30  14  35  1   
 31  14  36  1   
 32  15  37  1   
 33  16  38  1   
 34  16  39  1   
 35  16  40  1   
 36  17  41  1   
 37  17  42  1   
 38  17  43  1   
 39  18  19  am  
 40  18  20  1   
 41  19  21  2   
 42  19  22  1   
 43  20  23  1   
 44  20  44  1   
 45  20  45  1   
 46  22  23  1   
 47  22  46  1   
 48  22  47  1   
 49  23  48  1   
 50  23  49  1   
@<TRIPOS>SUBSTRUCTURE
  1 ****   4 GROUP 4 **** **** 0

# MOE 2024.06 (io_trps.svl 2023.06)
