@<TRIPOS>MOLECULE
NONAME
38 38 1 0 0 
SMALL
USER_CHARGES


@<TRIPOS>ATOM
  1 BR       2.0860     0.6530    -1.7470 Br    1 <1>  -0.1110 
  2 C        1.2240     2.0780    -0.7710 C.ar  1 <1>   0.1110 
  3 C        1.9710     2.8500     0.1090 C.ar  1 <1>   0.0820 
  4 C       -0.1250     2.2880    -0.9830 C.ar  1 <1>  -0.1500 
  5 O        3.2920     2.5660     0.2470 O.3   1 <1>  -0.3630 
  6 C        1.3210     3.8700     0.7970 C.ar  1 <1>  -0.1500 
  7 C       -0.7620     3.3060    -0.2910 C.ar  1 <1>  -0.1430 
  8 C        4.1300     3.3120     1.1190 C.3   1 <1>   0.1810 
  9 C       -0.0340     4.0910     0.5930 C.ar  1 <1>  -0.1500 
 10 C       -2.2440     3.5660    -0.5000 C.3   1 <1>  -0.0960 
 11 C        5.5580     2.7800     1.0610 C.2   1 <1>   0.5690 
 12 O        6.4250     3.3300     1.6970 O.2   1 <1>  -0.5700 
 13 N        5.8430     1.6940     0.2900 N.am  1 <1>  -0.7300 
 14 C        7.1460     0.9870     0.2420 C.3   1 <1>   0.1400 
 15 C        8.2830     1.9510    -0.1500 C.3   1 <1>   0.3430 
 16 N        9.6460     1.3350    -0.0190 N.4   1 <1>  -0.9590 
 17 C       10.6900     2.3990    -0.1480 C.3   1 <1>   0.2630 
 18 C        9.8830     0.2410    -1.0130 C.3   1 <1>   0.2630 
 19 H       -0.6610     1.6650    -1.6760 H     1 <1>   0.1500 
 20 H        1.8420     4.5020     1.4910 H     1 <1>   0.1500 
 21 H        3.7520     3.2190     2.1200 H     1 <1>   0.0800 
 22 H        4.1160     4.3410     0.8090 H     1 <1>   0.0800 
 23 H       -0.5250     4.8840     1.1300 H     1 <1>   0.1500 
 24 H       -2.7370     2.6830    -0.8650 H     1 <1>   0.0800 
 25 H       -2.3770     4.3580    -1.2150 H     1 <1>   0.0800 
 26 H       -2.7070     3.8530     0.4270 H     1 <1>   0.0800 
 27 H        5.0440     1.2540    -0.1890 H     1 <1>   0.3700 
 28 H        7.0770     0.1850    -0.4720 H     1 <1>   0.0800 
 29 H        7.3390     0.5760     1.2180 H     1 <1>   0.0800 
 30 H        8.2330     2.8110     0.4970 H     1 <1>   0.0800 
 31 H        8.1270     2.2870    -1.1620 H     1 <1>   0.0800 
 32 H        9.7200     0.9460     0.9350 H     1 <1>   0.4500 
 33 H       10.6480     2.8500    -1.1260 H     1 <1>   0.0800 
 34 H       11.6730     1.9800    -0.0040 H     1 <1>   0.0800 
 35 H       10.5340     3.1670     0.5920 H     1 <1>   0.0800 
 36 H        9.7970     0.6220    -2.0180 H     1 <1>   0.0800 
 37 H        9.1650    -0.5520    -0.8810 H     1 <1>   0.0800 
 38 H       10.8720    -0.1710    -0.8860 H     1 <1>   0.0800 
@<TRIPOS>BOND
  1   1   2  1   
  2   2   3  ar  
  3   2   4  ar  
  4   3   5  1   
  5   3   6  ar  
  6   4   7  ar  
  7   4  19  1   
  8   5   8  1   
  9   6   9  ar  
 10   6  20  1   
 11   7   9  ar  
 12   7  10  1   
 13   8  11  1   
 14   8  21  1   
 15   8  22  1   
 16   9  23  1   
 17  10  24  1   
 18  10  25  1   
 19  10  26  1   
 20  11  12  2   
 21  11  13  am  
 22  13  14  1   
 23  13  27  1   
 24  14  15  1   
 25  14  28  1   
 26  14  29  1   
 27  15  16  1   
 28  15  30  1   
 29  15  31  1   
 30  16  17  1   
 31  16  18  1   
 32  16  32  1   
 33  17  33  1   
 34  17  34  1   
 35  17  35  1   
 36  18  36  1   
 37  18  37  1   
 38  18  38  1   
@<TRIPOS>SUBSTRUCTURE
  1 ****   5 GROUP 4 **** **** 0

# MOE 2024.06 (io_trps.svl 2023.06)
