@<TRIPOS>MOLECULE
NONAME
51 52 1 0 0 
SMALL
USER_CHARGES


@<TRIPOS>ATOM
  1 O        0.3740     0.5910     0.4650 O.2   1 <1>  -0.5700 
  2 C        1.4690     1.0530     0.2650 C.2   1 <1>   0.4230 
  3 C        1.7160     2.4810     0.2580 C.ar  1 <1>   0.0860 
  4 C        2.6220     0.0790     0.0150 C.3   1 <1>  -0.0990 
  5 C        2.8020     3.0680    -0.4000 C.ar  1 <1>  -0.1500 
  6 C        0.8430     3.3410     0.9220 C.ar  1 <1>  -0.1500 
  7 C        2.4510    -1.2840     0.7060 C.3   1 <1>  -0.2400 
  8 C        3.0300     4.4410    -0.3890 C.ar  1 <1>   0.0830 
  9 C        1.0510     4.7050     0.9490 C.ar  1 <1>  -0.1500 
 10 O        4.0990     4.9800    -1.0480 O.3   1 <1>  -0.3620 
 11 C        2.1380     5.2770     0.3090 C.ar  1 <1>   0.0830 
 12 C        4.9220     4.2210    -1.9120 C.3   1 <1>   0.0400 
 13 O        2.2110     6.6300     0.4360 O.3   1 <1>  -0.3630 
 14 C        3.2960     7.4070    -0.0230 C.3   1 <1>   0.1200 
 15 C        3.0760     8.8610     0.4050 C.3   1 <1>   0.2000 
 16 O        1.7990     9.2660     0.0110 O.3   1 <1>  -0.6800 
 17 C        4.1190     9.8170    -0.2120 C.3   1 <1>   0.3430 
 18 N        3.5880    11.2140    -0.2520 N.4   1 <1>  -0.9590 
 19 C        4.1770    12.0220    -1.3550 C.3   1 <1>   0.3430 
 20 C        3.6580    11.8960     1.0710 C.3   1 <1>   0.3430 
 21 C        3.4440    13.3610    -1.4610 C.3   1 <1>  -0.1600 
 22 C        2.9170    13.2320     1.0000 C.3   1 <1>  -0.1600 
 23 C        3.4520    14.1230    -0.1290 C.3   1 <1>  -0.1600 
 24 H        3.5380     0.5150     0.3700 H     1 <1>   0.0800 
 25 H        2.7090    -0.0760    -1.0450 H     1 <1>   0.0800 
 26 H        3.4680     2.4210    -0.9320 H     1 <1>   0.1500 
 27 H       -0.0130     2.9260     1.4280 H     1 <1>   0.1500 
 28 H        2.3470    -1.1520     1.7690 H     1 <1>   0.0800 
 29 H        3.3040    -1.9110     0.5160 H     1 <1>   0.0800 
 30 H        1.5710    -1.7820     0.3370 H     1 <1>   0.0800 
 31 H        0.3590     5.3370     1.4760 H     1 <1>   0.1500 
 32 H        4.3100     3.7700    -2.6730 H     1 <1>   0.0800 
 33 H        5.6340     4.8860    -2.3670 H     1 <1>   0.0800 
 34 H        5.4400     3.4740    -1.3370 H     1 <1>   0.0800 
 35 H        3.3370     7.3290    -1.0960 H     1 <1>   0.0800 
 36 H        4.2010     7.0160     0.4100 H     1 <1>   0.0800 
 37 H        3.1220     8.9190     1.4790 H     1 <1>   0.0800 
 38 H        1.1740     8.5220     0.1810 H     1 <1>   0.4000 
 39 H        4.3150     9.4850    -1.2180 H     1 <1>   0.0800 
 40 H        5.0440     9.7710     0.3380 H     1 <1>   0.0800 
 41 H        2.5790    11.0750    -0.4530 H     1 <1>   0.4500 
 42 H        4.0890    11.4920    -2.2900 H     1 <1>   0.0800 
 43 H        5.2220    12.1990    -1.1600 H     1 <1>   0.0800 
 44 H        4.6870    12.0690     1.3390 H     1 <1>   0.0800 
 45 H        3.2040    11.2780     1.8290 H     1 <1>   0.0800 
 46 H        2.4300    13.1850    -1.7760 H     1 <1>   0.0800 
 47 H        3.9160    13.9620    -2.2180 H     1 <1>   0.0800 
 48 H        3.0240    13.7450     1.9400 H     1 <1>   0.0800 
 49 H        1.8670    13.0460     0.8540 H     1 <1>   0.0800 
 50 H        2.8470    15.0110    -0.2120 H     1 <1>   0.0800 
 51 H        4.4580    14.4330     0.1030 H     1 <1>   0.0800 
@<TRIPOS>BOND
  1   1   2  2   
  2   2   3  1   
  3   2   4  1   
  4   3   5  ar  
  5   3   6  ar  
  6   4   7  1   
  7   4  24  1   
  8   4  25  1   
  9   5   8  ar  
 10   5  26  1   
 11   6   9  ar  
 12   6  27  1   
 13   7  28  1   
 14   7  29  1   
 15   7  30  1   
 16   8  10  1   
 17   8  11  ar  
 18   9  11  ar  
 19   9  31  1   
 20  10  12  1   
 21  11  13  1   
 22  12  32  1   
 23  12  33  1   
 24  12  34  1   
 25  13  14  1   
 26  14  15  1   
 27  14  35  1   
 28  14  36  1   
 29  15  16  1   
 30  15  17  1   
 31  15  37  1   
 32  16  38  1   
 33  17  18  1   
 34  17  39  1   
 35  17  40  1   
 36  18  19  1   
 37  18  20  1   
 38  18  41  1   
 39  19  21  1   
 40  19  42  1   
 41  19  43  1   
 42  20  22  1   
 43  20  44  1   
 44  20  45  1   
 45  21  23  1   
 46  21  46  1   
 47  21  47  1   
 48  22  23  1   
 49  22  48  1   
 50  22  49  1   
 51  23  50  1   
 52  23  51  1   
@<TRIPOS>SUBSTRUCTURE
  1 ****  13 GROUP 4 **** **** 0

# MOE 2024.06 (io_trps.svl 2023.06)
