@<TRIPOS>MOLECULE
NONAME
41 42 1 0 0 
SMALL
USER_CHARGES


@<TRIPOS>ATOM
  1 O       -0.0180     0.2860    -0.2930 O.2   1 <1>  -0.5700 
  2 C       -0.1960    -0.8720    -0.5910 C.2   1 <1>   0.5690 
  3 N       -1.4040    -1.4790    -0.4500 N.am  1 <1>  -0.7300 
  4 C        1.0180    -1.6550    -1.1230 C.3   1 <1>   0.4040 
  5 C       -2.6240    -0.8160     0.0510 C.3   1 <1>   0.2200 
  6 N        2.3390    -1.0730    -0.6730 N.4   1 <1>  -0.9590 
  7 C       -3.1560    -1.6060     1.2400 C.3   1 <1>  -0.1600 
  8 C       -3.7250    -0.9710    -0.9910 C.3   1 <1>  -0.1600 
  9 C        3.4930    -1.5710    -1.4710 C.3   1 <1>   0.3430 
 10 C        2.5360    -1.2310     0.7970 C.3   1 <1>   0.3430 
 11 C       -3.9310    -2.7880     0.6440 C.3   1 <1>  -0.1600 
 12 C       -4.2990    -2.3790    -0.7880 C.3   1 <1>  -0.1600 
 13 C        4.7600    -0.8180    -1.0650 C.3   1 <1>  -0.1600 
 14 C        3.7910    -0.4740     1.2310 C.3   1 <1>  -0.1600 
 15 C        5.0290    -0.9260     0.4430 C.3   1 <1>  -0.0800 
 16 C        6.2520    -0.0900     0.8340 C.3   1 <1>  -0.2400 
 17 H       -1.5750    -2.4520    -0.7120 H     1 <1>   0.3700 
 18 H        0.9670    -1.6350    -2.1970 H     1 <1>   0.0800 
 19 H        0.9420    -2.6790    -0.8010 H     1 <1>   0.0800 
 20 H       -2.4360     0.2170     0.2960 H     1 <1>   0.0800 
 21 H        2.2460    -0.0540    -0.8250 H     1 <1>   0.4500 
 22 H       -3.8430    -0.9800     1.7810 H     1 <1>   0.0800 
 23 H       -2.3750    -1.9140     1.9130 H     1 <1>   0.0800 
 24 H       -3.3720    -0.8030    -1.9930 H     1 <1>   0.0800 
 25 H       -4.4950    -0.2500    -0.7770 H     1 <1>   0.0800 
 26 H        3.3100    -1.4220    -2.5230 H     1 <1>   0.0800 
 27 H        3.6320    -2.6260    -1.2940 H     1 <1>   0.0800 
 28 H        2.6410    -2.2750     1.0450 H     1 <1>   0.0800 
 29 H        1.6830    -0.8360     1.3290 H     1 <1>   0.0800 
 30 H       -4.8110    -3.0000     1.2290 H     1 <1>   0.0800 
 31 H       -3.3110    -3.6670     0.6260 H     1 <1>   0.0800 
 32 H       -3.8560    -3.0650    -1.4900 H     1 <1>   0.0800 
 33 H       -5.3660    -2.3790    -0.9330 H     1 <1>   0.0800 
 34 H        4.6650     0.2150    -1.3530 H     1 <1>   0.0800 
 35 H        5.5960    -1.2270    -1.6070 H     1 <1>   0.0800 
 36 H        3.9520    -0.6440     2.2810 H     1 <1>   0.0800 
 37 H        3.6280     0.5820     1.0980 H     1 <1>   0.0800 
 38 H        5.2360    -1.9560     0.6850 H     1 <1>   0.0800 
 39 H        6.0950     0.9520     0.6120 H     1 <1>   0.0800 
 40 H        7.1230    -0.4240     0.2980 H     1 <1>   0.0800 
 41 H        6.4510    -0.1860     1.8870 H     1 <1>   0.0800 
@<TRIPOS>BOND
  1   1   2  2   
  2   2   3  am  
  3   2   4  1   
  4   3   5  1   
  5   3  17  1   
  6   4   6  1   
  7   4  18  1   
  8   4  19  1   
  9   5   7  1   
 10   5   8  1   
 11   5  20  1   
 12   6   9  1   
 13   6  10  1   
 14   6  21  1   
 15   7  11  1   
 16   7  22  1   
 17   7  23  1   
 18   8  12  1   
 19   8  24  1   
 20   8  25  1   
 21   9  13  1   
 22   9  26  1   
 23   9  27  1   
 24  10  14  1   
 25  10  28  1   
 26  10  29  1   
 27  11  12  1   
 28  11  30  1   
 29  11  31  1   
 30  12  32  1   
 31  12  33  1   
 32  13  15  1   
 33  13  34  1   
 34  13  35  1   
 35  14  15  1   
 36  14  36  1   
 37  14  37  1   
 38  15  16  1   
 39  15  38  1   
 40  16  39  1   
 41  16  40  1   
 42  16  41  1   
@<TRIPOS>SUBSTRUCTURE
  1 ****   2 GROUP 4 **** **** 0

# MOE 2024.06 (io_trps.svl 2023.06)
