@<TRIPOS>MOLECULE
NONAME
34 34 1 0 0 
SMALL
USER_CHARGES


@<TRIPOS>ATOM
  1 F       -2.4270     4.0950     1.4710 F     1 <1>  -0.3400 
  2 C       -3.5230     3.9440     0.7450 C.3   1 <1>   1.1640 
  3 F       -3.6840     5.0640     0.0540 F     1 <1>  -0.3400 
  4 F       -4.5430     3.9010     1.6000 F     1 <1>  -0.3400 
  5 C       -3.5350     2.7040    -0.1680 C.ar  1 <1>  -0.1440 
  6 C       -4.6120     2.4250    -1.0220 C.ar  1 <1>  -0.1440 
  7 C       -2.4570     1.8220    -0.1460 C.ar  1 <1>  -0.1500 
  8 C       -4.5840     1.2880    -1.8190 C.ar  1 <1>  -0.1500 
  9 C       -5.8400     3.3170    -1.1270 C.3   1 <1>   0.4870 
 10 C       -2.4410     0.6940    -0.9440 C.ar  1 <1>  -0.1500 
 11 C       -3.5050     0.4260    -1.7810 C.ar  1 <1>  -0.1500 
 12 N       -6.7510     2.9590    -0.0210 N.4   1 <1>  -0.9060 
 13 C       -8.0250     3.6810     0.1200 C.3   1 <1>   0.5030 
 14 C       -8.9040     2.8530     1.0950 C.3   1 <1>   0.1200 
 15 C       -8.7200     3.7820    -1.2430 C.3   1 <1>  -0.2400 
 16 C       -7.7400     5.0730     0.6810 C.3   1 <1>  -0.2400 
 17 O       -8.7570     1.4840     0.8290 O.3   1 <1>  -0.6800 
 18 H       -1.6060     1.9980     0.4950 H     1 <1>   0.1500 
 19 H       -5.3990     1.0550    -2.4850 H     1 <1>   0.1500 
 20 H       -6.3240     3.1500    -2.0760 H     1 <1>   0.0800 
 21 H       -5.5630     4.3560    -1.0680 H     1 <1>   0.0800 
 22 H       -1.5980     0.0230    -0.9150 H     1 <1>   0.1500 
 23 H       -3.4900    -0.4540    -2.4030 H     1 <1>   0.1500 
 24 H       -6.2480     3.0140     0.8700 H     1 <1>   0.4500 
 25 H       -7.0350     1.9680    -0.0970 H     1 <1>   0.4500 
 26 H       -9.9430     3.1170     0.9920 H     1 <1>   0.0800 
 27 H       -8.6070     3.0250     2.1160 H     1 <1>   0.0800 
 28 H       -8.1790     4.4110    -1.9260 H     1 <1>   0.0800 
 29 H       -8.8540     2.8070    -1.6780 H     1 <1>   0.0800 
 30 H       -9.6960     4.2180    -1.1200 H     1 <1>   0.0800 
 31 H       -7.2390     5.0130     1.6310 H     1 <1>   0.0800 
 32 H       -8.6660     5.6010     0.8300 H     1 <1>   0.0800 
 33 H       -7.1410     5.6540     0.0030 H     1 <1>   0.0800 
 34 H       -9.3830     0.9510     1.3690 H     1 <1>   0.4000 
@<TRIPOS>BOND
  1   1   2  1   
  2   2   3  1   
  3   2   4  1   
  4   2   5  1   
  5   5   6  ar  
  6   5   7  ar  
  7   6   8  ar  
  8   6   9  1   
  9   7  10  ar  
 10   7  18  1   
 11   8  11  ar  
 12   8  19  1   
 13   9  12  1   
 14   9  20  1   
 15   9  21  1   
 16  10  11  ar  
 17  10  22  1   
 18  11  23  1   
 19  12  13  1   
 20  12  24  1   
 21  12  25  1   
 22  13  14  1   
 23  13  15  1   
 24  13  16  1   
 25  14  17  1   
 26  14  26  1   
 27  14  27  1   
 28  15  28  1   
 29  15  29  1   
 30  15  30  1   
 31  16  31  1   
 32  16  32  1   
 33  16  33  1   
 34  17  34  1   
@<TRIPOS>SUBSTRUCTURE
  1 ****   9 GROUP 4 **** **** 0

# MOE 2024.06 (io_trps.svl 2023.06)
