@<TRIPOS>MOLECULE
NONAME
44 46 1 0 0 
SMALL
USER_CHARGES


@<TRIPOS>ATOM
  1 O        0.2010     1.3560     1.4840 O.2   1 <1>  -0.5700 
  2 C        0.3120     1.8630     0.3990 C.2   1 <1>   0.6590 
  3 O       -0.7300     2.2260    -0.3310 O.3   1 <1>  -0.4300 
  4 C        1.6760     2.1190    -0.2200 C.3   1 <1>  -0.0190 
  5 C       -2.0520     2.0490     0.1260 C.3   1 <1>   0.1200 
  6 C        2.7480     1.3430     0.5690 C.3   1 <1>   0.3430 
  7 C        2.0060     3.6230    -0.3000 C.3   1 <1>  -0.1600 
  8 C       -2.9980     2.5770    -0.9470 C.3   1 <1>  -0.2400 
  9 N        4.0950     2.0050     0.5370 N.4   1 <1>  -0.9590 
 10 C        3.3890     3.8530    -0.9420 C.3   1 <1>  -0.1600 
 11 C        4.3800     2.6960    -0.7530 C.3   1 <1>   0.3430 
 12 C        5.1770     1.0700     0.9380 C.3   1 <1>   0.5240 
 13 C        6.4180     1.8920     1.1900 C.2   1 <1>  -0.1810 
 14 C        7.4560     2.0560     0.2450 C.ar  1 <1>   0.0000 
 15 C        6.7490     2.6030     2.2960 C.2   1 <1>  -0.3020 
 16 C        8.3880     2.9020     0.8360 C.ar  1 <1>  -0.1520 
 17 C        7.6900     1.5690    -1.0470 C.ar  1 <1>  -0.1500 
 18 N        7.9510     3.2220     2.0960 N.pl3 1 <1>   0.0330 
 19 C        9.5430     3.2900     0.1540 C.ar  1 <1>  -0.1500 
 20 C        8.8290     1.9510    -1.7180 C.ar  1 <1>  -0.1500 
 21 C        9.7540     2.8130    -1.1180 C.ar  1 <1>  -0.1500 
 22 H        1.6420     1.7220    -1.2180 H     1 <1>   0.0800 
 23 H       -2.1720     2.5940     1.0480 H     1 <1>   0.0800 
 24 H       -2.2160     0.9990     0.3030 H     1 <1>   0.0800 
 25 H        2.8130     0.3460     0.1640 H     1 <1>   0.0800 
 26 H        2.4390     1.2530     1.5990 H     1 <1>   0.0800 
 27 H        2.0000     4.0360     0.6950 H     1 <1>   0.0800 
 28 H        1.2510     4.1420    -0.8680 H     1 <1>   0.0800 
 29 H       -2.8190     3.6230    -1.1200 H     1 <1>   0.0800 
 30 H       -4.0150     2.4540    -0.6240 H     1 <1>   0.0800 
 31 H       -2.8640     2.0310    -1.8640 H     1 <1>   0.0800 
 32 H        4.1080     2.7440     1.2510 H     1 <1>   0.4500 
 33 H        3.8190     4.7560    -0.5430 H     1 <1>   0.0800 
 34 H        3.2700     4.0120    -2.0010 H     1 <1>   0.0800 
 35 H        4.2780     1.9950    -1.5660 H     1 <1>   0.0800 
 36 H        5.3860     3.0850    -0.7670 H     1 <1>   0.0800 
 37 H        5.3610     0.3390     0.1690 H     1 <1>   0.0800 
 38 H        4.9050     0.5580     1.8470 H     1 <1>   0.0800 
 39 H        6.2150     2.7170     3.2250 H     1 <1>   0.1500 
 40 H        6.9910     0.8990    -1.5100 H     1 <1>   0.1500 
 41 H        8.4630     3.8130     2.7620 H     1 <1>   0.2700 
 42 H       10.2540     3.9480     0.6230 H     1 <1>   0.1500 
 43 H        9.0280     1.5890    -2.7120 H     1 <1>   0.1500 
 44 H       10.6380     3.0970    -1.6650 H     1 <1>   0.1500 
@<TRIPOS>BOND
  1   1   2  2   
  2   2   3  1   
  3   2   4  1   
  4   3   5  1   
  5   4   6  1   
  6   4   7  1   
  7   4  22  1   
  8   5   8  1   
  9   5  23  1   
 10   5  24  1   
 11   6   9  1   
 12   6  25  1   
 13   6  26  1   
 14   7  10  1   
 15   7  27  1   
 16   7  28  1   
 17   8  29  1   
 18   8  30  1   
 19   8  31  1   
 20   9  11  1   
 21   9  12  1   
 22   9  32  1   
 23  10  11  1   
 24  10  33  1   
 25  10  34  1   
 26  11  35  1   
 27  11  36  1   
 28  12  13  1   
 29  12  37  1   
 30  12  38  1   
 31  13  14  1   
 32  13  15  2   
 33  14  16  ar  
 34  14  17  ar  
 35  15  18  1   
 36  15  39  1   
 37  16  18  1   
 38  16  19  ar  
 39  17  20  ar  
 40  17  40  1   
 41  18  41  1   
 42  19  21  ar  
 43  19  42  1   
 44  20  21  ar  
 45  20  43  1   
 46  21  44  1   
@<TRIPOS>SUBSTRUCTURE
  1 ****   9 GROUP 4 **** **** 0

# MOE 2024.06 (io_trps.svl 2023.06)
