@<TRIPOS>MOLECULE
NONAME
39 41 1 0 0 
SMALL
USER_CHARGES


@<TRIPOS>ATOM
  1 O       -1.6410     0.0060     1.4730 O.3   1 <1>  -0.3630 
  2 C       -2.2100     0.7130     0.4670 C.ar  1 <1>   0.0830 
  3 C       -2.1430    -1.2440     1.8900 C.3   1 <1>   0.0400 
  4 C       -3.4240     0.3770    -0.1260 C.ar  1 <1>  -0.1500 
  5 C       -1.5210     1.8300     0.0260 C.ar  1 <1>  -0.1500 
  6 C       -3.9410     1.1610    -1.1490 C.ar  1 <1>  -0.1430 
  7 C       -2.0270     2.6050    -1.0000 C.ar  1 <1>  -0.1500 
  8 C       -3.2330     2.2710    -1.5890 C.ar  1 <1>  -0.1500 
  9 C       -5.2770     0.8190    -1.7780 C.3   1 <1>   0.4860 
 10 N       -6.3530     1.1460    -0.8070 N.4   1 <1>  -0.9590 
 11 C       -7.6890     0.6890    -1.2720 C.3   1 <1>   0.4860 
 12 C       -6.3960     2.5970    -0.4490 C.3   1 <1>   0.3430 
 13 C       -8.7360     0.9800    -0.2090 C.ar  1 <1>  -0.1430 
 14 C       -7.2710     2.8020     0.7890 C.3   1 <1>  -0.0170 
 15 C       -8.5490     1.9750     0.7460 C.ar  1 <1>  -0.1430 
 16 C       -9.9080     0.2380    -0.2040 C.ar  1 <1>  -0.1500 
 17 C       -9.5330     2.2140     1.6910 C.ar  1 <1>  -0.1500 
 18 C      -10.8870     0.4830     0.7420 C.ar  1 <1>  -0.1500 
 19 C      -10.6990     1.4710     1.6900 C.ar  1 <1>  -0.1500 
 20 H       -1.4810    -1.6340     2.6420 H     1 <1>   0.0800 
 21 H       -2.1670    -1.9110     1.0460 H     1 <1>   0.0800 
 22 H       -3.1240    -1.1070     2.3070 H     1 <1>   0.0800 
 23 H       -3.9590    -0.4910     0.2090 H     1 <1>   0.1500 
 24 H       -0.5840     2.0830     0.4900 H     1 <1>   0.1500 
 25 H       -1.4750     3.4670    -1.3390 H     1 <1>   0.1500 
 26 H       -3.6050     2.8880    -2.3900 H     1 <1>   0.1500 
 27 H       -5.2970    -0.2320    -2.0180 H     1 <1>   0.0800 
 28 H       -5.4090     1.3820    -2.6880 H     1 <1>   0.0800 
 29 H       -6.1540     0.6410     0.0650 H     1 <1>   0.4500 
 30 H       -7.6690    -0.3710    -1.4670 H     1 <1>   0.0800 
 31 H       -7.9600     1.2000    -2.1810 H     1 <1>   0.0800 
 32 H       -6.8040     3.1610    -1.2730 H     1 <1>   0.0800 
 33 H       -5.4040     2.9670    -0.2410 H     1 <1>   0.0800 
 34 H       -7.5170     3.8460     0.8730 H     1 <1>   0.0800 
 35 H       -6.7080     2.5320     1.6650 H     1 <1>   0.0800 
 36 H      -10.0800    -0.5360    -0.9340 H     1 <1>   0.1500 
 37 H       -9.4020     2.9780     2.4380 H     1 <1>   0.1500 
 38 H      -11.7960    -0.0940     0.7430 H     1 <1>   0.1500 
 39 H      -11.4620     1.6610     2.4260 H     1 <1>   0.1500 
@<TRIPOS>BOND
  1   1   2  1   
  2   1   3  1   
  3   2   4  ar  
  4   2   5  ar  
  5   3  20  1   
  6   3  21  1   
  7   3  22  1   
  8   4   6  ar  
  9   4  23  1   
 10   5   7  ar  
 11   5  24  1   
 12   6   8  ar  
 13   6   9  1   
 14   7   8  ar  
 15   7  25  1   
 16   8  26  1   
 17   9  10  1   
 18   9  27  1   
 19   9  28  1   
 20  10  11  1   
 21  10  12  1   
 22  10  29  1   
 23  11  13  1   
 24  11  30  1   
 25  11  31  1   
 26  12  14  1   
 27  12  32  1   
 28  12  33  1   
 29  13  15  ar  
 30  13  16  ar  
 31  14  15  1   
 32  14  34  1   
 33  14  35  1   
 34  15  17  ar  
 35  16  18  ar  
 36  16  36  1   
 37  17  19  ar  
 38  17  37  1   
 39  18  19  ar  
 40  18  38  1   
 41  19  39  1   
@<TRIPOS>SUBSTRUCTURE
  1 ****  10 GROUP 4 **** **** 0

# MOE 2024.06 (io_trps.svl 2023.06)
