@<TRIPOS>MOLECULE
NONAME
45 45 1 0 0 
SMALL
USER_CHARGES


@<TRIPOS>ATOM
  1 O       -0.4740    -2.0510    -1.8960 O.2   1 <1>  -0.5700 
  2 C       -0.4010    -1.8970    -0.7010 C.2   1 <1>   0.5690 
  3 N       -1.3050    -1.1870     0.0230 N.am  1 <1>  -0.7300 
  4 C        0.7370    -2.5700     0.0460 C.3   1 <1>  -0.0990 
  5 C       -2.5470    -0.5060    -0.4020 C.3   1 <1>   0.3640 
  6 C        1.9990    -1.7000     0.2570 C.3   1 <1>   0.0000 
  7 C       -3.7190    -1.4760    -0.2980 C.ar  1 <1>  -0.1440 
  8 C       -2.4450     0.1390    -1.7840 C.3   1 <1>  -0.2400 
  9 C        3.0560    -2.5390     0.9890 C.3   1 <1>  -0.2400 
 10 C        2.5810    -1.2500    -1.0920 C.3   1 <1>  -0.2400 
 11 C        1.6890    -0.4590     1.1080 C.3   1 <1>  -0.2400 
 12 C       -4.7660    -1.2100     0.5700 C.ar  1 <1>  -0.1500 
 13 C       -3.7630    -2.6340    -1.0580 C.ar  1 <1>  -0.1500 
 14 C       -5.8450    -2.0700     0.6910 C.ar  1 <1>   0.0820 
 15 C       -4.8270    -3.5120    -0.9460 C.ar  1 <1>  -0.1500 
 16 O       -6.7990    -1.6620     1.5760 O.3   1 <1>  -0.3630 
 17 C       -5.8780    -3.2520    -0.0690 C.ar  1 <1>   0.0820 
 18 C       -8.1570    -2.0000     1.4040 C.3   1 <1>   0.0400 
 19 O       -6.9160    -4.1290     0.0710 O.3   1 <1>  -0.3630 
 20 C       -6.9180    -5.3940    -0.5540 C.3   1 <1>   0.0400 
 21 H       -1.2090    -1.2180     1.0360 H     1 <1>   0.3700 
 22 H        1.0080    -3.4490    -0.5090 H     1 <1>   0.0800 
 23 H        0.3670    -2.9040     0.9970 H     1 <1>   0.0800 
 24 H       -2.7130     0.2950     0.2970 H     1 <1>   0.0800 
 25 H       -2.4040    -0.6040    -2.5580 H     1 <1>   0.0800 
 26 H       -1.5700     0.7610    -1.8400 H     1 <1>   0.0800 
 27 H       -3.3130     0.7480    -1.9580 H     1 <1>   0.0800 
 28 H        2.6900    -2.8620     1.9470 H     1 <1>   0.0800 
 29 H        3.9530    -1.9650     1.1470 H     1 <1>   0.0800 
 30 H        3.3140    -3.4100     0.4130 H     1 <1>   0.0800 
 31 H        2.7950    -2.1010    -1.7140 H     1 <1>   0.0800 
 32 H        3.4920    -0.6970    -0.9470 H     1 <1>   0.0800 
 33 H        1.8870    -0.6180    -1.6180 H     1 <1>   0.0800 
 34 H        1.2540    -0.7420     2.0490 H     1 <1>   0.0800 
 35 H        1.0080     0.1980     0.5950 H     1 <1>   0.0800 
 36 H        2.5910     0.0940     1.3050 H     1 <1>   0.0800 
 37 H       -4.7630    -0.3190     1.1710 H     1 <1>   0.1500 
 38 H       -2.9610    -2.8590    -1.7410 H     1 <1>   0.1500 
 39 H       -4.8090    -4.3930    -1.5570 H     1 <1>   0.1500 
 40 H       -8.7490    -1.3150     1.9820 H     1 <1>   0.0800 
 41 H       -8.3120    -3.0030     1.7580 H     1 <1>   0.0800 
 42 H       -8.4100    -1.9190     0.3610 H     1 <1>   0.0800 
 43 H       -7.8030    -5.9190    -0.2420 H     1 <1>   0.0800 
 44 H       -6.0430    -5.9380    -0.2450 H     1 <1>   0.0800 
 45 H       -6.9330    -5.2570    -1.6200 H     1 <1>   0.0800 
@<TRIPOS>BOND
  1   1   2  2   
  2   2   3  am  
  3   2   4  1   
  4   3   5  1   
  5   3  21  1   
  6   4   6  1   
  7   4  22  1   
  8   4  23  1   
  9   5   7  1   
 10   5   8  1   
 11   5  24  1   
 12   6   9  1   
 13   6  10  1   
 14   6  11  1   
 15   7  12  ar  
 16   7  13  ar  
 17   8  25  1   
 18   8  26  1   
 19   8  27  1   
 20   9  28  1   
 21   9  29  1   
 22   9  30  1   
 23  10  31  1   
 24  10  32  1   
 25  10  33  1   
 26  11  34  1   
 27  11  35  1   
 28  11  36  1   
 29  12  14  ar  
 30  12  37  1   
 31  13  15  ar  
 32  13  38  1   
 33  14  16  1   
 34  14  17  ar  
 35  15  17  ar  
 36  15  39  1   
 37  16  18  1   
 38  17  19  1   
 39  18  40  1   
 40  18  41  1   
 41  18  42  1   
 42  19  20  1   
 43  20  43  1   
 44  20  44  1   
 45  20  45  1   
@<TRIPOS>SUBSTRUCTURE
  1 ****   7 GROUP 4 **** **** 0

# MOE 2024.06 (io_trps.svl 2023.06)
