@<TRIPOS>MOLECULE
NONAME
47 49 1 0 0 
SMALL
USER_CHARGES


@<TRIPOS>ATOM
  1 CL      -0.1850     1.4660    -0.5120 Cl    1 <1>  -0.1770 
  2 C       -1.7660     1.9350     0.0610 C.ar  1 <1>   0.1770 
  3 C       -2.3460     3.1270    -0.3610 C.ar  1 <1>   0.0860 
  4 C       -2.4120     1.0860     0.9390 C.ar  1 <1>  -0.1500 
  5 C       -1.6860     4.0230    -1.2800 C.2   1 <1>   0.5440 
  6 C       -3.6130     3.4310     0.1340 C.ar  1 <1>  -0.1500 
  7 C       -3.6690     1.4210     1.4110 C.ar  1 <1>  -0.1500 
  8 O       -2.1290     4.1320    -2.4070 O.2   1 <1>  -0.5700 
  9 N       -0.5990     4.7810    -0.9030 N.am  1 <1>  -0.6600 
 10 C       -4.2940     2.5980     1.0120 C.ar  1 <1>  -0.0090 
 11 C       -0.1150     4.8510     0.5090 C.3   1 <1>   0.1400 
 12 C        0.1380     5.5930    -1.9190 C.3   1 <1>   0.1400 
 13 S       -5.9400     3.0410     1.6400 S.o2  1 <1>   1.4470 
 14 C        0.5160     6.2180     0.7920 C.3   1 <1>  -0.1600 
 15 C        1.5950     5.8010    -1.4930 C.3   1 <1>  -0.1600 
 16 O       -6.6940     1.8390     1.9200 O.2   1 <1>  -0.6500 
 17 O       -5.7800     4.0350     2.6780 O.2   1 <1>  -0.6500 
 18 N       -6.6770     3.7950     0.3130 N.am  1 <1>  -0.8490 
 19 C        1.7120     6.5100    -0.1320 C.3   1 <1>  -0.1600 
 20 C       -7.0340     2.8390    -0.7410 C.3   1 <1>   0.1960 
 21 C       -7.8440     4.5840     0.7210 C.3   1 <1>   0.1960 
 22 C       -7.5240     3.5850    -1.9850 C.3   1 <1>  -0.1600 
 23 C       -8.3800     5.3890    -0.4680 C.3   1 <1>  -0.1600 
 24 C       -8.7230     4.4830    -1.6560 C.3   1 <1>  -0.1600 
 25 H       -1.9350     0.1720     1.2470 H     1 <1>   0.1500 
 26 H       -4.0770     4.3510    -0.1880 H     1 <1>   0.1500 
 27 H       -4.1760     0.7590     2.0960 H     1 <1>   0.1500 
 28 H        0.6150     4.0760     0.6690 H     1 <1>   0.0800 
 29 H       -0.9340     4.6950     1.1900 H     1 <1>   0.0800 
 30 H       -0.3530     6.5440    -2.0270 H     1 <1>   0.0800 
 31 H        0.1120     5.0910    -2.8710 H     1 <1>   0.0800 
 32 H        0.8340     6.2660     1.8180 H     1 <1>   0.0800 
 33 H       -0.2400     6.9710     0.6520 H     1 <1>   0.0800 
 34 H        2.1120     6.3710    -2.2440 H     1 <1>   0.0800 
 35 H        2.0680     4.8360    -1.4400 H     1 <1>   0.0800 
 36 H        2.6240     6.1930     0.3430 H     1 <1>   0.0800 
 37 H        1.7770     7.5740    -0.2830 H     1 <1>   0.0800 
 38 H       -7.8030     2.1700    -0.3890 H     1 <1>   0.0800 
 39 H       -6.1730     2.2490    -1.0080 H     1 <1>   0.0800 
 40 H       -7.5650     5.2720     1.5020 H     1 <1>   0.0800 
 41 H       -8.6110     3.9310     1.1060 H     1 <1>   0.0800 
 42 H       -7.8020     2.8750    -2.7430 H     1 <1>   0.0800 
 43 H       -6.7160     4.1820    -2.3730 H     1 <1>   0.0800 
 44 H       -7.6330     6.1060    -0.7620 H     1 <1>   0.0800 
 45 H       -9.2550     5.9340    -0.1630 H     1 <1>   0.0800 
 46 H       -9.5710     3.8690    -1.4050 H     1 <1>   0.0800 
 47 H       -8.9820     5.0810    -2.5130 H     1 <1>   0.0800 
@<TRIPOS>BOND
  1   1   2  1   
  2   2   3  ar  
  3   2   4  ar  
  4   3   5  1   
  5   3   6  ar  
  6   4   7  ar  
  7   4  25  1   
  8   5   8  2   
  9   5   9  am  
 10   6  10  ar  
 11   6  26  1   
 12   7  10  ar  
 13   7  27  1   
 14   9  11  1   
 15   9  12  1   
 16  10  13  1   
 17  11  14  1   
 18  11  28  1   
 19  11  29  1   
 20  12  15  1   
 21  12  30  1   
 22  12  31  1   
 23  13  16  2   
 24  13  17  2   
 25  13  18  am  
 26  14  19  1   
 27  14  32  1   
 28  14  33  1   
 29  15  19  1   
 30  15  34  1   
 31  15  35  1   
 32  18  20  1   
 33  18  21  1   
 34  19  36  1   
 35  19  37  1   
 36  20  22  1   
 37  20  38  1   
 38  20  39  1   
 39  21  23  1   
 40  21  40  1   
 41  21  41  1   
 42  22  24  1   
 43  22  42  1   
 44  22  43  1   
 45  23  24  1   
 46  23  44  1   
 47  23  45  1   
 48  24  46  1   
 49  24  47  1   
@<TRIPOS>SUBSTRUCTURE
  1 ****   6 GROUP 4 **** **** 0

# MOE 2024.06 (io_trps.svl 2023.06)
