@<TRIPOS>MOLECULE
NONAME
45 48 1 0 0 
SMALL
USER_CHARGES


@<TRIPOS>ATOM
  1 S       -1.0430     0.4810     1.6800 S.3   1 <1>  -0.2420 
  2 C       -0.7570     1.7830     0.5210 C.2   1 <1>   0.6510 
  3 C       -1.5780    -0.6210     0.3980 C.2   1 <1>  -0.0490 
  4 N       -0.3180     2.9490     0.8620 N.2   1 <1>  -0.6210 
  5 N       -1.0640     1.3390    -0.7380 N.am  1 <1>  -0.2290 
  6 C       -1.5190     0.0030    -0.7860 C.2   1 <1>  -0.0410 
  7 C       -0.1490     3.8410    -0.1620 C.2   1 <1>   0.0330 
  8 C       -0.8910     2.2170    -1.7800 C.2   1 <1>   0.6160 
  9 C       -0.4210     3.5110    -1.4510 C.2   1 <1>  -0.1360 
 10 C        0.3620     5.2280     0.2200 C.3   1 <1>   0.2480 
 11 O       -1.1300     1.8790    -2.9290 O.2   1 <1>  -0.5700 
 12 N        1.8390     5.3120     0.1290 N.3   1 <1>  -0.8100 
 13 C        2.3140     6.6940     0.3710 C.3   1 <1>   0.1100 
 14 C        2.4980     4.3660     1.0740 C.3   1 <1>   0.1100 
 15 C        3.8500     6.8210     0.2010 C.3   1 <1>   0.3430 
 16 C        4.0340     4.5430     1.1340 C.3   1 <1>   0.3430 
 17 N        4.4940     5.4750     0.0540 N.4   1 <1>  -0.9590 
 18 C        5.9660     5.5140    -0.1370 C.3   1 <1>   0.4860 
 19 C        6.4500     4.1160    -0.4770 C.ar  1 <1>  -0.1430 
 20 C        6.1670     3.5630    -1.7230 C.ar  1 <1>  -0.1500 
 21 C        7.1710     3.3830     0.4600 C.ar  1 <1>  -0.1500 
 22 C        6.5900     2.2810    -2.0290 C.ar  1 <1>  -0.1500 
 23 C        7.5980     2.1000     0.1620 C.ar  1 <1>  -0.1500 
 24 C        7.2970     1.5720    -1.0780 C.ar  1 <1>   0.1900 
 25 F        7.6950     0.3620    -1.3610 F     1 <1>  -0.1900 
 26 H       -1.8740    -1.6140     0.6920 H     1 <1>   0.1500 
 27 H       -1.7800    -0.4100    -1.7480 H     1 <1>   0.1500 
 28 H       -0.2920     4.1960    -2.2670 H     1 <1>   0.1500 
 29 H        0.0320     5.4690     1.2170 H     1 <1>   0.0800 
 30 H       -0.0710     5.9470    -0.4540 H     1 <1>   0.0800 
 31 H        2.0420     7.0020     1.3680 H     1 <1>   0.0800 
 32 H        1.8330     7.3690    -0.3170 H     1 <1>   0.0800 
 33 H        2.2950     3.3560     0.7620 H     1 <1>   0.0800 
 34 H        2.0890     4.4810     2.0630 H     1 <1>   0.0800 
 35 H        4.2570     7.3390     1.0530 H     1 <1>   0.0800 
 36 H        4.0520     7.4170    -0.6740 H     1 <1>   0.0800 
 37 H        4.4980     3.5770     1.0220 H     1 <1>   0.0800 
 38 H        4.3100     4.9320     2.1000 H     1 <1>   0.0800 
 39 H        4.0630     5.0730    -0.7920 H     1 <1>   0.4500 
 40 H        6.4490     5.8630     0.7610 H     1 <1>   0.0800 
 41 H        6.2170     6.1840    -0.9440 H     1 <1>   0.0800 
 42 H        5.6200     4.1180    -2.4670 H     1 <1>   0.1500 
 43 H        7.4110     3.7970     1.4250 H     1 <1>   0.1500 
 44 H        6.3820     1.8330    -2.9850 H     1 <1>   0.1500 
 45 H        8.1570     1.5140     0.8710 H     1 <1>   0.1500 
@<TRIPOS>BOND
  1   1   2  1   
  2   1   3  1   
  3   2   4  2   
  4   2   5  1   
  5   3   6  2   
  6   3  26  1   
  7   4   7  1   
  8   5   6  1   
  9   5   8  am  
 10   6  27  1   
 11   7   9  2   
 12   7  10  1   
 13   8   9  1   
 14   8  11  2   
 15   9  28  1   
 16  10  12  1   
 17  10  29  1   
 18  10  30  1   
 19  12  13  1   
 20  12  14  1   
 21  13  15  1   
 22  13  31  1   
 23  13  32  1   
 24  14  16  1   
 25  14  33  1   
 26  14  34  1   
 27  15  17  1   
 28  15  35  1   
 29  15  36  1   
 30  16  17  1   
 31  16  37  1   
 32  16  38  1   
 33  17  18  1   
 34  17  39  1   
 35  18  19  1   
 36  18  40  1   
 37  18  41  1   
 38  19  20  ar  
 39  19  21  ar  
 40  20  22  ar  
 41  20  42  1   
 42  21  23  ar  
 43  21  43  1   
 44  22  24  ar  
 45  22  44  1   
 46  23  24  ar  
 47  23  45  1   
 48  24  25  1   
@<TRIPOS>SUBSTRUCTURE
  1 ****  14 GROUP 4 **** **** 0

# MOE 2024.06 (io_trps.svl 2023.06)
