@<TRIPOS>MOLECULE
NONAME
46 48 1 0 0 
SMALL
USER_CHARGES


@<TRIPOS>ATOM
  1 CL      -0.8910    -1.9610     0.2110 Cl    1 <1>  -0.1770 
  2 C       -1.9700    -0.6080    -0.0280 C.ar  1 <1>   0.1770 
  3 C       -1.4420     0.6560    -0.2170 C.ar  1 <1>  -0.1500 
  4 C       -3.3370    -0.8210    -0.0240 C.ar  1 <1>  -0.1500 
  5 C       -2.3020     1.7240    -0.4030 C.ar  1 <1>  -0.1500 
  6 C       -4.1890     0.2530    -0.2090 C.ar  1 <1>  -0.1500 
  7 C       -3.6800     1.5350    -0.3930 C.ar  1 <1>   0.1000 
  8 N       -4.5470     2.6030    -0.5640 N.pl3 1 <1>  -0.8690 
  9 C       -4.5800     3.6480     0.5380 C.3   1 <1>   0.4330 
 10 P       -6.2020     4.3580     0.9670 P.3   1 <1>   1.2420 
 11 C       -3.5350     4.7180     0.2120 C.ar  1 <1>  -0.1440 
 12 O       -6.3140     5.0700     2.2410 O.2   1 <1>  -0.7000 
 13 O       -7.2410     3.1300     0.8540 O.3   1 <1>  -0.5510 
 14 O       -6.6780     5.2590    -0.2760 O.3   1 <1>  -0.5510 
 15 C       -2.6480     5.1450     1.1930 C.ar  1 <1>  -0.1500 
 16 C       -3.4630     5.2830    -1.0560 C.ar  1 <1>  -0.1500 
 17 C       -8.2240     3.1360    -0.1330 C.3   1 <1>   0.1200 
 18 C       -8.0000     5.6810    -0.3040 C.3   1 <1>   0.1200 
 19 C       -1.7030     6.1150     0.9100 C.ar  1 <1>  -0.1500 
 20 C       -2.5200     6.2550    -1.3440 C.ar  1 <1>  -0.1500 
 21 C       -8.9840     4.4850    -0.1560 C.3   1 <1>   0.0000 
 22 C       -1.6420     6.6660    -0.3560 C.ar  1 <1>   0.0830 
 23 C       -9.8020     4.6420     1.1390 C.3   1 <1>  -0.2400 
 24 C       -9.9620     4.4770    -1.3430 C.3   1 <1>  -0.2400 
 25 O       -0.7220     7.6050    -0.6200 O.3   1 <1>  -0.5330 
 26 H       -0.3770     0.7970    -0.2220 H     1 <1>   0.1500 
 27 H       -3.7210    -1.8150     0.1220 H     1 <1>   0.1500 
 28 H       -1.9050     2.7100    -0.5640 H     1 <1>   0.1500 
 29 H       -5.2520     0.0980    -0.2070 H     1 <1>   0.1500 
 30 H       -5.5060     2.2970    -0.7580 H     1 <1>   0.4000 
 31 H       -4.2290     3.1440     1.4200 H     1 <1>   0.0800 
 32 H       -2.6860     4.7290     2.1860 H     1 <1>   0.1500 
 33 H       -4.1440     4.9620    -1.8260 H     1 <1>   0.1500 
 34 H       -8.8970     2.3200     0.0670 H     1 <1>   0.0800 
 35 H       -7.7430     2.9650    -1.0810 H     1 <1>   0.0800 
 36 H       -8.1480     6.1960    -1.2380 H     1 <1>   0.0800 
 37 H       -8.1320     6.3910     0.4960 H     1 <1>   0.0800 
 38 H       -1.0150     6.4500     1.6650 H     1 <1>   0.1500 
 39 H       -2.4770     6.6800    -2.3290 H     1 <1>   0.1500 
 40 H       -9.1540     4.6640     1.9990 H     1 <1>   0.0800 
 41 H      -10.4880     3.8220     1.2580 H     1 <1>   0.0800 
 42 H      -10.3670     5.5570     1.1240 H     1 <1>   0.0800 
 43 H       -9.4300     4.3690    -2.2720 H     1 <1>   0.0800 
 44 H      -10.5210     5.3970    -1.3780 H     1 <1>   0.0800 
 45 H      -10.6590     3.6620    -1.2550 H     1 <1>   0.0800 
 46 H       -0.7690     7.9370    -1.5330 H     1 <1>   0.4500 
@<TRIPOS>BOND
  1   1   2  1   
  2   2   3  ar  
  3   2   4  ar  
  4   3   5  ar  
  5   3  26  1   
  6   4   6  ar  
  7   4  27  1   
  8   5   7  ar  
  9   5  28  1   
 10   6   7  ar  
 11   6  29  1   
 12   7   8  1   
 13   8   9  1   
 14   8  30  1   
 15   9  10  1   
 16   9  11  1   
 17   9  31  1   
 18  10  12  2   
 19  10  13  1   
 20  10  14  1   
 21  11  15  ar  
 22  11  16  ar  
 23  13  17  1   
 24  14  18  1   
 25  15  19  ar  
 26  15  32  1   
 27  16  20  ar  
 28  16  33  1   
 29  17  21  1   
 30  17  34  1   
 31  17  35  1   
 32  18  21  1   
 33  18  36  1   
 34  18  37  1   
 35  19  22  ar  
 36  19  38  1   
 37  20  22  ar  
 38  20  39  1   
 39  21  23  1   
 40  21  24  1   
 41  22  25  1   
 42  23  40  1   
 43  23  41  1   
 44  23  42  1   
 45  24  43  1   
 46  24  44  1   
 47  24  45  1   
 48  25  46  1   
@<TRIPOS>SUBSTRUCTURE
  1 ****   9 GROUP 4 **** **** 0

# MOE 2024.06 (io_trps.svl 2023.06)
