@<TRIPOS>MOLECULE
NONAME
32 32 1 0 0 
SMALL
USER_CHARGES


@<TRIPOS>ATOM
  1 S       -1.1840     0.1700     2.2750 S.2   1 <1>  -0.7500 
  2 C       -1.8600    -0.0330     0.8250 C.2   1 <1>   0.7960 
  3 S       -1.2540     0.6780    -0.5110 S.2   1 <1>  -0.7500 
  4 N       -3.0410    -0.6770     0.7750 N.am  1 <1>  -0.9660 
  5 C       -3.7740    -1.0780    -0.4660 C.3   1 <1>   0.1400 
  6 C       -4.7060     0.0480    -0.9590 C.3   1 <1>   0.3430 
  7 N       -4.1190     1.3620    -0.5900 N.4   1 <1>  -0.9060 
  8 C       -4.8420     2.6100    -0.9490 C.3   1 <1>   0.3430 
  9 C       -6.1750     2.7690    -0.2030 C.3   1 <1>   0.1200 
 10 O       -7.0610     1.7390    -0.5910 O.3   1 <1>  -0.3630 
 11 C       -8.2730     1.5910    -0.0010 C.ar  1 <1>   0.0820 
 12 C       -9.0610     0.5440    -0.4520 C.ar  1 <1>  -0.1500 
 13 C       -8.7490     2.4200     1.0120 C.ar  1 <1>  -0.1500 
 14 C      -10.3080     0.3160     0.1020 C.ar  1 <1>  -0.1500 
 15 C       -9.9970     2.1900     1.5650 C.ar  1 <1>  -0.1500 
 16 C      -10.7760     1.1390     1.1120 C.ar  1 <1>  -0.1500 
 17 H       -3.2540    -1.1810     1.6420 H     1 <1>   0.3700 
 18 H       -4.3450    -1.9720    -0.2810 H     1 <1>   0.0800 
 19 H       -3.0590    -1.3070    -1.2390 H     1 <1>   0.0800 
 20 H       -5.6650    -0.0680    -0.4830 H     1 <1>   0.0800 
 21 H       -4.8430    -0.0250    -2.0250 H     1 <1>   0.0800 
 22 H       -3.1400     1.3600    -0.9490 H     1 <1>   0.4500 
 23 H       -3.9240     1.2790     0.4220 H     1 <1>   0.4500 
 24 H       -5.0240     2.6360    -2.0100 H     1 <1>   0.0800 
 25 H       -4.2140     3.4520    -0.7040 H     1 <1>   0.0800 
 26 H       -6.6310     3.7110    -0.4530 H     1 <1>   0.0800 
 27 H       -6.0150     2.7110     0.8590 H     1 <1>   0.0800 
 28 H       -8.7000    -0.0930    -1.2380 H     1 <1>   0.1500 
 29 H       -8.1740     3.2450     1.3870 H     1 <1>   0.1500 
 30 H      -10.9170    -0.4990    -0.2510 H     1 <1>   0.1500 
 31 H      -10.3670     2.8280     2.3490 H     1 <1>   0.1500 
 32 H      -11.7460     0.9630     1.5430 H     1 <1>   0.1500 
@<TRIPOS>BOND
  1   1   2  ar  
  2   2   3  ar  
  3   2   4  am  
  4   4   5  1   
  5   4  17  1   
  6   5   6  1   
  7   5  18  1   
  8   5  19  1   
  9   6   7  1   
 10   6  20  1   
 11   6  21  1   
 12   7   8  1   
 13   7  22  1   
 14   7  23  1   
 15   8   9  1   
 16   8  24  1   
 17   8  25  1   
 18   9  10  1   
 19   9  26  1   
 20   9  27  1   
 21  10  11  1   
 22  11  12  ar  
 23  11  13  ar  
 24  12  14  ar  
 25  12  28  1   
 26  13  15  ar  
 27  13  29  1   
 28  14  16  ar  
 29  14  30  1   
 30  15  16  ar  
 31  15  31  1   
 32  16  32  1   
@<TRIPOS>SUBSTRUCTURE
  1 ****  10 GROUP 4 **** **** 0

# MOE 2024.06 (io_trps.svl 2023.06)
