@<TRIPOS>MOLECULE
NONAME
40 40 1 0 0 
SMALL
USER_CHARGES


@<TRIPOS>ATOM
  1 S       -0.6520    -1.4780     0.6430 S.o2  1 <1>   1.4470 
  2 O        0.7010    -1.2740     1.1120 O.2   1 <1>  -0.6500 
  3 O       -1.5130    -2.3480     1.4180 O.2   1 <1>  -0.6500 
  4 N       -0.5790    -2.1280    -0.9270 N.am  1 <1>  -0.8490 
  5 C       -1.4610     0.1270     0.3970 C.ar  1 <1>  -0.0090 
  6 C        0.7580    -2.6420    -1.3170 C.3   1 <1>   0.2570 
  7 C       -1.6540    -3.0740    -1.2360 C.3   1 <1>   0.1160 
  8 C       -2.4670     0.5630     1.2520 C.ar  1 <1>  -0.1500 
  9 C       -1.0860     0.9720    -0.6420 C.ar  1 <1>  -0.1500 
 10 C        1.8180    -1.5600    -1.6220 C.2   1 <1>   0.5690 
 11 C       -3.0810     1.7910     1.0750 C.ar  1 <1>  -0.1500 
 12 C       -1.6960     2.2010    -0.8250 C.ar  1 <1>  -0.1500 
 13 O        1.5860    -0.7460    -2.4840 O.2   1 <1>  -0.5700 
 14 N        3.0260    -1.5070    -1.0030 N.am  1 <1>  -0.7300 
 15 C       -2.6990     2.6170     0.0320 C.ar  1 <1>  -0.1430 
 16 C        3.5310    -2.2720     0.1690 C.3   1 <1>   0.1400 
 17 C       -3.3670     3.9650    -0.1670 C.3   1 <1>  -0.0970 
 18 C        4.6190    -3.2490    -0.2740 C.3   1 <1>   0.1200 
 19 O        5.0180    -3.9930     0.8310 O.3   1 <1>  -0.5600 
 20 C        6.0270    -4.9130     0.5620 C.3   1 <1>   0.0400 
 21 H        0.6560    -3.2090    -2.2250 H     1 <1>   0.0800 
 22 H        1.1130    -3.3170    -0.5620 H     1 <1>   0.0800 
 23 H       -2.6090    -2.6260    -1.0200 H     1 <1>   0.0800 
 24 H       -1.5500    -3.9690    -0.6440 H     1 <1>   0.0800 
 25 H       -1.6320    -3.3340    -2.2810 H     1 <1>   0.0800 
 26 H       -2.7740    -0.0690     2.0690 H     1 <1>   0.1500 
 27 H       -0.3060     0.6640    -1.3190 H     1 <1>   0.1500 
 28 H       -3.8570     2.1000     1.7540 H     1 <1>   0.1500 
 29 H       -1.3820     2.8300    -1.6400 H     1 <1>   0.1500 
 30 H        3.6070    -0.7150    -1.2860 H     1 <1>   0.3700 
 31 H        2.7330    -2.8130     0.6440 H     1 <1>   0.0800 
 32 H        3.9370    -1.5810     0.8880 H     1 <1>   0.0800 
 33 H       -4.3760     3.9460     0.2050 H     1 <1>   0.0800 
 34 H       -3.3970     4.2180    -1.2110 H     1 <1>   0.0800 
 35 H       -2.8170     4.7240     0.3590 H     1 <1>   0.0800 
 36 H        5.4710    -2.7130    -0.6550 H     1 <1>   0.0800 
 37 H        4.2350    -3.9240    -1.0190 H     1 <1>   0.0800 
 38 H        6.2570    -5.4330     1.4750 H     1 <1>   0.0800 
 39 H        6.9010    -4.3910     0.2120 H     1 <1>   0.0800 
 40 H        5.6810    -5.6140    -0.1780 H     1 <1>   0.0800 
@<TRIPOS>BOND
  1   1   2  2   
  2   1   3  2   
  3   1   4  am  
  4   1   5  1   
  5   4   6  1   
  6   4   7  1   
  7   5   8  ar  
  8   5   9  ar  
  9   6  10  1   
 10   6  21  1   
 11   6  22  1   
 12   7  23  1   
 13   7  24  1   
 14   7  25  1   
 15   8  11  ar  
 16   8  26  1   
 17   9  12  ar  
 18   9  27  1   
 19  10  13  2   
 20  10  14  am  
 21  11  15  ar  
 22  11  28  1   
 23  12  15  ar  
 24  12  29  1   
 25  14  16  1   
 26  14  30  1   
 27  15  17  1   
 28  16  18  1   
 29  16  31  1   
 30  16  32  1   
 31  17  33  1   
 32  17  34  1   
 33  17  35  1   
 34  18  19  1   
 35  18  36  1   
 36  18  37  1   
 37  19  20  1   
 38  20  38  1   
 39  20  39  1   
 40  20  40  1   
@<TRIPOS>SUBSTRUCTURE
  1 ****   2 GROUP 4 **** **** 0

# MOE 2024.06 (io_trps.svl 2023.06)
