@<TRIPOS>MOLECULE
NONAME
54 56 1 0 0 
SMALL
USER_CHARGES


@<TRIPOS>ATOM
  1 O        3.0840     3.4190    -1.7350 O.2   1 <1>  -0.5700 
  2 C        2.5540     3.5090    -0.6470 C.2   1 <1>   0.7800 
  3 O        3.0130     4.3770     0.2530 O.3   1 <1>  -0.4300 
  4 N        1.4550     2.7650    -0.3090 N.am  1 <1>  -0.6600 
  5 C        4.1470     5.1690    -0.0220 C.3   1 <1>   0.1200 
  6 C        0.6500     3.0060     0.9240 C.3   1 <1>   0.1400 
  7 C        0.8380     1.8090    -1.2730 C.3   1 <1>   0.1400 
  8 C        4.4140     6.0500     1.1940 C.3   1 <1>  -0.2400 
  9 C       -0.7670     3.4790     0.5440 C.3   1 <1>   0.3430 
 10 C       -0.5760     2.2820    -1.6560 C.3   1 <1>   0.3430 
 11 N       -1.4280     2.5520    -0.4440 N.4   1 <1>  -0.9590 
 12 C       -2.8190     2.9790    -0.7930 C.3   1 <1>   0.3430 
 13 C       -3.7930     2.6190     0.3500 C.3   1 <1>   0.2000 
 14 O       -3.3730     1.4260     0.9450 O.3   1 <1>  -0.6800 
 15 C       -5.2380     2.4530    -0.1360 C.3   1 <1>   0.1200 
 16 O       -6.0100     1.9570     0.9360 O.3   1 <1>  -0.3630 
 17 C       -7.3420     1.7370     0.7980 C.ar  1 <1>   0.0820 
 18 C       -8.0360     1.9200    -0.3980 C.ar  1 <1>  -0.1500 
 19 C       -8.0230     1.3080     1.9310 C.ar  1 <1>  -0.1500 
 20 C       -9.3950     1.6690    -0.4290 C.ar  1 <1>  -0.1440 
 21 C       -9.3860     1.0590     1.8870 C.ar  1 <1>  -0.1500 
 22 C      -10.0600     1.2460     0.6940 C.ar  1 <1>  -0.1440 
 23 C      -10.3350     1.7980    -1.6030 C.3   1 <1>  -0.0170 
 24 C      -11.5280     1.0370     0.4190 C.3   1 <1>  -0.0170 
 25 C      -11.7280     1.6890    -0.9600 C.3   1 <1>  -0.1600 
 26 H        3.9450     5.7670    -0.8950 H     1 <1>   0.0800 
 27 H        4.9810     4.5160    -0.2160 H     1 <1>   0.0800 
 28 H        1.1150     3.7490     1.5490 H     1 <1>   0.0800 
 29 H        0.5910     2.0960     1.4940 H     1 <1>   0.0800 
 30 H        0.7890     0.8320    -0.8240 H     1 <1>   0.0800 
 31 H        1.4380     1.7250    -2.1630 H     1 <1>   0.0800 
 32 H        3.5720     6.6910     1.3830 H     1 <1>   0.0800 
 33 H        5.2770     6.6650     1.0120 H     1 <1>   0.0800 
 34 H        4.6060     5.4410     2.0590 H     1 <1>   0.0800 
 35 H       -0.6910     4.4660     0.1190 H     1 <1>   0.0800 
 36 H       -1.3640     3.5450     1.4390 H     1 <1>   0.0800 
 37 H       -1.0420     1.5320    -2.2740 H     1 <1>   0.0800 
 38 H       -0.4820     3.1830    -2.2410 H     1 <1>   0.0800 
 39 H       -1.5830     1.6560     0.0610 H     1 <1>   0.4500 
 40 H       -3.1380     2.4540    -1.6780 H     1 <1>   0.0800 
 41 H       -2.8580     4.0350    -1.0030 H     1 <1>   0.0800 
 42 H       -3.7670     3.3870     1.1030 H     1 <1>   0.0800 
 43 H       -4.1210     1.0730     1.4850 H     1 <1>   0.4000 
 44 H       -5.2920     1.7480    -0.9470 H     1 <1>   0.0800 
 45 H       -5.6510     3.3990    -0.4410 H     1 <1>   0.0800 
 46 H       -7.5540     2.2470    -1.2980 H     1 <1>   0.1500 
 47 H       -7.4850     1.1690     2.8500 H     1 <1>   0.1500 
 48 H       -9.9110     0.7270     2.7640 H     1 <1>   0.1500 
 49 H      -10.1680     0.9830    -2.2860 H     1 <1>   0.0800 
 50 H      -10.2080     2.7360    -2.1130 H     1 <1>   0.0800 
 51 H      -12.1410     1.5030     1.1700 H     1 <1>   0.0800 
 52 H      -11.7370    -0.0170     0.3760 H     1 <1>   0.0800 
 53 H      -12.4100     1.1270    -1.5730 H     1 <1>   0.0800 
 54 H      -12.1220     2.6810    -0.8180 H     1 <1>   0.0800 
@<TRIPOS>BOND
  1   1   2  2   
  2   2   3  1   
  3   2   4  am  
  4   3   5  1   
  5   4   6  1   
  6   4   7  1   
  7   5   8  1   
  8   5  26  1   
  9   5  27  1   
 10   6   9  1   
 11   6  28  1   
 12   6  29  1   
 13   7  10  1   
 14   7  30  1   
 15   7  31  1   
 16   8  32  1   
 17   8  33  1   
 18   8  34  1   
 19   9  11  1   
 20   9  35  1   
 21   9  36  1   
 22  10  11  1   
 23  10  37  1   
 24  10  38  1   
 25  11  12  1   
 26  11  39  1   
 27  12  13  1   
 28  12  40  1   
 29  12  41  1   
 30  13  14  1   
 31  13  15  1   
 32  13  42  1   
 33  14  43  1   
 34  15  16  1   
 35  15  44  1   
 36  15  45  1   
 37  16  17  1   
 38  17  18  ar  
 39  17  19  ar  
 40  18  20  ar  
 41  18  46  1   
 42  19  21  ar  
 43  19  47  1   
 44  20  22  ar  
 45  20  23  1   
 46  21  22  ar  
 47  21  48  1   
 48  22  24  1   
 49  23  25  1   
 50  23  49  1   
 51  23  50  1   
 52  24  25  1   
 53  24  51  1   
 54  24  52  1   
 55  25  53  1   
 56  25  54  1   
@<TRIPOS>SUBSTRUCTURE
  1 ****  13 GROUP 4 **** **** 0

# MOE 2024.06 (io_trps.svl 2023.06)
