@<TRIPOS>MOLECULE
NONAME
46 48 1 0 0 
SMALL
USER_CHARGES


@<TRIPOS>ATOM
  1 O        0.2180     0.0930     0.6150 O.2   1 <1>  -0.5700 
  2 C        0.7470    -0.8670     0.0870 C.2   1 <1>   0.6900 
  3 N        2.0490    -0.7830    -0.3400 N.am  1 <1>  -0.6600 
  4 N        0.0730    -2.0460    -0.0630 N.am  1 <1>  -0.5470 
  5 C        2.8950     0.4150    -0.0300 C.3   1 <1>   0.1400 
  6 C        2.7560    -1.7750    -1.2120 C.3   1 <1>   0.1400 
  7 C       -1.2680    -2.3860     0.1640 C.ar  1 <1>   0.1170 
  8 C        4.2500     0.0020     0.5690 C.3   1 <1>   0.2090 
  9 C        4.1080    -2.1890    -0.6020 C.3   1 <1>   0.2090 
 10 C       -2.3010    -1.4540     0.1360 C.ar  1 <1>  -0.1500 
 11 C       -1.5910    -3.7160     0.4060 C.ar  1 <1>  -0.1500 
 12 N        4.9500    -0.9960    -0.2980 N.pl3 1 <1>  -0.8380 
 13 C       -3.6120    -1.8390     0.3490 C.ar  1 <1>  -0.1500 
 14 C       -2.9020    -4.1040     0.6190 C.ar  1 <1>  -0.1500 
 15 C        6.2770    -1.2580     0.0180 C.ar  1 <1>   0.1000 
 16 C       -3.9220    -3.1670     0.5940 C.ar  1 <1>  -0.1440 
 17 C        7.2770    -0.9130    -0.8810 C.ar  1 <1>  -0.1500 
 18 C        6.6360    -1.8640     1.2170 C.ar  1 <1>  -0.1500 
 19 C       -5.3630    -3.5890     0.8300 C.3   1 <1>  -0.0170 
 20 C        8.6070    -1.1660    -0.5940 C.ar  1 <1>  -0.1500 
 21 C        7.9640    -2.1190     1.5100 C.ar  1 <1>  -0.1500 
 22 C       -6.0360    -3.9670    -0.4910 C.3   1 <1>  -0.2400 
 23 C        8.9520    -1.7700     0.6040 C.ar  1 <1>  -0.1500 
 24 H        0.6820    -2.8220    -0.2820 H     1 <1>   0.3700 
 25 H        2.3930     1.0670     0.6640 H     1 <1>   0.0800 
 26 H        3.0660     0.9680    -0.9360 H     1 <1>   0.0800 
 27 H        2.9390    -1.3230    -2.1710 H     1 <1>   0.0800 
 28 H        2.1560    -2.6510    -1.3750 H     1 <1>   0.0800 
 29 H        4.0900    -0.4180     1.5460 H     1 <1>   0.0800 
 30 H        4.8730     0.8730     0.6780 H     1 <1>   0.0800 
 31 H        4.6340    -2.8240    -1.2930 H     1 <1>   0.0800 
 32 H        3.9370    -2.7470     0.3020 H     1 <1>   0.0800 
 33 H       -2.0820    -0.4200    -0.0560 H     1 <1>   0.1500 
 34 H       -0.8140    -4.4560     0.4330 H     1 <1>   0.1500 
 35 H       -4.3910    -1.0980     0.3230 H     1 <1>   0.1500 
 36 H       -3.1280    -5.1390     0.8050 H     1 <1>   0.1500 
 37 H        6.9980    -0.4440    -1.8060 H     1 <1>   0.1500 
 38 H        5.8700    -2.1340     1.9190 H     1 <1>   0.1500 
 39 H       -5.9050    -2.7830     1.2940 H     1 <1>   0.0800 
 40 H       -5.3890    -4.4290     1.5030 H     1 <1>   0.0800 
 41 H        9.3720    -0.8930    -1.2990 H     1 <1>   0.1500 
 42 H        8.2300    -2.5880     2.4400 H     1 <1>   0.1500 
 43 H       -6.0280    -3.1270    -1.1630 H     1 <1>   0.0800 
 44 H       -7.0550    -4.2630    -0.3170 H     1 <1>   0.0800 
 45 H       -5.5110    -4.7830    -0.9540 H     1 <1>   0.0800 
 46 H        9.9850    -1.9680     0.8290 H     1 <1>   0.1500 
@<TRIPOS>BOND
  1   1   2  2   
  2   2   3  am  
  3   2   4  am  
  4   3   5  1   
  5   3   6  1   
  6   4   7  1   
  7   4  24  1   
  8   5   8  1   
  9   5  25  1   
 10   5  26  1   
 11   6   9  1   
 12   6  27  1   
 13   6  28  1   
 14   7  10  ar  
 15   7  11  ar  
 16   8  12  1   
 17   8  29  1   
 18   8  30  1   
 19   9  12  1   
 20   9  31  1   
 21   9  32  1   
 22  10  13  ar  
 23  10  33  1   
 24  11  14  ar  
 25  11  34  1   
 26  12  15  1   
 27  13  16  ar  
 28  13  35  1   
 29  14  16  ar  
 30  14  36  1   
 31  15  17  ar  
 32  15  18  ar  
 33  16  19  1   
 34  17  20  ar  
 35  17  37  1   
 36  18  21  ar  
 37  18  38  1   
 38  19  22  1   
 39  19  39  1   
 40  19  40  1   
 41  20  23  ar  
 42  20  41  1   
 43  21  23  ar  
 44  21  42  1   
 45  22  43  1   
 46  22  44  1   
 47  22  45  1   
 48  23  46  1   
@<TRIPOS>SUBSTRUCTURE
  1 ****   3 GROUP 4 **** **** 0

# MOE 2024.06 (io_trps.svl 2023.06)
