@<TRIPOS>MOLECULE
NONAME
53 55 1 0 0 
SMALL
USER_CHARGES


@<TRIPOS>ATOM
  1 O       -0.6340     3.2520    -1.4570 O.2   1 <1>  -0.5700 
  2 C        0.0160     2.6610    -0.6280 C.2   1 <1>   0.5690 
  3 N       -0.4590     1.6480     0.1530 N.am  1 <1>  -0.5470 
  4 C        1.4850     3.0300    -0.4220 C.3   1 <1>   0.1710 
  5 C       -1.7010     0.9920     0.1830 C.ar  1 <1>   0.1170 
  6 N        2.3270     1.8650    -0.0270 N.3   1 <1>  -0.8100 
  7 C       -2.9070     1.6770     0.3670 C.ar  1 <1>  -0.1430 
  8 C       -1.7210    -0.4010     0.0540 C.ar  1 <1>  -0.1430 
  9 C        3.6170     2.3030     0.5550 C.3   1 <1>   0.1100 
 10 C        2.5940     0.9910    -1.1990 C.3   1 <1>   0.1100 
 11 C       -4.1010     0.9760     0.3890 C.ar  1 <1>  -0.1500 
 12 C       -2.9710     3.1880     0.5610 C.3   1 <1>  -0.0970 
 13 C       -2.9260    -1.0830     0.0850 C.ar  1 <1>  -0.1500 
 14 C       -0.4350    -1.1990    -0.1320 C.3   1 <1>  -0.0970 
 15 C        4.5060     1.1080     0.9550 C.3   1 <1>   0.2090 
 16 C        3.4640    -0.2260    -0.8310 C.3   1 <1>   0.2090 
 17 C       -4.1140    -0.3980     0.2480 C.ar  1 <1>  -0.1500 
 18 N        4.7480     0.2090    -0.2110 N.pl3 1 <1>  -0.8380 
 19 C        5.6890    -0.8090    -0.0020 C.ar  1 <1>   0.1000 
 20 C        5.5190    -1.8830     0.8920 C.ar  1 <1>   0.0830 
 21 C        6.8640    -0.7350    -0.7360 C.ar  1 <1>  -0.1500 
 22 O        4.3580    -1.9540     1.6170 O.3   1 <1>  -0.3630 
 23 C        6.5230    -2.8400     1.0160 C.ar  1 <1>  -0.1500 
 24 C        7.8570    -1.6880    -0.6060 C.ar  1 <1>  -0.1500 
 25 C        4.1750    -2.9260     2.6220 C.3   1 <1>   0.0400 
 26 C        7.6860    -2.7420     0.2710 C.ar  1 <1>  -0.1500 
 27 H        0.3040     1.1750     0.6440 H     1 <1>   0.3700 
 28 H        1.5160     3.7720     0.3550 H     1 <1>   0.0800 
 29 H        1.8670     3.4770    -1.3230 H     1 <1>   0.0800 
 30 H        3.4300     2.8990     1.4310 H     1 <1>   0.0800 
 31 H        4.1550     2.9070    -0.1560 H     1 <1>   0.0800 
 32 H        3.1050     1.5520    -1.9630 H     1 <1>   0.0800 
 33 H        1.6650     0.6420    -1.6110 H     1 <1>   0.0800 
 34 H       -5.0330     1.4970     0.5190 H     1 <1>   0.1500 
 35 H       -2.9660     3.6760    -0.3970 H     1 <1>   0.0800 
 36 H       -2.1300     3.5330     1.1340 H     1 <1>   0.0800 
 37 H       -3.8670     3.4690     1.0830 H     1 <1>   0.0800 
 38 H       -2.9500    -2.1530    -0.0210 H     1 <1>   0.1500 
 39 H        0.2610    -0.9800     0.6570 H     1 <1>   0.0800 
 40 H        0.0110    -0.9480    -1.0770 H     1 <1>   0.0800 
 41 H       -0.6310    -2.2560    -0.1220 H     1 <1>   0.0800 
 42 H        4.0250     0.5590     1.7450 H     1 <1>   0.0800 
 43 H        5.4510     1.4680     1.3230 H     1 <1>   0.0800 
 44 H        3.6760    -0.7980    -1.7160 H     1 <1>   0.0800 
 45 H        2.9220    -0.8530    -0.1460 H     1 <1>   0.0800 
 46 H       -5.0480    -0.9330     0.2670 H     1 <1>   0.1500 
 47 H        6.9900     0.0870    -1.4160 H     1 <1>   0.1500 
 48 H        6.4240    -3.6720     1.6840 H     1 <1>   0.1500 
 49 H        8.7590    -1.6070    -1.1870 H     1 <1>   0.1500 
 50 H        3.2220    -2.7500     3.0870 H     1 <1>   0.0800 
 51 H        4.9610    -2.8280     3.3500 H     1 <1>   0.0800 
 52 H        4.1860    -3.9020     2.1700 H     1 <1>   0.0800 
 53 H        8.4570    -3.4860     0.3740 H     1 <1>   0.1500 
@<TRIPOS>BOND
  1   1   2  2   
  2   2   3  am  
  3   2   4  1   
  4   3   5  1   
  5   3  27  1   
  6   4   6  1   
  7   4  28  1   
  8   4  29  1   
  9   5   7  ar  
 10   5   8  ar  
 11   6   9  1   
 12   6  10  1   
 13   7  11  ar  
 14   7  12  1   
 15   8  13  ar  
 16   8  14  1   
 17   9  15  1   
 18   9  30  1   
 19   9  31  1   
 20  10  16  1   
 21  10  32  1   
 22  10  33  1   
 23  11  17  ar  
 24  11  34  1   
 25  12  35  1   
 26  12  36  1   
 27  12  37  1   
 28  13  17  ar  
 29  13  38  1   
 30  14  39  1   
 31  14  40  1   
 32  14  41  1   
 33  15  18  1   
 34  15  42  1   
 35  15  43  1   
 36  16  18  1   
 37  16  44  1   
 38  16  45  1   
 39  17  46  1   
 40  18  19  1   
 41  19  20  ar  
 42  19  21  ar  
 43  20  22  1   
 44  20  23  ar  
 45  21  24  ar  
 46  21  47  1   
 47  22  25  1   
 48  23  26  ar  
 49  23  48  1   
 50  24  26  ar  
 51  24  49  1   
 52  25  50  1   
 53  25  51  1   
 54  25  52  1   
 55  26  53  1   
@<TRIPOS>SUBSTRUCTURE
  1 ****  10 GROUP 4 **** **** 0

# MOE 2024.06 (io_trps.svl 2023.06)
