@<TRIPOS>MOLECULE
NONAME
41 42 1 0 0 
SMALL
USER_CHARGES


@<TRIPOS>ATOM
  1 BR       0.8900    -0.2800     2.0180 Br    1 <1>  -0.1110 
  2 C        2.2360     0.7780     1.1430 C.ar  1 <1>   0.1110 
  3 C        2.8890     0.2520     0.0460 C.ar  1 <1>  -0.1500 
  4 C        2.5160     2.0380     1.6340 C.ar  1 <1>  -0.1500 
  5 C        3.8590     1.0170    -0.5800 C.ar  1 <1>  -0.1500 
  6 C        3.4880     2.7960     1.0030 C.ar  1 <1>  -0.1500 
  7 C        4.1640     2.2870    -0.1020 C.ar  1 <1>  -0.1430 
  8 C        5.2360     3.1130    -0.7770 C.3   1 <1>   0.4870 
  9 N        6.5060     2.7910    -0.0910 N.4   1 <1>  -0.9060 
 10 C        7.6990     3.4630    -0.6290 C.3   1 <1>   0.4230 
 11 C        8.9270     2.7530    -0.0490 C.3   1 <1>  -0.1600 
 12 C        7.6440     4.9420    -0.2420 C.3   1 <1>  -0.2400 
 13 C       10.2580     3.2380    -0.6470 C.3   1 <1>  -0.0170 
 14 C       11.3960     2.3860    -0.1140 C.ar  1 <1>  -0.1430 
 15 C       11.8130     1.2590    -0.8110 C.ar  1 <1>  -0.1500 
 16 C       12.0260     2.7250     1.0750 C.ar  1 <1>  -0.1500 
 17 C       12.8460     0.4800    -0.3210 C.ar  1 <1>  -0.1500 
 18 C       13.0600     1.9480     1.5680 C.ar  1 <1>  -0.1500 
 19 C       13.4660     0.8250     0.8650 C.ar  1 <1>   0.0830 
 20 O       14.4670     0.0620     1.3280 O.3   1 <1>  -0.5330 
 21 H        2.6360    -0.7330    -0.3080 H     1 <1>   0.1500 
 22 H        1.9800     2.4120     2.4890 H     1 <1>   0.1500 
 23 H        4.3620     0.6070    -1.4400 H     1 <1>   0.1500 
 24 H        3.7000     3.7820     1.3840 H     1 <1>   0.1500 
 25 H        5.0050     4.1610    -0.6830 H     1 <1>   0.0800 
 26 H        5.2930     2.8590    -1.8230 H     1 <1>   0.0800 
 27 H        6.6300     1.7730    -0.1360 H     1 <1>   0.4500 
 28 H        6.4010     3.0110     0.9040 H     1 <1>   0.4500 
 29 H        7.7170     3.3690    -1.7040 H     1 <1>   0.0800 
 30 H        8.8520     1.6980    -0.2500 H     1 <1>   0.0800 
 31 H        8.9640     2.8870     1.0190 H     1 <1>   0.0800 
 32 H        7.6610     5.0650     0.8270 H     1 <1>   0.0800 
 33 H        6.7700     5.4220    -0.6420 H     1 <1>   0.0800 
 34 H        8.4940     5.4610    -0.6470 H     1 <1>   0.0800 
 35 H       10.4450     4.2650    -0.3900 H     1 <1>   0.0800 
 36 H       10.2340     3.1670    -1.7220 H     1 <1>   0.0800 
 37 H       11.3430     0.9800    -1.7370 H     1 <1>   0.1500 
 38 H       11.7180     3.5970     1.6250 H     1 <1>   0.1500 
 39 H       13.1780    -0.3940    -0.8530 H     1 <1>   0.1500 
 40 H       13.5430     2.2190     2.4880 H     1 <1>   0.1500 
 41 H       14.8520     0.3940     2.1580 H     1 <1>   0.4500 
@<TRIPOS>BOND
  1   1   2  1   
  2   2   3  ar  
  3   2   4  ar  
  4   3   5  ar  
  5   3  21  1   
  6   4   6  ar  
  7   4  22  1   
  8   5   7  ar  
  9   5  23  1   
 10   6   7  ar  
 11   6  24  1   
 12   7   8  1   
 13   8   9  1   
 14   8  25  1   
 15   8  26  1   
 16   9  10  1   
 17   9  27  1   
 18   9  28  1   
 19  10  11  1   
 20  10  12  1   
 21  10  29  1   
 22  11  13  1   
 23  11  30  1   
 24  11  31  1   
 25  12  32  1   
 26  12  33  1   
 27  12  34  1   
 28  13  14  1   
 29  13  35  1   
 30  13  36  1   
 31  14  15  ar  
 32  14  16  ar  
 33  15  17  ar  
 34  15  37  1   
 35  16  18  ar  
 36  16  38  1   
 37  17  19  ar  
 38  17  39  1   
 39  18  19  ar  
 40  18  40  1   
 41  19  20  1   
 42  20  41  1   
@<TRIPOS>SUBSTRUCTURE
  1 ****  11 GROUP 4 **** **** 0

# MOE 2024.06 (io_trps.svl 2023.06)
