@<TRIPOS>MOLECULE
NONAME
49 52 1 0 0 
SMALL
USER_CHARGES


@<TRIPOS>ATOM
  1 O        0.6570    -0.7160    -0.1480 O.2   1 <1>  -0.5750 
  2 C        1.6980    -1.2480     0.1800 C.2   1 <1>   0.6860 
  3 N        1.6940    -2.5210     0.7400 N.am  1 <1>  -0.4260 
  4 N        2.8980    -0.5650     0.0140 N.am  1 <1>  -0.4420 
  5 C        2.8490    -3.0960     1.2390 C.2   1 <1>   0.6990 
  6 C        0.4410    -3.3190     0.6950 C.3   1 <1>   0.2720 
  7 C        4.0590    -1.1740     0.4490 C.2   1 <1>   0.4200 
  8 C        2.9290     0.7790    -0.6360 C.3   1 <1>   0.0520 
  9 O        2.8310    -4.1700     1.8190 O.2   1 <1>  -0.5750 
 10 C        4.0750    -2.3870     1.0520 C.2   1 <1>   0.2700 
 11 C        0.3360    -4.0270    -0.6520 C.2   1 <1>  -0.2830 
 12 N        5.3440    -0.7050     0.3620 N.pl3 1 <1>  -0.7040 
 13 N        5.4180    -2.6410     1.3460 N.pl3 1 <1>  -0.7670 
 14 C       -0.4440    -3.5790    -1.6400 C.2   1 <1>  -0.3070 
 15 C        1.1720    -5.2920    -0.7890 C.3   1 <1>  -0.1100 
 16 C        6.1240    -1.6260     0.9150 C.cat 1 <1>   1.0690 
 17 C        6.2640    -3.6990     1.9260 C.3   1 <1>   0.3480 
 18 N        7.4350    -1.7640     1.1080 N.pl3 1 <1>  -0.5800 
 19 C        7.6800    -3.0950     1.7470 C.3   1 <1>   0.1600 
 20 C        8.4560    -0.9000     0.7080 C.ar  1 <1>   0.3050 
 21 C        9.3780    -1.3010    -0.2450 C.ar  1 <1>  -0.1580 
 22 C        8.5510     0.3770     1.2490 C.ar  1 <1>  -0.1580 
 23 C       10.3780    -0.4450    -0.6650 C.ar  1 <1>   0.0740 
 24 C        9.5480     1.2410     0.8350 C.ar  1 <1>  -0.1580 
 25 O       11.2280    -0.9260    -1.6030 O.3   1 <1>  -0.3690 
 26 C       10.4620     0.8350    -0.1230 C.ar  1 <1>  -0.1580 
 27 C       12.3060    -0.1520    -2.0820 C.3   1 <1>   0.0320 
 28 H       -0.4060    -2.6660     0.8250 H     1 <1>   0.0720 
 29 H        0.4110    -4.0370     1.4970 H     1 <1>   0.0720 
 30 H        1.9770     1.2720    -0.5320 H     1 <1>   0.0720 
 31 H        3.1440     0.6680    -1.6850 H     1 <1>   0.0720 
 32 H        3.6770     1.4020    -0.1800 H     1 <1>   0.0720 
 33 H        5.6720     0.1560    -0.0690 H     1 <1>   0.4440 
 34 H       -0.5480    -4.0590    -2.5980 H     1 <1>   0.1420 
 35 H       -1.0470    -2.6890    -1.5760 H     1 <1>   0.1420 
 36 H        2.2200    -5.0650    -0.7440 H     1 <1>   0.0720 
 37 H        0.9740    -5.7740    -1.7300 H     1 <1>   0.0720 
 38 H        0.9310    -5.9830     0.0000 H     1 <1>   0.0720 
 39 H        6.1550    -4.6230     1.3820 H     1 <1>   0.0720 
 40 H        6.0270    -3.8540     2.9660 H     1 <1>   0.0720 
 41 H        8.2830    -3.7190     1.1100 H     1 <1>   0.0720 
 42 H        8.1690    -2.9740     2.6990 H     1 <1>   0.0720 
 43 H        9.3290    -2.2830    -0.6770 H     1 <1>   0.1420 
 44 H        7.8550     0.6990     2.0030 H     1 <1>   0.1420 
 45 H        9.6240     2.2300     1.2570 H     1 <1>   0.1420 
 46 H       11.2290     1.5220    -0.4310 H     1 <1>   0.1420 
 47 H       12.8450    -0.7400    -2.8030 H     1 <1>   0.0720 
 48 H       12.9520     0.0970    -1.2590 H     1 <1>   0.0720 
 49 H       11.9200     0.7350    -2.5520 H     1 <1>   0.0720 
@<TRIPOS>BOND
  1   1   2  2   
  2   2   3  am  
  3   2   4  am  
  4   3   5  am  
  5   3   6  1   
  6   4   7  1   
  7   4   8  1   
  8   5   9  2   
  9   5  10  1   
 10   6  11  1   
 11   6  28  1   
 12   6  29  1   
 13   7  10  2   
 14   7  12  1   
 15   8  30  1   
 16   8  31  1   
 17   8  32  1   
 18  10  13  1   
 19  11  14  2   
 20  11  15  1   
 21  12  16  ar  
 22  12  33  1   
 23  13  16  ar  
 24  13  17  1   
 25  14  34  1   
 26  14  35  1   
 27  15  36  1   
 28  15  37  1   
 29  15  38  1   
 30  16  18  ar  
 31  17  19  1   
 32  17  39  1   
 33  17  40  1   
 34  18  19  1   
 35  18  20  1   
 36  19  41  1   
 37  19  42  1   
 38  20  21  ar  
 39  20  22  ar  
 40  21  23  ar  
 41  21  43  1   
 42  22  24  ar  
 43  22  44  1   
 44  23  25  1   
 45  23  26  ar  
 46  24  26  ar  
 47  24  45  1   
 48  25  27  1   
 49  26  46  1   
 50  27  47  1   
 51  27  48  1   
 52  27  49  1   
@<TRIPOS>SUBSTRUCTURE
  1 ****  12 GROUP 4 **** **** 0

# MOE 2024.06 (io_trps.svl 2023.06)
