@<TRIPOS>MOLECULE
NONAME
46 47 1 0 0 
SMALL
USER_CHARGES


@<TRIPOS>ATOM
  1 O       -0.7570    -0.1300    -1.8070 O.2   1 <1>  -0.5700 
  2 C       -1.7150    -0.5920    -1.2660 C.2   1 <1>   0.4480 
  3 C       -2.9520     0.2430    -0.9860 C.3   1 <1>   0.0420 
  4 C       -1.7460    -2.0750    -0.9270 C.3   1 <1>  -0.0990 
  5 C       -2.7590     1.0800     0.2680 C.2   1 <1>   0.6590 
  6 C       -4.1840    -0.6800    -0.9670 C.3   1 <1>   0.1000 
  7 C       -2.6390    -2.3670     0.2820 C.3   1 <1>   0.2800 
  8 O       -3.5150     1.0450     1.2070 O.2   1 <1>  -0.5700 
  9 O       -1.7110     1.8920     0.2650 O.3   1 <1>  -0.4300 
 10 C       -5.4800     0.1170    -0.8770 C.2   1 <1>  -0.0400 
 11 C       -4.0840    -1.8180     0.0850 C.3   1 <1>  -0.0190 
 12 O       -2.0810    -1.6820     1.3360 O.3   1 <1>  -0.6800 
 13 C       -2.5510    -3.8420     0.6970 C.3   1 <1>  -0.2400 
 14 C       -1.4130     2.7220     1.3610 C.3   1 <1>   0.1200 
 15 O       -5.7720     0.9160    -1.8840 O.3   1 <1>  -0.2800 
 16 C       -6.4460     0.1820     0.0670 C.2   1 <1>  -0.1500 
 17 C       -5.0580    -2.9110    -0.3090 C.2   1 <1>   0.6590 
 18 C       -0.1390     3.4950     1.0350 C.3   1 <1>  -0.2400 
 19 C       -6.9190     1.5050    -1.6110 C.2   1 <1>  -0.0100 
 20 C       -7.3920     1.0940    -0.4170 C.2   1 <1>  -0.1500 
 21 O       -4.9520    -3.4980    -1.3570 O.2   1 <1>  -0.5700 
 22 O       -6.0170    -3.1850     0.5660 O.3   1 <1>  -0.4300 
 23 C       -6.9860    -4.1870     0.3510 C.3   1 <1>   0.1200 
 24 C       -6.4190    -5.5270     0.8170 C.3   1 <1>  -0.2400 
 25 H       -3.0610     0.9350    -1.8000 H     1 <1>   0.0800 
 26 H       -0.7430    -2.4180    -0.7470 H     1 <1>   0.0800 
 27 H       -2.1180    -2.6110    -1.7820 H     1 <1>   0.0800 
 28 H       -4.2100    -1.1420    -1.9400 H     1 <1>   0.0800 
 29 H       -4.4150    -1.4410     1.0370 H     1 <1>   0.0800 
 30 H       -1.2270    -2.0820     1.5920 H     1 <1>   0.4000 
 31 H       -2.8690    -4.4850    -0.1040 H     1 <1>   0.0800 
 32 H       -3.1790    -4.0300     1.5510 H     1 <1>   0.0800 
 33 H       -1.5390    -4.1140     0.9410 H     1 <1>   0.0800 
 34 H       -1.2770     2.1010     2.2310 H     1 <1>   0.0800 
 35 H       -2.2440     3.3900     1.5190 H     1 <1>   0.0800 
 36 H       -6.5150    -0.3310     1.0100 H     1 <1>   0.1500 
 37 H        0.6730     2.8110     0.8620 H     1 <1>   0.0800 
 38 H        0.1190     4.1350     1.8580 H     1 <1>   0.0800 
 39 H       -0.2890     4.1030     0.1610 H     1 <1>   0.0800 
 40 H       -7.3270     2.2020    -2.3220 H     1 <1>   0.1500 
 41 H       -8.2950     1.3850     0.0890 H     1 <1>   0.1500 
 42 H       -7.2480    -4.2110    -0.6940 H     1 <1>   0.0800 
 43 H       -7.8570    -3.9270     0.9260 H     1 <1>   0.0800 
 44 H       -5.5600    -5.7950     0.2280 H     1 <1>   0.0800 
 45 H       -7.1620    -6.2940     0.6990 H     1 <1>   0.0800 
 46 H       -6.1440    -5.4740     1.8560 H     1 <1>   0.0800 
@<TRIPOS>BOND
  1   1   2  2   
  2   2   3  1   
  3   2   4  1   
  4   3   5  1   
  5   3   6  1   
  6   3  25  1   
  7   4   7  1   
  8   4  26  1   
  9   4  27  1   
 10   5   8  2   
 11   5   9  1   
 12   6  10  1   
 13   6  11  1   
 14   6  28  1   
 15   7  11  1   
 16   7  12  1   
 17   7  13  1   
 18   9  14  1   
 19  10  15  1   
 20  10  16  2   
 21  11  17  1   
 22  11  29  1   
 23  12  30  1   
 24  13  31  1   
 25  13  32  1   
 26  13  33  1   
 27  14  18  1   
 28  14  34  1   
 29  14  35  1   
 30  15  19  1   
 31  16  20  1   
 32  16  36  1   
 33  17  21  2   
 34  17  22  1   
 35  18  37  1   
 36  18  38  1   
 37  18  39  1   
 38  19  20  2   
 39  19  40  1   
 40  20  41  1   
 41  22  23  1   
 42  23  24  1   
 43  23  42  1   
 44  23  43  1   
 45  24  44  1   
 46  24  45  1   
 47  24  46  1   
@<TRIPOS>SUBSTRUCTURE
  1 ****   6 GROUP 4 **** **** 0

# MOE 2024.06 (io_trps.svl 2023.06)
