@<TRIPOS>MOLECULE
NONAME
37 38 1 0 0 
SMALL
USER_CHARGES


@<TRIPOS>ATOM
  1 CL       2.0350     2.9860    -2.6800 Cl    1 <1>  -0.1770 
  2 C        0.8330     2.9610    -1.4100 C.ar  1 <1>   0.1770 
  3 C        1.0880     2.3380    -0.1990 C.ar  1 <1>   0.1900 
  4 C       -0.3840     3.5760    -1.6250 C.ar  1 <1>  -0.1500 
  5 F        2.2430     1.7570     0.0100 F     1 <1>  -0.1900 
  6 C        0.1420     2.3160     0.8100 C.ar  1 <1>  -0.1500 
  7 C       -1.3500     3.5750    -0.6230 C.ar  1 <1>   0.1990 
  8 C       -1.0760     2.9360     0.5870 C.ar  1 <1>  -0.1500 
  9 N       -2.5770     4.1900    -0.8500 N.am  1 <1>  -0.6930 
 10 S       -3.1240     5.5440     0.0820 S.o2  1 <1>   1.3330 
 11 C       -3.5720     3.4590    -1.7040 C.3   1 <1>   0.2570 
 12 O       -4.4960     5.7930    -0.2860 O.2   1 <1>  -0.6500 
 13 O       -2.7780     5.3020     1.4600 O.2   1 <1>  -0.6500 
 14 C       -2.1190     6.8620    -0.5640 C.3   1 <1>  -0.1350 
 15 C       -3.8300     2.0120    -1.2660 C.2   1 <1>   0.5690 
 16 O       -3.3560     1.1300    -1.9460 O.2   1 <1>  -0.5700 
 17 N       -4.5830     1.7260    -0.1560 N.am  1 <1>  -0.6600 
 18 C       -4.9320     0.3430     0.2280 C.3   1 <1>   0.1400 
 19 C       -5.2280     2.7070     0.7480 C.3   1 <1>   0.1400 
 20 C       -6.1450     0.4960     1.1360 C.3   1 <1>  -0.1600 
 21 C       -5.9650     1.8660     1.7860 C.3   1 <1>  -0.1600 
 22 H       -0.5820     4.0530    -2.5660 H     1 <1>   0.1500 
 23 H        0.3560     1.8240     1.7420 H     1 <1>   0.1500 
 24 H       -1.8290     2.9220     1.3560 H     1 <1>   0.1500 
 25 H       -3.1970     3.4320    -2.7110 H     1 <1>   0.0800 
 26 H       -4.5140     3.9700    -1.7370 H     1 <1>   0.0800 
 27 H       -2.2880     6.9760    -1.6170 H     1 <1>   0.0800 
 28 H       -1.0810     6.6510    -0.3980 H     1 <1>   0.0800 
 29 H       -2.3650     7.7840    -0.0750 H     1 <1>   0.0800 
 30 H       -4.1060    -0.0890     0.7650 H     1 <1>   0.0800 
 31 H       -5.1540    -0.2570    -0.6390 H     1 <1>   0.0800 
 32 H       -5.9190     3.3160     0.1910 H     1 <1>   0.0800 
 33 H       -4.4930     3.3290     1.2270 H     1 <1>   0.0800 
 34 H       -6.2060    -0.2980     1.8590 H     1 <1>   0.0800 
 35 H       -7.0350     0.4910     0.5330 H     1 <1>   0.0800 
 36 H       -6.9030     2.3130     2.0660 H     1 <1>   0.0800 
 37 H       -5.3470     1.7760     2.6620 H     1 <1>   0.0800 
@<TRIPOS>BOND
  1   1   2  1   
  2   2   3  ar  
  3   2   4  ar  
  4   3   5  1   
  5   3   6  ar  
  6   4   7  ar  
  7   4  22  1   
  8   6   8  ar  
  9   6  23  1   
 10   7   8  ar  
 11   7   9  1   
 12   8  24  1   
 13   9  10  am  
 14   9  11  1   
 15  10  12  2   
 16  10  13  2   
 17  10  14  1   
 18  11  15  1   
 19  11  25  1   
 20  11  26  1   
 21  14  27  1   
 22  14  28  1   
 23  14  29  1   
 24  15  16  2   
 25  15  17  am  
 26  17  18  1   
 27  17  19  1   
 28  18  20  1   
 29  18  30  1   
 30  18  31  1   
 31  19  21  1   
 32  19  32  1   
 33  19  33  1   
 34  20  21  1   
 35  20  34  1   
 36  20  35  1   
 37  21  36  1   
 38  21  37  1   
@<TRIPOS>SUBSTRUCTURE
  1 ****   7 GROUP 4 **** **** 0

# MOE 2024.06 (io_trps.svl 2023.06)
