@<TRIPOS>MOLECULE
NONAME
49 52 1 0 0 
SMALL
USER_CHARGES


@<TRIPOS>ATOM
  1 O       -0.4220     1.4890     0.9280 O.2   1 <1>  -0.5700 
  2 C        0.3890     2.2010     0.3640 C.2   1 <1>   0.5440 
  3 N       -0.0130     3.4540    -0.0200 N.am  1 <1>  -0.6600 
  4 C        1.7080     1.6920     0.0520 C.ar  1 <1>   0.0860 
  5 C        0.8930     4.4900    -0.5820 C.3   1 <1>   0.2810 
  6 C       -1.4220     3.8940    -0.0310 C.3   1 <1>   0.1400 
  7 C        2.8930     2.4420     0.1940 C.ar  1 <1>   0.1170 
  8 C        1.8070     0.3850    -0.4300 C.ar  1 <1>  -0.1500 
  9 C        2.0860     4.7820     0.3520 C.2   1 <1>   0.5690 
 10 C       -0.0400     5.6810    -0.8560 C.3   1 <1>  -0.1600 
 11 C       -1.4350     5.0740    -0.9940 C.3   1 <1>  -0.1600 
 12 N        2.9190     3.7480     0.7310 N.am  1 <1>  -0.4770 
 13 C        4.1010     1.8660    -0.1990 C.ar  1 <1>  -0.1500 
 14 C        3.0150    -0.1730    -0.7960 C.ar  1 <1>  -0.1500 
 15 O        2.2800     5.9130     0.7410 O.2   1 <1>  -0.5700 
 16 C        3.9070     4.0210     1.8330 C.3   1 <1>   0.2010 
 17 C        4.1690     0.5770    -0.6860 C.ar  1 <1>  -0.1500 
 18 C        5.2020     4.6740     1.3500 C.2   1 <1>   0.5690 
 19 O        6.2460     4.0890     1.5170 O.2   1 <1>  -0.5700 
 20 N        5.1570     5.8870     0.7450 N.am  1 <1>  -0.7300 
 21 C        6.3140     6.6510     0.2220 C.3   1 <1>   0.1400 
 22 C        6.1430     8.1510     0.5020 C.3   1 <1>   0.2000 
 23 O        4.9400     8.6080    -0.0260 O.3   1 <1>  -0.5600 
 24 C        7.1960     9.0360    -0.1500 C.3   1 <1>  -0.1600 
 25 C        4.9860     9.9870    -0.2040 C.3   1 <1>   0.1200 
 26 C        6.4640    10.3570    -0.3250 C.3   1 <1>  -0.1600 
 27 H        1.2750     4.1280    -1.5200 H     1 <1>   0.0800 
 28 H       -2.0740     3.1010    -0.3560 H     1 <1>   0.0800 
 29 H       -1.6990     4.2060     0.9620 H     1 <1>   0.0800 
 30 H        0.9090    -0.2030    -0.5200 H     1 <1>   0.1500 
 31 H       -0.0390     6.3530    -0.0150 H     1 <1>   0.0800 
 32 H        0.2610     6.2280    -1.7310 H     1 <1>   0.0800 
 33 H       -1.5830     4.7090    -1.9950 H     1 <1>   0.0800 
 34 H       -2.2150     5.7760    -0.7550 H     1 <1>   0.0800 
 35 H        5.0150     2.4280    -0.1290 H     1 <1>   0.1500 
 36 H        3.0590    -1.1830    -1.1660 H     1 <1>   0.1500 
 37 H        3.4570     4.6630     2.5680 H     1 <1>   0.0800 
 38 H        4.1530     3.0970     2.3250 H     1 <1>   0.0800 
 39 H        5.1170     0.1560    -0.9760 H     1 <1>   0.1500 
 40 H        4.2440     6.3560     0.6130 H     1 <1>   0.3700 
 41 H        7.2210     6.2980     0.6810 H     1 <1>   0.0800 
 42 H        6.3880     6.4920    -0.8390 H     1 <1>   0.0800 
 43 H        6.1200     8.3280     1.5650 H     1 <1>   0.0800 
 44 H        8.0770     9.1260     0.4590 H     1 <1>   0.0800 
 45 H        7.4660     8.6340    -1.1120 H     1 <1>   0.0800 
 46 H        4.4310    10.2330    -1.0930 H     1 <1>   0.0800 
 47 H        4.5330    10.4510     0.6550 H     1 <1>   0.0800 
 48 H        6.6760    10.8070    -1.2780 H     1 <1>   0.0800 
 49 H        6.7250    11.0500     0.4560 H     1 <1>   0.0800 
@<TRIPOS>BOND
  1   1   2  2   
  2   2   3  am  
  3   2   4  1   
  4   3   5  1   
  5   3   6  1   
  6   4   7  ar  
  7   4   8  ar  
  8   5   9  1   
  9   5  10  1   
 10   5  27  1   
 11   6  11  1   
 12   6  28  1   
 13   6  29  1   
 14   7  12  1   
 15   7  13  ar  
 16   8  14  ar  
 17   8  30  1   
 18   9  12  am  
 19   9  15  2   
 20  10  11  1   
 21  10  31  1   
 22  10  32  1   
 23  11  33  1   
 24  11  34  1   
 25  12  16  1   
 26  13  17  ar  
 27  13  35  1   
 28  14  17  ar  
 29  14  36  1   
 30  16  18  1   
 31  16  37  1   
 32  16  38  1   
 33  17  39  1   
 34  18  19  2   
 35  18  20  am  
 36  20  21  1   
 37  20  40  1   
 38  21  22  1   
 39  21  41  1   
 40  21  42  1   
 41  22  23  1   
 42  22  24  1   
 43  22  43  1   
 44  23  25  1   
 45  24  26  1   
 46  24  44  1   
 47  24  45  1   
 48  25  26  1   
 49  25  46  1   
 50  25  47  1   
 51  26  48  1   
 52  26  49  1   
@<TRIPOS>SUBSTRUCTURE
  1 ****   9 GROUP 4 **** **** 0

# MOE 2024.06 (io_trps.svl 2023.06)
