@<TRIPOS>MOLECULE
NONAME
41 45 1 0 0 
SMALL
USER_CHARGES


@<TRIPOS>ATOM
  1 O        0.0820     1.2830    -1.8430 O.2   1 <1>  -0.5700 
  2 C        0.1340     1.9330    -0.8320 C.2   1 <1>   0.5690 
  3 N        1.2280     2.1570    -0.0100 N.am  1 <1>  -0.2370 
  4 C       -1.0450     2.6260    -0.2110 C.3   1 <1>  -0.0190 
  5 C        2.4620     1.4720    -0.0750 C.ar  1 <1>   0.1170 
  6 C        0.9130     3.1710     0.8820 C.2   1 <1>   0.5690 
  7 C       -2.4520     3.0560    -0.7040 C.3   1 <1>   0.1530 
  8 C       -0.3260     3.8490     0.3740 C.3   1 <1>  -0.0190 
  9 C        3.6650     2.1510     0.0780 C.ar  1 <1>  -0.1500 
 10 C        2.5010     0.1000    -0.2950 C.ar  1 <1>  -0.1500 
 11 O        1.5120     3.5040     1.8720 O.2   1 <1>  -0.5700 
 12 C       -3.1580     3.1850     0.6540 C.2   1 <1>  -0.2880 
 13 C       -2.4080     4.5040    -1.2840 C.3   1 <1>  -0.1950 
 14 C       -1.3730     4.8180     0.9970 C.3   1 <1>   0.1530 
 15 C        4.9020     1.5080     0.0190 C.ar  1 <1>   0.0860 
 16 C        3.7090    -0.5680    -0.3560 C.ar  1 <1>  -0.1500 
 17 C       -2.5860     4.0350     1.5220 C.2   1 <1>  -0.2880 
 18 C       -1.9090     5.5370    -0.2830 C.3   1 <1>  -0.1950 
 19 C       -3.3050     5.6240    -0.8450 C.3   1 <1>  -0.2000 
 20 C        6.1380     2.2540     0.1750 C.2   1 <1>   0.6340 
 21 C        4.8920     0.1290    -0.2000 C.ar  1 <1>  -0.1500 
 22 O        6.1800     3.4650     0.2390 O.2   1 <1>  -0.5700 
 23 O        7.2830     1.5670     0.2460 O.3   1 <1>  -0.4300 
 24 C        8.5320     2.2130     0.4010 C.3   1 <1>   0.0400 
 25 H       -1.2490     1.9380     0.5960 H     1 <1>   0.0800 
 26 H       -2.9260     2.3350    -1.3480 H     1 <1>   0.0800 
 27 H        0.1050     4.4070    -0.4430 H     1 <1>   0.0800 
 28 H        3.6490     3.2140     0.2530 H     1 <1>   0.1500 
 29 H        1.5850    -0.4510    -0.4240 H     1 <1>   0.1500 
 30 H       -4.0350     2.5800     0.8130 H     1 <1>   0.1500 
 31 H       -1.9990     4.5440    -2.2800 H     1 <1>   0.1000 
 32 H       -0.9560     5.5070     1.7120 H     1 <1>   0.0800 
 33 H        3.7260    -1.6310    -0.5270 H     1 <1>   0.1500 
 34 H       -2.9050     4.2510     2.5280 H     1 <1>   0.1500 
 35 H       -1.2320     6.2990    -0.6310 H     1 <1>   0.1000 
 36 H       -4.1470     5.4380    -0.2000 H     1 <1>   0.1000 
 37 H       -3.5210     6.4060    -1.5520 H     1 <1>   0.1000 
 38 H        5.8240    -0.4080    -0.2510 H     1 <1>   0.1500 
 39 H        9.3020     1.4640     0.4350 H     1 <1>   0.0800 
 40 H        8.5200     2.7750     1.3190 H     1 <1>   0.0800 
 41 H        8.6890     2.8720    -0.4350 H     1 <1>   0.0800 
@<TRIPOS>BOND
  1   1   2  2   
  2   2   3  am  
  3   2   4  1   
  4   3   5  1   
  5   3   6  am  
  6   4   7  1   
  7   4   8  1   
  8   4  25  1   
  9   5   9  ar  
 10   5  10  ar  
 11   6   8  1   
 12   6  11  2   
 13   7  12  1   
 14   7  13  1   
 15   7  26  1   
 16   8  14  1   
 17   8  27  1   
 18   9  15  ar  
 19   9  28  1   
 20  10  16  ar  
 21  10  29  1   
 22  12  17  2   
 23  12  30  1   
 24  13  18  1   
 25  13  19  1   
 26  13  31  1   
 27  14  17  1   
 28  14  18  1   
 29  14  32  1   
 30  15  20  1   
 31  15  21  ar  
 32  16  21  ar  
 33  16  33  1   
 34  17  34  1   
 35  18  19  1   
 36  18  35  1   
 37  19  36  1   
 38  19  37  1   
 39  20  22  2   
 40  20  23  1   
 41  21  38  1   
 42  23  24  1   
 43  24  39  1   
 44  24  40  1   
 45  24  41  1   
@<TRIPOS>SUBSTRUCTURE
  1 ****   3 GROUP 4 **** **** 0

# MOE 2024.06 (io_trps.svl 2023.06)
