@<TRIPOS>MOLECULE
NONAME
34 34 1 0 0 
SMALL
USER_CHARGES


@<TRIPOS>ATOM
  1 CL      -2.0840     0.4040     3.4060 Cl    1 <1>  -0.1770 
  2 C       -2.4250     1.0750     1.8300 C.ar  1 <1>   0.1770 
  3 C       -1.6090     2.0460     1.2750 C.ar  1 <1>   0.1770 
  4 C       -3.5370     0.6170     1.1440 C.ar  1 <1>  -0.1500 
  5 CL      -0.2060     2.6350     2.1330 Cl    1 <1>  -0.1770 
  6 C       -1.8970     2.5650     0.0270 C.ar  1 <1>  -0.1500 
  7 C       -3.8400     1.1400    -0.1080 C.ar  1 <1>  -0.1440 
  8 C       -3.0110     2.1110    -0.6630 C.ar  1 <1>  -0.1500 
  9 C       -5.0660     0.6540    -0.8630 C.3   1 <1>   0.4870 
 10 N       -6.2860     1.2150    -0.2160 N.4   1 <1>  -0.9590 
 11 C       -7.5120     0.5210    -0.7360 C.3   1 <1>   0.3430 
 12 C       -6.3440     2.6990    -0.3910 C.3   1 <1>   0.3430 
 13 C       -8.4260     0.0270     0.3940 C.3   1 <1>   0.1200 
 14 C       -7.4120     3.3200     0.5110 C.3   1 <1>  -0.1600 
 15 O       -9.4790    -0.6490    -0.1930 O.3   1 <1>  -0.6800 
 16 C       -7.3380     4.8500     0.4660 C.3   1 <1>  -0.2400 
 17 H       -4.1410    -0.1460     1.6030 H     1 <1>   0.1500 
 18 H       -1.2500     3.3150    -0.3960 H     1 <1>   0.1500 
 19 H       -3.2160     2.5230    -1.6380 H     1 <1>   0.1500 
 20 H       -5.0930    -0.4230    -0.8320 H     1 <1>   0.0800 
 21 H       -5.0150     0.9630    -1.8950 H     1 <1>   0.0800 
 22 H       -6.1890     1.0300     0.7900 H     1 <1>   0.4500 
 23 H       -7.2250    -0.3370    -1.3230 H     1 <1>   0.0800 
 24 H       -8.0710     1.1880    -1.3720 H     1 <1>   0.0800 
 25 H       -6.5490     2.9460    -1.4210 H     1 <1>   0.0800 
 26 H       -5.3910     3.1300    -0.1290 H     1 <1>   0.0800 
 27 H       -8.8310     0.8440     0.9640 H     1 <1>   0.0800 
 28 H       -7.9090    -0.6630     1.0390 H     1 <1>   0.0800 
 29 H       -7.2640     3.0020     1.5290 H     1 <1>   0.0800 
 30 H       -8.3940     3.0220     0.1870 H     1 <1>   0.0800 
 31 H      -10.1160    -0.9850     0.4740 H     1 <1>   0.4000 
 32 H       -6.3790     5.1990     0.8080 H     1 <1>   0.0800 
 33 H       -8.0950     5.2730     1.1050 H     1 <1>   0.0800 
 34 H       -7.5040     5.2140    -0.5340 H     1 <1>   0.0800 
@<TRIPOS>BOND
  1   1   2  1   
  2   2   3  ar  
  3   2   4  ar  
  4   3   5  1   
  5   3   6  ar  
  6   4   7  ar  
  7   4  17  1   
  8   6   8  ar  
  9   6  18  1   
 10   7   8  ar  
 11   7   9  1   
 12   8  19  1   
 13   9  10  1   
 14   9  20  1   
 15   9  21  1   
 16  10  11  1   
 17  10  12  1   
 18  10  22  1   
 19  11  13  1   
 20  11  23  1   
 21  11  24  1   
 22  12  14  1   
 23  12  25  1   
 24  12  26  1   
 25  13  15  1   
 26  13  27  1   
 27  13  28  1   
 28  14  16  1   
 29  14  29  1   
 30  14  30  1   
 31  15  31  1   
 32  16  32  1   
 33  16  33  1   
 34  16  34  1   
@<TRIPOS>SUBSTRUCTURE
  1 ****   7 GROUP 4 **** **** 0

# MOE 2024.06 (io_trps.svl 2023.06)
