@<TRIPOS>MOLECULE
NONAME
40 43 1 0 0 
SMALL
USER_CHARGES


@<TRIPOS>ATOM
  1 O       -0.8020     0.0720    -0.4530 O.2   1 <1>  -0.5700 
  2 C       -1.7300    -0.6930    -0.2770 C.2   1 <1>   0.7060 
  3 O       -2.9520    -0.1680    -0.1930 O.3   1 <1>  -0.2330 
  4 C       -1.5880    -2.1170    -0.1610 C.2   1 <1>  -0.1240 
  5 C       -4.0690    -0.9020     0.0160 C.ar  1 <1>   0.0820 
  6 C       -2.6750    -2.9100     0.0180 C.2   1 <1>  -0.1670 
  7 C       -0.1670    -2.6730    -0.2620 C.3   1 <1>  -0.0220 
  8 C       -3.9730    -2.2970     0.1400 C.ar  1 <1>   0.0280 
  9 C       -5.2890    -0.2350     0.1070 C.ar  1 <1>  -0.1440 
 10 C       -2.5620    -4.4340     0.1010 C.3   1 <1>  -0.0220 
 11 C       -0.0640    -4.1200     0.2320 C.3   1 <1>  -0.1600 
 12 C       -5.1560    -3.0000     0.3860 C.ar  1 <1>  -0.1500 
 13 C       -6.4470    -0.9700     0.3330 C.ar  1 <1>   0.0830 
 14 C       -5.3140     1.2870    -0.0460 C.3   1 <1>  -0.0960 
 15 C       -1.1970    -4.9620    -0.3560 C.3   1 <1>  -0.1600 
 16 C       -6.3680    -2.3520     0.4810 C.ar  1 <1>  -0.1500 
 17 O       -7.6340    -0.3170     0.4290 O.3   1 <1>  -0.2320 
 18 C       -8.8330    -0.7260     0.0200 C.2   1 <1>   0.7200 
 19 O       -9.0310    -1.7640    -0.5580 O.2   1 <1>  -0.5700 
 20 C       -9.9730     0.2350     0.3320 C.3   1 <1>  -0.1000 
 21 C      -11.1040     0.4580    -0.6310 C.3   1 <1>  -0.2000 
 22 C      -10.0980     1.5430    -0.3960 C.3   1 <1>  -0.2000 
 23 H        0.5060    -2.0640     0.3180 H     1 <1>   0.0800 
 24 H        0.1480    -2.6190    -1.2900 H     1 <1>   0.0800 
 25 H       -3.3130    -4.8920    -0.5180 H     1 <1>   0.0800 
 26 H       -2.7360    -4.7350     1.1200 H     1 <1>   0.0800 
 27 H       -0.1280    -4.1360     1.3070 H     1 <1>   0.0800 
 28 H        0.8890    -4.5310    -0.0520 H     1 <1>   0.0800 
 29 H       -5.1410    -4.0660     0.5090 H     1 <1>   0.1500 
 30 H       -4.9130     1.5610    -1.0050 H     1 <1>   0.0800 
 31 H       -4.7080     1.7380     0.7190 H     1 <1>   0.0800 
 32 H       -6.3050     1.6940     0.0290 H     1 <1>   0.0800 
 33 H       -1.1440    -4.9250    -1.4310 H     1 <1>   0.0800 
 34 H       -1.0880    -5.9890    -0.0540 H     1 <1>   0.0800 
 35 H       -7.2550    -2.9280     0.6770 H     1 <1>   0.1500 
 36 H      -10.2160     0.2250     1.3780 H     1 <1>   0.1000 
 37 H      -12.0990     0.5740    -0.2380 H     1 <1>   0.1000 
 38 H      -11.0910    -0.0730    -1.5680 H     1 <1>   0.1000 
 39 H       -9.4020     1.7730    -1.1850 H     1 <1>   0.1000 
 40 H      -10.3990     2.4170     0.1560 H     1 <1>   0.1000 
@<TRIPOS>BOND
  1   1   2  2   
  2   2   3  1   
  3   2   4  1   
  4   3   5  1   
  5   4   6  2   
  6   4   7  1   
  7   5   8  ar  
  8   5   9  ar  
  9   6   8  1   
 10   6  10  1   
 11   7  11  1   
 12   7  23  1   
 13   7  24  1   
 14   8  12  ar  
 15   9  13  ar  
 16   9  14  1   
 17  10  15  1   
 18  10  25  1   
 19  10  26  1   
 20  11  15  1   
 21  11  27  1   
 22  11  28  1   
 23  12  16  ar  
 24  12  29  1   
 25  13  16  ar  
 26  13  17  1   
 27  14  30  1   
 28  14  31  1   
 29  14  32  1   
 30  15  33  1   
 31  15  34  1   
 32  16  35  1   
 33  17  18  1   
 34  18  19  2   
 35  18  20  1   
 36  20  21  1   
 37  20  22  1   
 38  20  36  1   
 39  21  22  1   
 40  21  37  1   
 41  21  38  1   
 42  22  39  1   
 43  22  40  1   
@<TRIPOS>SUBSTRUCTURE
  1 ****   5 GROUP 4 **** **** 0

# MOE 2024.06 (io_trps.svl 2023.06)
