@<TRIPOS>MOLECULE
NONAME
53 55 1 0 0 
SMALL
USER_CHARGES


@<TRIPOS>ATOM
  1 O       -0.5800    -0.7990    -1.1070 O.3   1 <1>  -0.3630 
  2 C       -1.5600    -1.0880    -0.1930 C.ar  1 <1>   0.0830 
  3 C       -0.6930     0.3050    -1.9760 C.3   1 <1>   0.1200 
  4 C       -1.3460    -2.1580     0.6960 C.ar  1 <1>   0.1000 
  5 C       -2.7450    -0.3600    -0.1210 C.ar  1 <1>  -0.1500 
  6 C        0.5760     0.3710    -2.8200 C.3   1 <1>  -0.2400 
  7 N       -0.1890    -2.9500     0.7020 N.pl3 1 <1>  -0.8380 
  8 C       -2.3290    -2.4590     1.6280 C.ar  1 <1>  -0.1500 
  9 C       -3.7100    -0.6810     0.8180 C.ar  1 <1>  -0.1500 
 10 C        1.0490    -2.2230     1.1150 C.3   1 <1>   0.2090 
 11 C       -0.0190    -3.7930    -0.5190 C.3   1 <1>   0.2090 
 12 C       -3.5030    -1.7310     1.6930 C.ar  1 <1>  -0.1500 
 13 C        2.2450    -3.1850     1.2400 C.3   1 <1>   0.3430 
 14 C        1.1860    -4.7430    -0.3780 C.3   1 <1>   0.3430 
 15 N        2.4500    -4.0120    -0.0080 N.4   1 <1>  -0.9590 
 16 C        3.6150    -4.9250     0.1190 C.3   1 <1>   0.4860 
 17 C        4.8600    -4.0830     0.3070 C.ar  1 <1>  -0.1430 
 18 C        5.4600    -3.9940     1.5550 C.ar  1 <1>  -0.1500 
 19 C        5.4030    -3.3860    -0.7620 C.ar  1 <1>  -0.1500 
 20 C        6.5820    -3.2030     1.7320 C.ar  1 <1>  -0.1500 
 21 C        6.5250    -2.5970    -0.5800 C.ar  1 <1>  -0.1500 
 22 C        7.1180    -2.4970     0.6680 C.ar  1 <1>  -0.1430 
 23 C        8.3510    -1.6300     0.8650 C.3   1 <1>  -0.0170 
 24 C        9.6230    -2.4420     0.6130 C.3   1 <1>  -0.2400 
 25 H       -0.8030     1.1970    -1.3840 H     1 <1>   0.0800 
 26 H       -1.5580     0.1610    -2.6020 H     1 <1>   0.0800 
 27 H       -2.9450     0.4600    -0.7820 H     1 <1>   0.1500 
 28 H        1.4360     0.5030    -2.1880 H     1 <1>   0.0800 
 29 H        0.5180     1.2070    -3.4940 H     1 <1>   0.0800 
 30 H        0.6840    -0.5270    -3.4000 H     1 <1>   0.0800 
 31 H       -2.1680    -3.2750     2.3070 H     1 <1>   0.1500 
 32 H       -4.6240    -0.1140     0.8680 H     1 <1>   0.1500 
 33 H        0.8750    -1.7450     2.0640 H     1 <1>   0.0800 
 34 H        1.2820    -1.4530     0.4000 H     1 <1>   0.0800 
 35 H        0.1160    -3.1660    -1.3830 H     1 <1>   0.0800 
 36 H       -0.9150    -4.3710    -0.6710 H     1 <1>   0.0800 
 37 H       -4.2530    -1.9810     2.4230 H     1 <1>   0.1500 
 38 H        2.0660    -3.8350     2.0800 H     1 <1>   0.0800 
 39 H        3.1320    -2.6090     1.4490 H     1 <1>   0.0800 
 40 H        1.3230    -5.2720    -1.3060 H     1 <1>   0.0800 
 41 H        0.9510    -5.4660     0.3860 H     1 <1>   0.0800 
 42 H        2.6690    -3.3450    -0.7580 H     1 <1>   0.4500 
 43 H        3.7200    -5.5230    -0.7720 H     1 <1>   0.0800 
 44 H        3.4840    -5.5840     0.9620 H     1 <1>   0.0800 
 45 H        5.0710    -4.5340     2.4000 H     1 <1>   0.1500 
 46 H        4.9710    -3.4470    -1.7460 H     1 <1>   0.1500 
 47 H        7.0440    -3.1400     2.7030 H     1 <1>   0.1500 
 48 H        6.9430    -2.0600    -1.4140 H     1 <1>   0.1500 
 49 H        8.3660    -1.2390     1.8670 H     1 <1>   0.0800 
 50 H        8.3200    -0.7930     0.1900 H     1 <1>   0.0800 
 51 H        9.6760    -3.2720     1.2950 H     1 <1>   0.0800 
 52 H       10.4910    -1.8240     0.7540 H     1 <1>   0.0800 
 53 H        9.6300    -2.8230    -0.3930 H     1 <1>   0.0800 
@<TRIPOS>BOND
  1   1   2  1   
  2   1   3  1   
  3   2   4  ar  
  4   2   5  ar  
  5   3   6  1   
  6   3  25  1   
  7   3  26  1   
  8   4   7  1   
  9   4   8  ar  
 10   5   9  ar  
 11   5  27  1   
 12   6  28  1   
 13   6  29  1   
 14   6  30  1   
 15   7  10  1   
 16   7  11  1   
 17   8  12  ar  
 18   8  31  1   
 19   9  12  ar  
 20   9  32  1   
 21  10  13  1   
 22  10  33  1   
 23  10  34  1   
 24  11  14  1   
 25  11  35  1   
 26  11  36  1   
 27  12  37  1   
 28  13  15  1   
 29  13  38  1   
 30  13  39  1   
 31  14  15  1   
 32  14  40  1   
 33  14  41  1   
 34  15  16  1   
 35  15  42  1   
 36  16  17  1   
 37  16  43  1   
 38  16  44  1   
 39  17  18  ar  
 40  17  19  ar  
 41  18  20  ar  
 42  18  45  1   
 43  19  21  ar  
 44  19  46  1   
 45  20  22  ar  
 46  20  47  1   
 47  21  22  ar  
 48  21  48  1   
 49  22  23  1   
 50  23  24  1   
 51  23  49  1   
 52  23  50  1   
 53  24  51  1   
 54  24  52  1   
 55  24  53  1   
@<TRIPOS>SUBSTRUCTURE
  1 ****  13 GROUP 4 **** **** 0

# MOE 2024.06 (io_trps.svl 2023.06)
