@<TRIPOS>MOLECULE
NONAME
37 39 1 0 0 
SMALL
USER_CHARGES


@<TRIPOS>ATOM
  1 F        1.1630     0.1660    -1.8360 F     1 <1>  -0.1900 
  2 C        1.7070     0.8700    -0.8800 C.ar  1 <1>   0.1900 
  3 C        1.0670     2.0200    -0.4500 C.ar  1 <1>  -0.1440 
  4 C        2.8940     0.4270    -0.3300 C.ar  1 <1>  -0.1500 
  5 C        1.6550     2.7520     0.5740 C.ar  1 <1>  -0.1500 
  6 C       -0.2330     2.4580    -1.0910 C.3   1 <1>   0.4870 
  7 C        3.4650     1.1650     0.6920 C.ar  1 <1>  -0.1500 
  8 C        2.8460     2.3220     1.1400 C.ar  1 <1>  -0.1500 
  9 N       -1.3650     2.0780    -0.2010 N.4   1 <1>  -0.9590 
 10 C       -1.5390     0.5900    -0.1720 C.3   1 <1>   0.3430 
 11 C       -2.6200     2.7730    -0.6180 C.3   1 <1>   0.3430 
 12 C       -2.6540     0.2120     0.7930 C.3   1 <1>  -0.1600 
 13 C       -3.7490     2.4350     0.3450 C.3   1 <1>  -0.1600 
 14 C       -3.9300     0.9270     0.3860 C.3   1 <1>   0.5600 
 15 O       -4.3120     0.4900    -0.8770 O.3   1 <1>  -0.5600 
 16 O       -4.9470     0.5990     1.2630 O.3   1 <1>  -0.5600 
 17 C       -5.4620    -0.2720    -0.7710 C.3   1 <1>   0.1200 
 18 C       -6.0450     0.1490     0.5560 C.3   1 <1>   0.1200 
 19 H        3.3610    -0.4730    -0.6920 H     1 <1>   0.1500 
 20 H        1.2060     3.6610     0.9390 H     1 <1>   0.1500 
 21 H       -0.3470     1.9950    -2.0580 H     1 <1>   0.0800 
 22 H       -0.2130     3.5270    -1.2270 H     1 <1>   0.0800 
 23 H        4.3920     0.8420     1.1390 H     1 <1>   0.1500 
 24 H        3.3000     2.8920     1.9340 H     1 <1>   0.1500 
 25 H       -1.1110     2.3810     0.7480 H     1 <1>   0.4500 
 26 H       -0.6230     0.1120     0.1370 H     1 <1>   0.0800 
 27 H       -1.7910     0.2330    -1.1580 H     1 <1>   0.0800 
 28 H       -2.9000     2.4530    -1.6100 H     1 <1>   0.0800 
 29 H       -2.4700     3.8400    -0.6340 H     1 <1>   0.0800 
 30 H       -2.3810     0.4870     1.7950 H     1 <1>   0.0800 
 31 H       -2.8140    -0.8510     0.7660 H     1 <1>   0.0800 
 32 H       -4.6620     2.8950     0.0120 H     1 <1>   0.0800 
 33 H       -3.5210     2.8050     1.3280 H     1 <1>   0.0800 
 34 H       -5.1880    -1.3130    -0.7600 H     1 <1>   0.0800 
 35 H       -6.1180    -0.0660    -1.5980 H     1 <1>   0.0800 
 36 H       -6.7380     0.9640     0.4380 H     1 <1>   0.0800 
 37 H       -6.5120    -0.6650     1.0840 H     1 <1>   0.0800 
@<TRIPOS>BOND
  1   1   2  1   
  2   2   3  ar  
  3   2   4  ar  
  4   3   5  ar  
  5   3   6  1   
  6   4   7  ar  
  7   4  19  1   
  8   5   8  ar  
  9   5  20  1   
 10   6   9  1   
 11   6  21  1   
 12   6  22  1   
 13   7   8  ar  
 14   7  23  1   
 15   8  24  1   
 16   9  10  1   
 17   9  11  1   
 18   9  25  1   
 19  10  12  1   
 20  10  26  1   
 21  10  27  1   
 22  11  13  1   
 23  11  28  1   
 24  11  29  1   
 25  12  14  1   
 26  12  30  1   
 27  12  31  1   
 28  13  14  1   
 29  13  32  1   
 30  13  33  1   
 31  14  15  1   
 32  14  16  1   
 33  15  17  1   
 34  16  18  1   
 35  17  18  1   
 36  17  34  1   
 37  17  35  1   
 38  18  36  1   
 39  18  37  1   
@<TRIPOS>SUBSTRUCTURE
  1 ****  10 GROUP 4 **** **** 0

# MOE 2024.06 (io_trps.svl 2023.06)
