@<TRIPOS>MOLECULE
NONAME
50 51 1 0 0 
SMALL
USER_CHARGES


@<TRIPOS>ATOM
  1 O       -4.7880    -5.5460    -0.8810 O.3   1 <1>  -0.3630 
  2 C       -5.9010    -5.1100    -0.2340 C.ar  1 <1>   0.0830 
  3 C       -4.1970    -4.7660    -1.9130 C.3   1 <1>   0.1200 
  4 C       -6.0390    -5.4110     1.1180 C.ar  1 <1>  -0.1440 
  5 C       -6.8950    -4.3830    -0.8830 C.ar  1 <1>  -0.1500 
  6 C       -2.7200    -4.4860    -1.5890 C.3   1 <1>   0.2000 
  7 C       -7.1390    -4.9330     1.8120 C.ar  1 <1>  -0.1500 
  8 C       -5.0100    -6.2730     1.8370 C.3   1 <1>  -0.0960 
  9 C       -7.9980    -3.9170    -0.1880 C.ar  1 <1>  -0.1430 
 10 O       -2.0580    -5.6990    -1.5050 O.3   1 <1>  -0.6800 
 11 C       -2.5250    -3.7390    -0.2560 C.3   1 <1>   0.1100 
 12 C       -8.1090    -4.1860     1.1660 C.ar  1 <1>  -0.1500 
 13 C       -9.1000    -3.1580    -0.9050 C.3   1 <1>  -0.0970 
 14 N       -3.4360    -2.5770    -0.1330 N.3   1 <1>  -0.8100 
 15 C       -4.0060    -2.4510     1.2260 C.3   1 <1>   0.1100 
 16 C       -2.8440    -1.2960    -0.5780 C.3   1 <1>   0.1100 
 17 C       -5.1760    -1.4430     1.2510 C.3   1 <1>   0.3430 
 18 C       -3.7690    -0.0870    -0.2790 C.3   1 <1>   0.3430 
 19 N       -5.1650    -0.5370     0.0450 N.4   1 <1>  -0.9590 
 20 C       -6.1340     0.5810     0.1230 C.3   1 <1>   0.3430 
 21 C       -7.5520     0.0350     0.0160 C.3   1 <1>  -0.2400 
 22 H       -4.7110    -3.8300    -2.0100 H     1 <1>   0.0800 
 23 H       -4.2830    -5.3090    -2.8370 H     1 <1>   0.0800 
 24 H       -6.8260    -4.2010    -1.9390 H     1 <1>   0.1500 
 25 H       -2.2660    -3.9260    -2.3860 H     1 <1>   0.0800 
 26 H       -7.2570    -5.1540     2.8590 H     1 <1>   0.1500 
 27 H       -4.0600    -5.7750     1.8710 H     1 <1>   0.0800 
 28 H       -4.8900    -7.2040     1.3120 H     1 <1>   0.0800 
 29 H       -5.3200    -6.4920     2.8430 H     1 <1>   0.0800 
 30 H       -2.6350    -6.3360    -1.0330 H     1 <1>   0.4000 
 31 H       -1.4980    -3.4280    -0.1620 H     1 <1>   0.0800 
 32 H       -2.7310    -4.4380     0.5350 H     1 <1>   0.0800 
 33 H       -8.9640    -3.8380     1.7190 H     1 <1>   0.1500 
 34 H       -8.7240    -2.6820    -1.7920 H     1 <1>   0.0800 
 35 H       -9.5240    -2.4070    -0.2620 H     1 <1>   0.0800 
 36 H       -9.8790    -3.8430    -1.1900 H     1 <1>   0.0800 
 37 H       -3.2400    -2.1370     1.9140 H     1 <1>   0.0800 
 38 H       -4.3750    -3.4020     1.5650 H     1 <1>   0.0800 
 39 H       -2.6600    -1.3470    -1.6380 H     1 <1>   0.0800 
 40 H       -1.8960    -1.1380    -0.0920 H     1 <1>   0.0800 
 41 H       -5.1230    -0.8640     2.1580 H     1 <1>   0.0800 
 42 H       -6.0990    -2.0000     1.2700 H     1 <1>   0.0800 
 43 H       -3.7760     0.5690    -1.1340 H     1 <1>   0.0800 
 44 H       -3.3660     0.4630     0.5540 H     1 <1>   0.0800 
 45 H       -5.4180    -1.1700    -0.7280 H     1 <1>   0.4500 
 46 H       -5.9630     1.2670    -0.6910 H     1 <1>   0.0800 
 47 H       -6.0100     1.1170     1.0500 H     1 <1>   0.0800 
 48 H       -7.6830    -0.4950    -0.9100 H     1 <1>   0.0800 
 49 H       -8.2480     0.8550     0.0300 H     1 <1>   0.0800 
 50 H       -7.7890    -0.6110     0.8420 H     1 <1>   0.0800 
@<TRIPOS>BOND
  1   1   2  1   
  2   1   3  1   
  3   2   4  ar  
  4   2   5  ar  
  5   3   6  1   
  6   3  22  1   
  7   3  23  1   
  8   4   7  ar  
  9   4   8  1   
 10   5   9  ar  
 11   5  24  1   
 12   6  10  1   
 13   6  11  1   
 14   6  25  1   
 15   7  12  ar  
 16   7  26  1   
 17   8  27  1   
 18   8  28  1   
 19   8  29  1   
 20   9  12  ar  
 21   9  13  1   
 22  10  30  1   
 23  11  14  1   
 24  11  31  1   
 25  11  32  1   
 26  12  33  1   
 27  13  34  1   
 28  13  35  1   
 29  13  36  1   
 30  14  15  1   
 31  14  16  1   
 32  15  17  1   
 33  15  37  1   
 34  15  38  1   
 35  16  18  1   
 36  16  39  1   
 37  16  40  1   
 38  17  19  1   
 39  17  41  1   
 40  17  42  1   
 41  18  19  1   
 42  18  43  1   
 43  18  44  1   
 44  19  20  1   
 45  19  45  1   
 46  20  21  1   
 47  20  46  1   
 48  20  47  1   
 49  21  48  1   
 50  21  49  1   
 51  21  50  1   
@<TRIPOS>SUBSTRUCTURE
  1 ****   2 GROUP 4 **** **** 0

# MOE 2024.06 (io_trps.svl 2023.06)
