@<TRIPOS>MOLECULE
NONAME
49 50 1 0 0 
SMALL
USER_CHARGES


@<TRIPOS>ATOM
  1 S        0.2450     0.0740     0.7910 S.o2  1 <1>   1.4470 
  2 O        1.1250    -0.2520    -0.3090 O.2   1 <1>  -0.6500 
  3 O        0.6520    -0.2440     2.1400 O.2   1 <1>  -0.6500 
  4 N        0.0840     1.7970     0.7490 N.am  1 <1>  -0.6930 
  5 C       -1.4460    -0.5130     0.4990 C.ar  1 <1>  -0.0090 
  6 C       -0.4920     2.4440    -0.3390 C.ar  1 <1>   0.1990 
  7 C        0.9860     2.5870     1.6460 C.3   1 <1>   0.2570 
  8 C       -2.2350    -0.9840     1.5440 C.ar  1 <1>  -0.1500 
  9 C       -2.0070    -0.4820    -0.7730 C.ar  1 <1>  -0.1500 
 10 C       -1.7690     3.0040    -0.2490 C.ar  1 <1>  -0.1430 
 11 C        0.1980     2.5350    -1.5440 C.ar  1 <1>  -0.1500 
 12 C        2.4410     2.7460     1.1810 C.2   1 <1>   0.5690 
 13 C       -3.5340    -1.4110     1.3280 C.ar  1 <1>  -0.1500 
 14 C       -3.3050    -0.9050    -0.9980 C.ar  1 <1>  -0.1500 
 15 C       -2.3240     3.6330    -1.3520 C.ar  1 <1>  -0.1500 
 16 C       -2.5780     2.9300     1.0410 C.3   1 <1>  -0.0960 
 17 C       -0.3600     3.1640    -2.6390 C.ar  1 <1>  -0.1500 
 18 O        3.0490     3.7030     1.6000 O.2   1 <1>  -0.5700 
 19 N        3.0080     1.8350     0.3370 N.am  1 <1>  -0.7300 
 20 C       -4.0710    -1.3710     0.0540 C.ar  1 <1>  -0.1500 
 21 C       -1.6250     3.7150    -2.5440 C.ar  1 <1>  -0.1500 
 22 C        4.3570     1.7990    -0.2260 C.3   1 <1>   0.3000 
 23 C        4.4190     0.5530    -1.1060 C.3   1 <1>  -0.2400 
 24 C        5.3830     1.6870     0.9000 C.3   1 <1>  -0.2400 
 25 C        4.5920     3.0440    -1.0810 C.3   1 <1>  -0.2400 
 26 H        0.9960     2.1490     2.6270 H     1 <1>   0.0800 
 27 H        0.5770     3.5760     1.7490 H     1 <1>   0.0800 
 28 H       -1.8280    -1.0200     2.5410 H     1 <1>   0.1500 
 29 H       -1.4200    -0.1180    -1.6010 H     1 <1>   0.1500 
 30 H        1.1810     2.1090    -1.6270 H     1 <1>   0.1500 
 31 H       -4.1270    -1.7740     2.1500 H     1 <1>   0.1500 
 32 H       -3.7180    -0.8710    -1.9920 H     1 <1>   0.1500 
 33 H       -3.3080     4.0650    -1.2940 H     1 <1>   0.1500 
 34 H       -1.9890     3.2750     1.8720 H     1 <1>   0.0800 
 35 H       -2.8800     1.9160     1.2270 H     1 <1>   0.0800 
 36 H       -3.4600     3.5410     0.9790 H     1 <1>   0.0800 
 37 H        0.1870     3.2270    -3.5640 H     1 <1>   0.1500 
 38 H        2.4360     1.0470     0.0110 H     1 <1>   0.3700 
 39 H       -5.0810    -1.7020    -0.1180 H     1 <1>   0.1500 
 40 H       -2.0640     4.2070    -3.3940 H     1 <1>   0.1500 
 41 H        4.2360    -0.3310    -0.5210 H     1 <1>   0.0800 
 42 H        5.3920     0.4630    -1.5540 H     1 <1>   0.0800 
 43 H        3.6890     0.6070    -1.8930 H     1 <1>   0.0800 
 44 H        6.3710     1.5790     0.4910 H     1 <1>   0.0800 
 45 H        5.1720     0.8330     1.5160 H     1 <1>   0.0800 
 46 H        5.3730     2.5710     1.5120 H     1 <1>   0.0800 
 47 H        5.5510     2.9870    -1.5620 H     1 <1>   0.0800 
 48 H        4.5800     3.9300    -0.4720 H     1 <1>   0.0800 
 49 H        3.8340     3.1310    -1.8380 H     1 <1>   0.0800 
@<TRIPOS>BOND
  1   1   2  2   
  2   1   3  2   
  3   1   4  am  
  4   1   5  1   
  5   4   6  1   
  6   4   7  1   
  7   5   8  ar  
  8   5   9  ar  
  9   6  10  ar  
 10   6  11  ar  
 11   7  12  1   
 12   7  26  1   
 13   7  27  1   
 14   8  13  ar  
 15   8  28  1   
 16   9  14  ar  
 17   9  29  1   
 18  10  15  ar  
 19  10  16  1   
 20  11  17  ar  
 21  11  30  1   
 22  12  18  2   
 23  12  19  am  
 24  13  20  ar  
 25  13  31  1   
 26  14  20  ar  
 27  14  32  1   
 28  15  21  ar  
 29  15  33  1   
 30  16  34  1   
 31  16  35  1   
 32  16  36  1   
 33  17  21  ar  
 34  17  37  1   
 35  19  22  1   
 36  19  38  1   
 37  20  39  1   
 38  21  40  1   
 39  22  23  1   
 40  22  24  1   
 41  22  25  1   
 42  23  41  1   
 43  23  42  1   
 44  23  43  1   
 45  24  44  1   
 46  24  45  1   
 47  24  46  1   
 48  25  47  1   
 49  25  48  1   
 50  25  49  1   
@<TRIPOS>SUBSTRUCTURE
  1 ****   4 GROUP 4 **** **** 0

# MOE 2024.06 (io_trps.svl 2023.06)
