@<TRIPOS>MOLECULE
NONAME
30 30 1 0 0 
SMALL
USER_CHARGES


@<TRIPOS>ATOM
  1 S       -1.1950     2.0210     0.4760 S.3   1 <1>  -0.4600 
  2 C       -0.4390     0.6010    -0.3940 C.3   1 <1>   0.2700 
  3 C       -1.9820     1.2620     1.9430 C.3   1 <1>   0.1310 
  4 C       -0.3490     0.9070    -1.8520 C.1   1 <1>   0.3570 
  5 C       -3.0210     0.2400     1.5130 C.2   1 <1>   0.5690 
  6 N       -0.2940     1.1200    -2.9680 N.1   1 <1>  -0.5570 
  7 O       -3.0240    -0.8310     2.0670 O.2   1 <1>  -0.5700 
  8 N       -3.8510     0.5780     0.4800 N.am  1 <1>  -0.5470 
  9 C       -4.8380    -0.1550    -0.1960 C.ar  1 <1>   0.1170 
 10 C       -5.1370     0.1560    -1.5240 C.ar  1 <1>  -0.1430 
 11 C       -5.5440    -1.1790     0.4290 C.ar  1 <1>  -0.1500 
 12 C       -6.1200    -0.5560    -2.1910 C.ar  1 <1>  -0.1500 
 13 C       -4.3990     1.2630    -2.2690 C.3   1 <1>  -0.0970 
 14 C       -6.5230    -1.8910    -0.2400 C.ar  1 <1>  -0.1430 
 15 C       -6.8100    -1.5730    -1.5550 C.ar  1 <1>  -0.1500 
 16 C       -7.2800    -3.0060     0.4590 C.3   1 <1>  -0.0970 
 17 H       -1.0570    -0.2630    -0.2370 H     1 <1>   0.0800 
 18 H        0.5370     0.4440     0.0270 H     1 <1>   0.0800 
 19 H       -2.4410     2.0520     2.5090 H     1 <1>   0.0800 
 20 H       -1.2080     0.7970     2.5260 H     1 <1>   0.0800 
 21 H       -3.6420     1.4800     0.0510 H     1 <1>   0.3700 
 22 H       -5.3280    -1.4200     1.4540 H     1 <1>   0.1500 
 23 H       -6.3590    -0.3270    -3.2150 H     1 <1>   0.1500 
 24 H       -4.5660     2.2110    -1.7890 H     1 <1>   0.0800 
 25 H       -4.7410     1.3380    -3.2860 H     1 <1>   0.0800 
 26 H       -3.3440     1.0570    -2.2900 H     1 <1>   0.0800 
 27 H       -7.5700    -2.1160    -2.0890 H     1 <1>   0.1500 
 28 H       -6.7150    -3.3800     1.2950 H     1 <1>   0.0800 
 29 H       -7.4580    -3.8190    -0.2210 H     1 <1>   0.0800 
 30 H       -8.2240    -2.6360     0.8170 H     1 <1>   0.0800 
@<TRIPOS>BOND
  1   1   2  1   
  2   1   3  1   
  3   2   4  1   
  4   2  17  1   
  5   2  18  1   
  6   3   5  1   
  7   3  19  1   
  8   3  20  1   
  9   4   6  3   
 10   5   7  2   
 11   5   8  am  
 12   8   9  1   
 13   8  21  1   
 14   9  10  ar  
 15   9  11  ar  
 16  10  12  ar  
 17  10  13  1   
 18  11  14  ar  
 19  11  22  1   
 20  12  15  ar  
 21  12  23  1   
 22  13  24  1   
 23  13  25  1   
 24  13  26  1   
 25  14  15  ar  
 26  14  16  1   
 27  15  27  1   
 28  16  28  1   
 29  16  29  1   
 30  16  30  1   
@<TRIPOS>SUBSTRUCTURE
  1 ****   9 GROUP 4 **** **** 0

# MOE 2024.06 (io_trps.svl 2023.06)
