@<TRIPOS>MOLECULE
NONAME
42 43 1 0 0 
SMALL
USER_CHARGES


@<TRIPOS>ATOM
  1 O       -0.0740     0.3160    -0.2110 O.2   1 <1>  -0.5700 
  2 C       -0.2150     1.5010    -0.4670 C.2   1 <1>   0.6900 
  3 N        0.8800     2.2940    -0.6990 N.am  1 <1>  -0.6600 
  4 N       -1.4650     2.0560    -0.5360 N.am  1 <1>  -0.4940 
  5 C        0.9320     3.7540    -0.3850 C.3   1 <1>   0.1400 
  6 C        2.2270     1.7030    -0.9590 C.3   1 <1>   0.1400 
  7 C       -2.7250     1.4800    -0.2670 C.2   1 <1>  -0.0880 
  8 C        2.0070     4.0410     0.6790 C.3   1 <1>   0.1200 
  9 C        3.2190     2.1070     0.1430 C.3   1 <1>   0.1200 
 10 N       -2.8540     0.1900     0.1280 N.pl3 1 <1>   0.0330 
 11 C       -3.9630     2.0380    -0.3400 C.2   1 <1>  -0.1810 
 12 O        3.2390     3.4990     0.2980 O.3   1 <1>  -0.5600 
 13 C       -4.1710    -0.0730     0.3120 C.2   1 <1>  -0.3320 
 14 C       -4.9200     1.0520     0.0310 C.2   1 <1>  -0.0860 
 15 C       -4.2670     3.4690    -0.7570 C.3   1 <1>  -0.0590 
 16 C       -4.6130    -1.4550     0.7670 C.3   1 <1>  -0.0600 
 17 C       -6.3640     1.2160     0.0850 C.2   1 <1>   0.8060 
 18 O       -7.1510     0.2890     0.1310 O.2   1 <1>  -0.5700 
 19 O       -6.8620     2.4580     0.0880 O.3   1 <1>  -0.4300 
 20 C       -8.2490     2.7030     0.1430 C.3   1 <1>   0.1200 
 21 C       -8.4610     4.2130     0.1170 C.3   1 <1>  -0.2400 
 22 H       -1.4760     2.9960    -0.9130 H     1 <1>   0.3700 
 23 H       -0.0160     4.1020    -0.0170 H     1 <1>   0.0800 
 24 H        1.1690     4.3010    -1.2810 H     1 <1>   0.0800 
 25 H        2.5910     2.0580    -1.9070 H     1 <1>   0.0800 
 26 H        2.1700     0.6290    -1.0120 H     1 <1>   0.0800 
 27 H        1.7240     3.6180     1.6280 H     1 <1>   0.0800 
 28 H        2.1390     5.1010     0.7990 H     1 <1>   0.0800 
 29 H        4.2130     1.7900    -0.1170 H     1 <1>   0.0800 
 30 H        2.9450     1.6550     1.0810 H     1 <1>   0.0800 
 31 H       -2.0450    -0.4350     0.2410 H     1 <1>   0.2700 
 32 H       -3.3740     3.9770    -1.0680 H     1 <1>   0.0800 
 33 H       -4.6970     4.0070     0.0680 H     1 <1>   0.0800 
 34 H       -4.9620     3.4710    -1.5770 H     1 <1>   0.0800 
 35 H       -4.0500    -1.7550     1.6330 H     1 <1>   0.0800 
 36 H       -4.4480    -2.1690    -0.0190 H     1 <1>   0.0800 
 37 H       -5.6540    -1.4720     1.0280 H     1 <1>   0.0800 
 38 H       -8.6360     2.2730     1.0530 H     1 <1>   0.0800 
 39 H       -8.7140     2.2320    -0.7060 H     1 <1>   0.0800 
 40 H       -7.9820     4.6700     0.9650 H     1 <1>   0.0800 
 41 H       -9.5130     4.4310     0.1600 H     1 <1>   0.0800 
 42 H       -8.0620     4.6280    -0.7910 H     1 <1>   0.0800 
@<TRIPOS>BOND
  1   1   2  2   
  2   2   3  am  
  3   2   4  am  
  4   3   5  1   
  5   3   6  1   
  6   4   7  1   
  7   4  22  1   
  8   5   8  1   
  9   5  23  1   
 10   5  24  1   
 11   6   9  1   
 12   6  25  1   
 13   6  26  1   
 14   7  10  1   
 15   7  11  2   
 16   8  12  1   
 17   8  27  1   
 18   8  28  1   
 19   9  12  1   
 20   9  29  1   
 21   9  30  1   
 22  10  13  1   
 23  10  31  1   
 24  11  14  1   
 25  11  15  1   
 26  13  14  2   
 27  13  16  1   
 28  14  17  1   
 29  15  32  1   
 30  15  33  1   
 31  15  34  1   
 32  16  35  1   
 33  16  36  1   
 34  16  37  1   
 35  17  18  2   
 36  17  19  1   
 37  19  20  1   
 38  20  21  1   
 39  20  38  1   
 40  20  39  1   
 41  21  40  1   
 42  21  41  1   
 43  21  42  1   
@<TRIPOS>SUBSTRUCTURE
  1 ****   7 GROUP 4 **** **** 0

# MOE 2024.06 (io_trps.svl 2023.06)
