@<TRIPOS>MOLECULE
NONAME
46 48 1 0 0 
SMALL
USER_CHARGES


@<TRIPOS>ATOM
  1 S       -0.7520    -0.3110     1.0500 S.3   1 <1>  -0.2860 
  2 C        0.4460    -0.3730    -0.2870 C.2   1 <1>   0.2420 
  3 C       -2.1190    -1.3900     0.4390 C.3   1 <1>   0.0700 
  4 N        0.2910    -1.1280    -1.3240 N.2   1 <1>  -0.5650 
  5 N        1.5750     0.3700    -0.2670 N.pl3 1 <1>   0.0480 
  6 C       -3.0580    -1.6830     1.6080 C.3   1 <1>  -0.0990 
  7 C        1.3960    -0.8600    -2.0480 C.2   1 <1>   0.0770 
  8 C        2.1880     0.0440    -1.4250 C.2   1 <1>  -0.3020 
  9 C        2.0460     1.3110     0.7700 C.3   1 <1>   0.2390 
 10 C       -4.1600    -2.6310     1.1790 C.2   1 <1>   0.5690 
 11 C        1.8820     2.7500     0.3040 C.ar  1 <1>  -0.1440 
 12 O       -5.2420    -2.1380     0.9670 O.2   1 <1>  -0.5700 
 13 N       -3.9320    -3.9780     1.0340 N.am  1 <1>  -0.6600 
 14 C        2.9900     3.5110    -0.0400 C.ar  1 <1>  -0.1500 
 15 C        0.6180     3.3130     0.2190 C.ar  1 <1>  -0.1500 
 16 C       -5.0140    -4.8890     0.5620 C.3   1 <1>   0.1400 
 17 C       -2.6350    -4.6760     1.2720 C.3   1 <1>   0.1400 
 18 C        2.8350     4.8200    -0.4600 C.ar  1 <1>  -0.1500 
 19 C        0.4620     4.6220    -0.2010 C.ar  1 <1>  -0.1500 
 20 C       -4.5800    -5.5750    -0.7380 C.3   1 <1>  -0.1600 
 21 C       -2.1710    -5.3570    -0.0200 C.3   1 <1>  -0.1600 
 22 C        1.5710     5.3770    -0.5410 C.ar  1 <1>  -0.1500 
 23 C       -3.2410    -6.3090    -0.5730 C.3   1 <1>  -0.1600 
 24 H       -2.6190    -0.8620    -0.3550 H     1 <1>   0.0800 
 25 H       -1.6680    -2.2850     0.0510 H     1 <1>   0.0800 
 26 H       -3.5040    -0.7620     1.9360 H     1 <1>   0.0800 
 27 H       -2.5190    -2.0980     2.4370 H     1 <1>   0.0800 
 28 H        1.5670    -1.3380    -2.9990 H     1 <1>   0.1500 
 29 H        3.1250     0.4670    -1.7370 H     1 <1>   0.1500 
 30 H        3.0800     1.1010     0.9750 H     1 <1>   0.0800 
 31 H        1.4890     1.1580     1.6760 H     1 <1>   0.0800 
 32 H        3.9800     3.0920     0.0160 H     1 <1>   0.1500 
 33 H       -0.2540     2.7350     0.4770 H     1 <1>   0.1500 
 34 H       -5.9270    -4.3440     0.3920 H     1 <1>   0.0800 
 35 H       -5.2060    -5.6270     1.3210 H     1 <1>   0.0800 
 36 H       -2.7770    -5.4180     2.0400 H     1 <1>   0.0800 
 37 H       -1.8730    -3.9980     1.6090 H     1 <1>   0.0800 
 38 H        3.6970     5.4070    -0.7260 H     1 <1>   0.1500 
 39 H       -0.5220     5.0530    -0.2660 H     1 <1>   0.1500 
 40 H       -4.4930    -4.8280    -1.5080 H     1 <1>   0.0800 
 41 H       -5.3400    -6.2720    -1.0420 H     1 <1>   0.0800 
 42 H       -1.2650    -5.9050     0.1710 H     1 <1>   0.0800 
 43 H       -1.9460    -4.6010    -0.7520 H     1 <1>   0.0800 
 44 H        1.4500     6.3950    -0.8680 H     1 <1>   0.1500 
 45 H       -2.9230    -6.7030    -1.5220 H     1 <1>   0.0800 
 46 H       -3.3690    -7.1350     0.1060 H     1 <1>   0.0800 
@<TRIPOS>BOND
  1   1   2  1   
  2   1   3  1   
  3   2   4  2   
  4   2   5  1   
  5   3   6  1   
  6   3  24  1   
  7   3  25  1   
  8   4   7  1   
  9   5   8  1   
 10   5   9  1   
 11   6  10  1   
 12   6  26  1   
 13   6  27  1   
 14   7   8  2   
 15   7  28  1   
 16   8  29  1   
 17   9  11  1   
 18   9  30  1   
 19   9  31  1   
 20  10  12  2   
 21  10  13  am  
 22  11  14  ar  
 23  11  15  ar  
 24  13  16  1   
 25  13  17  1   
 26  14  18  ar  
 27  14  32  1   
 28  15  19  ar  
 29  15  33  1   
 30  16  20  1   
 31  16  34  1   
 32  16  35  1   
 33  17  21  1   
 34  17  36  1   
 35  17  37  1   
 36  18  22  ar  
 37  18  38  1   
 38  19  22  ar  
 39  19  39  1   
 40  20  23  1   
 41  20  40  1   
 42  20  41  1   
 43  21  23  1   
 44  21  42  1   
 45  21  43  1   
 46  22  44  1   
 47  23  45  1   
 48  23  46  1   
@<TRIPOS>SUBSTRUCTURE
  1 ****   1 GROUP 4 **** **** 0

# MOE 2024.06 (io_trps.svl 2023.06)
