@<TRIPOS>MOLECULE
NONAME
32 33 1 0 0 
SMALL
USER_CHARGES


@<TRIPOS>ATOM
  1 O        0.3790     0.4850    -0.0030 O.2   1 <1>  -0.5700 
  2 C        0.3920     1.7030    -0.0970 C.2   1 <1>   0.7150 
  3 N        1.4890     2.2900    -0.7170 N.am  1 <1>  -0.6600 
  4 C       -0.7520     2.4240     0.4350 C.2   1 <1>   0.0550 
  5 C        2.6440     1.4500    -1.1530 C.3   1 <1>   0.1400 
  6 C        1.4700     3.6640    -1.2850 C.3   1 <1>   0.1400 
  7 O       -0.7870     3.7460     0.6030 O.3   1 <1>  -0.2800 
  8 C       -1.9450     1.9200     0.8620 C.2   1 <1>  -0.1500 
  9 C        3.5480     1.0770     0.0270 C.3   1 <1>  -0.1600 
 10 C        2.1220     4.6900    -0.3490 C.3   1 <1>  -0.1600 
 11 C       -1.9480     4.0870     1.1130 C.2   1 <1>  -0.0100 
 12 C       -2.7190     2.9960     1.2980 C.2   1 <1>  -0.1500 
 13 C        4.5690     2.1490     0.4390 C.3   1 <1>  -0.1600 
 14 C        3.6280     4.4930    -0.1080 C.3   1 <1>  -0.1600 
 15 C        3.9590     3.4520     0.9790 C.3   1 <1>  -0.1600 
 16 H        3.2230     1.9550    -1.9060 H     1 <1>   0.0800 
 17 H        2.2610     0.5460    -1.5960 H     1 <1>   0.0800 
 18 H        0.4540     3.9570    -1.4830 H     1 <1>   0.0800 
 19 H        1.9800     3.6720    -2.2330 H     1 <1>   0.0800 
 20 H       -2.2430     0.8860     0.8690 H     1 <1>   0.1500 
 21 H        4.1020     0.2010    -0.2610 H     1 <1>   0.0800 
 22 H        2.9430     0.7950     0.8720 H     1 <1>   0.0800 
 23 H        1.5980     4.7190     0.5890 H     1 <1>   0.0800 
 24 H        1.9880     5.6540    -0.8050 H     1 <1>   0.0800 
 25 H       -2.1470     5.1260     1.3150 H     1 <1>   0.1500 
 26 H       -3.7160     2.9350     1.6960 H     1 <1>   0.1500 
 27 H        5.2350     2.3590    -0.3800 H     1 <1>   0.0800 
 28 H        5.1710     1.7230     1.2240 H     1 <1>   0.0800 
 29 H        4.0190     5.4380     0.2280 H     1 <1>   0.0800 
 30 H        4.1270     4.2660    -1.0340 H     1 <1>   0.0800 
 31 H        4.6890     3.8950     1.6340 H     1 <1>   0.0800 
 32 H        3.0960     3.2330     1.5850 H     1 <1>   0.0800 
@<TRIPOS>BOND
  1   1   2  2   
  2   2   3  am  
  3   2   4  1   
  4   3   5  1   
  5   3   6  1   
  6   4   7  1   
  7   4   8  2   
  8   5   9  1   
  9   5  16  1   
 10   5  17  1   
 11   6  10  1   
 12   6  18  1   
 13   6  19  1   
 14   7  11  1   
 15   8  12  1   
 16   8  20  1   
 17   9  13  1   
 18   9  21  1   
 19   9  22  1   
 20  10  14  1   
 21  10  23  1   
 22  10  24  1   
 23  11  12  2   
 24  11  25  1   
 25  12  26  1   
 26  13  15  1   
 27  13  27  1   
 28  13  28  1   
 29  14  15  1   
 30  14  29  1   
 31  14  30  1   
 32  15  31  1   
 33  15  32  1   
@<TRIPOS>SUBSTRUCTURE
  1 ****   3 GROUP 4 **** **** 0

# MOE 2024.06 (io_trps.svl 2023.06)
