@<TRIPOS>MOLECULE
NONAME
48 50 1 0 0 
SMALL
USER_CHARGES


@<TRIPOS>ATOM
  1 S        1.1310    -0.2320     2.0440 S.3   1 <1>  -0.0800 
  2 C       -0.1160    -1.0780     1.1400 C.2   1 <1>   0.1040 
  3 C        1.9950     0.1910     0.5770 C.2   1 <1>  -0.1400 
  4 N       -1.1580    -1.7000     1.8070 N.am  1 <1>  -0.4940 
  5 C        0.1370    -1.0170    -0.2030 C.2   1 <1>  -0.0860 
  6 C        1.3480    -0.2920    -0.4970 C.2   1 <1>  -0.1500 
  7 C        3.2700     0.9920     0.7370 C.3   1 <1>  -0.0600 
  8 C       -1.6380    -1.6370     3.0880 C.2   1 <1>   0.5690 
  9 C       -0.6970    -1.5870    -1.2220 C.2   1 <1>   0.8060 
 10 O       -1.1800    -0.9400     3.9600 O.2   1 <1>  -0.5700 
 11 C       -2.8540    -2.5130     3.4000 C.3   1 <1>   0.1710 
 12 O       -1.7570    -2.1410    -0.9890 O.2   1 <1>  -0.5700 
 13 O       -0.2880    -1.5000    -2.4950 O.3   1 <1>  -0.4300 
 14 N       -3.5250    -3.0780     2.1900 N.3   1 <1>  -0.8100 
 15 C       -1.0470    -2.0370    -3.5610 C.3   1 <1>   0.0400 
 16 C       -4.3870    -4.2230     2.5490 C.3   1 <1>   0.1100 
 17 C       -4.3270    -2.0550     1.4760 C.3   1 <1>   0.1100 
 18 C       -5.0230    -4.8590     1.3010 C.3   1 <1>   0.1400 
 19 C       -4.9720    -2.6220     0.1990 C.3   1 <1>   0.1400 
 20 N       -5.7750    -3.8430     0.5060 N.am  1 <1>  -0.6600 
 21 C       -7.1180    -3.9850     0.2140 C.2   1 <1>   0.7150 
 22 O       -7.7700    -4.7610     0.8920 O.2   1 <1>  -0.5700 
 23 C       -7.7890    -3.2530    -0.8440 C.2   1 <1>   0.0550 
 24 O       -7.1370    -2.7040    -1.8690 O.3   1 <1>  -0.2800 
 25 C       -9.1200    -3.0140    -1.0150 C.2   1 <1>  -0.1500 
 26 C       -8.0040    -2.1280    -2.6690 C.2   1 <1>  -0.0100 
 27 C       -9.2570    -2.2820    -2.1950 C.2   1 <1>  -0.1500 
 28 H       -1.7640    -2.2990     1.2270 H     1 <1>   0.3700 
 29 H        1.6780    -0.1660    -1.5140 H     1 <1>   0.1500 
 30 H        3.9740     0.4430     1.3350 H     1 <1>   0.0800 
 31 H        3.0540     1.9270     1.2220 H     1 <1>   0.0800 
 32 H        3.7080     1.1910    -0.2240 H     1 <1>   0.0800 
 33 H       -3.5570    -1.9400     3.9790 H     1 <1>   0.0800 
 34 H       -2.5010    -3.3190     4.0180 H     1 <1>   0.0800 
 35 H       -0.5200    -1.8530    -4.4810 H     1 <1>   0.0800 
 36 H       -2.0090    -1.5550    -3.5840 H     1 <1>   0.0800 
 37 H       -1.1650    -3.0960    -3.4080 H     1 <1>   0.0800 
 38 H       -5.1690    -3.9050     3.2180 H     1 <1>   0.0800 
 39 H       -3.7990    -4.9720     3.0510 H     1 <1>   0.0800 
 40 H       -3.7050    -1.2220     1.1990 H     1 <1>   0.0800 
 41 H       -5.1050    -1.6840     2.1220 H     1 <1>   0.0800 
 42 H       -5.6700    -5.6640     1.6030 H     1 <1>   0.0800 
 43 H       -4.2450    -5.2770     0.6860 H     1 <1>   0.0800 
 44 H       -4.2040    -2.8730    -0.5120 H     1 <1>   0.0800 
 45 H       -5.5890    -1.8560    -0.2320 H     1 <1>   0.0800 
 46 H       -9.9220    -3.3310    -0.3720 H     1 <1>   0.1500 
 47 H       -7.6490    -1.6300    -3.5560 H     1 <1>   0.1500 
 48 H      -10.1840    -1.9320    -2.6140 H     1 <1>   0.1500 
@<TRIPOS>BOND
  1   1   2  1   
  2   1   3  1   
  3   2   4  1   
  4   2   5  2   
  5   3   6  2   
  6   3   7  1   
  7   4   8  am  
  8   4  28  1   
  9   5   6  1   
 10   5   9  1   
 11   6  29  1   
 12   7  30  1   
 13   7  31  1   
 14   7  32  1   
 15   8  10  2   
 16   8  11  1   
 17   9  12  2   
 18   9  13  1   
 19  11  14  1   
 20  11  33  1   
 21  11  34  1   
 22  13  15  1   
 23  14  16  1   
 24  14  17  1   
 25  15  35  1   
 26  15  36  1   
 27  15  37  1   
 28  16  18  1   
 29  16  38  1   
 30  16  39  1   
 31  17  19  1   
 32  17  40  1   
 33  17  41  1   
 34  18  20  1   
 35  18  42  1   
 36  18  43  1   
 37  19  20  1   
 38  19  44  1   
 39  19  45  1   
 40  20  21  am  
 41  21  22  2   
 42  21  23  1   
 43  23  24  1   
 44  23  25  2   
 45  24  26  1   
 46  25  27  1   
 47  25  46  1   
 48  26  27  2   
 49  26  47  1   
 50  27  48  1   
@<TRIPOS>SUBSTRUCTURE
  1 ****  17 GROUP 4 **** **** 0

# MOE 2024.06 (io_trps.svl 2023.06)
