@<TRIPOS>MOLECULE
NONAME
44 45 1 0 0 
SMALL
USER_CHARGES


@<TRIPOS>ATOM
  1 O       -0.2040     0.6610     2.5490 O.2   1 <1>  -0.5700 
  2 C       -0.0330     1.3070     1.5370 C.2   1 <1>   0.6160 
  3 N        1.2330     1.3310     1.0530 N.am  1 <1>  -0.7300 
  4 C       -1.1230     1.9980     0.9050 C.2   1 <1>  -0.1360 
  5 C        1.6880     1.5350    -0.3420 C.3   1 <1>   0.2200 
  6 C       -2.4400     1.8770     1.1930 C.2   1 <1>  -0.1780 
  7 C        2.2090     0.1970    -0.9370 C.3   1 <1>  -0.0800 
  8 C        2.6820     2.7250    -0.4310 C.3   1 <1>  -0.0800 
  9 C       -3.5650     2.5480     0.5930 C.ar  1 <1>   0.0280 
 10 C        1.0350    -0.6140    -1.5100 C.3   1 <1>  -0.2400 
 11 C        2.9800    -0.7130     0.0430 C.3   1 <1>  -0.2400 
 12 C        3.9860     2.5500     0.3660 C.3   1 <1>  -0.2400 
 13 C        2.0060     4.0400    -0.0060 C.3   1 <1>  -0.2400 
 14 C       -4.8620     2.1220     0.9000 C.ar  1 <1>  -0.1500 
 15 C       -3.4180     3.6260    -0.2950 C.ar  1 <1>  -0.1500 
 16 C       -5.9380     2.7620     0.3220 C.ar  1 <1>   0.0830 
 17 C       -4.5100     4.2600    -0.8700 C.ar  1 <1>  -0.1500 
 18 O       -7.2410     2.5060     0.4820 O.3   1 <1>  -0.3630 
 19 C       -5.7700     3.8030    -0.5420 C.ar  1 <1>   0.0830 
 20 C       -7.9460     3.4440    -0.3300 C.3   1 <1>   0.4000 
 21 O       -6.9550     4.2490    -0.9640 O.3   1 <1>  -0.3620 
 22 H        1.9050     0.8260     1.6290 H     1 <1>   0.3700 
 23 H       -0.8100     2.6710     0.1360 H     1 <1>   0.1500 
 24 H        0.8410     1.8220    -0.9390 H     1 <1>   0.0800 
 25 H       -2.7140     1.1860     1.9740 H     1 <1>   0.1500 
 26 H        2.8610     0.4330    -1.7600 H     1 <1>   0.0800 
 27 H        2.9530     2.8360    -1.4670 H     1 <1>   0.0800 
 28 H        0.3350    -0.8680    -0.7320 H     1 <1>   0.0800 
 29 H        1.3910    -1.5250    -1.9590 H     1 <1>   0.0800 
 30 H        0.5160    -0.0500    -2.2650 H     1 <1>   0.0800 
 31 H        2.3240    -1.1010     0.8040 H     1 <1>   0.0800 
 32 H        3.7860    -0.1960     0.5240 H     1 <1>   0.0800 
 33 H        3.3970    -1.5500    -0.4890 H     1 <1>   0.0800 
 34 H        3.7800     2.3240     1.3970 H     1 <1>   0.0800 
 35 H        4.5680     3.4540     0.3290 H     1 <1>   0.0800 
 36 H        4.5860     1.7670    -0.0580 H     1 <1>   0.0800 
 37 H        1.7420     4.0130     1.0370 H     1 <1>   0.0800 
 38 H        1.1140     4.2100    -0.5820 H     1 <1>   0.0800 
 39 H        2.6700     4.8710    -0.1650 H     1 <1>   0.0800 
 40 H       -5.0310     1.3040     1.5750 H     1 <1>   0.1500 
 41 H       -2.4360     3.9830    -0.5420 H     1 <1>   0.1500 
 42 H       -4.3950     5.0850    -1.5500 H     1 <1>   0.1500 
 43 H       -8.5160     2.9190    -1.0760 H     1 <1>   0.0800 
 44 H       -8.5700     4.0610     0.2900 H     1 <1>   0.0800 
@<TRIPOS>BOND
  1   1   2  2   
  2   2   3  am  
  3   2   4  1   
  4   3   5  1   
  5   3  22  1   
  6   4   6  2   
  7   4  23  1   
  8   5   7  1   
  9   5   8  1   
 10   5  24  1   
 11   6   9  1   
 12   6  25  1   
 13   7  10  1   
 14   7  11  1   
 15   7  26  1   
 16   8  12  1   
 17   8  13  1   
 18   8  27  1   
 19   9  14  ar  
 20   9  15  ar  
 21  10  28  1   
 22  10  29  1   
 23  10  30  1   
 24  11  31  1   
 25  11  32  1   
 26  11  33  1   
 27  12  34  1   
 28  12  35  1   
 29  12  36  1   
 30  13  37  1   
 31  13  38  1   
 32  13  39  1   
 33  14  16  ar  
 34  14  40  1   
 35  15  17  ar  
 36  15  41  1   
 37  16  18  1   
 38  16  19  ar  
 39  17  19  ar  
 40  17  42  1   
 41  18  20  1   
 42  19  21  1   
 43  20  21  1   
 44  20  43  1   
 45  20  44  1   
@<TRIPOS>SUBSTRUCTURE
  1 ****   4 GROUP 4 **** **** 0

# MOE 2024.06 (io_trps.svl 2023.06)
