@<TRIPOS>MOLECULE
NONAME
41 42 1 0 0 
SMALL
USER_CHARGES


@<TRIPOS>ATOM
  1 O        0.3200    -0.5340     0.6270 O.3   1 <1>  -0.3630 
  2 C        1.5480    -0.9550     0.2380 C.ar  1 <1>   0.0830 
  3 C       -0.2160     0.6890     0.1750 C.3   1 <1>   0.0400 
  4 C        2.3910    -0.2260    -0.5950 C.ar  1 <1>  -0.1500 
  5 C        1.9630    -2.1890     0.7100 C.ar  1 <1>  -0.1500 
  6 C        3.6330    -0.7310    -0.9390 C.ar  1 <1>  -0.1500 
  7 C        3.2040    -2.6930     0.3660 C.ar  1 <1>  -0.1500 
  8 C        4.0480    -1.9640    -0.4580 C.ar  1 <1>  -0.1430 
  9 C        5.4180    -2.5050    -0.8150 C.3   1 <1>  -0.0170 
 10 C        6.4070    -2.0530     0.2570 C.3   1 <1>   0.3430 
 11 N        7.7760    -2.5580    -0.0400 N.4   1 <1>  -0.9060 
 12 C        8.7840    -2.1470     0.9570 C.3   1 <1>   0.4230 
 13 C        9.1610    -0.6850     0.7390 C.3   1 <1>  -0.1600 
 14 C       10.0820    -2.8790     0.6410 C.3   1 <1>  -0.1600 
 15 C       10.1120    -0.6830    -0.4640 C.3   1 <1>  -0.0800 
 16 C       10.7740    -2.0700    -0.4660 C.3   1 <1>  -0.1600 
 17 C       11.1310     0.4580    -0.3930 C.3   1 <1>  -0.2400 
 18 H       -1.1970     0.8010     0.6000 H     1 <1>   0.0800 
 19 H       -0.2830     0.6650    -0.8980 H     1 <1>   0.0800 
 20 H        0.4200     1.4920     0.5050 H     1 <1>   0.0800 
 21 H        2.0960     0.7310    -0.9820 H     1 <1>   0.1500 
 22 H        1.3020    -2.7480     1.3480 H     1 <1>   0.1500 
 23 H        4.2660    -0.1500    -1.5880 H     1 <1>   0.1500 
 24 H        3.4940    -3.6570     0.7460 H     1 <1>   0.1500 
 25 H        5.7100    -2.1280    -1.7800 H     1 <1>   0.0800 
 26 H        5.3750    -3.5790    -0.8610 H     1 <1>   0.0800 
 27 H        6.0780    -2.4210     1.2160 H     1 <1>   0.0800 
 28 H        6.4090    -0.9760     0.2970 H     1 <1>   0.0800 
 29 H        8.0990    -2.2150    -0.9520 H     1 <1>   0.4500 
 30 H        7.7680    -3.5820    -0.0900 H     1 <1>   0.4500 
 31 H        8.4430    -2.3430     1.9620 H     1 <1>   0.0800 
 32 H        9.6950    -0.3500     1.6130 H     1 <1>   0.0800 
 33 H        8.3180    -0.0320     0.5990 H     1 <1>   0.0800 
 34 H        9.9390    -3.9110     0.3750 H     1 <1>   0.0800 
 35 H       10.7040    -2.8470     1.5200 H     1 <1>   0.0800 
 36 H        9.5390    -0.5700    -1.3700 H     1 <1>   0.0800 
 37 H       10.6390    -2.5400    -1.4250 H     1 <1>   0.0800 
 38 H       11.8330    -2.0090    -0.2710 H     1 <1>   0.0800 
 39 H       11.7410     0.3790     0.4900 H     1 <1>   0.0800 
 40 H       10.6290     1.4100    -0.3780 H     1 <1>   0.0800 
 41 H       11.7780     0.4330    -1.2540 H     1 <1>   0.0800 
@<TRIPOS>BOND
  1   1   2  1   
  2   1   3  1   
  3   2   4  ar  
  4   2   5  ar  
  5   3  18  1   
  6   3  19  1   
  7   3  20  1   
  8   4   6  ar  
  9   4  21  1   
 10   5   7  ar  
 11   5  22  1   
 12   6   8  ar  
 13   6  23  1   
 14   7   8  ar  
 15   7  24  1   
 16   8   9  1   
 17   9  10  1   
 18   9  25  1   
 19   9  26  1   
 20  10  11  1   
 21  10  27  1   
 22  10  28  1   
 23  11  12  1   
 24  11  29  1   
 25  11  30  1   
 26  12  13  1   
 27  12  14  1   
 28  12  31  1   
 29  13  15  1   
 30  13  32  1   
 31  13  33  1   
 32  14  16  1   
 33  14  34  1   
 34  14  35  1   
 35  15  16  1   
 36  15  17  1   
 37  15  36  1   
 38  16  37  1   
 39  16  38  1   
 40  17  39  1   
 41  17  40  1   
 42  17  41  1   
@<TRIPOS>SUBSTRUCTURE
  1 ****  10 GROUP 4 **** **** 0

# MOE 2024.06 (io_trps.svl 2023.06)
