@<TRIPOS>MOLECULE
NONAME
40 42 1 0 0 
SMALL
USER_CHARGES


@<TRIPOS>ATOM
  1 CL      -1.7210    -5.0990     0.2100 Cl    1 <1>  -0.1770 
  2 C       -0.4980    -3.8570     0.0610 C.ar  1 <1>   0.1770 
  3 C       -0.8170    -2.5220     0.2470 C.ar  1 <1>   0.1900 
  4 C        0.8000    -4.2170    -0.2470 C.ar  1 <1>  -0.1500 
  5 F       -2.0450    -2.1740     0.5390 F     1 <1>  -0.1900 
  6 C        0.1400    -1.5330     0.1290 C.ar  1 <1>  -0.1500 
  7 C        1.7870    -3.2400    -0.3690 C.ar  1 <1>   0.1170 
  8 C        1.4400    -1.9030    -0.1800 C.ar  1 <1>  -0.1500 
  9 N        3.1210    -3.5400    -0.6820 N.am  1 <1>  -0.5470 
 10 C        3.8310    -4.7060    -0.7240 C.2   1 <1>   0.5690 
 11 O        3.3760    -5.7920    -0.4550 O.2   1 <1>  -0.5700 
 12 C        5.2970    -4.5900    -1.1450 C.3   1 <1>   0.1710 
 13 N        5.8960    -3.2460    -0.8660 N.3   1 <1>  -0.8100 
 14 C        6.0900    -3.0560     0.5950 C.3   1 <1>   0.1100 
 15 C        7.1060    -3.0020    -1.6900 C.3   1 <1>   0.1100 
 16 C        7.1360    -1.9810     0.8760 C.3   1 <1>  -0.1600 
 17 C        8.3840    -3.3220    -0.9180 C.3   1 <1>  -0.1600 
 18 C        8.4950    -2.4140     0.3080 C.3   1 <1>   0.5600 
 19 O        9.2320    -3.0780     1.2810 O.3   1 <1>  -0.5600 
 20 O        9.2410    -1.2910    -0.0220 O.3   1 <1>  -0.5600 
 21 C       10.1040    -2.1920     1.8890 C.3   1 <1>   0.1200 
 22 C        9.9840    -0.9170     1.0780 C.3   1 <1>   0.1200 
 23 H        1.0280    -5.2570    -0.3910 H     1 <1>   0.1500 
 24 H       -0.1300    -0.5020     0.2760 H     1 <1>   0.1500 
 25 H        2.1940    -1.1420    -0.2740 H     1 <1>   0.1500 
 26 H        3.7390    -2.7420    -0.8660 H     1 <1>   0.3700 
 27 H        5.3280    -4.7840    -2.2020 H     1 <1>   0.0800 
 28 H        5.8670    -5.3590    -0.6540 H     1 <1>   0.0800 
 29 H        6.4200    -3.9770     1.0490 H     1 <1>   0.0800 
 30 H        5.1540    -2.7800     1.0510 H     1 <1>   0.0800 
 31 H        7.1260    -1.9610    -1.9680 H     1 <1>   0.0800 
 32 H        7.0700    -3.5750    -2.6010 H     1 <1>   0.0800 
 33 H        7.2130    -1.8130     1.9340 H     1 <1>   0.0800 
 34 H        6.8180    -1.0690     0.4060 H     1 <1>   0.0800 
 35 H        9.2430    -3.1820    -1.5480 H     1 <1>   0.0800 
 36 H        8.3530    -4.3510    -0.6110 H     1 <1>   0.0800 
 37 H       11.0980    -2.6000     1.8400 H     1 <1>   0.0800 
 38 H        9.8090    -2.0470     2.9130 H     1 <1>   0.0800 
 39 H        9.4470    -0.1560     1.6180 H     1 <1>   0.0800 
 40 H       10.9390    -0.5430     0.7550 H     1 <1>   0.0800 
@<TRIPOS>BOND
  1   1   2  1   
  2   2   3  ar  
  3   2   4  ar  
  4   3   5  1   
  5   3   6  ar  
  6   4   7  ar  
  7   4  23  1   
  8   6   8  ar  
  9   6  24  1   
 10   7   8  ar  
 11   7   9  1   
 12   8  25  1   
 13   9  10  am  
 14   9  26  1   
 15  10  11  2   
 16  10  12  1   
 17  12  13  1   
 18  12  27  1   
 19  12  28  1   
 20  13  14  1   
 21  13  15  1   
 22  14  16  1   
 23  14  29  1   
 24  14  30  1   
 25  15  17  1   
 26  15  31  1   
 27  15  32  1   
 28  16  18  1   
 29  16  33  1   
 30  16  34  1   
 31  17  18  1   
 32  17  35  1   
 33  17  36  1   
 34  18  19  1   
 35  18  20  1   
 36  19  21  1   
 37  20  22  1   
 38  21  22  1   
 39  21  37  1   
 40  21  38  1   
 41  22  39  1   
 42  22  40  1   
@<TRIPOS>SUBSTRUCTURE
  1 ****   9 GROUP 4 **** **** 0

# MOE 2024.06 (io_trps.svl 2023.06)
