@<TRIPOS>MOLECULE
NONAME
51 52 1 0 0 
SMALL
USER_CHARGES


@<TRIPOS>ATOM
  1 O        1.9040    -1.3490    -1.6630 O.2   1 <1>  -0.5700 
  2 C        2.2220    -1.6270    -0.5300 C.2   1 <1>   0.5690 
  3 N        1.5840    -2.6120     0.1820 N.am  1 <1>  -0.6600 
  4 C        3.3780    -0.8270     0.0610 C.3   1 <1>  -0.0190 
  5 C        0.4540    -3.3630    -0.4340 C.3   1 <1>   0.1400 
  6 C        1.8920    -3.0020     1.5850 C.3   1 <1>   0.1400 
  7 C        4.3080    -0.4150    -1.0870 C.3   1 <1>   0.3430 
  8 C        2.8690     0.4160     0.8170 C.3   1 <1>  -0.1600 
  9 C       -0.8640    -2.6710    -0.0950 C.3   1 <1>  -0.2400 
 10 C        2.8850    -4.1630     1.5870 C.3   1 <1>  -0.2400 
 11 N        5.4310     0.4530    -0.6070 N.4   1 <1>  -0.9590 
 12 C        4.0380     1.3140     1.2460 C.3   1 <1>  -0.1600 
 13 C        4.9300     1.6900     0.0610 C.3   1 <1>   0.3430 
 14 C        6.3580     0.7590    -1.7180 C.3   1 <1>   0.4810 
 15 C        7.6710     1.1590    -1.0940 C.2   1 <1>  -0.2880 
 16 C        8.7640     0.3760    -1.0480 C.2   1 <1>  -0.1780 
 17 C       10.0510     0.6860    -0.4650 C.ar  1 <1>   0.0280 
 18 C       10.9640    -0.3360    -0.2150 C.ar  1 <1>  -0.1500 
 19 C       10.4310     1.9850    -0.1340 C.ar  1 <1>  -0.1500 
 20 C       12.2000    -0.0770     0.3480 C.ar  1 <1>  -0.1500 
 21 C       11.6660     2.2510     0.4310 C.ar  1 <1>  -0.1500 
 22 C       12.5530     1.2200     0.6740 C.ar  1 <1>  -0.1500 
 23 H        3.9390    -1.4560     0.7250 H     1 <1>   0.0800 
 24 H        0.5750    -3.4000    -1.5040 H     1 <1>   0.0800 
 25 H        0.4430    -4.3770    -0.0710 H     1 <1>   0.0800 
 26 H        2.2970    -2.1690     2.1310 H     1 <1>   0.0800 
 27 H        0.9860    -3.3020     2.0840 H     1 <1>   0.0800 
 28 H        3.7300     0.1200    -1.8240 H     1 <1>   0.0800 
 29 H        4.6980    -1.3040    -1.5580 H     1 <1>   0.0800 
 30 H        2.2060     0.9740     0.1760 H     1 <1>   0.0800 
 31 H        2.3010     0.1170     1.6820 H     1 <1>   0.0800 
 32 H       -0.8610    -1.6660    -0.4790 H     1 <1>   0.0800 
 33 H       -1.0250    -2.6500     0.9670 H     1 <1>   0.0800 
 34 H       -1.6780    -3.2040    -0.5520 H     1 <1>   0.0800 
 35 H        3.7990    -3.8870     1.0950 H     1 <1>   0.0800 
 36 H        2.4620    -5.0190     1.0930 H     1 <1>   0.0800 
 37 H        3.1130    -4.4400     2.6010 H     1 <1>   0.0800 
 38 H        5.9850    -0.0730     0.0820 H     1 <1>   0.4500 
 39 H        4.6300     0.8200     1.9980 H     1 <1>   0.0800 
 40 H        3.6480     2.2150     1.6880 H     1 <1>   0.0800 
 41 H        5.7580     2.2850     0.4120 H     1 <1>   0.0800 
 42 H        4.3610     2.2790    -0.6420 H     1 <1>   0.0800 
 43 H        6.5090    -0.1230    -2.3200 H     1 <1>   0.0800 
 44 H        5.9690     1.5440    -2.3470 H     1 <1>   0.0800 
 45 H        7.6540     2.1510    -0.6800 H     1 <1>   0.1500 
 46 H        8.7310    -0.6110    -1.4780 H     1 <1>   0.1500 
 47 H       10.7110    -1.3510    -0.4610 H     1 <1>   0.1500 
 48 H        9.7670     2.8070    -0.3210 H     1 <1>   0.1500 
 49 H       12.8900    -0.8820     0.5330 H     1 <1>   0.1500 
 50 H       11.9400     3.2620     0.6800 H     1 <1>   0.1500 
 51 H       13.5140     1.4240     1.1140 H     1 <1>   0.1500 
@<TRIPOS>BOND
  1   1   2  2   
  2   2   3  am  
  3   2   4  1   
  4   3   5  1   
  5   3   6  1   
  6   4   7  1   
  7   4   8  1   
  8   4  23  1   
  9   5   9  1   
 10   5  24  1   
 11   5  25  1   
 12   6  10  1   
 13   6  26  1   
 14   6  27  1   
 15   7  11  1   
 16   7  28  1   
 17   7  29  1   
 18   8  12  1   
 19   8  30  1   
 20   8  31  1   
 21   9  32  1   
 22   9  33  1   
 23   9  34  1   
 24  10  35  1   
 25  10  36  1   
 26  10  37  1   
 27  11  13  1   
 28  11  14  1   
 29  11  38  1   
 30  12  13  1   
 31  12  39  1   
 32  12  40  1   
 33  13  41  1   
 34  13  42  1   
 35  14  15  1   
 36  14  43  1   
 37  14  44  1   
 38  15  16  2   
 39  15  45  1   
 40  16  17  1   
 41  16  46  1   
 42  17  18  ar  
 43  17  19  ar  
 44  18  20  ar  
 45  18  47  1   
 46  19  21  ar  
 47  19  48  1   
 48  20  22  ar  
 49  20  49  1   
 50  21  22  ar  
 51  21  50  1   
 52  22  51  1   
@<TRIPOS>SUBSTRUCTURE
  1 ****  11 GROUP 4 **** **** 0

# MOE 2024.06 (io_trps.svl 2023.06)
