@<TRIPOS>MOLECULE
NONAME
37 37 1 0 0 
SMALL
USER_CHARGES


@<TRIPOS>ATOM
  1 S       -0.1510    -0.0070     0.2510 S.o2  1 <1>   1.4470 
  2 O       -0.4720    -0.5840     1.5390 O.2   1 <1>  -0.6500 
  3 O       -0.2990    -0.7870    -0.9560 O.2   1 <1>  -0.6500 
  4 N       -1.2740     1.2130    -0.0100 N.am  1 <1>  -0.9140 
  5 C        1.4350     0.8680     0.3200 C.ar  1 <1>  -0.0090 
  6 C       -2.6060     0.8600     0.4510 C.3   1 <1>   0.1960 
  7 C        2.6280     0.1630     0.1830 C.ar  1 <1>   0.0830 
  8 C        1.5090     2.2430     0.5320 C.ar  1 <1>  -0.1500 
  9 C       -3.6280     1.9000    -0.0340 C.3   1 <1>  -0.0800 
 10 O        2.5390    -1.1790     0.0070 O.3   1 <1>  -0.3620 
 11 C        3.8510     0.8250     0.2350 C.ar  1 <1>  -0.1500 
 12 C        2.7220     2.9040     0.5870 C.ar  1 <1>  -0.1500 
 13 C       -5.0190     1.5670     0.5220 C.3   1 <1>  -0.2400 
 14 C       -3.6960     1.9810    -1.5690 C.3   1 <1>  -0.2400 
 15 C        3.6770    -1.9950    -0.1620 C.3   1 <1>   0.0400 
 16 C        3.9060     2.1920     0.4340 C.ar  1 <1>   0.0830 
 17 O        5.1370     2.7560     0.4690 O.3   1 <1>  -0.3620 
 18 C        5.3070     4.1400     0.6820 C.3   1 <1>   0.0400 
 19 H       -1.3310     1.2360    -1.0260 H     1 <1>   0.4200 
 20 H       -2.6110     0.8230     1.5290 H     1 <1>   0.0800 
 21 H       -2.8770    -0.1160     0.0790 H     1 <1>   0.0800 
 22 H        0.6040     2.8120     0.6620 H     1 <1>   0.1500 
 23 H       -3.3380     2.8630     0.3540 H     1 <1>   0.0800 
 24 H        4.7820     0.3030     0.1270 H     1 <1>   0.1500 
 25 H        2.7260     3.9650     0.7500 H     1 <1>   0.1500 
 26 H       -5.3550     0.6120     0.1590 H     1 <1>   0.0800 
 27 H       -5.7310     2.3170     0.2240 H     1 <1>   0.0800 
 28 H       -4.9940     1.5370     1.5970 H     1 <1>   0.0800 
 29 H       -3.9280     1.0180    -1.9900 H     1 <1>   0.0800 
 30 H       -2.7630     2.3230    -1.9770 H     1 <1>   0.0800 
 31 H       -4.4590     2.6770    -1.8700 H     1 <1>   0.0800 
 32 H        3.3440    -3.0090    -0.2920 H     1 <1>   0.0800 
 33 H        4.2930    -1.9220     0.7170 H     1 <1>   0.0800 
 34 H        4.2120    -1.6720    -1.0380 H     1 <1>   0.0800 
 35 H        6.3610     4.3520     0.6730 H     1 <1>   0.0800 
 36 H        4.8900     4.4010     1.6380 H     1 <1>   0.0800 
 37 H        4.8200     4.6780    -0.1120 H     1 <1>   0.0800 
@<TRIPOS>BOND
  1   1   2  2   
  2   1   3  2   
  3   1   4  am  
  4   1   5  1   
  5   4   6  1   
  6   4  19  1   
  7   5   7  ar  
  8   5   8  ar  
  9   6   9  1   
 10   6  20  1   
 11   6  21  1   
 12   7  10  1   
 13   7  11  ar  
 14   8  12  ar  
 15   8  22  1   
 16   9  13  1   
 17   9  14  1   
 18   9  23  1   
 19  10  15  1   
 20  11  16  ar  
 21  11  24  1   
 22  12  16  ar  
 23  12  25  1   
 24  13  26  1   
 25  13  27  1   
 26  13  28  1   
 27  14  29  1   
 28  14  30  1   
 29  14  31  1   
 30  15  32  1   
 31  15  33  1   
 32  15  34  1   
 33  16  17  1   
 34  17  18  1   
 35  18  35  1   
 36  18  36  1   
 37  18  37  1   
@<TRIPOS>SUBSTRUCTURE
  1 ****   5 GROUP 4 **** **** 0

# MOE 2024.06 (io_trps.svl 2023.06)
