@<TRIPOS>MOLECULE
NONAME
39 41 1 0 0 
SMALL
USER_CHARGES


@<TRIPOS>ATOM
  1 F       -2.0960     1.1320     1.6440 F     1 <1>  -0.1900 
  2 C       -1.2220     1.9410     1.1060 C.ar  1 <1>   0.1900 
  3 C       -1.4280     2.3670    -0.2000 C.ar  1 <1>  -0.1440 
  4 C       -0.1390     2.3430     1.8710 C.ar  1 <1>  -0.1500 
  5 C       -0.4990     3.2370    -0.7570 C.ar  1 <1>  -0.1500 
  6 C       -2.6330     1.8880    -0.9850 C.3   1 <1>   0.4870 
  7 C        0.7820     3.2130     1.3120 C.ar  1 <1>  -0.1500 
  8 C        0.5810     3.6420     0.0110 C.ar  1 <1>   0.1900 
  9 N       -3.8680     2.4460    -0.3740 N.4   1 <1>  -0.9590 
 10 F        1.4430     4.4650    -0.5180 F     1 <1>  -0.1900 
 11 C       -5.1140     1.8490    -0.9750 C.3   1 <1>   0.3430 
 12 C       -3.9090     3.9540    -0.4320 C.3   1 <1>   0.3430 
 13 C       -6.4010     2.4150    -0.3400 C.3   1 <1>   0.2090 
 14 C       -5.1890     4.5310     0.2050 C.3   1 <1>   0.2090 
 15 N       -6.4180     3.9080    -0.3710 N.pl3 1 <1>  -0.8380 
 16 C       -7.5900     4.4580     0.0970 C.ar  1 <1>   0.4100 
 17 N       -7.8460     4.2750     1.3850 N.ar  1 <1>  -0.6200 
 18 C       -8.4260     5.1570    -0.7670 C.ar  1 <1>  -0.1500 
 19 C       -8.9750     4.8080     1.8240 C.ar  1 <1>   0.1600 
 20 C       -9.5950     5.7060    -0.2970 C.ar  1 <1>  -0.1500 
 21 C       -9.8700     5.5200     1.0430 C.ar  1 <1>  -0.1500 
 22 H       -0.0210     1.9830     2.8800 H     1 <1>   0.1500 
 23 H       -0.5870     3.6050    -1.7650 H     1 <1>   0.1500 
 24 H       -2.6640     0.8100    -0.9570 H     1 <1>   0.0800 
 25 H       -2.5530     2.2000    -2.0140 H     1 <1>   0.0800 
 26 H        1.6390     3.5540     1.8670 H     1 <1>   0.1500 
 27 H       -3.8470     2.1820     0.6230 H     1 <1>   0.4500 
 28 H       -5.1070     0.7790    -0.8510 H     1 <1>   0.0800 
 29 H       -5.1430     2.0620    -2.0310 H     1 <1>   0.0800 
 30 H       -3.8720     4.2780    -1.4580 H     1 <1>   0.0800 
 31 H       -3.0530     4.3660     0.0770 H     1 <1>   0.0800 
 32 H       -6.4820     2.0740     0.6790 H     1 <1>   0.0800 
 33 H       -7.2570     2.0430    -0.8770 H     1 <1>   0.0800 
 34 H       -5.2220     5.5950     0.0370 H     1 <1>   0.0800 
 35 H       -5.1670     4.3710     1.2700 H     1 <1>   0.0800 
 36 H       -8.1430     5.2590    -1.7970 H     1 <1>   0.1500 
 37 H       -9.2030     4.6720     2.8680 H     1 <1>   0.1500 
 38 H      -10.2650     6.2530    -0.9380 H     1 <1>   0.1500 
 39 H      -10.7670     5.9220     1.4770 H     1 <1>   0.1500 
@<TRIPOS>BOND
  1   1   2  1   
  2   2   3  ar  
  3   2   4  ar  
  4   3   5  ar  
  5   3   6  1   
  6   4   7  ar  
  7   4  22  1   
  8   5   8  ar  
  9   5  23  1   
 10   6   9  1   
 11   6  24  1   
 12   6  25  1   
 13   7   8  ar  
 14   7  26  1   
 15   8  10  1   
 16   9  11  1   
 17   9  12  1   
 18   9  27  1   
 19  11  13  1   
 20  11  28  1   
 21  11  29  1   
 22  12  14  1   
 23  12  30  1   
 24  12  31  1   
 25  13  15  1   
 26  13  32  1   
 27  13  33  1   
 28  14  15  1   
 29  14  34  1   
 30  14  35  1   
 31  15  16  1   
 32  16  17  ar  
 33  16  18  ar  
 34  17  19  ar  
 35  18  20  ar  
 36  18  36  1   
 37  19  21  ar  
 38  19  37  1   
 39  20  21  ar  
 40  20  38  1   
 41  21  39  1   
@<TRIPOS>SUBSTRUCTURE
  1 ****  12 GROUP 4 **** **** 0

# MOE 2024.06 (io_trps.svl 2023.06)
