@<TRIPOS>MOLECULE
NONAME
43 43 1 0 0 
SMALL
USER_CHARGES


@<TRIPOS>ATOM
  1 O        1.0080    -6.4560    -0.2440 O.3   1 <1>  -0.3630 
  2 C       -0.1930    -5.8470    -0.0810 C.ar  1 <1>   0.0830 
  3 C        2.2130    -5.7480    -0.1070 C.3   1 <1>   0.1200 
  4 C       -1.3180    -6.6390    -0.2400 C.ar  1 <1>  -0.1500 
  5 C       -0.3420    -4.4980     0.2290 C.ar  1 <1>  -0.1500 
  6 C        3.3460    -6.7440    -0.3570 C.3   1 <1>   0.3430 
  7 C       -2.5920    -6.1120    -0.0940 C.ar  1 <1>  -0.1440 
  8 C       -1.6090    -3.9640     0.3760 C.ar  1 <1>  -0.1500 
  9 N        4.6930    -6.0970    -0.2370 N.4   1 <1>  -0.9060 
 10 C       -2.7260    -4.7660     0.2160 C.ar  1 <1>  -0.1500 
 11 C       -3.8140    -7.0100    -0.2750 C.3   1 <1>   0.0630 
 12 C        5.8520    -6.9670    -0.4580 C.3   1 <1>   0.5030 
 13 C       -4.6810    -6.5260    -1.4410 C.3   1 <1>  -0.2400 
 14 C       -4.6330    -7.0860     1.0170 C.3   1 <1>  -0.2400 
 15 C        7.0850    -6.0870    -0.2830 C.3   1 <1>  -0.2400 
 16 C        5.8630    -8.0900     0.5780 C.3   1 <1>  -0.2400 
 17 C        5.8140    -7.5290    -1.8790 C.3   1 <1>  -0.2400 
 18 H        2.2540    -5.3540     0.8930 H     1 <1>   0.0800 
 19 H        2.2190    -4.9590    -0.8380 H     1 <1>   0.0800 
 20 H       -1.1870    -7.6790    -0.4800 H     1 <1>   0.1500 
 21 H        0.5000    -3.8470     0.3610 H     1 <1>   0.1500 
 22 H        3.2260    -7.1550    -1.3460 H     1 <1>   0.0800 
 23 H        3.2610    -7.5440     0.3600 H     1 <1>   0.0800 
 24 H       -1.7330    -2.9220     0.6170 H     1 <1>   0.1500 
 25 H        4.7990    -5.6930     0.6990 H     1 <1>   0.4500 
 26 H        4.7670    -5.3260    -0.9080 H     1 <1>   0.4500 
 27 H       -3.7040    -4.3340     0.3330 H     1 <1>   0.1500 
 28 H       -3.4790    -8.0070    -0.5090 H     1 <1>   0.0800 
 29 H       -5.0870    -5.5510    -1.2390 H     1 <1>   0.0800 
 30 H       -5.4940    -7.2080    -1.6090 H     1 <1>   0.0800 
 31 H       -4.0890    -6.4710    -2.3380 H     1 <1>   0.0800 
 32 H       -5.0370    -6.1240     1.2730 H     1 <1>   0.0800 
 33 H       -4.0070    -7.4200     1.8260 H     1 <1>   0.0800 
 34 H       -5.4450    -7.7810     0.9030 H     1 <1>   0.0800 
 35 H        7.1330    -5.6760     0.7100 H     1 <1>   0.0800 
 36 H        7.0990    -5.2860    -1.0010 H     1 <1>   0.0800 
 37 H        7.9760    -6.6730    -0.4340 H     1 <1>   0.0800 
 38 H        6.7670    -8.6660     0.4760 H     1 <1>   0.0800 
 39 H        5.8390    -7.6960     1.5790 H     1 <1>   0.0800 
 40 H        5.0400    -8.7670     0.4410 H     1 <1>   0.0800 
 41 H        5.7540    -6.7420    -2.6090 H     1 <1>   0.0800 
 42 H        4.9900    -8.2070    -2.0170 H     1 <1>   0.0800 
 43 H        6.7150    -8.0850    -2.0720 H     1 <1>   0.0800 
@<TRIPOS>BOND
  1   1   2  1   
  2   1   3  1   
  3   2   4  ar  
  4   2   5  ar  
  5   3   6  1   
  6   3  18  1   
  7   3  19  1   
  8   4   7  ar  
  9   4  20  1   
 10   5   8  ar  
 11   5  21  1   
 12   6   9  1   
 13   6  22  1   
 14   6  23  1   
 15   7  10  ar  
 16   7  11  1   
 17   8  10  ar  
 18   8  24  1   
 19   9  12  1   
 20   9  25  1   
 21   9  26  1   
 22  10  27  1   
 23  11  13  1   
 24  11  14  1   
 25  11  28  1   
 26  12  15  1   
 27  12  16  1   
 28  12  17  1   
 29  13  29  1   
 30  13  30  1   
 31  13  31  1   
 32  14  32  1   
 33  14  33  1   
 34  14  34  1   
 35  15  35  1   
 36  15  36  1   
 37  15  37  1   
 38  16  38  1   
 39  16  39  1   
 40  16  40  1   
 41  17  41  1   
 42  17  42  1   
 43  17  43  1   
@<TRIPOS>SUBSTRUCTURE
  1 ****   1 GROUP 4 **** **** 0

# MOE 2024.06 (io_trps.svl 2023.06)
