@<TRIPOS>MOLECULE
NONAME
46 47 1 0 0 
SMALL
USER_CHARGES


@<TRIPOS>ATOM
  1 O       -0.1740     0.2510     0.5790 O.2   1 <1>  -0.5700 
  2 C       -0.0700    -0.8970     0.1950 C.2   1 <1>   0.6900 
  3 N        1.1350    -1.4970    -0.0150 N.am  1 <1>  -0.5470 
  4 N       -1.1900    -1.6260    -0.0380 N.am  1 <1>  -0.7300 
  5 C        2.4390    -0.9790     0.0130 C.ar  1 <1>   0.1170 
  6 C       -2.5430    -1.1050     0.1940 C.3   1 <1>   0.2200 
  7 C        2.7270     0.3680    -0.1790 C.ar  1 <1>  -0.1500 
  8 C        3.5000    -1.8500     0.2210 C.ar  1 <1>  -0.1500 
  9 C       -3.4900    -2.2490     0.5460 C.3   1 <1>  -0.1600 
 10 C       -3.0240    -0.3670    -1.0540 C.3   1 <1>  -0.1600 
 11 C        4.0310     0.8270    -0.1580 C.ar  1 <1>  -0.1500 
 12 C        4.8060    -1.3930     0.2410 C.ar  1 <1>  -0.1500 
 13 C       -4.9110    -1.7160     0.7280 C.3   1 <1>   0.3430 
 14 C       -4.4450     0.1450    -0.8480 C.3   1 <1>   0.3430 
 15 C        5.0870    -0.0480     0.0520 C.ar  1 <1>  -0.1430 
 16 N       -5.3500    -0.9950    -0.5060 N.4   1 <1>  -0.9590 
 17 C        6.5210     0.4780     0.0730 C.3   1 <1>   0.0630 
 18 C       -6.7610    -0.5220    -0.3660 C.3   1 <1>   0.2630 
 19 C        7.3510    -0.1530    -1.0490 C.3   1 <1>  -0.2400 
 20 C        7.1740     0.2320     1.4370 C.3   1 <1>  -0.2400 
 21 H        1.0880    -2.5050    -0.1000 H     1 <1>   0.3700 
 22 H       -1.1060    -2.5010    -0.5500 H     1 <1>   0.3700 
 23 H       -2.5100    -0.4110     1.0210 H     1 <1>   0.0800 
 24 H        1.9310     1.0690    -0.3490 H     1 <1>   0.1500 
 25 H        3.3110    -2.8960     0.3730 H     1 <1>   0.1500 
 26 H       -3.1690    -2.7030     1.4670 H     1 <1>   0.0800 
 27 H       -3.4830    -2.9990    -0.2240 H     1 <1>   0.0800 
 28 H       -2.9880    -1.0100    -1.9150 H     1 <1>   0.0800 
 29 H       -2.3780     0.4750    -1.2350 H     1 <1>   0.0800 
 30 H        4.2180     1.8760    -0.3070 H     1 <1>   0.1500 
 31 H        5.6060    -2.0920     0.4070 H     1 <1>   0.1500 
 32 H       -4.9350    -1.0430     1.5710 H     1 <1>   0.0800 
 33 H       -5.5780    -2.5380     0.9340 H     1 <1>   0.0800 
 34 H       -4.7850     0.6320    -1.7480 H     1 <1>   0.0800 
 35 H       -4.4520     0.8700    -0.0490 H     1 <1>   0.0800 
 36 H       -5.3110    -1.6640    -1.2890 H     1 <1>   0.4500 
 37 H        6.5010     1.5420    -0.0930 H     1 <1>   0.0800 
 38 H       -6.8420     0.1850     0.4440 H     1 <1>   0.0800 
 39 H       -7.4180    -1.3530    -0.1650 H     1 <1>   0.0800 
 40 H       -7.0870    -0.0420    -1.2750 H     1 <1>   0.0800 
 41 H        7.4460    -1.2140    -0.9060 H     1 <1>   0.0800 
 42 H        8.3350     0.2800    -1.0740 H     1 <1>   0.0800 
 43 H        6.8750     0.0230    -1.9980 H     1 <1>   0.0800 
 44 H        7.2650    -0.8200     1.6350 H     1 <1>   0.0800 
 45 H        6.5740     0.6750     2.2120 H     1 <1>   0.0800 
 46 H        8.1530     0.6750     1.4670 H     1 <1>   0.0800 
@<TRIPOS>BOND
  1   1   2  2   
  2   2   3  am  
  3   2   4  am  
  4   3   5  1   
  5   3  21  1   
  6   4   6  1   
  7   4  22  1   
  8   5   7  ar  
  9   5   8  ar  
 10   6   9  1   
 11   6  10  1   
 12   6  23  1   
 13   7  11  ar  
 14   7  24  1   
 15   8  12  ar  
 16   8  25  1   
 17   9  13  1   
 18   9  26  1   
 19   9  27  1   
 20  10  14  1   
 21  10  28  1   
 22  10  29  1   
 23  11  15  ar  
 24  11  30  1   
 25  12  15  ar  
 26  12  31  1   
 27  13  16  1   
 28  13  32  1   
 29  13  33  1   
 30  14  16  1   
 31  14  34  1   
 32  14  35  1   
 33  15  17  1   
 34  16  18  1   
 35  16  36  1   
 36  17  19  1   
 37  17  20  1   
 38  17  37  1   
 39  18  38  1   
 40  18  39  1   
 41  18  40  1   
 42  19  41  1   
 43  19  42  1   
 44  19  43  1   
 45  20  44  1   
 46  20  45  1   
 47  20  46  1   
@<TRIPOS>SUBSTRUCTURE
  1 ****   2 GROUP 4 **** **** 0

# MOE 2024.06 (io_trps.svl 2023.06)
