@<TRIPOS>MOLECULE
NONAME
48 50 1 0 0 
SMALL
USER_CHARGES


@<TRIPOS>ATOM
  1 CL      -0.6030    -0.7930     1.7980 Cl    1 <1>  -0.1770 
  2 C       -1.9710    -1.1100     0.7620 C.ar  1 <1>   0.1770 
  3 C       -3.1240    -0.3680     0.9190 C.ar  1 <1>  -0.1500 
  4 C       -1.8760    -2.1000    -0.1990 C.ar  1 <1>  -0.1500 
  5 C       -4.2170    -0.6120     0.1000 C.ar  1 <1>   0.1000 
  6 C       -2.9630    -2.3490    -1.0190 C.ar  1 <1>  -0.1500 
  7 N       -5.3750     0.1390     0.2620 N.pl3 1 <1>  -0.8380 
  8 C       -4.1240    -1.6080    -0.8680 C.ar  1 <1>  -0.1500 
  9 C       -6.5710    -0.5940     0.7760 C.3   1 <1>   0.2090 
 10 C       -5.6800     1.1210    -0.8200 C.3   1 <1>   0.2090 
 11 C       -7.6720     0.3940     1.2150 C.3   1 <1>   0.3430 
 12 C       -6.7880     2.1010    -0.3780 C.3   1 <1>   0.3430 
 13 N       -8.0140     1.3910     0.1360 N.4   1 <1>  -0.9590 
 14 C       -9.1140     2.3240     0.5300 C.3   1 <1>   0.3430 
 15 C      -10.4850     1.6230     0.4060 C.3   1 <1>   0.2000 
 16 O      -10.4420     0.7240    -0.6640 O.3   1 <1>  -0.6800 
 17 C      -11.6280     2.6180     0.1810 C.3   1 <1>   0.1200 
 18 O      -12.8100     1.8990    -0.1040 O.3   1 <1>  -0.3630 
 19 C      -14.0100     2.5110    -0.3230 C.ar  1 <1>   0.0830 
 20 C      -14.2610     3.8900    -0.3570 C.ar  1 <1>   0.1900 
 21 C      -15.0870     1.6600    -0.5300 C.ar  1 <1>  -0.1500 
 22 F      -13.3040     4.7660    -0.1740 F     1 <1>  -0.1900 
 23 C      -15.5240     4.4010    -0.5880 C.ar  1 <1>  -0.1500 
 24 C      -16.3580     2.1610    -0.7620 C.ar  1 <1>  -0.1500 
 25 C      -16.5800     3.5280    -0.7910 C.ar  1 <1>  -0.1500 
 26 H       -3.1750     0.3950     1.6710 H     1 <1>   0.1500 
 27 H       -0.9650    -2.6630    -0.2990 H     1 <1>   0.1500 
 28 H       -2.9040    -3.1160    -1.7720 H     1 <1>   0.1500 
 29 H       -4.9630    -1.8060    -1.5080 H     1 <1>   0.1500 
 30 H       -6.2790    -1.2010     1.6160 H     1 <1>   0.0800 
 31 H       -6.9530    -1.2480     0.0110 H     1 <1>   0.0800 
 32 H       -5.9890     0.5970    -1.7080 H     1 <1>   0.0800 
 33 H       -4.7860     1.6740    -1.0560 H     1 <1>   0.0800 
 34 H       -7.3230     0.9150     2.0900 H     1 <1>   0.0800 
 35 H       -8.5520    -0.1650     1.4880 H     1 <1>   0.0800 
 36 H       -7.0500     2.7310    -1.2120 H     1 <1>   0.0800 
 37 H       -6.3850     2.7300     0.3980 H     1 <1>   0.0800 
 38 H       -8.4360     0.8460    -0.6410 H     1 <1>   0.4500 
 39 H       -9.1140     3.1710    -0.1360 H     1 <1>   0.0800 
 40 H       -8.9680     2.6920     1.5320 H     1 <1>   0.0800 
 41 H      -10.6850     1.0580     1.3000 H     1 <1>   0.0800 
 42 H      -11.3690     0.4780    -0.8980 H     1 <1>   0.4000 
 43 H      -11.4110     3.2590    -0.6560 H     1 <1>   0.0800 
 44 H      -11.7950     3.2100     1.0650 H     1 <1>   0.0800 
 45 H      -14.9290     0.5960    -0.5100 H     1 <1>   0.1500 
 46 H      -15.6790     5.4650    -0.6070 H     1 <1>   0.1500 
 47 H      -17.1800     1.4830    -0.9210 H     1 <1>   0.1500 
 48 H      -17.5700     3.9110    -0.9720 H     1 <1>   0.1500 
@<TRIPOS>BOND
  1   1   2  1   
  2   2   3  ar  
  3   2   4  ar  
  4   3   5  ar  
  5   3  26  1   
  6   4   6  ar  
  7   4  27  1   
  8   5   7  1   
  9   5   8  ar  
 10   6   8  ar  
 11   6  28  1   
 12   7   9  1   
 13   7  10  1   
 14   8  29  1   
 15   9  11  1   
 16   9  30  1   
 17   9  31  1   
 18  10  12  1   
 19  10  32  1   
 20  10  33  1   
 21  11  13  1   
 22  11  34  1   
 23  11  35  1   
 24  12  13  1   
 25  12  36  1   
 26  12  37  1   
 27  13  14  1   
 28  13  38  1   
 29  14  15  1   
 30  14  39  1   
 31  14  40  1   
 32  15  16  1   
 33  15  17  1   
 34  15  41  1   
 35  16  42  1   
 36  17  18  1   
 37  17  43  1   
 38  17  44  1   
 39  18  19  1   
 40  19  20  ar  
 41  19  21  ar  
 42  20  22  1   
 43  20  23  ar  
 44  21  24  ar  
 45  21  45  1   
 46  23  25  ar  
 47  23  46  1   
 48  24  25  ar  
 49  24  47  1   
 50  25  48  1   
@<TRIPOS>SUBSTRUCTURE
  1 ****  13 GROUP 4 **** **** 0

# MOE 2024.06 (io_trps.svl 2023.06)
