@<TRIPOS>MOLECULE
NONAME
40 41 1 0 0 
SMALL
USER_CHARGES


@<TRIPOS>ATOM
  1 CL       0.0400     1.0670     0.6230 Cl    1 <1>  -0.1770 
  2 C        1.6380     0.4040     0.3930 C.ar  1 <1>   0.1770 
  3 C        2.6990     1.2570     0.1670 C.ar  1 <1>  -0.1500 
  4 C        1.8160    -0.9630     0.4410 C.ar  1 <1>  -0.1500 
  5 C        3.9830     0.7550    -0.0200 C.ar  1 <1>  -0.0090 
  6 C        3.0850    -1.4800     0.2590 C.ar  1 <1>  -0.1500 
  7 S        5.3710     1.8830    -0.3100 S.o2  1 <1>   1.4470 
  8 C        4.1660    -0.6270     0.0280 C.ar  1 <1>   0.0830 
  9 O        6.1940     1.4840    -1.4320 O.2   1 <1>  -0.6500 
 10 O        4.8900     3.2490    -0.3210 O.2   1 <1>  -0.6500 
 11 N        6.3490     1.7610     1.0860 N.am  1 <1>  -0.8490 
 12 O        5.4220    -1.1030    -0.1560 O.3   1 <1>  -0.3630 
 13 C        7.6490     1.1020     0.8500 C.3   1 <1>   0.1960 
 14 C        6.5400     3.0320     1.8100 C.3   1 <1>   0.1960 
 15 C        5.6610    -2.4480    -0.5060 C.3   1 <1>   0.1200 
 16 C        8.6420     2.0100     0.0790 C.3   1 <1>   0.3430 
 17 C        7.4650     4.0000     1.0330 C.3   1 <1>   0.3430 
 18 C        7.1380    -2.5860    -0.8620 C.3   1 <1>  -0.2400 
 19 N        8.8030     3.3750     0.7100 N.4   1 <1>  -0.9590 
 20 C        9.5940     4.2710    -0.1870 C.3   1 <1>   0.2630 
 21 H        2.5150     2.3170     0.1360 H     1 <1>   0.1500 
 22 H        0.9730    -1.6070     0.6200 H     1 <1>   0.1500 
 23 H        3.2120    -2.5460     0.3060 H     1 <1>   0.1500 
 24 H        7.5040     0.1890     0.2990 H     1 <1>   0.0800 
 25 H        8.0820     0.8290     1.7970 H     1 <1>   0.0800 
 26 H        6.9710     2.8280     2.7750 H     1 <1>   0.0800 
 27 H        5.5870     3.5020     1.9890 H     1 <1>   0.0800 
 28 H        5.0430    -2.6970    -1.3530 H     1 <1>   0.0800 
 29 H        5.4130    -3.0730     0.3350 H     1 <1>   0.0800 
 30 H        8.2870     2.1230    -0.9320 H     1 <1>   0.0800 
 31 H        9.5990     1.5170     0.0270 H     1 <1>   0.0800 
 32 H        7.6100     4.8930     1.6180 H     1 <1>   0.0800 
 33 H        6.9680     4.2860     0.1200 H     1 <1>   0.0800 
 34 H        7.3830    -1.9330    -1.6800 H     1 <1>   0.0800 
 35 H        7.3430    -3.5980    -1.1610 H     1 <1>   0.0800 
 36 H        7.7490    -2.3520    -0.0100 H     1 <1>   0.0800 
 37 H        9.3150     3.2520     1.5950 H     1 <1>   0.4500 
 38 H        9.0780     4.4120    -1.1230 H     1 <1>   0.0800 
 39 H       10.5620     3.8400    -0.3890 H     1 <1>   0.0800 
 40 H        9.7380     5.2340     0.2760 H     1 <1>   0.0800 
@<TRIPOS>BOND
  1   1   2  1   
  2   2   3  ar  
  3   2   4  ar  
  4   3   5  ar  
  5   3  21  1   
  6   4   6  ar  
  7   4  22  1   
  8   5   7  1   
  9   5   8  ar  
 10   6   8  ar  
 11   6  23  1   
 12   7   9  2   
 13   7  10  2   
 14   7  11  am  
 15   8  12  1   
 16  11  13  1   
 17  11  14  1   
 18  12  15  1   
 19  13  16  1   
 20  13  24  1   
 21  13  25  1   
 22  14  17  1   
 23  14  26  1   
 24  14  27  1   
 25  15  18  1   
 26  15  28  1   
 27  15  29  1   
 28  16  19  1   
 29  16  30  1   
 30  16  31  1   
 31  17  19  1   
 32  17  32  1   
 33  17  33  1   
 34  18  34  1   
 35  18  35  1   
 36  18  36  1   
 37  19  20  1   
 38  19  37  1   
 39  20  38  1   
 40  20  39  1   
 41  20  40  1   
@<TRIPOS>SUBSTRUCTURE
  1 ****   7 GROUP 4 **** **** 0

# MOE 2024.06 (io_trps.svl 2023.06)
