@<TRIPOS>MOLECULE
NONAME
34 34 1 0 0 
SMALL
USER_CHARGES


@<TRIPOS>ATOM
  1 BR       0.3800     0.2970     0.7320 Br    1 <1>  -0.1110 
  2 C        2.1600     1.0230     0.6340 C.ar  1 <1>   0.1110 
  3 C        2.3270     2.3920     0.7190 C.ar  1 <1>  -0.1500 
  4 C        3.2260     0.1560     0.4810 C.ar  1 <1>  -0.1500 
  5 C        3.6100     2.9060     0.6480 C.ar  1 <1>  -0.1500 
  6 C        4.5070     0.6790     0.4110 C.ar  1 <1>  -0.1500 
  7 C        4.7010     2.0600     0.4950 C.ar  1 <1>   0.0830 
  8 O        5.9200     2.6530     0.4350 O.3   1 <1>  -0.3630 
  9 C        7.0980     1.9020     0.2810 C.3   1 <1>   0.1200 
 10 C        8.2630     2.8940     0.2550 C.3   1 <1>   0.3430 
 11 N        9.5830     2.2030     0.0930 N.4   1 <1>  -0.9060 
 12 C       10.7670     3.0670     0.0560 C.3   1 <1>   0.5030 
 13 C       11.9660     2.1390    -0.1120 C.3   1 <1>  -0.2400 
 14 C       10.6770     4.0190    -1.1360 C.3   1 <1>  -0.2400 
 15 C       10.8880     3.8380     1.3700 C.3   1 <1>  -0.2400 
 16 H        1.4730     3.0360     0.8380 H     1 <1>   0.1500 
 17 H        3.0500    -0.9030     0.4190 H     1 <1>   0.1500 
 18 H        3.7680     3.9680     0.7120 H     1 <1>   0.1500 
 19 H        5.3260    -0.0030     0.2920 H     1 <1>   0.1500 
 20 H        7.0280     1.3600    -0.6460 H     1 <1>   0.0800 
 21 H        7.1770     1.2320     1.1190 H     1 <1>   0.0800 
 22 H        8.2550     3.4530     1.1760 H     1 <1>   0.0800 
 23 H        8.1080     3.5790    -0.5620 H     1 <1>   0.0800 
 24 H        9.5850     1.6590    -0.7760 H     1 <1>   0.4500 
 25 H        9.7240     1.5410     0.8630 H     1 <1>   0.4500 
 26 H       11.9030     1.5820    -1.0300 H     1 <1>   0.0800 
 27 H       12.0500     1.4550     0.7140 H     1 <1>   0.0800 
 28 H       12.8730     2.7180    -0.1470 H     1 <1>   0.0800 
 29 H       10.5400     3.4800    -2.0560 H     1 <1>   0.0800 
 30 H       11.5910     4.5810    -1.2190 H     1 <1>   0.0800 
 31 H        9.8800     4.7310    -1.0170 H     1 <1>   0.0800 
 32 H       10.9000     3.1710     2.2130 H     1 <1>   0.0800 
 33 H       10.0910     4.5490     1.4890 H     1 <1>   0.0800 
 34 H       11.8110     4.3920     1.3790 H     1 <1>   0.0800 
@<TRIPOS>BOND
  1   1   2  1   
  2   2   3  ar  
  3   2   4  ar  
  4   3   5  ar  
  5   3  16  1   
  6   4   6  ar  
  7   4  17  1   
  8   5   7  ar  
  9   5  18  1   
 10   6   7  ar  
 11   6  19  1   
 12   7   8  1   
 13   8   9  1   
 14   9  10  1   
 15   9  20  1   
 16   9  21  1   
 17  10  11  1   
 18  10  22  1   
 19  10  23  1   
 20  11  12  1   
 21  11  24  1   
 22  11  25  1   
 23  12  13  1   
 24  12  14  1   
 25  12  15  1   
 26  13  26  1   
 27  13  27  1   
 28  13  28  1   
 29  14  29  1   
 30  14  30  1   
 31  14  31  1   
 32  15  32  1   
 33  15  33  1   
 34  15  34  1   
@<TRIPOS>SUBSTRUCTURE
  1 ****   8 GROUP 4 **** **** 0

# MOE 2024.06 (io_trps.svl 2023.06)
