@<TRIPOS>MOLECULE
NONAME
43 45 1 0 0 
SMALL
USER_CHARGES


@<TRIPOS>ATOM
  1 CL      -3.5010    -0.2050    -3.9980 Cl    1 <1>  -0.1770 
  2 C       -2.9450    -0.5680    -2.3820 C.ar  1 <1>   0.1770 
  3 C       -2.1290     0.3130    -1.6930 C.ar  1 <1>   0.1770 
  4 C       -3.3530    -1.7500    -1.7930 C.ar  1 <1>  -0.1500 
  5 CL      -1.6160     1.8160    -2.4220 Cl    1 <1>  -0.1770 
  6 C       -1.7150     0.0170    -0.4080 C.ar  1 <1>  -0.1500 
  7 C       -2.9550    -2.0540    -0.4950 C.ar  1 <1>  -0.1440 
  8 C       -2.1310    -1.1650     0.1880 C.ar  1 <1>  -0.1500 
  9 C       -3.4260    -3.3360     0.1880 C.3   1 <1>   0.5940 
 10 S       -2.9430    -4.7590    -0.8090 S.3   1 <1>  -0.4600 
 11 N       -4.9050    -3.4030     0.2280 N.am  1 <1>  -0.6600 
 12 C       -4.5870    -5.4800    -1.0160 C.3   1 <1>   0.1310 
 13 C       -5.5070    -4.4500    -0.4000 C.2   1 <1>   0.5690 
 14 C       -5.6640    -2.3160     0.9090 C.3   1 <1>   0.1400 
 15 O       -6.7080    -4.5380    -0.4950 O.2   1 <1>  -0.5700 
 16 C       -6.3750    -1.4210    -0.1290 C.3   1 <1>   0.3430 
 17 N       -7.8210    -1.1660     0.1810 N.4   1 <1>  -0.9590 
 18 C       -8.6340    -2.4180     0.0570 C.3   1 <1>   0.3430 
 19 C       -8.3540    -0.0980    -0.7150 C.3   1 <1>   0.3430 
 20 C      -10.0830    -2.1400     0.4610 C.3   1 <1>  -0.1600 
 21 C       -9.7940     0.2390    -0.3200 C.3   1 <1>  -0.1600 
 22 C      -10.6960    -1.0010    -0.3640 C.3   1 <1>  -0.1600 
 23 H       -3.9740    -2.4250    -2.3560 H     1 <1>   0.1500 
 24 H       -1.0740     0.7050     0.1160 H     1 <1>   0.1500 
 25 H       -1.7990    -1.3850     1.1900 H     1 <1>   0.1500 
 26 H       -2.9980    -3.4650     1.1680 H     1 <1>   0.0800 
 27 H       -4.6200    -6.4140    -0.4860 H     1 <1>   0.0800 
 28 H       -4.7730    -5.6130    -2.0660 H     1 <1>   0.0800 
 29 H       -4.9920    -1.7180     1.5000 H     1 <1>   0.0800 
 30 H       -6.3790    -2.7690     1.5730 H     1 <1>   0.0800 
 31 H       -6.3060    -1.8970    -1.0940 H     1 <1>   0.0800 
 32 H       -5.8470    -0.4830    -0.1850 H     1 <1>   0.0800 
 33 H       -7.9180    -0.8310     1.1470 H     1 <1>   0.4500 
 34 H       -8.2330    -3.1920     0.6910 H     1 <1>   0.0800 
 35 H       -8.6030    -2.7770    -0.9600 H     1 <1>   0.0800 
 36 H       -8.3340    -0.4370    -1.7390 H     1 <1>   0.0800 
 37 H       -7.7460     0.7890    -0.6390 H     1 <1>   0.0800 
 38 H      -10.1220    -1.8990     1.5090 H     1 <1>   0.0800 
 39 H      -10.6630    -3.0350     0.3170 H     1 <1>   0.0800 
 40 H      -10.1790     0.9810    -0.9980 H     1 <1>   0.0800 
 41 H       -9.8050     0.6690     0.6660 H     1 <1>   0.0800 
 42 H      -11.6740    -0.7570     0.0170 H     1 <1>   0.0800 
 43 H      -10.8140    -1.3230    -1.3850 H     1 <1>   0.0800 
@<TRIPOS>BOND
  1   1   2  1   
  2   2   3  ar  
  3   2   4  ar  
  4   3   5  1   
  5   3   6  ar  
  6   4   7  ar  
  7   4  23  1   
  8   6   8  ar  
  9   6  24  1   
 10   7   8  ar  
 11   7   9  1   
 12   8  25  1   
 13   9  10  1   
 14   9  11  1   
 15   9  26  1   
 16  10  12  1   
 17  11  13  am  
 18  11  14  1   
 19  12  13  1   
 20  12  27  1   
 21  12  28  1   
 22  13  15  2   
 23  14  16  1   
 24  14  29  1   
 25  14  30  1   
 26  16  17  1   
 27  16  31  1   
 28  16  32  1   
 29  17  18  1   
 30  17  19  1   
 31  17  33  1   
 32  18  20  1   
 33  18  34  1   
 34  18  35  1   
 35  19  21  1   
 36  19  36  1   
 37  19  37  1   
 38  20  22  1   
 39  20  38  1   
 40  20  39  1   
 41  21  22  1   
 42  21  40  1   
 43  21  41  1   
 44  22  42  1   
 45  22  43  1   
@<TRIPOS>SUBSTRUCTURE
  1 ****  16 GROUP 4 **** **** 0

# MOE 2024.06 (io_trps.svl 2023.06)
