@<TRIPOS>MOLECULE
NONAME
38 38 1 0 0 
SMALL
USER_CHARGES


@<TRIPOS>ATOM
  1 O       -1.2580     1.2220    -1.1020 O.3   1 <1>  -0.6800 
  2 C       -1.6300     0.7370     0.1480 C.3   1 <1>   0.2000 
  3 C       -1.4420     1.8580     1.2030 C.3   1 <1>   0.3430 
  4 C       -0.7860    -0.5110     0.4060 C.3   1 <1>  -0.2400 
  5 N       -0.3110     2.7590     0.8280 N.4   1 <1>  -0.9590 
  6 C        1.0000     2.3180     1.3740 C.3   1 <1>   0.4860 
  7 C       -0.6220     4.2030     1.0980 C.3   1 <1>   0.3430 
  8 C        2.1100     2.9380     0.5530 C.ar  1 <1>  -0.1430 
  9 C       -0.1470     5.1690    -0.0100 C.3   1 <1>   0.2000 
 10 C        2.2880     2.5670    -0.7730 C.ar  1 <1>  -0.1500 
 11 C        2.9530     3.8850     1.1170 C.ar  1 <1>  -0.1500 
 12 O       -0.6590     6.4110     0.2980 O.3   1 <1>  -0.6800 
 13 C       -0.6600     4.8140    -1.4070 C.3   1 <1>  -0.2400 
 14 C        3.2890     3.1500    -1.5300 C.ar  1 <1>  -0.1500 
 15 C        3.9530     4.4660     0.3590 C.ar  1 <1>  -0.1500 
 16 C        4.1200     4.1010    -0.9650 C.ar  1 <1>  -0.1500 
 17 H       -1.4730     0.5640    -1.7990 H     1 <1>   0.4000 
 18 H       -2.6710     0.4620     0.1090 H     1 <1>   0.0800 
 19 H       -1.2960     1.4350     2.1830 H     1 <1>   0.0800 
 20 H       -2.3560     2.4290     1.2290 H     1 <1>   0.0800 
 21 H        0.2640    -0.3110     0.3030 H     1 <1>   0.0800 
 22 H       -1.0570    -1.2870    -0.2900 H     1 <1>   0.0800 
 23 H       -0.9720    -0.8870     1.3970 H     1 <1>   0.0800 
 24 H       -0.2610     2.6380    -0.2010 H     1 <1>   0.4500 
 25 H        1.0870     1.2470     1.3180 H     1 <1>   0.0800 
 26 H        1.0920     2.6120     2.4060 H     1 <1>   0.0800 
 27 H       -0.1860     4.5050     2.0350 H     1 <1>   0.0800 
 28 H       -1.6900     4.3220     1.1750 H     1 <1>   0.0800 
 29 H        0.9250     5.2560    -0.0110 H     1 <1>   0.0800 
 30 H        1.6570     1.8250    -1.2320 H     1 <1>   0.1500 
 31 H        2.8430     4.1840     2.1470 H     1 <1>   0.1500 
 32 H       -0.3960     7.0690    -0.3780 H     1 <1>   0.4000 
 33 H       -1.7320     4.7280    -1.4100 H     1 <1>   0.0800 
 34 H       -0.2400     3.8820    -1.7390 H     1 <1>   0.0800 
 35 H       -0.3640     5.5690    -2.1150 H     1 <1>   0.0800 
 36 H        3.4280     2.8640    -2.5590 H     1 <1>   0.1500 
 37 H        4.6070     5.2020     0.7960 H     1 <1>   0.1500 
 38 H        4.9010     4.5530    -1.5540 H     1 <1>   0.1500 
@<TRIPOS>BOND
  1   1   2  1   
  2   1  17  1   
  3   2   3  1   
  4   2   4  1   
  5   2  18  1   
  6   3   5  1   
  7   3  19  1   
  8   3  20  1   
  9   4  21  1   
 10   4  22  1   
 11   4  23  1   
 12   5   6  1   
 13   5   7  1   
 14   5  24  1   
 15   6   8  1   
 16   6  25  1   
 17   6  26  1   
 18   7   9  1   
 19   7  27  1   
 20   7  28  1   
 21   8  10  ar  
 22   8  11  ar  
 23   9  12  1   
 24   9  13  1   
 25   9  29  1   
 26  10  14  ar  
 27  10  30  1   
 28  11  15  ar  
 29  11  31  1   
 30  12  32  1   
 31  13  33  1   
 32  13  34  1   
 33  13  35  1   
 34  14  16  ar  
 35  14  36  1   
 36  15  16  ar  
 37  15  37  1   
 38  16  38  1   
@<TRIPOS>SUBSTRUCTURE
  1 ****   5 GROUP 4 **** **** 0

# MOE 2024.06 (io_trps.svl 2023.06)
