@<TRIPOS>MOLECULE
NONAME
29 29 1 0 0 
SMALL
USER_CHARGES


@<TRIPOS>ATOM
  1 CL      -1.2130    -0.4950    -0.9390 Cl    1 <1>  -0.2900 
  2 C       -1.8360     0.0570     0.6140 C.3   1 <1>   0.5610 
  3 CL      -2.1990    -1.4050     1.5280 Cl    1 <1>  -0.2900 
  4 C       -3.0970     0.9120     0.4280 C.2   1 <1>   0.5690 
  5 O       -3.1050     2.0350     0.8800 O.2   1 <1>  -0.5700 
  6 N       -4.1870     0.4090    -0.2280 N.am  1 <1>  -0.7300 
  7 C       -5.4480     1.1490    -0.4760 C.3   1 <1>   0.1400 
  8 C       -6.5040     0.7390     0.5500 C.3   1 <1>  -0.0160 
  9 C       -7.8090     1.4670     0.2740 C.ar  1 <1>  -0.1430 
 10 C       -8.0040     2.7520     0.7560 C.ar  1 <1>  -0.1500 
 11 C       -8.8130     0.8580    -0.4640 C.ar  1 <1>  -0.1500 
 12 C       -9.1860     3.4260     0.5050 C.ar  1 <1>  -0.1500 
 13 C       -9.9960     1.5290    -0.7160 C.ar  1 <1>  -0.1500 
 14 C      -10.1930     2.8140    -0.2370 C.ar  1 <1>   0.0820 
 15 O      -11.3800     3.4010    -0.5300 O.3   1 <1>  -0.3630 
 16 C      -11.6780     4.7070    -0.0900 C.3   1 <1>   0.0400 
 17 H       -1.0630     0.6000     1.1240 H     1 <1>   0.0800 
 18 H       -4.1580    -0.5500    -0.5880 H     1 <1>   0.3700 
 19 H       -5.7990     0.9350    -1.4710 H     1 <1>   0.0800 
 20 H       -5.2700     2.2090    -0.4040 H     1 <1>   0.0800 
 21 H       -6.1570     0.9880     1.5380 H     1 <1>   0.0800 
 22 H       -6.6650    -0.3230     0.5040 H     1 <1>   0.0800 
 23 H       -7.2310     3.2350     1.3300 H     1 <1>   0.1500 
 24 H       -8.6810    -0.1390    -0.8450 H     1 <1>   0.1500 
 25 H       -9.3050     4.4190     0.8920 H     1 <1>   0.1500 
 26 H      -10.7760     1.0610    -1.2880 H     1 <1>   0.1500 
 27 H      -12.6630     4.9600    -0.4370 H     1 <1>   0.0800 
 28 H      -10.9560     5.3880    -0.5070 H     1 <1>   0.0800 
 29 H      -11.6520     4.7260     0.9850 H     1 <1>   0.0800 
@<TRIPOS>BOND
  1   1   2  1   
  2   2   3  1   
  3   2   4  1   
  4   2  17  1   
  5   4   5  2   
  6   4   6  am  
  7   6   7  1   
  8   6  18  1   
  9   7   8  1   
 10   7  19  1   
 11   7  20  1   
 12   8   9  1   
 13   8  21  1   
 14   8  22  1   
 15   9  10  ar  
 16   9  11  ar  
 17  10  12  ar  
 18  10  23  1   
 19  11  13  ar  
 20  11  24  1   
 21  12  14  ar  
 22  12  25  1   
 23  13  14  ar  
 24  13  26  1   
 25  14  15  1   
 26  15  16  1   
 27  16  27  1   
 28  16  28  1   
 29  16  29  1   
@<TRIPOS>SUBSTRUCTURE
  1 ****   8 GROUP 4 **** **** 0

# MOE 2024.06 (io_trps.svl 2023.06)
