@<TRIPOS>MOLECULE
NONAME
37 39 1 0 0 
SMALL
USER_CHARGES


@<TRIPOS>ATOM
  1 S       -0.2730    -0.1650    -0.3850 S.o2  1 <1>   1.5010 
  2 O       -0.6990    -0.5080    -1.7250 O.2   1 <1>  -0.6500 
  3 O       -0.1260    -1.2100     0.6030 O.2   1 <1>  -0.6500 
  4 N       -1.3990     0.9420     0.2180 N.am  1 <1>  -0.8490 
  5 C        1.2370     0.8060    -0.4620 C.2   1 <1>  -0.0630 
  6 C       -1.7030     1.9850    -0.7670 C.3   1 <1>   0.3390 
  7 C       -2.6360     0.2940     0.6550 C.3   1 <1>   0.1960 
  8 C        2.1070     0.8130    -1.5440 C.2   1 <1>   0.1390 
  9 C        1.8130     1.6600     0.4200 C.2   1 <1>  -0.3020 
 10 C       -2.7550     2.9670    -0.2610 C.ar  1 <1>  -0.1440 
 11 C       -3.4810     1.2800     1.4690 C.3   1 <1>  -0.0160 
 12 N        3.1230     1.6010    -1.3650 N.2   1 <1>  -0.7070 
 13 N        2.9420     2.1260    -0.1420 N.pl3 1 <1>   0.3140 
 14 C       -3.6100     2.6310     0.7820 C.ar  1 <1>  -0.1440 
 15 C       -2.8720     4.2110    -0.8640 C.ar  1 <1>  -0.1500 
 16 C        3.8960     3.0850     0.4520 C.3   1 <1>   0.0960 
 17 C       -4.5700     3.5350     1.2080 C.ar  1 <1>  -0.1500 
 18 C       -3.8310     5.1110    -0.4360 C.ar  1 <1>  -0.1500 
 19 C        3.3570     4.5190     0.3760 C.3   1 <1>  -0.2400 
 20 C       -4.6810     4.7730     0.6000 C.ar  1 <1>  -0.1500 
 21 H       -2.0710     1.5410    -1.6770 H     1 <1>   0.0800 
 22 H       -0.8030     2.5300    -1.0000 H     1 <1>   0.0800 
 23 H       -2.4130    -0.5560     1.2780 H     1 <1>   0.0800 
 24 H       -3.1910    -0.0520    -0.2010 H     1 <1>   0.0800 
 25 H        1.9580     0.2320    -2.4400 H     1 <1>   0.1500 
 26 H        1.4740     1.9490     1.3990 H     1 <1>   0.1500 
 27 H       -3.0150     1.4230     2.4270 H     1 <1>   0.0800 
 28 H       -4.4550     0.8570     1.6320 H     1 <1>   0.0800 
 29 H       -2.2180     4.4860    -1.6730 H     1 <1>   0.1500 
 30 H        4.8240     3.0130    -0.0870 H     1 <1>   0.0800 
 31 H        4.0700     2.8040     1.4740 H     1 <1>   0.0800 
 32 H       -5.2320     3.2810     2.0170 H     1 <1>   0.1500 
 33 H       -3.9160     6.0740    -0.9090 H     1 <1>   0.1500 
 34 H        3.1880     4.7960    -0.6500 H     1 <1>   0.0800 
 35 H        4.0730     5.2000     0.7990 H     1 <1>   0.0800 
 36 H        2.4350     4.6060     0.9250 H     1 <1>   0.0800 
 37 H       -5.4280     5.4720     0.9350 H     1 <1>   0.1500 
@<TRIPOS>BOND
  1   1   2  2   
  2   1   3  2   
  3   1   4  am  
  4   1   5  1   
  5   4   6  1   
  6   4   7  1   
  7   5   8  1   
  8   5   9  2   
  9   6  10  1   
 10   6  21  1   
 11   6  22  1   
 12   7  11  1   
 13   7  23  1   
 14   7  24  1   
 15   8  12  2   
 16   8  25  1   
 17   9  13  1   
 18   9  26  1   
 19  10  14  ar  
 20  10  15  ar  
 21  11  14  1   
 22  11  27  1   
 23  11  28  1   
 24  12  13  1   
 25  13  16  1   
 26  14  17  ar  
 27  15  18  ar  
 28  15  29  1   
 29  16  19  1   
 30  16  30  1   
 31  16  31  1   
 32  17  20  ar  
 33  17  32  1   
 34  18  20  ar  
 35  18  33  1   
 36  19  34  1   
 37  19  35  1   
 38  19  36  1   
 39  20  37  1   
@<TRIPOS>SUBSTRUCTURE
  1 ****   6 GROUP 4 **** **** 0

# MOE 2024.06 (io_trps.svl 2023.06)
