@<TRIPOS>MOLECULE
NONAME
49 50 1 0 0 
SMALL
USER_CHARGES


@<TRIPOS>ATOM
  1 N       -0.2050    -0.0790    -0.0730 N.4   1 <1>  -0.9590 
  2 C       -1.3800     0.7880     0.2320 C.3   1 <1>   0.3430 
  3 C       -0.3540    -1.4690     0.4560 C.3   1 <1>   0.3430 
  4 C        1.0410     0.5680     0.4450 C.3   1 <1>   0.3430 
  5 C       -2.6590     0.1640    -0.3310 C.3   1 <1>  -0.1600 
  6 C       -1.6230    -2.1120    -0.1070 C.3   1 <1>  -0.1600 
  7 C        2.2800    -0.0570    -0.2000 C.3   1 <1>  -0.1600 
  8 C       -2.8560    -1.2610     0.1970 C.3   1 <1>   0.4230 
  9 C        3.5490     0.6830     0.2360 C.3   1 <1>  -0.2400 
 10 N       -4.0430    -1.8930    -0.4310 N.4   1 <1>  -0.9060 
 11 C       -5.3530    -1.3150     0.0080 C.3   1 <1>   0.3430 
 12 C       -6.5480    -2.0430    -0.6250 C.3   1 <1>   0.0630 
 13 C       -7.8150    -1.3680    -0.1200 C.ar  1 <1>  -0.1430 
 14 C       -6.5690    -3.5540    -0.3320 C.3   1 <1>  -0.2400 
 15 C       -8.5870    -0.6130    -0.9910 C.ar  1 <1>  -0.1500 
 16 C       -8.2100    -1.4770     1.2080 C.ar  1 <1>  -0.1500 
 17 C       -9.7280     0.0290    -0.5430 C.ar  1 <1>  -0.1500 
 18 C       -9.3510    -0.8340     1.6560 C.ar  1 <1>  -0.1500 
 19 C      -10.1100    -0.0790     0.7810 C.ar  1 <1>  -0.1500 
 20 H       -0.0850    -0.1240    -1.0970 H     1 <1>   0.4500 
 21 H       -1.2350     1.7660    -0.2020 H     1 <1>   0.0800 
 22 H       -1.4730     0.9100     1.3000 H     1 <1>   0.0800 
 23 H       -0.4020    -1.4440     1.5340 H     1 <1>   0.0800 
 24 H        0.5020    -2.0650     0.1760 H     1 <1>   0.0800 
 25 H        1.0980     0.4720     1.5180 H     1 <1>   0.0800 
 26 H        1.0290     1.6200     0.2060 H     1 <1>   0.0800 
 27 H       -2.6040     0.1700    -1.4060 H     1 <1>   0.0800 
 28 H       -3.4840     0.7870    -0.0340 H     1 <1>   0.0800 
 29 H       -1.7320    -3.0840     0.3430 H     1 <1>   0.0800 
 30 H       -1.5010    -2.2460    -1.1690 H     1 <1>   0.0800 
 31 H        2.2060     0.0000    -1.2720 H     1 <1>   0.0800 
 32 H        2.3810    -1.0880     0.0880 H     1 <1>   0.0800 
 33 H       -2.9970    -1.2250     1.2670 H     1 <1>   0.0800 
 34 H        3.5130     1.7180    -0.0590 H     1 <1>   0.0800 
 35 H        4.4130     0.2360    -0.2270 H     1 <1>   0.0800 
 36 H        3.6790     0.6320     1.3040 H     1 <1>   0.0800 
 37 H       -4.0640    -2.8960    -0.1990 H     1 <1>   0.4500 
 38 H       -3.9840    -1.8420    -1.4560 H     1 <1>   0.4500 
 39 H       -5.4100    -0.2730    -0.2620 H     1 <1>   0.0800 
 40 H       -5.4420    -1.3830     1.0810 H     1 <1>   0.0800 
 41 H       -6.5020    -1.9110    -1.6930 H     1 <1>   0.0800 
 42 H       -6.5080    -3.7520     0.7240 H     1 <1>   0.0800 
 43 H       -5.7680    -4.0650    -0.8340 H     1 <1>   0.0800 
 44 H       -7.4950    -3.9720    -0.6920 H     1 <1>   0.0800 
 45 H       -8.3190    -0.5140    -2.0290 H     1 <1>   0.1500 
 46 H       -7.6470    -2.0610     1.9140 H     1 <1>   0.1500 
 47 H      -10.3230     0.6130    -1.2250 H     1 <1>   0.1500 
 48 H       -9.6540    -0.9230     2.6850 H     1 <1>   0.1500 
 49 H      -10.9980     0.4200     1.1290 H     1 <1>   0.1500 
@<TRIPOS>BOND
  1   1   2  1   
  2   1   3  1   
  3   1   4  1   
  4   1  20  1   
  5   2   5  1   
  6   2  21  1   
  7   2  22  1   
  8   3   6  1   
  9   3  23  1   
 10   3  24  1   
 11   4   7  1   
 12   4  25  1   
 13   4  26  1   
 14   5   8  1   
 15   5  27  1   
 16   5  28  1   
 17   6   8  1   
 18   6  29  1   
 19   6  30  1   
 20   7   9  1   
 21   7  31  1   
 22   7  32  1   
 23   8  10  1   
 24   8  33  1   
 25   9  34  1   
 26   9  35  1   
 27   9  36  1   
 28  10  11  1   
 29  10  37  1   
 30  10  38  1   
 31  11  12  1   
 32  11  39  1   
 33  11  40  1   
 34  12  13  1   
 35  12  14  1   
 36  12  41  1   
 37  13  15  ar  
 38  13  16  ar  
 39  14  42  1   
 40  14  43  1   
 41  14  44  1   
 42  15  17  ar  
 43  15  45  1   
 44  16  18  ar  
 45  16  46  1   
 46  17  19  ar  
 47  17  47  1   
 48  18  19  ar  
 49  18  48  1   
 50  19  49  1   
@<TRIPOS>SUBSTRUCTURE
  1 ****  10 GROUP 4 **** **** 0

# MOE 2024.06 (io_trps.svl 2023.06)
