@<TRIPOS>MOLECULE
NONAME
45 47 1 0 0 
SMALL
USER_CHARGES


@<TRIPOS>ATOM
  1 O        2.7900    -4.4140    -0.1970 O.3   1 <1>  -0.3630 
  2 C        2.0200    -3.4310    -0.7170 C.ar  1 <1>   0.0830 
  3 C        4.0770    -4.1410     0.3110 C.3   1 <1>   0.1200 
  4 C        0.8940    -3.8370    -1.4080 C.ar  1 <1>  -0.1500 
  5 C        2.2940    -2.0730    -0.5860 C.ar  1 <1>  -0.1500 
  6 C        4.7310    -5.4680     0.6840 C.3   1 <1>  -0.2400 
  7 C        0.0170    -2.9070    -1.9450 C.ar  1 <1>  -0.1430 
  8 C        1.4360    -1.1420    -1.1440 C.ar  1 <1>  -0.1500 
  9 C        0.3010    -1.5530    -1.8210 C.ar  1 <1>  -0.1500 
 10 C       -1.2480    -3.3770    -2.6300 C.3   1 <1>   0.4860 
 11 N       -2.3800    -3.2170    -1.6620 N.4   1 <1>  -0.9060 
 12 C       -2.1450    -3.8930    -0.3350 C.3   1 <1>   0.4230 
 13 C       -2.2010    -5.4730    -0.4860 C.3   1 <1>  -0.0800 
 14 C       -3.1760    -3.4540     0.8050 C.3   1 <1>   0.3430 
 15 C       -3.7310    -5.8760    -0.7420 C.3   1 <1>  -0.1600 
 16 C       -1.8690    -6.0460     0.9720 C.3   1 <1>  -0.1600 
 17 N       -3.8070    -4.7130     1.3330 N.4   1 <1>  -0.9590 
 18 C       -4.7290    -5.3830     0.3960 C.3   1 <1>   0.3430 
 19 C       -2.8730    -5.5580     2.1050 C.3   1 <1>   0.3430 
 20 H        3.9790    -3.5090     1.1770 H     1 <1>   0.0800 
 21 H        4.6480    -3.6400    -0.4540 H     1 <1>   0.0800 
 22 H        0.7340    -4.8960    -1.5110 H     1 <1>   0.1500 
 23 H        3.1650    -1.7270    -0.0610 H     1 <1>   0.1500 
 24 H        4.1530    -5.9680     1.4410 H     1 <1>   0.0800 
 25 H        5.7180    -5.2900     1.0710 H     1 <1>   0.0800 
 26 H        4.8120    -6.0980    -0.1830 H     1 <1>   0.0800 
 27 H        1.6610    -0.0910    -1.0520 H     1 <1>   0.1500 
 28 H       -0.3400    -0.8000    -2.2490 H     1 <1>   0.1500 
 29 H       -1.1400    -4.4090    -2.9270 H     1 <1>   0.0800 
 30 H       -1.4200    -2.7860    -3.5170 H     1 <1>   0.0800 
 31 H       -3.2470    -3.5160    -2.1240 H     1 <1>   0.4500 
 32 H       -2.4490    -2.1990    -1.5180 H     1 <1>   0.4500 
 33 H       -1.1610    -3.6180     0.0160 H     1 <1>   0.0800 
 34 H       -1.5230    -5.8650    -1.2270 H     1 <1>   0.0800 
 35 H       -3.9340    -2.7970     0.4130 H     1 <1>   0.0800 
 36 H       -2.6560    -2.9480     1.6030 H     1 <1>   0.0800 
 37 H       -3.8060    -6.9500    -0.8040 H     1 <1>   0.0800 
 38 H       -4.0730    -5.5070    -1.6940 H     1 <1>   0.0800 
 39 H       -0.8640    -5.7750     1.2570 H     1 <1>   0.0800 
 40 H       -1.8860    -7.1250     0.9470 H     1 <1>   0.0800 
 41 H       -3.2540    -5.1310     0.6910 H     1 <1>   0.4500 
 42 H       -5.2250    -6.2150     0.8740 H     1 <1>   0.0800 
 43 H       -5.4690    -4.6930     0.0180 H     1 <1>   0.0800 
 44 H       -2.3700    -4.9860     2.8710 H     1 <1>   0.0800 
 45 H       -3.3910    -6.3900     2.5610 H     1 <1>   0.0800 
@<TRIPOS>BOND
  1   1   2  1   
  2   1   3  1   
  3   2   4  ar  
  4   2   5  ar  
  5   3   6  1   
  6   3  20  1   
  7   3  21  1   
  8   4   7  ar  
  9   4  22  1   
 10   5   8  ar  
 11   5  23  1   
 12   6  24  1   
 13   6  25  1   
 14   6  26  1   
 15   7   9  ar  
 16   7  10  1   
 17   8   9  ar  
 18   8  27  1   
 19   9  28  1   
 20  10  11  1   
 21  10  29  1   
 22  10  30  1   
 23  11  12  1   
 24  11  31  1   
 25  11  32  1   
 26  12  13  1   
 27  12  14  1   
 28  12  33  1   
 29  13  15  1   
 30  13  16  1   
 31  13  34  1   
 32  14  17  1   
 33  14  35  1   
 34  14  36  1   
 35  15  18  1   
 36  15  37  1   
 37  15  38  1   
 38  16  19  1   
 39  16  39  1   
 40  16  40  1   
 41  17  18  1   
 42  17  19  1   
 43  17  41  1   
 44  18  42  1   
 45  18  43  1   
 46  19  44  1   
 47  19  45  1   
@<TRIPOS>SUBSTRUCTURE
  1 ****  12 GROUP 4 **** **** 0

# MOE 2024.06 (io_trps.svl 2023.06)
