@<TRIPOS>MOLECULE
NONAME
40 41 1 0 0 
SMALL
USER_CHARGES


@<TRIPOS>ATOM
  1 S       -0.6020     0.3180     1.6240 S.3   1 <1>  -0.0800 
  2 C        0.1160    -1.1310     0.9460 C.2   1 <1>  -0.1400 
  3 C       -2.2030    -0.2150     1.1710 C.2   1 <1>  -0.1100 
  4 C       -0.8380    -1.9230     0.4250 C.2   1 <1>  -0.1500 
  5 C        1.6210    -1.2910     1.0450 C.3   1 <1>   0.0200 
  6 C       -2.1800    -1.4120     0.5330 C.2   1 <1>  -0.0860 
  7 C        2.3470    -0.2950     0.1320 C.3   1 <1>  -0.1600 
  8 C       -3.3180    -2.1500     0.0220 C.2   1 <1>   0.7160 
  9 C        3.8670    -0.4790     0.1900 C.3   1 <1>  -0.2400 
 10 O       -3.3340    -3.3630     0.1230 O.2   1 <1>  -0.5700 
 11 N       -4.3930    -1.5230    -0.5680 N.am  1 <1>  -0.6600 
 12 C       -5.7260    -2.1940    -0.5880 C.3   1 <1>   0.2840 
 13 C       -4.2870    -0.2120    -1.2720 C.3   1 <1>   0.1400 
 14 C       -6.7720    -1.2900     0.0460 C.ar  1 <1>  -0.1430 
 15 C       -4.4720    -0.3990    -2.7770 C.3   1 <1>  -0.2400 
 16 C       -7.8040    -0.7290    -0.6800 C.ar  1 <1>  -0.1500 
 17 C       -6.7350    -0.9820     1.3910 C.ar  1 <1>  -0.1500 
 18 C       -8.7200     0.0920    -0.0440 C.ar  1 <1>   0.1600 
 19 C       -7.7010    -0.1490     1.9300 C.ar  1 <1>   0.1600 
 20 N       -8.6910     0.3970     1.2430 N.ar  1 <1>  -0.6200 
 21 H       -3.0270     0.4260     1.4300 H     1 <1>   0.1500 
 22 H       -0.6650    -2.8770    -0.0440 H     1 <1>   0.1500 
 23 H        1.8830    -2.2950     0.7590 H     1 <1>   0.0800 
 24 H        1.9260    -1.1460     2.0670 H     1 <1>   0.0800 
 25 H        2.1000     0.7100     0.4280 H     1 <1>   0.0800 
 26 H        2.0080    -0.4330    -0.8810 H     1 <1>   0.0800 
 27 H        4.2270    -0.3250     1.1920 H     1 <1>   0.0800 
 28 H        4.3480     0.2320    -0.4590 H     1 <1>   0.0800 
 29 H        4.1390    -1.4700    -0.1290 H     1 <1>   0.0800 
 30 H       -5.6940    -3.1180    -0.0360 H     1 <1>   0.0800 
 31 H       -5.9940    -2.4330    -1.6010 H     1 <1>   0.0800 
 32 H       -3.3180     0.2250    -1.1090 H     1 <1>   0.0800 
 33 H       -5.0250     0.4720    -0.8870 H     1 <1>   0.0800 
 34 H       -3.7720    -1.1260    -3.1500 H     1 <1>   0.0800 
 35 H       -4.2880     0.5350    -3.2770 H     1 <1>   0.0800 
 36 H       -5.4740    -0.7080    -3.0080 H     1 <1>   0.0800 
 37 H       -7.9040    -0.9200    -1.7330 H     1 <1>   0.1500 
 38 H       -5.9600    -1.3820     2.0210 H     1 <1>   0.1500 
 39 H       -9.5180     0.5210    -0.6250 H     1 <1>   0.1500 
 40 H       -7.6550     0.0810     2.9810 H     1 <1>   0.1500 
@<TRIPOS>BOND
  1   1   2  1   
  2   1   3  1   
  3   2   4  2   
  4   2   5  1   
  5   3   6  2   
  6   3  21  1   
  7   4   6  1   
  8   4  22  1   
  9   5   7  1   
 10   5  23  1   
 11   5  24  1   
 12   6   8  1   
 13   7   9  1   
 14   7  25  1   
 15   7  26  1   
 16   8  10  2   
 17   8  11  am  
 18   9  27  1   
 19   9  28  1   
 20   9  29  1   
 21  11  12  1   
 22  11  13  1   
 23  12  14  1   
 24  12  30  1   
 25  12  31  1   
 26  13  15  1   
 27  13  32  1   
 28  13  33  1   
 29  14  16  ar  
 30  14  17  ar  
 31  15  34  1   
 32  15  35  1   
 33  15  36  1   
 34  16  18  ar  
 35  16  37  1   
 36  17  19  ar  
 37  17  38  1   
 38  18  20  ar  
 39  18  39  1   
 40  19  20  ar  
 41  19  40  1   
@<TRIPOS>SUBSTRUCTURE
  1 ****   8 GROUP 4 **** **** 0

# MOE 2024.06 (io_trps.svl 2023.06)
