@<TRIPOS>MOLECULE
NONAME
40 43 1 0 0 
SMALL
USER_CHARGES


@<TRIPOS>ATOM
  1 S        0.8780    -0.9200    -1.7690 S.3   1 <1>  -0.2420 
  2 C        0.1270    -2.1520    -0.7480 C.2   1 <1>   0.6510 
  3 C        2.2940    -0.8190    -0.7070 C.2   1 <1>  -0.0490 
  4 N       -1.0210    -2.6830    -1.0060 N.2   1 <1>  -0.6210 
  5 N        0.9550    -2.4210     0.3100 N.am  1 <1>  -0.2290 
  6 C        2.1520    -1.6720     0.3160 C.2   1 <1>  -0.0410 
  7 C       -1.4580    -3.6170    -0.1100 C.2   1 <1>   0.0330 
  8 C        0.5380    -3.3650     1.2160 C.2   1 <1>   0.6160 
  9 C       -0.7200    -3.9690     0.9760 C.2   1 <1>  -0.1360 
 10 C       -2.8170    -4.2380    -0.3930 C.3   1 <1>   0.2080 
 11 O        1.2350    -3.6590     2.1770 O.2   1 <1>  -0.5700 
 12 S       -4.1240    -3.0940     0.2350 S.3   1 <1>  -0.2860 
 13 C       -5.6300    -4.0230    -0.0620 C.2   1 <1>   0.2420 
 14 N       -5.6490    -5.2250    -0.5190 N.2   1 <1>  -0.3380 
 15 N       -6.8400    -3.5200     0.1720 N.pl3 1 <1>   0.0480 
 16 N       -6.9420    -5.5580    -0.6010 N.2   1 <1>  -0.3380 
 17 C       -7.6290    -4.5410    -0.1900 C.2   1 <1>   0.1020 
 18 C       -7.2020    -2.1820     0.6850 C.3   1 <1>   0.0960 
 19 C       -9.1480    -4.4910    -0.1280 C.3   1 <1>  -0.0150 
 20 C       -7.3390    -1.1820    -0.4700 C.3   1 <1>  -0.1600 
 21 C       -9.8490    -4.5480     1.1950 C.3   1 <1>  -0.2000 
 22 C       -9.9320    -5.7090     0.2530 C.3   1 <1>  -0.2000 
 23 C       -7.7190     0.2100     0.0450 C.3   1 <1>  -0.2400 
 24 H        3.0690    -0.1250    -0.9850 H     1 <1>   0.1500 
 25 H        2.8480    -1.8340     1.1230 H     1 <1>   0.1500 
 26 H       -1.0480    -4.7000     1.6910 H     1 <1>   0.1500 
 27 H       -2.9450    -5.1740     0.1210 H     1 <1>   0.0800 
 28 H       -2.9810    -4.3720    -1.4480 H     1 <1>   0.0800 
 29 H       -6.4400    -1.8530     1.3690 H     1 <1>   0.0800 
 30 H       -8.1290    -2.2520     1.2250 H     1 <1>   0.0800 
 31 H       -9.5670    -3.8690    -0.8990 H     1 <1>   0.1000 
 32 H       -8.0960    -1.5220    -1.1560 H     1 <1>   0.0800 
 33 H       -6.4030    -1.1160    -1.0000 H     1 <1>   0.0800 
 34 H      -10.7260    -3.9450     1.3470 H     1 <1>   0.1000 
 35 H       -9.2670    -4.6700     2.0930 H     1 <1>   0.1000 
 36 H       -9.3900    -6.6110     0.4820 H     1 <1>   0.1000 
 37 H      -10.8560    -5.9040    -0.2620 H     1 <1>   0.1000 
 38 H       -8.6600     0.1800     0.5650 H     1 <1>   0.0800 
 39 H       -7.8090     0.8940    -0.7810 H     1 <1>   0.0800 
 40 H       -6.9640     0.5850     0.7140 H     1 <1>   0.0800 
@<TRIPOS>BOND
  1   1   2  1   
  2   1   3  1   
  3   2   4  2   
  4   2   5  1   
  5   3   6  2   
  6   3  24  1   
  7   4   7  1   
  8   5   6  1   
  9   5   8  am  
 10   6  25  1   
 11   7   9  2   
 12   7  10  1   
 13   8   9  1   
 14   8  11  2   
 15   9  26  1   
 16  10  12  1   
 17  10  27  1   
 18  10  28  1   
 19  12  13  1   
 20  13  14  2   
 21  13  15  1   
 22  14  16  1   
 23  15  17  1   
 24  15  18  1   
 25  16  17  2   
 26  17  19  1   
 27  18  20  1   
 28  18  29  1   
 29  18  30  1   
 30  19  21  1   
 31  19  22  1   
 32  19  31  1   
 33  20  23  1   
 34  20  32  1   
 35  20  33  1   
 36  21  22  1   
 37  21  34  1   
 38  21  35  1   
 39  22  36  1   
 40  22  37  1   
 41  23  38  1   
 42  23  39  1   
 43  23  40  1   
@<TRIPOS>SUBSTRUCTURE
  1 ****  12 GROUP 4 **** **** 0

# MOE 2024.06 (io_trps.svl 2023.06)
