@<TRIPOS>MOLECULE
NONAME
47 49 1 0 0 
SMALL
USER_CHARGES


@<TRIPOS>ATOM
  1 CL       1.6760     0.7610     2.2720 Cl    1 <1>  -0.1770 
  2 C        2.5260     1.1760     0.8050 C.ar  1 <1>   0.1770 
  3 C        3.6260     0.4300     0.4350 C.ar  1 <1>  -0.1500 
  4 C        2.0850     2.2430     0.0450 C.ar  1 <1>  -0.1500 
  5 C        4.3190     0.7480    -0.7290 C.ar  1 <1>   0.1000 
  6 C        2.7670     2.5660    -1.1160 C.ar  1 <1>  -0.1500 
  7 N        5.4430     0.0310    -1.1350 N.pl3 1 <1>  -0.8380 
  8 C        3.8720     1.8220    -1.4940 C.ar  1 <1>  -0.1500 
  9 C        6.7700     0.7190    -1.1220 C.3   1 <1>   0.2090 
 10 C        5.4670    -1.4610    -1.0670 C.3   1 <1>   0.2090 
 11 C        7.6700     0.1800     0.0090 C.3   1 <1>   0.3430 
 12 C        6.4000    -1.9620     0.0580 C.3   1 <1>   0.3430 
 13 N        7.7670    -1.3290     0.0100 N.4   1 <1>  -0.9590 
 14 C        8.6480    -1.8230     1.1030 C.3   1 <1>   0.4860 
 15 C       10.0460    -1.2810     0.8790 C.ar  1 <1>  -0.1430 
 16 C       10.5600    -0.2930     1.7080 C.ar  1 <1>  -0.1500 
 17 C       10.8250    -1.7620    -0.1640 C.ar  1 <1>  -0.1500 
 18 C       11.8260     0.2170     1.4820 C.ar  1 <1>  -0.1500 
 19 C       12.0880    -1.2450    -0.3840 C.ar  1 <1>  -0.1500 
 20 C       12.6050    -0.2430     0.4280 C.ar  1 <1>   0.1170 
 21 N       13.8810     0.3010     0.2250 N.am  1 <1>  -0.5470 
 22 C       14.5740     0.4730    -0.9390 C.2   1 <1>   0.5690 
 23 O       14.1350     0.1950    -2.0260 O.2   1 <1>  -0.5700 
 24 C       15.9600     1.0580    -0.8450 C.3   1 <1>  -0.1790 
 25 H        3.9320    -0.3850     1.0570 H     1 <1>   0.1500 
 26 H        1.2240     2.8070     0.3580 H     1 <1>   0.1500 
 27 H        2.4370     3.3910    -1.7230 H     1 <1>   0.1500 
 28 H        4.3940     2.0680    -2.4010 H     1 <1>   0.1500 
 29 H        6.6300     1.7780    -0.9860 H     1 <1>   0.0800 
 30 H        7.2530     0.5750    -2.0730 H     1 <1>   0.0800 
 31 H        5.8030    -1.8470    -2.0140 H     1 <1>   0.0800 
 32 H        4.4700    -1.8340    -0.9040 H     1 <1>   0.0800 
 33 H        7.2610     0.5160     0.9480 H     1 <1>   0.0800 
 34 H        8.6520     0.6120    -0.0950 H     1 <1>   0.0800 
 35 H        6.4880    -3.0340    -0.0150 H     1 <1>   0.0800 
 36 H        5.9330    -1.7340     1.0020 H     1 <1>   0.0800 
 37 H        8.2170    -1.5880    -0.8770 H     1 <1>   0.4500 
 38 H        8.6810    -2.9010     1.0960 H     1 <1>   0.0800 
 39 H        8.2750    -1.4980     2.0600 H     1 <1>   0.0800 
 40 H        9.9860     0.0900     2.5350 H     1 <1>   0.1500 
 41 H       10.4700    -2.5410    -0.8160 H     1 <1>   0.1500 
 42 H       12.2130     0.9850     2.1280 H     1 <1>   0.1500 
 43 H       12.6830    -1.6270    -1.1960 H     1 <1>   0.1500 
 44 H       14.3440     0.6550     1.0600 H     1 <1>   0.3700 
 45 H       15.9090     2.0580    -0.4560 H     1 <1>   0.0800 
 46 H       16.4070     1.0890    -1.8220 H     1 <1>   0.0800 
 47 H       16.5720     0.4510    -0.2050 H     1 <1>   0.0800 
@<TRIPOS>BOND
  1   1   2  1   
  2   2   3  ar  
  3   2   4  ar  
  4   3   5  ar  
  5   3  25  1   
  6   4   6  ar  
  7   4  26  1   
  8   5   7  1   
  9   5   8  ar  
 10   6   8  ar  
 11   6  27  1   
 12   7   9  1   
 13   7  10  1   
 14   8  28  1   
 15   9  11  1   
 16   9  29  1   
 17   9  30  1   
 18  10  12  1   
 19  10  31  1   
 20  10  32  1   
 21  11  13  1   
 22  11  33  1   
 23  11  34  1   
 24  12  13  1   
 25  12  35  1   
 26  12  36  1   
 27  13  14  1   
 28  13  37  1   
 29  14  15  1   
 30  14  38  1   
 31  14  39  1   
 32  15  16  ar  
 33  15  17  ar  
 34  16  18  ar  
 35  16  40  1   
 36  17  19  ar  
 37  17  41  1   
 38  18  20  ar  
 39  18  42  1   
 40  19  20  ar  
 41  19  43  1   
 42  20  21  1   
 43  21  22  am  
 44  21  44  1   
 45  22  23  2   
 46  22  24  1   
 47  24  45  1   
 48  24  46  1   
 49  24  47  1   
@<TRIPOS>SUBSTRUCTURE
  1 ****  11 GROUP 4 **** **** 0

# MOE 2024.06 (io_trps.svl 2023.06)
