@<TRIPOS>MOLECULE
NONAME
35 37 1 0 0 
SMALL
USER_CHARGES


@<TRIPOS>ATOM
  1 O        0.1490     0.2290    -0.5350 O.2   1 <1>  -0.5640 
  2 N        0.1400     1.4680    -0.2080 N.2   1 <1>   1.5890 
  3 C        1.3150     2.1190     0.1310 C.2   1 <1>  -0.0410 
  4 C       -1.0710     2.1100    -0.2070 C.2   1 <1>  -0.1510 
  5 C        2.5470     1.3780     0.0920 C.ar  1 <1>   0.0280 
  6 C        1.2300     3.4430     0.4790 C.2   1 <1>  -0.0380 
  7 C       -1.1260     3.3950     0.1300 C.2   1 <1>  -0.0380 
  8 C       -2.4360     1.5520    -0.5500 C.3   1 <1>  -0.0220 
  9 C        2.9420     0.5770     1.1610 C.ar  1 <1>  -0.1500 
 10 C        3.3800     1.4400    -1.0220 C.ar  1 <1>  -0.1500 
 11 N        0.0090     4.0650     0.4710 N.pl3 1 <1>  -0.5080 
 12 C        2.4300     4.2930     0.8840 C.3   1 <1>  -0.1020 
 13 C       -2.5140     3.9680     0.0870 C.3   1 <1>  -0.0220 
 14 C       -3.3770     2.7650    -0.3580 C.3   1 <1>  -0.1600 
 15 C        4.1130    -0.1540     1.1080 C.ar  1 <1>  -0.1500 
 16 C        4.5520     0.7100    -1.0760 C.ar  1 <1>  -0.1500 
 17 O       -0.0960     5.2780     0.7770 O.3   1 <1>  -0.6920 
 18 C        4.9240    -0.0970    -0.0140 C.ar  1 <1>  -0.1430 
 19 C        6.2110    -0.9000    -0.0730 C.3   1 <1>  -0.0970 
 20 H       -2.7060     0.7510     0.1180 H     1 <1>   0.0800 
 21 H       -2.4680     1.2030    -1.5690 H     1 <1>   0.0800 
 22 H        2.3350     0.5250     2.0490 H     1 <1>   0.1500 
 23 H        3.1160     2.0700    -1.8550 H     1 <1>   0.1500 
 24 H        2.2610     4.6920     1.8680 H     1 <1>   0.0800 
 25 H        2.5180     5.1220     0.2050 H     1 <1>   0.0800 
 26 H        3.3510     3.7440     0.8870 H     1 <1>   0.0800 
 27 H       -2.5510     4.7810    -0.6170 H     1 <1>   0.0800 
 28 H       -2.7890     4.3300     1.0630 H     1 <1>   0.0800 
 29 H       -4.1170     2.5510     0.3930 H     1 <1>   0.0800 
 30 H       -3.8800     3.0000    -1.2790 H     1 <1>   0.0800 
 31 H        4.3990    -0.7680     1.9450 H     1 <1>   0.1500 
 32 H        5.1800     0.7720    -1.9490 H     1 <1>   0.1500 
 33 H        6.1200    -1.8020     0.5040 H     1 <1>   0.0800 
 34 H        7.0230    -0.3160     0.3230 H     1 <1>   0.0800 
 35 H        6.4410    -1.1700    -1.0880 H     1 <1>   0.0800 
@<TRIPOS>BOND
  1   1   2  2   
  2   2   3  1   
  3   2   4  1   
  4   3   5  1   
  5   3   6  2   
  6   4   7  2   
  7   4   8  1   
  8   5   9  ar  
  9   5  10  ar  
 10   6  11  1   
 11   6  12  1   
 12   7  11  1   
 13   7  13  1   
 14   8  14  1   
 15   8  20  1   
 16   8  21  1   
 17   9  15  ar  
 18   9  22  1   
 19  10  16  ar  
 20  10  23  1   
 21  11  17  1   
 22  12  24  1   
 23  12  25  1   
 24  12  26  1   
 25  13  14  1   
 26  13  27  1   
 27  13  28  1   
 28  14  29  1   
 29  14  30  1   
 30  15  18  ar  
 31  15  31  1   
 32  16  18  ar  
 33  16  32  1   
 34  18  19  1   
 35  19  33  1   
 36  19  34  1   
 37  19  35  1   
@<TRIPOS>SUBSTRUCTURE
  1 ****   3 GROUP 4 **** **** 0

# MOE 2024.06 (io_trps.svl 2023.06)
