@<TRIPOS>MOLECULE
NONAME
51 52 1 0 0 
SMALL
USER_CHARGES


@<TRIPOS>ATOM
  1 S        1.0430    -0.5260     0.5370 S.o2  1 <1>   1.4470 
  2 O        2.2700    -1.1400     1.0000 O.2   1 <1>  -0.6500 
  3 O        0.5000     0.5580     1.3250 O.2   1 <1>  -0.6500 
  4 N        1.4090     0.0840    -1.0020 N.am  1 <1>  -0.8490 
  5 C       -0.2120    -1.8010     0.2670 C.ar  1 <1>  -0.0090 
  6 C        2.0470     1.4330    -0.9720 C.3   1 <1>   0.2570 
  7 C        2.0390    -0.8890    -1.9010 C.3   1 <1>   0.1960 
  8 C       -1.4380    -1.4960    -0.3140 C.ar  1 <1>   0.0830 
  9 C        0.0180    -3.1220     0.6390 C.ar  1 <1>  -0.1500 
 10 C        3.5730     1.5300    -0.7970 C.2   1 <1>   0.5690 
 11 C        1.9920    -0.4010    -3.3470 C.3   1 <1>  -0.2400 
 12 O       -1.7080    -0.2340    -0.7020 O.3   1 <1>  -0.3630 
 13 C       -2.3940    -2.4780    -0.5270 C.ar  1 <1>  -0.1500 
 14 C       -0.9330    -4.1110     0.4390 C.ar  1 <1>  -0.1440 
 15 O        4.1330     2.4420    -1.3590 O.2   1 <1>  -0.5700 
 16 N        4.2490     0.6040    -0.0490 N.am  1 <1>  -0.5470 
 17 C       -2.5920     0.5030     0.1120 C.3   1 <1>   0.0400 
 18 C       -2.1420    -3.7820    -0.1500 C.ar  1 <1>  -0.1500 
 19 C       -0.6540    -5.5440     0.8550 C.3   1 <1>  -0.0970 
 20 C        5.6310     0.4010     0.1200 C.ar  1 <1>   0.1170 
 21 C        6.1160    -0.8990     0.2930 C.ar  1 <1>   0.0830 
 22 C        6.5410     1.4510     0.1410 C.ar  1 <1>  -0.1500 
 23 O        5.2530    -1.9450     0.2710 O.3   1 <1>  -0.3620 
 24 C        7.4700    -1.1350     0.4670 C.ar  1 <1>  -0.1500 
 25 C        7.8940     1.2170     0.3200 C.ar  1 <1>  -0.1500 
 26 C        5.0230    -2.5810     1.5070 C.3   1 <1>   0.0400 
 27 C        8.3610    -0.0760     0.4830 C.ar  1 <1>  -0.1500 
 28 H        1.5920     2.0370    -0.2080 H     1 <1>   0.0800 
 29 H        1.8130     1.9230    -1.9000 H     1 <1>   0.0800 
 30 H        1.4950    -1.8180    -1.8490 H     1 <1>   0.0800 
 31 H        3.0560    -1.0920    -1.6070 H     1 <1>   0.0800 
 32 H        0.9590    -3.3800     1.0940 H     1 <1>   0.1500 
 33 H        0.9850    -0.1350    -3.6160 H     1 <1>   0.0800 
 34 H        2.3220    -1.1880    -3.9990 H     1 <1>   0.0800 
 35 H        2.6430     0.4420    -3.4930 H     1 <1>   0.0800 
 36 H       -3.3270    -2.2180    -0.9920 H     1 <1>   0.1500 
 37 H        3.6840    -0.1740     0.3190 H     1 <1>   0.3700 
 38 H       -2.6730     1.4950    -0.2940 H     1 <1>   0.0800 
 39 H       -2.1920     0.5480     1.1100 H     1 <1>   0.0800 
 40 H       -3.5550     0.0240     0.1130 H     1 <1>   0.0800 
 41 H       -2.8880    -4.5400    -0.3170 H     1 <1>   0.1500 
 42 H        0.0870    -5.5790     1.6330 H     1 <1>   0.0800 
 43 H       -0.2970    -6.1070     0.0110 H     1 <1>   0.0800 
 44 H       -1.5520    -6.0070     1.2240 H     1 <1>   0.0800 
 45 H        6.1930     2.4600     0.0170 H     1 <1>   0.1500 
 46 H        7.8260    -2.1430     0.5820 H     1 <1>   0.1500 
 47 H        8.5830     2.0440     0.3310 H     1 <1>   0.1500 
 48 H        4.2580    -3.3230     1.3660 H     1 <1>   0.0800 
 49 H        4.6910    -1.8460     2.2190 H     1 <1>   0.0800 
 50 H        5.9340    -3.0460     1.8410 H     1 <1>   0.0800 
 51 H        9.4140    -0.2570     0.6180 H     1 <1>   0.1500 
@<TRIPOS>BOND
  1   1   2  2   
  2   1   3  2   
  3   1   4  am  
  4   1   5  1   
  5   4   6  1   
  6   4   7  1   
  7   5   8  ar  
  8   5   9  ar  
  9   6  10  1   
 10   6  28  1   
 11   6  29  1   
 12   7  11  1   
 13   7  30  1   
 14   7  31  1   
 15   8  12  1   
 16   8  13  ar  
 17   9  14  ar  
 18   9  32  1   
 19  10  15  2   
 20  10  16  am  
 21  11  33  1   
 22  11  34  1   
 23  11  35  1   
 24  12  17  1   
 25  13  18  ar  
 26  13  36  1   
 27  14  18  ar  
 28  14  19  1   
 29  16  20  1   
 30  16  37  1   
 31  17  38  1   
 32  17  39  1   
 33  17  40  1   
 34  18  41  1   
 35  19  42  1   
 36  19  43  1   
 37  19  44  1   
 38  20  21  ar  
 39  20  22  ar  
 40  21  23  1   
 41  21  24  ar  
 42  22  25  ar  
 43  22  45  1   
 44  23  26  1   
 45  24  27  ar  
 46  24  46  1   
 47  25  27  ar  
 48  25  47  1   
 49  26  48  1   
 50  26  49  1   
 51  26  50  1   
 52  27  51  1   
@<TRIPOS>SUBSTRUCTURE
  1 ****   2 GROUP 4 **** **** 0

# MOE 2024.06 (io_trps.svl 2023.06)
