@<TRIPOS>MOLECULE
NONAME
31 31 1 0 0 
SMALL
USER_CHARGES


@<TRIPOS>ATOM
  1 S       -0.5830    -0.3590     2.4960 S.3   1 <1>  -0.3710 
  2 C       -1.3490     0.6640     1.2590 C.2   1 <1>   0.6510 
  3 C       -0.2150    -1.9620     1.6130 C.3   1 <1>   0.1310 
  4 N       -1.5840     1.9390     1.6510 N.am  1 <1>  -0.4900 
  5 N       -1.6090     0.1760     0.1090 N.2   1 <1>  -0.6210 
  6 C        1.2820    -2.1320     1.3610 C.2   1 <1>   0.5690 
  7 C       -2.1180     2.8190     0.7580 C.2   1 <1>   0.6160 
  8 C       -2.1120     1.0310    -0.8330 C.2   1 <1>   0.0210 
  9 O        1.9080    -2.6870     2.2380 O.2   1 <1>  -0.5700 
 10 N        1.9040    -1.7270     0.1970 N.am  1 <1>  -0.6600 
 11 O       -2.3140     3.9750     1.1620 O.2   1 <1>  -0.5700 
 12 C       -2.3840     2.3520    -0.5170 C.2   1 <1>  -0.1360 
 13 O       -2.2820     0.5740    -1.9640 O.3   1 <1>  -0.8500 
 14 C        1.2250    -1.0350    -0.9390 C.3   1 <1>   0.1400 
 15 C        3.3570    -1.9730    -0.0020 C.3   1 <1>   0.1400 
 16 C        1.5080     0.4650    -0.8790 C.3   1 <1>  -0.2400 
 17 C        3.5530    -3.3040    -0.7250 C.3   1 <1>  -0.2400 
 18 H       -0.7890    -2.0230     0.7110 H     1 <1>   0.0800 
 19 H       -0.5470    -2.7410     2.2720 H     1 <1>   0.0800 
 20 H       -1.3520     2.2630     2.5790 H     1 <1>   0.3700 
 21 H       -2.7890     3.0000    -1.2650 H     1 <1>   0.1500 
 22 H        0.1650    -1.2060    -0.9240 H     1 <1>   0.0800 
 23 H        1.5840    -1.4300    -1.8730 H     1 <1>   0.0800 
 24 H        3.8570    -2.0020     0.9520 H     1 <1>   0.0800 
 25 H        3.7910    -1.1740    -0.5750 H     1 <1>   0.0800 
 26 H        1.2530     0.8550     0.0880 H     1 <1>   0.0800 
 27 H        0.8930     0.9620    -1.6100 H     1 <1>   0.0800 
 28 H        2.5380     0.6760    -1.0950 H     1 <1>   0.0800 
 29 H        3.1360    -4.1030    -0.1380 H     1 <1>   0.0800 
 30 H        4.6030    -3.4900    -0.8580 H     1 <1>   0.0800 
 31 H        3.0820    -3.2840    -1.6900 H     1 <1>   0.0800 
@<TRIPOS>BOND
  1   1   2  1   
  2   1   3  1   
  3   2   4  1   
  4   2   5  2   
  5   3   6  1   
  6   3  18  1   
  7   3  19  1   
  8   4   7  am  
  9   4  20  1   
 10   5   8  1   
 11   6   9  2   
 12   6  10  am  
 13   7  11  2   
 14   7  12  1   
 15   8  12  2   
 16   8  13  1   
 17  10  14  1   
 18  10  15  1   
 19  12  21  1   
 20  14  16  1   
 21  14  22  1   
 22  14  23  1   
 23  15  17  1   
 24  15  24  1   
 25  15  25  1   
 26  16  26  1   
 27  16  27  1   
 28  16  28  1   
 29  17  29  1   
 30  17  30  1   
 31  17  31  1   
@<TRIPOS>SUBSTRUCTURE
  1 ****   5 GROUP 4 **** **** 0

# MOE 2024.06 (io_trps.svl 2023.06)
