@<TRIPOS>MOLECULE
NONAME
41 41 1 0 0 
SMALL
USER_CHARGES


@<TRIPOS>ATOM
  1 P        0.4810     0.0150     0.4660 P.3   1 <1>   1.2420 
  2 O        0.5600    -0.6200     1.7820 O.2   1 <1>  -0.7000 
  3 O        1.1150    -0.8600    -0.7270 O.3   1 <1>  -0.5510 
  4 O        1.3440     1.3660     0.3990 O.3   1 <1>  -0.5510 
  5 C       -1.1660     0.5280    -0.0800 C.3   1 <1>   0.1100 
  6 C        0.6220    -2.1060    -1.0890 C.3   1 <1>   0.1200 
  7 C        2.6970     1.3130     0.6820 C.3   1 <1>   0.1200 
  8 N       -2.2570    -0.4870    -0.2570 N.3   1 <1>  -0.8100 
  9 C        1.1290    -3.1780    -0.1200 C.3   1 <1>  -0.1600 
 10 C        3.2620     2.7270     0.5620 C.3   1 <1>  -0.1600 
 11 C       -2.5790    -1.1650     1.0190 C.3   1 <1>   0.1100 
 12 C       -3.4780     0.1330    -0.8080 C.3   1 <1>   0.1100 
 13 C        0.7130    -4.5790    -0.5830 C.3   1 <1>  -0.2400 
 14 C        4.7650     2.7520     0.8630 C.3   1 <1>  -0.2400 
 15 C       -3.7520    -2.1470     0.8470 C.3   1 <1>   0.1200 
 16 C       -4.6150    -0.8970    -0.9300 C.3   1 <1>   0.1200 
 17 O       -4.8670    -1.4950     0.3090 O.3   1 <1>  -0.5600 
 18 H       -1.0520     1.0260    -1.0250 H     1 <1>   0.0800 
 19 H       -1.5320     1.2730     0.6030 H     1 <1>   0.0800 
 20 H        0.9870    -2.3130    -2.0800 H     1 <1>   0.0800 
 21 H       -0.4530    -2.0760    -1.1180 H     1 <1>   0.0800 
 22 H        3.1700     0.6490    -0.0220 H     1 <1>   0.0800 
 23 H        2.8220     0.9310     1.6820 H     1 <1>   0.0800 
 24 H        0.7260    -3.0090     0.8620 H     1 <1>   0.0800 
 25 H        2.2030    -3.1280    -0.0650 H     1 <1>   0.0800 
 26 H        2.7510     3.3720     1.2550 H     1 <1>   0.0800 
 27 H        3.0960     3.0920    -0.4370 H     1 <1>   0.0800 
 28 H       -2.8400    -0.4400     1.7710 H     1 <1>   0.0800 
 29 H       -1.7240    -1.7160     1.3680 H     1 <1>   0.0800 
 30 H       -3.2660     0.5380    -1.7820 H     1 <1>   0.0800 
 31 H       -3.8060     0.9370    -0.1710 H     1 <1>   0.0800 
 32 H       -0.3590    -4.6550    -0.6340 H     1 <1>   0.0800 
 33 H        1.0760    -5.3170     0.1110 H     1 <1>   0.0800 
 34 H        1.1240    -4.7920    -1.5550 H     1 <1>   0.0800 
 35 H        4.9530     2.4040     1.8640 H     1 <1>   0.0800 
 36 H        5.1400     3.7560     0.7750 H     1 <1>   0.0800 
 37 H        5.2980     2.1250     0.1710 H     1 <1>   0.0800 
 38 H       -4.0380    -2.5560     1.7990 H     1 <1>   0.0800 
 39 H       -3.4740    -2.9540     0.1910 H     1 <1>   0.0800 
 40 H       -4.3550    -1.6650    -1.6380 H     1 <1>   0.0800 
 41 H       -5.5210    -0.4170    -1.2530 H     1 <1>   0.0800 
@<TRIPOS>BOND
  1   1   2  2   
  2   1   3  1   
  3   1   4  1   
  4   1   5  1   
  5   3   6  1   
  6   4   7  1   
  7   5   8  1   
  8   5  18  1   
  9   5  19  1   
 10   6   9  1   
 11   6  20  1   
 12   6  21  1   
 13   7  10  1   
 14   7  22  1   
 15   7  23  1   
 16   8  11  1   
 17   8  12  1   
 18   9  13  1   
 19   9  24  1   
 20   9  25  1   
 21  10  14  1   
 22  10  26  1   
 23  10  27  1   
 24  11  15  1   
 25  11  28  1   
 26  11  29  1   
 27  12  16  1   
 28  12  30  1   
 29  12  31  1   
 30  13  32  1   
 31  13  33  1   
 32  13  34  1   
 33  14  35  1   
 34  14  36  1   
 35  14  37  1   
 36  15  17  1   
 37  15  38  1   
 38  15  39  1   
 39  16  17  1   
 40  16  40  1   
 41  16  41  1   
@<TRIPOS>SUBSTRUCTURE
  1 ****   1 GROUP 4 **** **** 0

# MOE 2024.06 (io_trps.svl 2023.06)
