@<TRIPOS>MOLECULE
NONAME
37 39 1 0 0 
SMALL
USER_CHARGES


@<TRIPOS>ATOM
  1 CL      -2.6430     1.1750    -2.5420 Cl    1 <1>  -0.1770 
  2 C       -1.9190     1.7970    -1.0770 C.ar  1 <1>   0.1770 
  3 C       -2.1650     1.1810     0.1470 C.ar  1 <1>  -0.0230 
  4 C       -1.1050     2.9090    -1.1780 C.ar  1 <1>  -0.1500 
  5 N       -3.0070     0.0460     0.2390 N.pl3 1 <1>   0.5930 
  6 C       -1.5590     1.7030     1.2880 C.ar  1 <1>  -0.1500 
  7 C       -0.5250     3.4100    -0.0290 C.ar  1 <1>   0.1770 
  8 N       -2.5240    -1.1930     0.4980 N.2   1 <1>  -0.7070 
  9 C       -4.3590     0.0070     0.1890 C.2   1 <1>  -0.3320 
 10 C       -0.7410     2.8180     1.2020 C.ar  1 <1>  -0.1500 
 11 CL       0.5020     4.8160    -0.1340 Cl    1 <1>  -0.1770 
 12 C       -3.5600    -1.9600     0.5780 C.2   1 <1>   0.1080 
 13 C       -4.7490    -1.2550     0.3880 C.2   1 <1>  -0.0860 
 14 C       -5.3200     1.1640    -0.0040 C.3   1 <1>   0.0200 
 15 C       -3.4720    -3.4450     0.8500 C.3   1 <1>  -0.0590 
 16 C       -6.1160    -1.5850     0.3800 C.2   1 <1>   0.5950 
 17 C       -6.9110     1.1050    -0.2300 C.3   1 <1>   0.0000 
 18 O       -6.5510    -2.6740     0.6610 O.2   1 <1>  -0.5700 
 19 C       -7.0870    -0.4890    -0.0440 C.3   1 <1>  -0.0990 
 20 C       -6.8940     2.7020    -0.4510 C.3   1 <1>  -0.2400 
 21 C       -8.5030     1.2020    -0.4720 C.3   1 <1>  -0.2400 
 22 H       -0.9250     3.3740    -2.1300 H     1 <1>   0.1500 
 23 H       -1.7270     1.2280     2.2420 H     1 <1>   0.1500 
 24 H       -0.2710     3.2260     2.0800 H     1 <1>   0.1500 
 25 H       -4.8810     1.6650    -0.8540 H     1 <1>   0.0800 
 26 H       -5.1350     1.7550     0.8810 H     1 <1>   0.0800 
 27 H       -2.4440    -3.7430     0.9430 H     1 <1>   0.0800 
 28 H       -3.9230    -3.9900     0.0420 H     1 <1>   0.0800 
 29 H       -3.9900    -3.6790     1.7620 H     1 <1>   0.0800 
 30 H       -7.8610    -0.6550     0.6910 H     1 <1>   0.0800 
 31 H       -7.4200    -0.8820    -0.9910 H     1 <1>   0.0800 
 32 H       -6.0360     3.2870    -0.1520 H     1 <1>   0.0800 
 33 H       -7.6710     3.2340     0.0790 H     1 <1>   0.0800 
 34 H       -6.9920     2.9200    -1.5030 H     1 <1>   0.0800 
 35 H       -9.0730     0.3170    -0.7110 H     1 <1>   0.0800 
 36 H       -8.7980     1.8310    -1.3000 H     1 <1>   0.0800 
 37 H       -8.9780     1.5810     0.4200 H     1 <1>   0.0800 
@<TRIPOS>BOND
  1   1   2  1   
  2   2   3  ar  
  3   2   4  ar  
  4   3   5  1   
  5   3   6  ar  
  6   4   7  ar  
  7   4  22  1   
  8   5   8  1   
  9   5   9  1   
 10   6  10  ar  
 11   6  23  1   
 12   7  10  ar  
 13   7  11  1   
 14   8  12  2   
 15   9  13  2   
 16   9  14  1   
 17  10  24  1   
 18  12  13  1   
 19  12  15  1   
 20  13  16  1   
 21  14  17  1   
 22  14  25  1   
 23  14  26  1   
 24  15  27  1   
 25  15  28  1   
 26  15  29  1   
 27  16  18  2   
 28  16  19  1   
 29  17  19  1   
 30  17  20  1   
 31  17  21  1   
 32  19  30  1   
 33  19  31  1   
 34  20  32  1   
 35  20  33  1   
 36  20  34  1   
 37  21  35  1   
 38  21  36  1   
 39  21  37  1   
@<TRIPOS>SUBSTRUCTURE
  1 ****   9 GROUP 4 **** **** 0

# MOE 2024.06 (io_trps.svl 2023.06)
