@<TRIPOS>MOLECULE
NONAME
49 50 1 0 0 
SMALL
USER_CHARGES


@<TRIPOS>ATOM
  1 N       -0.0730     0.1100     0.1230 N.4   1 <1>  -0.9590 
  2 C        1.2010    -0.6180     0.4840 C.3   1 <1>   0.3430 
  3 C       -0.1890     1.4690     0.7370 C.3   1 <1>   0.3430 
  4 C       -1.2540    -0.7210     0.5080 C.3   1 <1>   0.3430 
  5 C        2.5110     0.0340    -0.0500 C.3   1 <1>   0.3430 
  6 C        0.1780     2.5170    -0.3060 C.3   1 <1>  -0.2400 
  7 C       -2.4650    -0.2920    -0.3130 C.3   1 <1>  -0.2400 
  8 N        3.7870    -0.7130     0.2900 N.4   1 <1>  -0.9590 
  9 C        5.0190     0.0890    -0.0850 C.3   1 <1>   0.4230 
 10 C        3.7980    -2.0780    -0.3530 C.3   1 <1>   0.2630 
 11 C        6.3190    -0.7310     0.0470 C.3   1 <1>  -0.0170 
 12 C        5.1270     1.3350     0.8090 C.3   1 <1>  -0.1600 
 13 C        7.5690     0.1190    -0.1050 C.ar  1 <1>  -0.1440 
 14 C        6.2450     2.2560     0.3070 C.3   1 <1>  -0.0170 
 15 C        7.5340     1.5030     0.0240 C.ar  1 <1>  -0.1440 
 16 C        8.7740    -0.5140    -0.3700 C.ar  1 <1>  -0.1500 
 17 C        8.7040     2.2320    -0.1180 C.ar  1 <1>  -0.1500 
 18 C        9.9370     0.2210    -0.5100 C.ar  1 <1>  -0.1500 
 19 C        9.9020     1.5960    -0.3840 C.ar  1 <1>  -0.1500 
 20 H       -0.1520     0.2290    -0.8990 H     1 <1>   0.4500 
 21 H        1.1410    -1.6190     0.0900 H     1 <1>   0.0800 
 22 H        1.2650    -0.6900     1.5580 H     1 <1>   0.0800 
 23 H        0.4460     1.5550     1.6040 H     1 <1>   0.0800 
 24 H       -1.2050     1.6480     1.0560 H     1 <1>   0.0800 
 25 H       -1.4640    -0.6180     1.5620 H     1 <1>   0.0800 
 26 H       -1.0570    -1.7620     0.3040 H     1 <1>   0.0800 
 27 H        2.5650     1.0270     0.3590 H     1 <1>   0.0800 
 28 H        2.4400     0.1240    -1.1220 H     1 <1>   0.0800 
 29 H        1.1950     2.4260    -0.6380 H     1 <1>   0.0800 
 30 H        0.0640     3.4950     0.1290 H     1 <1>   0.0800 
 31 H       -0.4860     2.4620    -1.1500 H     1 <1>   0.0800 
 32 H       -2.7510     0.7240    -0.1050 H     1 <1>   0.0800 
 33 H       -3.3010    -0.9200    -0.0590 H     1 <1>   0.0800 
 34 H       -2.2790    -0.4070    -1.3660 H     1 <1>   0.0800 
 35 H        3.8620    -0.8430     1.3120 H     1 <1>   0.4500 
 36 H        4.9380     0.4120    -1.1110 H     1 <1>   0.0800 
 37 H        3.8320    -1.9890    -1.4270 H     1 <1>   0.0800 
 38 H        2.9210    -2.6410    -0.0800 H     1 <1>   0.0800 
 39 H        4.6600    -2.6420    -0.0320 H     1 <1>   0.0800 
 40 H        6.3540    -1.4880    -0.7160 H     1 <1>   0.0800 
 41 H        6.3620    -1.2030     1.0120 H     1 <1>   0.0800 
 42 H        5.3600     1.0400     1.8180 H     1 <1>   0.0800 
 43 H        4.2260     1.9160     0.8210 H     1 <1>   0.0800 
 44 H        6.4340     3.0210     1.0420 H     1 <1>   0.0800 
 45 H        5.9370     2.7460    -0.6000 H     1 <1>   0.0800 
 46 H        8.8240    -1.5840    -0.4680 H     1 <1>   0.1500 
 47 H        8.6930     3.3050    -0.0230 H     1 <1>   0.1500 
 48 H       10.8700    -0.2760    -0.7160 H     1 <1>   0.1500 
 49 H       10.8060     2.1700    -0.4930 H     1 <1>   0.1500 
@<TRIPOS>BOND
  1   1   2  1   
  2   1   3  1   
  3   1   4  1   
  4   1  20  1   
  5   2   5  1   
  6   2  21  1   
  7   2  22  1   
  8   3   6  1   
  9   3  23  1   
 10   3  24  1   
 11   4   7  1   
 12   4  25  1   
 13   4  26  1   
 14   5   8  1   
 15   5  27  1   
 16   5  28  1   
 17   6  29  1   
 18   6  30  1   
 19   6  31  1   
 20   7  32  1   
 21   7  33  1   
 22   7  34  1   
 23   8   9  1   
 24   8  10  1   
 25   8  35  1   
 26   9  11  1   
 27   9  12  1   
 28   9  36  1   
 29  10  37  1   
 30  10  38  1   
 31  10  39  1   
 32  11  13  1   
 33  11  40  1   
 34  11  41  1   
 35  12  14  1   
 36  12  42  1   
 37  12  43  1   
 38  13  15  ar  
 39  13  16  ar  
 40  14  15  1   
 41  14  44  1   
 42  14  45  1   
 43  15  17  ar  
 44  16  18  ar  
 45  16  46  1   
 46  17  19  ar  
 47  17  47  1   
 48  18  19  ar  
 49  18  48  1   
 50  19  49  1   
@<TRIPOS>SUBSTRUCTURE
  1 ****   9 GROUP 4 **** **** 0

# MOE 2024.06 (io_trps.svl 2023.06)
