@<TRIPOS>MOLECULE
NONAME
46 49 1 0 0 
SMALL
USER_CHARGES


@<TRIPOS>ATOM
  1 O       -0.7330    -0.6230     1.0850 O.2   1 <1>  -0.5700 
  2 C       -1.7430    -1.0440     0.5620 C.2   1 <1>   0.5690 
  3 N       -2.7380    -0.1420     0.2120 N.am  1 <1>  -0.6600 
  4 C       -1.8110    -2.5850     0.3210 C.3   1 <1>   0.0610 
  5 C       -2.5160     1.3180     0.4770 C.3   1 <1>   0.2200 
  6 C       -4.0880    -0.4350    -0.3500 C.3   1 <1>   0.1400 
  7 C       -1.9120    -2.9250    -1.1930 C.3   1 <1>  -0.1600 
  8 C       -2.9750    -3.2520     1.1060 C.3   1 <1>  -0.1600 
  9 C       -0.5060    -3.2770     0.8260 C.3   1 <1>  -0.1600 
 10 C       -3.8340     2.0780     0.7310 C.3   1 <1>  -0.1600 
 11 C       -1.7510     1.9280    -0.6970 C.3   1 <1>  -0.2400 
 12 C       -5.1750    -0.0630     0.6720 C.3   1 <1>  -0.1600 
 13 C       -1.9750    -4.4470    -1.4230 C.3   1 <1>  -0.0800 
 14 C       -3.0260    -4.7700     0.8540 C.3   1 <1>  -0.0800 
 15 C       -0.5250    -4.8010     0.6010 C.3   1 <1>  -0.0800 
 16 C       -4.8450     1.2030     1.4830 C.3   1 <1>  -0.1600 
 17 C       -3.1760    -5.0310    -0.6570 C.3   1 <1>  -0.1600 
 18 C       -0.6770    -5.0870    -0.9020 C.3   1 <1>  -0.1600 
 19 C       -1.7190    -5.4070     1.3550 C.3   1 <1>  -0.1600 
 20 H       -1.9160     1.4170     1.3680 H     1 <1>   0.0800 
 21 H       -4.2080    -1.4550    -0.6410 H     1 <1>   0.0800 
 22 H       -4.2160     0.1610    -1.2370 H     1 <1>   0.0800 
 23 H       -1.0530    -2.5210    -1.7010 H     1 <1>   0.0800 
 24 H       -2.7720    -2.4800    -1.6460 H     1 <1>   0.0800 
 25 H       -3.9240    -2.8410     0.8380 H     1 <1>   0.0800 
 26 H       -2.8430    -3.0650     2.1580 H     1 <1>   0.0800 
 27 H       -0.3750    -3.0780     1.8760 H     1 <1>   0.0800 
 28 H        0.3450    -2.8570     0.3170 H     1 <1>   0.0800 
 29 H       -4.2650     2.3940    -0.2030 H     1 <1>   0.0800 
 30 H       -3.6220     2.9650     1.3010 H     1 <1>   0.0800 
 31 H       -2.3120     1.8300    -1.6080 H     1 <1>   0.0800 
 32 H       -0.8030     1.4340    -0.8090 H     1 <1>   0.0800 
 33 H       -1.5670     2.9710    -0.5120 H     1 <1>   0.0800 
 34 H       -5.3250    -0.8840     1.3500 H     1 <1>   0.0800 
 35 H       -6.0980     0.0820     0.1390 H     1 <1>   0.0800 
 36 H       -2.0790    -4.6500    -2.4750 H     1 <1>   0.0800 
 37 H       -3.8610    -5.1980     1.3830 H     1 <1>   0.0800 
 38 H        0.3920    -5.2330     0.9630 H     1 <1>   0.0800 
 39 H       -5.7440     1.7570     1.6890 H     1 <1>   0.0800 
 40 H       -4.4100     0.9130     2.4240 H     1 <1>   0.0800 
 41 H       -3.2370    -6.0910    -0.8350 H     1 <1>   0.0800 
 42 H       -4.0890    -4.5880    -1.0150 H     1 <1>   0.0800 
 43 H       -0.6990    -6.1490    -1.0720 H     1 <1>   0.0800 
 44 H        0.1680    -4.6870    -1.4360 H     1 <1>   0.0800 
 45 H       -1.7470    -6.4710     1.2000 H     1 <1>   0.0800 
 46 H       -1.6090    -5.2330     2.4120 H     1 <1>   0.0800 
@<TRIPOS>BOND
  1   1   2  2   
  2   2   3  am  
  3   2   4  1   
  4   3   5  1   
  5   3   6  1   
  6   4   7  1   
  7   4   8  1   
  8   4   9  1   
  9   5  10  1   
 10   5  11  1   
 11   5  20  1   
 12   6  12  1   
 13   6  21  1   
 14   6  22  1   
 15   7  13  1   
 16   7  23  1   
 17   7  24  1   
 18   8  14  1   
 19   8  25  1   
 20   8  26  1   
 21   9  15  1   
 22   9  27  1   
 23   9  28  1   
 24  10  16  1   
 25  10  29  1   
 26  10  30  1   
 27  11  31  1   
 28  11  32  1   
 29  11  33  1   
 30  12  16  1   
 31  12  34  1   
 32  12  35  1   
 33  13  17  1   
 34  13  18  1   
 35  13  36  1   
 36  14  17  1   
 37  14  19  1   
 38  14  37  1   
 39  15  18  1   
 40  15  19  1   
 41  15  38  1   
 42  16  39  1   
 43  16  40  1   
 44  17  41  1   
 45  17  42  1   
 46  18  43  1   
 47  18  44  1   
 48  19  45  1   
 49  19  46  1   
@<TRIPOS>SUBSTRUCTURE
  1 ****   4 GROUP 4 **** **** 0

# MOE 2024.06 (io_trps.svl 2023.06)
