@<TRIPOS>MOLECULE
NONAME
50 52 1 0 0 
SMALL
USER_CHARGES


@<TRIPOS>ATOM
  1 F        0.5780    -0.2530    -0.5670 F     1 <1>  -0.1900 
  2 C        1.7420    -0.8260    -0.4420 C.ar  1 <1>   0.1900 
  3 C        2.1640    -1.2140     0.8150 C.ar  1 <1>  -0.1500 
  4 C        2.5140    -1.0270    -1.5700 C.ar  1 <1>  -0.1500 
  5 C        3.4030    -1.8190     0.9390 C.ar  1 <1>  -0.1500 
  6 C        3.7500    -1.6330    -1.4260 C.ar  1 <1>  -0.1500 
  7 C        4.2230    -2.0330    -0.1740 C.ar  1 <1>   0.0860 
  8 C        5.5240    -2.6590    -0.0420 C.2   1 <1>   0.5440 
  9 O        5.7440    -3.6850    -0.6580 O.2   1 <1>  -0.5700 
 10 N        6.5200    -2.1240     0.7530 N.am  1 <1>  -0.6600 
 11 C        7.7970    -2.8520     0.9930 C.3   1 <1>   0.1400 
 12 C        6.4940    -0.7320     1.2830 C.3   1 <1>   0.1400 
 13 C        8.9610    -2.0670     0.3820 C.3   1 <1>  -0.1600 
 14 C        7.6520     0.0670     0.6810 C.3   1 <1>  -0.1600 
 15 C        9.0120    -0.6230     0.9130 C.3   1 <1>  -0.0190 
 16 C       10.1790     0.1480     0.2910 C.2   1 <1>   0.5690 
 17 O        9.9990     0.7760    -0.7230 O.2   1 <1>  -0.5700 
 18 N       11.3900     0.0670     0.9250 N.am  1 <1>  -0.5470 
 19 C       12.6310     0.6570     0.6300 C.ar  1 <1>   0.1170 
 20 C       12.7660     1.7930    -0.1640 C.ar  1 <1>  -0.1500 
 21 C       13.7800     0.0910     1.1700 C.ar  1 <1>  -0.1500 
 22 C       14.0100     2.3450    -0.4160 C.ar  1 <1>  -0.1500 
 23 C       15.0260     0.6390     0.9230 C.ar  1 <1>  -0.1500 
 24 C       15.1520     1.7670     0.1300 C.ar  1 <1>   0.0830 
 25 O       16.4110     2.2400    -0.0640 O.3   1 <1>  -0.3630 
 26 C       16.6430     3.3660    -0.8770 C.3   1 <1>   0.1200 
 27 C       18.1460     3.6290    -0.9010 C.3   1 <1>  -0.2400 
 28 H        1.5330    -1.0480     1.6690 H     1 <1>   0.1500 
 29 H        2.1510    -0.7180    -2.5340 H     1 <1>   0.1500 
 30 H        3.7490    -2.1370     1.9080 H     1 <1>   0.1500 
 31 H        4.3680    -1.8090    -2.2910 H     1 <1>   0.1500 
 32 H        7.7630    -3.8390     0.5630 H     1 <1>   0.0800 
 33 H        7.9410    -2.9620     2.0540 H     1 <1>   0.0800 
 34 H        6.5860    -0.7630     2.3550 H     1 <1>   0.0800 
 35 H        5.5690    -0.2400     1.0400 H     1 <1>   0.0800 
 36 H        8.8440    -2.0560    -0.6890 H     1 <1>   0.0800 
 37 H        9.8830    -2.5750     0.6020 H     1 <1>   0.0800 
 38 H        7.6690     1.0530     1.1110 H     1 <1>   0.0800 
 39 H        7.4760     0.1790    -0.3760 H     1 <1>   0.0800 
 40 H        9.1750    -0.6610     1.9750 H     1 <1>   0.0800 
 41 H       11.4130    -0.5620     1.7230 H     1 <1>   0.3700 
 42 H       11.8960     2.2580    -0.5900 H     1 <1>   0.1500 
 43 H       13.7080    -0.7850     1.7860 H     1 <1>   0.1500 
 44 H       14.0650     3.2200    -1.0350 H     1 <1>   0.1500 
 45 H       15.9110     0.1970     1.3420 H     1 <1>   0.1500 
 46 H       16.1170     4.2060    -0.4560 H     1 <1>   0.0800 
 47 H       16.2780     3.1530    -1.8670 H     1 <1>   0.0800 
 48 H       18.5020     3.8240     0.0950 H     1 <1>   0.0800 
 49 H       18.3560     4.4850    -1.5150 H     1 <1>   0.0800 
 50 H       18.6630     2.7780    -1.3080 H     1 <1>   0.0800 
@<TRIPOS>BOND
  1   1   2  1   
  2   2   3  ar  
  3   2   4  ar  
  4   3   5  ar  
  5   3  28  1   
  6   4   6  ar  
  7   4  29  1   
  8   5   7  ar  
  9   5  30  1   
 10   6   7  ar  
 11   6  31  1   
 12   7   8  1   
 13   8   9  2   
 14   8  10  am  
 15  10  11  1   
 16  10  12  1   
 17  11  13  1   
 18  11  32  1   
 19  11  33  1   
 20  12  14  1   
 21  12  34  1   
 22  12  35  1   
 23  13  15  1   
 24  13  36  1   
 25  13  37  1   
 26  14  15  1   
 27  14  38  1   
 28  14  39  1   
 29  15  16  1   
 30  15  40  1   
 31  16  17  2   
 32  16  18  am  
 33  18  19  1   
 34  18  41  1   
 35  19  20  ar  
 36  19  21  ar  
 37  20  22  ar  
 38  20  42  1   
 39  21  23  ar  
 40  21  43  1   
 41  22  24  ar  
 42  22  44  1   
 43  23  24  ar  
 44  23  45  1   
 45  24  25  1   
 46  25  26  1   
 47  26  27  1   
 48  26  46  1   
 49  26  47  1   
 50  27  48  1   
 51  27  49  1   
 52  27  50  1   
@<TRIPOS>SUBSTRUCTURE
  1 ****  15 GROUP 4 **** **** 0

# MOE 2024.06 (io_trps.svl 2023.06)
