@<TRIPOS>MOLECULE
NONAME
50 53 1 0 0 
SMALL
USER_CHARGES


@<TRIPOS>ATOM
  1 O       -0.5670    -0.7800    -0.8870 O.2   1 <1>  -0.5700 
  2 C        0.2350    -1.6650    -0.6200 C.2   1 <1>   0.5440 
  3 N       -0.2210    -2.9580    -0.4740 N.am  1 <1>  -0.4200 
  4 C        1.6280    -1.3990    -0.4220 C.ar  1 <1>   0.0860 
  5 C        0.6420    -3.9530    -0.0170 C.2   1 <1>   0.4240 
  6 C       -1.6490    -3.2480    -0.8220 C.3   1 <1>   0.1400 
  7 C        2.4210    -2.4720    -0.0050 C.ar  1 <1>   0.1790 
  8 C        2.2220    -0.1490    -0.6150 C.ar  1 <1>  -0.1500 
  9 N        1.8880    -3.7220     0.2060 N.2   1 <1>  -0.6290 
 10 C        0.1120    -5.2740     0.2390 C.ar  1 <1>   0.0860 
 11 C       -2.5760    -2.7860     0.3170 C.3   1 <1>   0.3430 
 12 C        3.7810    -2.2710     0.2080 C.ar  1 <1>  -0.1500 
 13 C        3.5720     0.0340    -0.3990 C.ar  1 <1>  -0.1500 
 14 C        0.0470    -6.2350    -0.7680 C.ar  1 <1>  -0.1500 
 15 C       -0.3750    -5.6160     1.4980 C.ar  1 <1>  -0.1500 
 16 N       -3.7900    -2.0500    -0.1660 N.4   1 <1>  -0.9590 
 17 C        4.3560    -1.0330     0.0140 C.ar  1 <1>  -0.1500 
 18 C       -0.5160    -7.4760    -0.5350 C.ar  1 <1>  -0.1500 
 19 C       -0.9380    -6.8560     1.7340 C.ar  1 <1>  -0.1500 
 20 C       -3.4610    -0.7200    -0.8000 C.3   1 <1>   0.3430 
 21 C       -4.8060    -1.8470     0.9210 C.3   1 <1>   0.3430 
 22 C       -1.0190    -7.7910     0.7160 C.ar  1 <1>  -0.1430 
 23 C       -4.7370     0.0520    -1.2040 C.3   1 <1>   0.1200 
 24 C       -6.0410    -1.0690     0.4050 C.3   1 <1>   0.1200 
 25 C       -1.6310    -9.1570     0.9730 C.3   1 <1>  -0.0970 
 26 O       -5.8900    -0.7040    -0.9410 O.3   1 <1>  -0.5600 
 27 H       -1.8010    -4.2950    -1.0070 H     1 <1>   0.0800 
 28 H       -1.8830    -2.7310    -1.7360 H     1 <1>   0.0800 
 29 H        1.6140     0.6790    -0.9360 H     1 <1>   0.1500 
 30 H       -2.0170    -2.1380     0.9730 H     1 <1>   0.0800 
 31 H       -2.8780    -3.6530     0.8820 H     1 <1>   0.0800 
 32 H        4.3780    -3.1060     0.5290 H     1 <1>   0.1500 
 33 H        4.0220     1.0010    -0.5510 H     1 <1>   0.1500 
 34 H        0.4460    -6.0050    -1.7410 H     1 <1>   0.1500 
 35 H       -0.2990    -4.9040     2.3010 H     1 <1>   0.1500 
 36 H       -4.2820    -2.5840    -0.8980 H     1 <1>   0.4500 
 37 H        5.4100    -0.8920     0.1820 H     1 <1>   0.1500 
 38 H       -0.5550    -8.2020    -1.3300 H     1 <1>   0.1500 
 39 H       -1.3050    -7.0990     2.7170 H     1 <1>   0.1500 
 40 H       -2.8520    -0.8660    -1.6760 H     1 <1>   0.0800 
 41 H       -2.8860    -0.1160    -0.1170 H     1 <1>   0.0800 
 42 H       -4.3660    -1.2960     1.7360 H     1 <1>   0.0800 
 43 H       -5.1300    -2.7980     1.3100 H     1 <1>   0.0800 
 44 H       -4.7190     0.2710    -2.2580 H     1 <1>   0.0800 
 45 H       -4.8050     0.9840    -0.6690 H     1 <1>   0.0800 
 46 H       -6.2000    -0.1770     0.9880 H     1 <1>   0.0800 
 47 H       -6.9230    -1.6800     0.4800 H     1 <1>   0.0800 
 48 H       -0.8630    -9.8480     1.2740 H     1 <1>   0.0800 
 49 H       -2.1040    -9.5330     0.0830 H     1 <1>   0.0800 
 50 H       -2.3700    -9.1020     1.7520 H     1 <1>   0.0800 
@<TRIPOS>BOND
  1   1   2  2   
  2   2   3  am  
  3   2   4  1   
  4   3   5  1   
  5   3   6  1   
  6   4   7  ar  
  7   4   8  ar  
  8   5   9  2   
  9   5  10  1   
 10   6  11  1   
 11   6  27  1   
 12   6  28  1   
 13   7   9  1   
 14   7  12  ar  
 15   8  13  ar  
 16   8  29  1   
 17  10  14  ar  
 18  10  15  ar  
 19  11  16  1   
 20  11  30  1   
 21  11  31  1   
 22  12  17  ar  
 23  12  32  1   
 24  13  17  ar  
 25  13  33  1   
 26  14  18  ar  
 27  14  34  1   
 28  15  19  ar  
 29  15  35  1   
 30  16  20  1   
 31  16  21  1   
 32  16  36  1   
 33  17  37  1   
 34  18  22  ar  
 35  18  38  1   
 36  19  22  ar  
 37  19  39  1   
 38  20  23  1   
 39  20  40  1   
 40  20  41  1   
 41  21  24  1   
 42  21  42  1   
 43  21  43  1   
 44  22  25  1   
 45  23  26  1   
 46  23  44  1   
 47  23  45  1   
 48  24  26  1   
 49  24  46  1   
 50  24  47  1   
 51  25  48  1   
 52  25  49  1   
 53  25  50  1   
@<TRIPOS>SUBSTRUCTURE
  1 ****   3 GROUP 4 **** **** 0

# MOE 2024.06 (io_trps.svl 2023.06)
