@<TRIPOS>MOLECULE
NONAME
50 52 1 0 0 
SMALL
USER_CHARGES


@<TRIPOS>ATOM
  1 S       -0.8160    -0.0190     1.1550 S.o2  1 <1>   1.5010 
  2 O       -1.6780     0.1300     2.3070 O.2   1 <1>  -0.6500 
  3 O       -0.0820    -1.2470     0.9570 O.2   1 <1>  -0.6500 
  4 N       -1.8660     0.1090    -0.1740 N.am  1 <1>  -0.8490 
  5 C        0.2540     1.4100     0.9660 C.2   1 <1>  -0.0630 
  6 C       -2.6240    -1.1440    -0.3490 C.3   1 <1>   0.1960 
  7 C       -2.7480     1.2920    -0.0740 C.3   1 <1>   0.1960 
  8 C        0.2610     2.4930     1.8330 C.2   1 <1>   0.1390 
  9 C        1.1700     1.7450     0.0220 C.2   1 <1>  -0.3020 
 10 C       -3.6210    -1.0730    -1.5280 C.3   1 <1>   0.3430 
 11 C       -3.7320     1.3810    -1.2610 C.3   1 <1>   0.3430 
 12 N        1.0860     3.4240     1.4650 N.2   1 <1>  -0.7070 
 13 N        1.6600     2.9560     0.3440 N.pl3 1 <1>   0.3140 
 14 N       -4.5400     0.1160    -1.4380 N.4   1 <1>  -0.9590 
 15 C        2.6910     3.7210    -0.3880 C.3   1 <1>   0.0960 
 16 C       -5.5650    -0.0590    -0.3630 C.3   1 <1>   0.4860 
 17 C        2.0940     4.4200    -1.6150 C.3   1 <1>  -0.2400 
 18 C       -6.4620     1.1610    -0.3370 C.ar  1 <1>  -0.1430 
 19 C       -6.3180     2.0980     0.6750 C.ar  1 <1>  -0.1500 
 20 C       -7.4200     1.3640    -1.3210 C.ar  1 <1>  -0.1500 
 21 C       -7.1000     3.2390     0.7010 C.ar  1 <1>   0.0830 
 22 C       -8.2100     2.5000    -1.2970 C.ar  1 <1>  -0.1500 
 23 O       -6.8720     4.1030     1.7180 O.3   1 <1>  -0.3630 
 24 C       -8.0520     3.4400    -0.2930 C.ar  1 <1>  -0.1500 
 25 C       -7.6740     5.2500     1.9000 C.3   1 <1>   0.0400 
 26 H       -3.1510    -1.3850     0.5600 H     1 <1>   0.0800 
 27 H       -1.9350    -1.9510    -0.5420 H     1 <1>   0.0800 
 28 H       -2.1470     2.1870    -0.0650 H     1 <1>   0.0800 
 29 H       -3.3070     1.2690     0.8460 H     1 <1>   0.0800 
 30 H       -0.3510     2.5650     2.7190 H     1 <1>   0.1500 
 31 H        1.4890     1.1920    -0.8430 H     1 <1>   0.1500 
 32 H       -4.1950    -1.9840    -1.5650 H     1 <1>   0.0800 
 33 H       -3.0490    -1.0120    -2.4400 H     1 <1>   0.0800 
 34 H       -3.1580     1.5650    -2.1540 H     1 <1>   0.0800 
 35 H       -4.3860     2.2260    -1.1190 H     1 <1>   0.0800 
 36 H       -5.0610     0.2120    -2.3190 H     1 <1>   0.4500 
 37 H        3.4720     3.0450    -0.6840 H     1 <1>   0.0800 
 38 H        3.1070     4.4510     0.2840 H     1 <1>   0.0800 
 39 H       -5.0870    -0.1740     0.5960 H     1 <1>   0.0800 
 40 H       -6.1610    -0.9360    -0.5540 H     1 <1>   0.0800 
 41 H        1.6930     3.6980    -2.3040 H     1 <1>   0.0800 
 42 H        2.8580     4.9840    -2.1190 H     1 <1>   0.0800 
 43 H        1.3150     5.0980    -1.3110 H     1 <1>   0.0800 
 44 H       -5.6010     1.9670     1.4680 H     1 <1>   0.1500 
 45 H       -7.5700     0.6480    -2.1110 H     1 <1>   0.1500 
 46 H       -8.9540     2.6570    -2.0600 H     1 <1>   0.1500 
 47 H       -8.6760     4.3140    -0.3000 H     1 <1>   0.1500 
 48 H       -7.3340     5.7590     2.7850 H     1 <1>   0.0800 
 49 H       -8.6970     4.9450     2.0270 H     1 <1>   0.0800 
 50 H       -7.5650     5.8930     1.0450 H     1 <1>   0.0800 
@<TRIPOS>BOND
  1   1   2  2   
  2   1   3  2   
  3   1   4  am  
  4   1   5  1   
  5   4   6  1   
  6   4   7  1   
  7   5   8  1   
  8   5   9  2   
  9   6  10  1   
 10   6  26  1   
 11   6  27  1   
 12   7  11  1   
 13   7  28  1   
 14   7  29  1   
 15   8  12  2   
 16   8  30  1   
 17   9  13  1   
 18   9  31  1   
 19  10  14  1   
 20  10  32  1   
 21  10  33  1   
 22  11  14  1   
 23  11  34  1   
 24  11  35  1   
 25  12  13  1   
 26  13  15  1   
 27  14  16  1   
 28  14  36  1   
 29  15  17  1   
 30  15  37  1   
 31  15  38  1   
 32  16  18  1   
 33  16  39  1   
 34  16  40  1   
 35  17  41  1   
 36  17  42  1   
 37  17  43  1   
 38  18  19  ar  
 39  18  20  ar  
 40  19  21  ar  
 41  19  44  1   
 42  20  22  ar  
 43  20  45  1   
 44  21  23  1   
 45  21  24  ar  
 46  22  24  ar  
 47  22  46  1   
 48  23  25  1   
 49  24  47  1   
 50  25  48  1   
 51  25  49  1   
 52  25  50  1   
@<TRIPOS>SUBSTRUCTURE
  1 ****   7 GROUP 4 **** **** 0

# MOE 2024.06 (io_trps.svl 2023.06)
