@<TRIPOS>MOLECULE
NONAME
42 45 1 0 0 
SMALL
USER_CHARGES


@<TRIPOS>ATOM
  1 S       -0.6200     0.8770    -0.4410 S.3   1 <1>  -0.0800 
  2 C       -2.2040     0.1400    -0.2630 C.2   1 <1>   0.1660 
  3 C       -1.3360     2.4860    -0.4580 C.2   1 <1>  -0.1400 
  4 N       -2.3990    -1.1950    -0.1810 N.2   1 <1>  -0.5760 
  5 C       -3.1790     1.0960    -0.2220 C.2   1 <1>  -0.0370 
  6 C       -2.6650     2.4330    -0.3260 C.2   1 <1>  -0.1810 
  7 C       -0.5030     3.7430    -0.6030 C.3   1 <1>   0.3000 
  8 C       -3.6260    -1.5860    -0.0510 C.2   1 <1>   0.8080 
  9 C       -4.4770     0.5960    -0.0840 C.cat 1 <1>   0.8370 
 10 C       -3.4680     3.7250    -0.3100 C.3   1 <1>   0.0210 
 11 O       -1.3590     4.8370    -0.8380 O.3   1 <1>  -0.5600 
 12 N       -4.7010    -0.7180     0.0020 N.pl3 1 <1>  -0.3620 
 13 C       -3.9240    -3.0660     0.0520 C.3   1 <1>  -0.1790 
 14 N       -5.6450     1.1800    -0.0090 N.pl3 1 <1>  -0.7000 
 15 C       -2.5420     4.9510    -0.0810 C.3   1 <1>   0.2800 
 16 N       -6.0530    -0.9480     0.1480 N.2   1 <1>  -0.2600 
 17 C       -6.5830     0.2260     0.1450 C.2   1 <1>   0.4850 
 18 C       -2.1720     5.1250     1.4000 C.3   1 <1>  -0.2400 
 19 C       -3.2270     6.2260    -0.5760 C.3   1 <1>  -0.2400 
 20 C       -8.0710     0.5460     0.3090 C.3   1 <1>   0.0080 
 21 C       -8.5250     1.9190    -0.2430 C.3   1 <1>  -0.2660 
 22 C       -7.7610     3.0350     0.4160 C.2   1 <1>   0.9060 
 23 O       -7.9120     3.2150     1.6170 O.co2 1 <1>  -0.9000 
 24 O       -6.8280     3.5460    -0.2150 O.co2 1 <1>  -0.9000 
 25 H        0.1620     3.6630    -1.4440 H     1 <1>   0.0800 
 26 H        0.0700     3.9340     0.2880 H     1 <1>   0.0800 
 27 H       -4.2130     3.7020     0.4660 H     1 <1>   0.0800 
 28 H       -3.9860     3.8290    -1.2470 H     1 <1>   0.0800 
 29 H       -4.5660    -3.3640    -0.7560 H     1 <1>   0.0800 
 30 H       -4.4090    -3.2750     0.9870 H     1 <1>   0.0800 
 31 H       -3.0130    -3.6330    -0.0020 H     1 <1>   0.0800 
 32 H       -5.8540     2.2020    -0.0500 H     1 <1>   0.4500 
 33 H       -1.7560     4.2230     1.8090 H     1 <1>   0.0800 
 34 H       -3.0540     5.3610     1.9690 H     1 <1>   0.0800 
 35 H       -1.4700     5.9300     1.5170 H     1 <1>   0.0800 
 36 H       -3.4360     6.1510    -1.6280 H     1 <1>   0.0800 
 37 H       -2.5970     7.0800    -0.4050 H     1 <1>   0.0800 
 38 H       -4.1570     6.3740    -0.0560 H     1 <1>   0.0800 
 39 H       -8.2960     0.5180     1.3610 H     1 <1>   0.0800 
 40 H       -8.6450    -0.2290    -0.1650 H     1 <1>   0.0800 
 41 H       -9.5680     2.0700    -0.0410 H     1 <1>   0.0800 
 42 H       -8.3700     1.9710    -1.3040 H     1 <1>   0.0800 
@<TRIPOS>BOND
  1   1   2  1   
  2   1   3  1   
  3   2   4  1   
  4   2   5  2   
  5   3   6  2   
  6   3   7  1   
  7   4   8  2   
  8   5   6  1   
  9   5   9  1   
 10   6  10  1   
 11   7  11  1   
 12   7  25  1   
 13   7  26  1   
 14   8  12  1   
 15   8  13  1   
 16   9  12  ar  
 17   9  14  ar  
 18  10  15  1   
 19  10  27  1   
 20  10  28  1   
 21  11  15  1   
 22  12  16  1   
 23  13  29  1   
 24  13  30  1   
 25  13  31  1   
 26  14  17  1   
 27  14  32  1   
 28  15  18  1   
 29  15  19  1   
 30  16  17  2   
 31  17  20  1   
 32  18  33  1   
 33  18  34  1   
 34  18  35  1   
 35  19  36  1   
 36  19  37  1   
 37  19  38  1   
 38  20  21  1   
 39  20  39  1   
 40  20  40  1   
 41  21  22  1   
 42  21  41  1   
 43  21  42  1   
 44  22  23  ar  
 45  22  24  ar  
@<TRIPOS>SUBSTRUCTURE
  1 ****   5 GROUP 4 **** **** 0

# MOE 2024.06 (io_trps.svl 2023.06)
