@<TRIPOS>MOLECULE
NONAME
43 44 1 0 0 
SMALL
USER_CHARGES


@<TRIPOS>ATOM
  1 O       -0.6640     0.4870    -1.2350 O.2   1 <1>  -0.5700 
  2 C       -0.1840     1.2940    -0.4640 C.2   1 <1>   0.5440 
  3 N        1.1090     1.1640    -0.0200 N.am  1 <1>  -0.5390 
  4 C       -0.9740     2.4080     0.0180 C.ar  1 <1>   0.0860 
  5 C        2.2210     0.6900    -0.7570 C.2   1 <1>   0.1230 
  6 C       -2.3040     2.2370     0.3990 C.ar  1 <1>  -0.1500 
  7 C       -0.4330     3.6910     0.1200 C.ar  1 <1>  -0.1500 
  8 C        3.2390     1.7240    -0.9680 C.2   1 <1>   0.6160 
  9 C        2.3040    -0.5940    -1.1990 C.2   1 <1>  -0.2760 
 10 C       -3.0570     3.2910     0.8820 C.ar  1 <1>  -0.1500 
 11 C       -1.1800     4.7500     0.6040 C.ar  1 <1>  -0.1500 
 12 O        2.8900     2.8130    -1.3920 O.2   1 <1>  -0.5700 
 13 N        4.5640     1.5480    -0.6170 N.am  1 <1>  -0.6600 
 14 C        3.3820    -1.1050    -2.1520 C.3   1 <1>  -0.1020 
 15 C        1.3330    -1.7140    -0.8290 C.3   1 <1>  -0.1020 
 16 C       -2.4940     4.5500     0.9890 C.ar  1 <1>  -0.1500 
 17 C        5.6200     2.5190    -1.0170 C.3   1 <1>   0.1400 
 18 C        5.0370     0.4700     0.2970 C.3   1 <1>   0.1400 
 19 C        6.2350     3.1590     0.2320 C.3   1 <1>  -0.1600 
 20 C        5.6540     1.0920     1.5550 C.3   1 <1>  -0.1600 
 21 C        6.7610     2.0980     1.2090 C.3   1 <1>  -0.1600 
 22 H        1.3670     1.9140     0.6200 H     1 <1>   0.3700 
 23 H       -2.7460     1.2590     0.3100 H     1 <1>   0.1500 
 24 H        0.5830     3.8670    -0.1960 H     1 <1>   0.1500 
 25 H       -4.0810     3.1340     1.1730 H     1 <1>   0.1500 
 26 H       -0.7420     5.7310     0.6750 H     1 <1>   0.1500 
 27 H        2.9210    -1.5660    -3.0070 H     1 <1>   0.0800 
 28 H        4.0000    -1.8350    -1.6600 H     1 <1>   0.0800 
 29 H        4.0100    -0.3110    -2.5130 H     1 <1>   0.0800 
 30 H        1.8710    -2.5860    -0.5030 H     1 <1>   0.0800 
 31 H        0.7330    -1.9740    -1.6830 H     1 <1>   0.0800 
 32 H        0.6730    -1.4230    -0.0330 H     1 <1>   0.0800 
 33 H       -3.0770     5.3730     1.3650 H     1 <1>   0.1500 
 34 H        6.3810     1.9980    -1.5710 H     1 <1>   0.0800 
 35 H        5.2140     3.2860    -1.6550 H     1 <1>   0.0800 
 36 H        4.2260    -0.1750     0.5870 H     1 <1>   0.0800 
 37 H        5.7730    -0.1250    -0.2160 H     1 <1>   0.0800 
 38 H        7.0380     3.8110    -0.0620 H     1 <1>   0.0800 
 39 H        5.4850     3.7610     0.7150 H     1 <1>   0.0800 
 40 H        4.8790     1.5860     2.1140 H     1 <1>   0.0800 
 41 H        6.0580     0.3110     2.1750 H     1 <1>   0.0800 
 42 H        7.1150     2.5740     2.1070 H     1 <1>   0.0800 
 43 H        7.5890     1.5780     0.7590 H     1 <1>   0.0800 
@<TRIPOS>BOND
  1   1   2  2   
  2   2   3  am  
  3   2   4  1   
  4   3   5  1   
  5   3  22  1   
  6   4   6  ar  
  7   4   7  ar  
  8   5   8  1   
  9   5   9  2   
 10   6  10  ar  
 11   6  23  1   
 12   7  11  ar  
 13   7  24  1   
 14   8  12  2   
 15   8  13  am  
 16   9  14  1   
 17   9  15  1   
 18  10  16  ar  
 19  10  25  1   
 20  11  16  ar  
 21  11  26  1   
 22  13  17  1   
 23  13  18  1   
 24  14  27  1   
 25  14  28  1   
 26  14  29  1   
 27  15  30  1   
 28  15  31  1   
 29  15  32  1   
 30  16  33  1   
 31  17  19  1   
 32  17  34  1   
 33  17  35  1   
 34  18  20  1   
 35  18  36  1   
 36  18  37  1   
 37  19  21  1   
 38  19  38  1   
 39  19  39  1   
 40  20  21  1   
 41  20  40  1   
 42  20  41  1   
 43  21  42  1   
 44  21  43  1   
@<TRIPOS>SUBSTRUCTURE
  1 ****   3 GROUP 4 **** **** 0

# MOE 2024.06 (io_trps.svl 2023.06)
