@<TRIPOS>MOLECULE
NONAME
39 40 1 0 0 
SMALL
USER_CHARGES


@<TRIPOS>ATOM
  1 BR      -0.1810    -0.6440     1.1230 Br    1 <1>  -0.1110 
  2 C        1.6220    -1.0160     0.5460 C.ar  1 <1>   0.1110 
  3 C        2.3460    -2.0360     1.1460 C.ar  1 <1>  -0.1440 
  4 C        2.1400    -0.2350    -0.4710 C.ar  1 <1>  -0.1500 
  5 C        3.6370    -2.2620     0.6940 C.ar  1 <1>  -0.1500 
  6 C        1.7550    -2.8870     2.2590 C.3   1 <1>  -0.0960 
  7 C        3.4310    -0.4740    -0.9100 C.ar  1 <1>  -0.1500 
  8 C        4.1850    -1.4900    -0.3230 C.ar  1 <1>   0.0830 
  9 O        5.4580    -1.7870    -0.6850 O.3   1 <1>  -0.3630 
 10 C        6.1180    -1.0620    -1.7140 C.3   1 <1>   0.1810 
 11 C        7.5480    -1.5610    -1.9260 C.2   1 <1>   0.5690 
 12 O        7.9020    -1.7330    -3.0670 O.2   1 <1>  -0.5700 
 13 N        8.4240    -1.7850    -0.8830 N.am  1 <1>  -0.6600 
 14 C        9.7200    -2.4980    -1.1270 C.3   1 <1>   0.1400 
 15 C        8.1430    -1.4570     0.5510 C.3   1 <1>   0.1400 
 16 C       10.8950    -1.7850    -0.4360 C.3   1 <1>   0.3430 
 17 C        9.3560    -0.7890     1.2320 C.3   1 <1>   0.3430 
 18 N       10.6310    -1.5630     1.0310 N.4   1 <1>  -0.9590 
 19 C       11.7880    -0.8800     1.6860 C.3   1 <1>   0.2630 
 20 H        1.5400     0.5430    -0.9090 H     1 <1>   0.1500 
 21 H        4.2320    -3.0450     1.1250 H     1 <1>   0.1500 
 22 H        0.8810    -3.4030     1.9020 H     1 <1>   0.0800 
 23 H        1.4760    -2.2650     3.0910 H     1 <1>   0.0800 
 24 H        2.4640    -3.6180     2.6030 H     1 <1>   0.0800 
 25 H        3.8200     0.1360    -1.7030 H     1 <1>   0.1500 
 26 H        6.1370    -0.0230    -1.4450 H     1 <1>   0.0800 
 27 H        5.5600    -1.1930    -2.6230 H     1 <1>   0.0800 
 28 H        9.9290    -2.5570    -2.1810 H     1 <1>   0.0800 
 29 H        9.6400    -3.5060    -0.7600 H     1 <1>   0.0800 
 30 H        7.8820    -2.3610     1.0740 H     1 <1>   0.0800 
 31 H        7.3060    -0.7860     0.6280 H     1 <1>   0.0800 
 32 H       11.0530    -0.8380    -0.9250 H     1 <1>   0.0800 
 33 H       11.7870    -2.3760    -0.5640 H     1 <1>   0.0800 
 34 H        9.1520    -0.6850     2.2850 H     1 <1>   0.0800 
 35 H        9.4690     0.2020     0.8220 H     1 <1>   0.0800 
 36 H       10.5040    -2.4900     1.4640 H     1 <1>   0.4500 
 37 H       11.9460     0.0930     1.2490 H     1 <1>   0.0800 
 38 H       12.6870    -1.4630     1.5630 H     1 <1>   0.0800 
 39 H       11.6030    -0.7570     2.7420 H     1 <1>   0.0800 
@<TRIPOS>BOND
  1   1   2  1   
  2   2   3  ar  
  3   2   4  ar  
  4   3   5  ar  
  5   3   6  1   
  6   4   7  ar  
  7   4  20  1   
  8   5   8  ar  
  9   5  21  1   
 10   6  22  1   
 11   6  23  1   
 12   6  24  1   
 13   7   8  ar  
 14   7  25  1   
 15   8   9  1   
 16   9  10  1   
 17  10  11  1   
 18  10  26  1   
 19  10  27  1   
 20  11  12  2   
 21  11  13  am  
 22  13  14  1   
 23  13  15  1   
 24  14  16  1   
 25  14  28  1   
 26  14  29  1   
 27  15  17  1   
 28  15  30  1   
 29  15  31  1   
 30  16  18  1   
 31  16  32  1   
 32  16  33  1   
 33  17  18  1   
 34  17  34  1   
 35  17  35  1   
 36  18  19  1   
 37  18  36  1   
 38  19  37  1   
 39  19  38  1   
 40  19  39  1   
@<TRIPOS>SUBSTRUCTURE
  1 ****   9 GROUP 4 **** **** 0

# MOE 2024.06 (io_trps.svl 2023.06)
