@<TRIPOS>MOLECULE
NONAME
53 56 1 0 0 
SMALL
USER_CHARGES


@<TRIPOS>ATOM
  1 S       -0.7240    -1.6030    -0.1100 S.o2  1 <1>   1.4470 
  2 O       -1.7020    -0.5800     0.1900 O.2   1 <1>  -0.6500 
  3 O       -0.9160    -2.3850    -1.3150 O.2   1 <1>  -0.6500 
  4 N       -0.7230    -2.7180     1.1600 N.am  1 <1>  -0.8490 
  5 C        0.9420    -0.8890    -0.0600 C.ar  1 <1>  -0.0090 
  6 C       -1.9410    -3.5460     1.2150 C.3   1 <1>   0.3370 
  7 C        0.3830    -3.6690     1.1080 C.3   1 <1>   0.1960 
  8 C        1.8500    -1.0780    -1.0720 C.ar  1 <1>  -0.1500 
  9 C        1.3440    -0.1300     1.0520 C.ar  1 <1>  -0.1500 
 10 C       -3.2650    -2.8150     1.5920 C.2   1 <1>   0.5690 
 11 C       -1.5470    -4.6650     2.1840 C.3   1 <1>  -0.1600 
 12 C       -0.0440    -4.8440     1.9820 C.3   1 <1>  -0.1600 
 13 C        3.1540    -0.5460    -1.0270 C.ar  1 <1>   0.0000 
 14 C        2.6010     0.4020     1.1300 C.ar  1 <1>  -0.1500 
 15 O       -3.5450    -2.6990     2.7640 O.2   1 <1>  -0.5700 
 16 N       -4.1270    -2.3020     0.6400 N.am  1 <1>  -0.6600 
 17 C        3.5390     0.2090     0.1000 C.ar  1 <1>   0.0000 
 18 C        4.0890    -0.7420    -2.0630 C.ar  1 <1>  -0.1500 
 19 C       -4.0260    -2.5240    -0.8400 C.3   1 <1>   0.1400 
 20 C       -5.0310    -1.1730     1.0350 C.3   1 <1>   0.1400 
 21 C        4.8450     0.7380     0.1490 C.ar  1 <1>  -0.1500 
 22 C        5.3500    -0.2180    -1.9900 C.ar  1 <1>  -0.1500 
 23 C       -5.4120    -2.5690    -1.5100 C.3   1 <1>   0.3430 
 24 C       -6.3960    -1.2510     0.3310 C.3   1 <1>   0.3430 
 25 C        5.7320     0.5310    -0.8710 C.ar  1 <1>  -0.1500 
 26 N       -6.2470    -1.3690    -1.1610 N.4   1 <1>  -0.9590 
 27 C       -7.5780    -1.4130    -1.8370 C.3   1 <1>   0.2630 
 28 H       -2.0690    -4.0140     0.2590 H     1 <1>   0.0800 
 29 H        1.2930    -3.2200     1.4720 H     1 <1>   0.0800 
 30 H        0.5350    -4.0130     0.0970 H     1 <1>   0.0800 
 31 H        1.5750    -1.6520    -1.9400 H     1 <1>   0.1500 
 32 H        0.6340     0.0250     1.8500 H     1 <1>   0.1500 
 33 H       -2.1000    -5.5660     1.9890 H     1 <1>   0.0800 
 34 H       -1.7330    -4.3580     3.1990 H     1 <1>   0.0800 
 35 H        0.4690    -4.8110     2.9270 H     1 <1>   0.0800 
 36 H        0.1840    -5.7740     1.4930 H     1 <1>   0.0800 
 37 H        2.8940     0.9820     1.9880 H     1 <1>   0.1500 
 38 H        3.7920    -1.3160    -2.9230 H     1 <1>   0.1500 
 39 H       -3.5200    -3.4460    -1.0550 H     1 <1>   0.0800 
 40 H       -3.4570    -1.7240    -1.2820 H     1 <1>   0.0800 
 41 H       -4.5480    -0.2420     0.7910 H     1 <1>   0.0800 
 42 H       -5.2000    -1.1730     2.0990 H     1 <1>   0.0800 
 43 H        5.1330     1.3140     1.0100 H     1 <1>   0.1500 
 44 H        6.0600    -0.3710    -2.7840 H     1 <1>   0.1500 
 45 H       -5.9170    -3.4670    -1.1920 H     1 <1>   0.0800 
 46 H       -5.2810    -2.6250    -2.5790 H     1 <1>   0.0800 
 47 H       -6.9650    -0.3690     0.5760 H     1 <1>   0.0800 
 48 H       -6.9280    -2.1050     0.7150 H     1 <1>   0.0800 
 49 H        6.7280     0.9370    -0.8290 H     1 <1>   0.1500 
 50 H       -5.7320    -0.5340    -1.4810 H     1 <1>   0.4500 
 51 H       -8.1350    -2.2780    -1.5140 H     1 <1>   0.0800 
 52 H       -7.4530    -1.4620    -2.9070 H     1 <1>   0.0800 
 53 H       -8.1470    -0.5280    -1.6010 H     1 <1>   0.0800 
@<TRIPOS>BOND
  1   1   2  2   
  2   1   3  2   
  3   1   4  am  
  4   1   5  1   
  5   4   6  1   
  6   4   7  1   
  7   5   8  ar  
  8   5   9  ar  
  9   6  10  1   
 10   6  11  1   
 11   6  28  1   
 12   7  12  1   
 13   7  29  1   
 14   7  30  1   
 15   8  13  ar  
 16   8  31  1   
 17   9  14  ar  
 18   9  32  1   
 19  10  15  2   
 20  10  16  am  
 21  11  12  1   
 22  11  33  1   
 23  11  34  1   
 24  12  35  1   
 25  12  36  1   
 26  13  17  ar  
 27  13  18  ar  
 28  14  17  ar  
 29  14  37  1   
 30  16  19  1   
 31  16  20  1   
 32  17  21  ar  
 33  18  22  ar  
 34  18  38  1   
 35  19  23  1   
 36  19  39  1   
 37  19  40  1   
 38  20  24  1   
 39  20  41  1   
 40  20  42  1   
 41  21  25  ar  
 42  21  43  1   
 43  22  25  ar  
 44  22  44  1   
 45  23  26  1   
 46  23  45  1   
 47  23  46  1   
 48  24  26  1   
 49  24  47  1   
 50  24  48  1   
 51  25  49  1   
 52  26  27  1   
 53  26  50  1   
 54  27  51  1   
 55  27  52  1   
 56  27  53  1   
@<TRIPOS>SUBSTRUCTURE
  1 ****   1 GROUP 4 **** **** 0

# MOE 2024.06 (io_trps.svl 2023.06)
