@<TRIPOS>MOLECULE
NONAME
51 52 1 0 0 
SMALL
USER_CHARGES


@<TRIPOS>ATOM
  1 O       -0.0070    -3.7620    -1.2090 O.2   1 <1>  -0.5700 
  2 C        0.1950    -2.8750    -0.4220 C.2   1 <1>   0.6590 
  3 O       -0.5460    -1.7780    -0.3760 O.3   1 <1>  -0.4300 
  4 C        1.3430    -2.9350     0.5840 C.3   1 <1>  -0.0190 
  5 C       -1.6330    -1.5880    -1.2530 C.3   1 <1>   0.1200 
  6 C        2.5600    -2.1480     0.0660 C.3   1 <1>  -0.1600 
  7 C        1.7560    -4.3830     0.9200 C.3   1 <1>  -0.1600 
  8 C       -2.2590    -0.2330    -0.9430 C.3   1 <1>  -0.2400 
  9 C        3.7510    -2.2390     1.0200 C.3   1 <1>   0.3430 
 10 C        2.9560    -4.4320     1.8630 C.3   1 <1>   0.3430 
 11 N        4.0880    -3.6730     1.2640 N.4   1 <1>  -0.9590 
 12 C        5.3310    -3.8180     2.0720 C.3   1 <1>   0.4860 
 13 C        6.4830    -3.2070     1.2970 C.ar  1 <1>  -0.1440 
 14 C        6.9370    -3.8090     0.1330 C.ar  1 <1>  -0.1500 
 15 C        7.0790    -2.0320     1.7320 C.ar  1 <1>  -0.1500 
 16 C        7.9610    -3.2320    -0.5990 C.ar  1 <1>   0.0820 
 17 C        8.1030    -1.4510     1.0020 C.ar  1 <1>  -0.1500 
 18 O        8.3500    -3.8330    -1.7490 O.3   1 <1>  -0.3620 
 19 C        8.5490    -2.0390    -0.1780 C.ar  1 <1>   0.0820 
 20 C        9.1740    -4.9750    -1.6470 C.3   1 <1>   0.1200 
 21 O        9.5390    -1.5020    -0.9440 O.3   1 <1>  -0.3630 
 22 C       10.6180    -4.5480    -1.3850 C.3   1 <1>  -0.2400 
 23 C       10.2010    -0.3110    -0.5820 C.3   1 <1>   0.0400 
 24 H        0.9920    -2.4670     1.4880 H     1 <1>   0.0800 
 25 H       -2.3410    -2.3860    -1.0990 H     1 <1>   0.0800 
 26 H       -1.2660    -1.6230    -2.2660 H     1 <1>   0.0800 
 27 H        2.2900    -1.1120    -0.0550 H     1 <1>   0.0800 
 28 H        2.8520    -2.5160    -0.9030 H     1 <1>   0.0800 
 29 H        1.9960    -4.9200     0.0180 H     1 <1>   0.0800 
 30 H        0.9260    -4.8910     1.3800 H     1 <1>   0.0800 
 31 H       -2.6130    -0.2090     0.0720 H     1 <1>   0.0800 
 32 H       -3.0940    -0.0630    -1.5990 H     1 <1>   0.0800 
 33 H       -1.5410     0.5530    -1.0950 H     1 <1>   0.0800 
 34 H        3.5070    -1.7550     1.9520 H     1 <1>   0.0800 
 35 H        4.5940    -1.7270     0.5820 H     1 <1>   0.0800 
 36 H        3.2410    -5.4600     2.0240 H     1 <1>   0.0800 
 37 H        2.6870    -4.0000     2.8140 H     1 <1>   0.0800 
 38 H        4.2960    -4.0790     0.3420 H     1 <1>   0.4500 
 39 H        5.5400    -4.8600     2.2510 H     1 <1>   0.0800 
 40 H        5.2210    -3.3220     3.0220 H     1 <1>   0.0800 
 41 H        6.5080    -4.7240    -0.2320 H     1 <1>   0.1500 
 42 H        6.7570    -1.5510     2.6410 H     1 <1>   0.1500 
 43 H        8.5420    -0.5400     1.3660 H     1 <1>   0.1500 
 44 H        9.1090    -5.5000    -2.5840 H     1 <1>   0.0800 
 45 H        8.8060    -5.6090    -0.8610 H     1 <1>   0.0800 
 46 H       10.9460    -3.8720    -2.1550 H     1 <1>   0.0800 
 47 H       11.2590    -5.4100    -1.3880 H     1 <1>   0.0800 
 48 H       10.7010    -4.0650    -0.4280 H     1 <1>   0.0800 
 49 H       10.9370    -0.0980    -1.3360 H     1 <1>   0.0800 
 50 H       10.6830    -0.4540     0.3680 H     1 <1>   0.0800 
 51 H        9.4830     0.4890    -0.5380 H     1 <1>   0.0800 
@<TRIPOS>BOND
  1   1   2  2   
  2   2   3  1   
  3   2   4  1   
  4   3   5  1   
  5   4   6  1   
  6   4   7  1   
  7   4  24  1   
  8   5   8  1   
  9   5  25  1   
 10   5  26  1   
 11   6   9  1   
 12   6  27  1   
 13   6  28  1   
 14   7  10  1   
 15   7  29  1   
 16   7  30  1   
 17   8  31  1   
 18   8  32  1   
 19   8  33  1   
 20   9  11  1   
 21   9  34  1   
 22   9  35  1   
 23  10  11  1   
 24  10  36  1   
 25  10  37  1   
 26  11  12  1   
 27  11  38  1   
 28  12  13  1   
 29  12  39  1   
 30  12  40  1   
 31  13  14  ar  
 32  13  15  ar  
 33  14  16  ar  
 34  14  41  1   
 35  15  17  ar  
 36  15  42  1   
 37  16  18  1   
 38  16  19  ar  
 39  17  19  ar  
 40  17  43  1   
 41  18  20  1   
 42  19  21  1   
 43  20  22  1   
 44  20  44  1   
 45  20  45  1   
 46  21  23  1   
 47  22  46  1   
 48  22  47  1   
 49  22  48  1   
 50  23  49  1   
 51  23  50  1   
 52  23  51  1   
@<TRIPOS>SUBSTRUCTURE
  1 ****   9 GROUP 4 **** **** 0

# MOE 2024.06 (io_trps.svl 2023.06)
