@<TRIPOS>MOLECULE
NONAME
36 38 1 0 0 
SMALL
USER_CHARGES


@<TRIPOS>ATOM
  1 S        0.1110    -0.7160    -0.9980 S.3   1 <1>  -0.0800 
  2 C        0.0980    -2.4720    -1.0210 C.2   1 <1>   0.4620 
  3 C        1.7740    -0.7610    -0.4970 C.2   1 <1>  -0.1100 
  4 N        1.2130    -3.0000    -0.6800 N.2   1 <1>  -0.5650 
  5 N       -1.0540    -3.1470    -1.3620 N.pl3 1 <1>  -0.8220 
  6 C        2.1810    -2.0420    -0.3810 C.2   1 <1>   0.1730 
  7 C       -0.9490    -4.6120    -1.6240 C.3   1 <1>   0.2090 
  8 C       -2.3610    -2.7330    -0.7750 C.3   1 <1>   0.2090 
  9 C        3.5060    -2.4780     0.0230 C.ar  1 <1>   0.0540 
 10 C       -1.1990    -5.3950    -0.3190 C.3   1 <1>   0.3430 
 11 C       -2.6370    -3.5350     0.5190 C.3   1 <1>   0.3430 
 12 C        4.0520    -3.6720    -0.4450 C.ar  1 <1>  -0.1500 
 13 C        4.2830    -1.7130     0.8920 C.ar  1 <1>  -0.1500 
 14 N       -2.5190    -5.0320     0.3280 N.4   1 <1>  -0.9590 
 15 C        5.3160    -4.0870    -0.0640 C.ar  1 <1>  -0.1500 
 16 C        5.5480    -2.1210     1.2770 C.ar  1 <1>  -0.1500 
 17 C       -2.6840    -5.7500     1.6280 C.3   1 <1>   0.2630 
 18 C        6.0670    -3.3100     0.7980 C.ar  1 <1>  -0.1500 
 19 H        2.2800     0.1740    -0.3450 H     1 <1>   0.1500 
 20 H        0.0300    -4.8500    -2.0060 H     1 <1>   0.0800 
 21 H       -1.6660    -4.8970    -2.3740 H     1 <1>   0.0800 
 22 H       -3.1450    -2.9080    -1.4920 H     1 <1>   0.0800 
 23 H       -2.3610    -1.6820    -0.5480 H     1 <1>   0.0800 
 24 H       -0.3900    -5.1700     0.3570 H     1 <1>   0.0800 
 25 H       -1.1690    -6.4510    -0.5310 H     1 <1>   0.0800 
 26 H       -3.6210    -3.2880     0.8820 H     1 <1>   0.0800 
 27 H       -1.9240    -3.2140     1.2610 H     1 <1>   0.0800 
 28 H        3.4790    -4.2820    -1.1200 H     1 <1>   0.1500 
 29 H        3.8950    -0.7890     1.2800 H     1 <1>   0.1500 
 30 H       -3.2690    -5.3250    -0.3150 H     1 <1>   0.4500 
 31 H        5.7160    -5.0120    -0.4400 H     1 <1>   0.1500 
 32 H        6.1300    -1.5140     1.9490 H     1 <1>   0.1500 
 33 H       -1.9040    -5.4610     2.3150 H     1 <1>   0.0800 
 34 H       -2.6310    -6.8160     1.4770 H     1 <1>   0.0800 
 35 H       -3.6380    -5.5140     2.0700 H     1 <1>   0.0800 
 36 H        7.0510    -3.6300     1.0960 H     1 <1>   0.1500 
@<TRIPOS>BOND
  1   1   2  1   
  2   1   3  1   
  3   2   4  2   
  4   2   5  1   
  5   3   6  2   
  6   3  19  1   
  7   4   6  1   
  8   5   7  1   
  9   5   8  1   
 10   6   9  1   
 11   7  10  1   
 12   7  20  1   
 13   7  21  1   
 14   8  11  1   
 15   8  22  1   
 16   8  23  1   
 17   9  12  ar  
 18   9  13  ar  
 19  10  14  1   
 20  10  24  1   
 21  10  25  1   
 22  11  14  1   
 23  11  26  1   
 24  11  27  1   
 25  12  15  ar  
 26  12  28  1   
 27  13  16  ar  
 28  13  29  1   
 29  14  17  1   
 30  14  30  1   
 31  15  18  ar  
 32  15  31  1   
 33  16  18  ar  
 34  16  32  1   
 35  17  33  1   
 36  17  34  1   
 37  17  35  1   
 38  18  36  1   
@<TRIPOS>SUBSTRUCTURE
  1 ****   4 GROUP 4 **** **** 0

# MOE 2024.06 (io_trps.svl 2023.06)
