@<TRIPOS>MOLECULE
NONAME
43 46 1 0 0 
SMALL
USER_CHARGES


@<TRIPOS>ATOM
  1 S       -1.0820     1.3010     0.0270 S.3   1 <1>  -0.0800 
  2 C       -2.5050     0.9910     1.0140 C.2   1 <1>  -0.1400 
  3 C       -0.5550     2.5770     1.1100 C.2   1 <1>  -0.1100 
  4 C       -2.5290     1.8190     2.0760 C.2   1 <1>  -0.1500 
  5 C       -3.4460    -0.1120     0.5650 C.3   1 <1>   0.2900 
  6 C       -1.4200     2.7230     2.1290 C.2   1 <1>  -0.1500 
  7 N       -4.6110     0.4380    -0.1620 N.3   1 <1>  -0.8100 
  8 C       -4.2180     1.2160    -1.3660 C.3   1 <1>   0.1100 
  9 C       -5.5760    -0.6290    -0.5180 C.3   1 <1>   0.1100 
 10 C       -5.4360     1.7390    -2.1650 C.3   1 <1>   0.3430 
 11 C       -6.8330    -0.0730    -1.2330 C.3   1 <1>   0.3430 
 12 N       -6.7170     1.4060    -1.4670 N.4   1 <1>  -0.9590 
 13 C       -7.9210     2.0250    -2.0760 C.3   1 <1>   0.4860 
 14 C       -9.1300     1.7040    -1.2170 C.ar  1 <1>  -0.1430 
 15 C       -9.2630     2.2880     0.0410 C.ar  1 <1>  -0.1500 
 16 C      -10.1040     0.8180    -1.6830 C.ar  1 <1>  -0.1500 
 17 C      -10.3670     1.9540     0.7990 C.ar  1 <1>   0.0830 
 18 C      -11.2080     0.4980    -0.9040 C.ar  1 <1>  -0.1500 
 19 O      -10.6900     2.3840     2.0220 O.3   1 <1>  -0.3630 
 20 C      -11.3120     1.0840     0.3420 C.ar  1 <1>   0.0830 
 21 C      -11.9290     1.7610     2.3610 C.3   1 <1>   0.4000 
 22 O      -12.2740     0.9270     1.2560 O.3   1 <1>  -0.3620 
 23 H        0.3600     3.0880     0.8660 H     1 <1>   0.1500 
 24 H       -3.2880     1.8350     2.8380 H     1 <1>   0.1500 
 25 H       -3.7950    -0.6320     1.4410 H     1 <1>   0.0800 
 26 H       -2.9130    -0.8160    -0.0520 H     1 <1>   0.0800 
 27 H       -1.3260     3.4340     2.9310 H     1 <1>   0.1500 
 28 H       -3.6010     0.6120    -2.0120 H     1 <1>   0.0800 
 29 H       -3.6310     2.0670    -1.0660 H     1 <1>   0.0800 
 30 H       -5.8890    -1.1420     0.3760 H     1 <1>   0.0800 
 31 H       -5.0990    -1.3540    -1.1560 H     1 <1>   0.0800 
 32 H       -5.4270     1.3010    -3.1490 H     1 <1>   0.0800 
 33 H       -5.3410     2.8070    -2.2790 H     1 <1>   0.0800 
 34 H       -7.6960    -0.2790    -0.6200 H     1 <1>   0.0800 
 35 H       -6.9670    -0.5890    -2.1690 H     1 <1>   0.0800 
 36 H       -6.5940     1.7820    -0.5140 H     1 <1>   0.4500 
 37 H       -8.0710     1.6430    -3.0720 H     1 <1>   0.0800 
 38 H       -7.7990     3.0940    -2.1340 H     1 <1>   0.0800 
 39 H       -8.5470     2.9830     0.4410 H     1 <1>   0.1500 
 40 H      -10.0180     0.3680    -2.6580 H     1 <1>   0.1500 
 41 H      -11.9700    -0.1800    -1.2450 H     1 <1>   0.1500 
 42 H      -12.6870     2.5140     2.4940 H     1 <1>   0.0800 
 43 H      -11.8040     1.1600     3.2440 H     1 <1>   0.0800 
@<TRIPOS>BOND
  1   1   2  1   
  2   1   3  1   
  3   2   4  2   
  4   2   5  1   
  5   3   6  2   
  6   3  23  1   
  7   4   6  1   
  8   4  24  1   
  9   5   7  1   
 10   5  25  1   
 11   5  26  1   
 12   6  27  1   
 13   7   8  1   
 14   7   9  1   
 15   8  10  1   
 16   8  28  1   
 17   8  29  1   
 18   9  11  1   
 19   9  30  1   
 20   9  31  1   
 21  10  12  1   
 22  10  32  1   
 23  10  33  1   
 24  11  12  1   
 25  11  34  1   
 26  11  35  1   
 27  12  13  1   
 28  12  36  1   
 29  13  14  1   
 30  13  37  1   
 31  13  38  1   
 32  14  15  ar  
 33  14  16  ar  
 34  15  17  ar  
 35  15  39  1   
 36  16  18  ar  
 37  16  40  1   
 38  17  19  1   
 39  17  20  ar  
 40  18  20  ar  
 41  18  41  1   
 42  19  21  1   
 43  20  22  1   
 44  21  22  1   
 45  21  42  1   
 46  21  43  1   
@<TRIPOS>SUBSTRUCTURE
  1 ****  12 GROUP 4 **** **** 0

# MOE 2024.06 (io_trps.svl 2023.06)
