@<TRIPOS>MOLECULE
NONAME
54 56 1 0 0 
SMALL
USER_CHARGES


@<TRIPOS>ATOM
  1 O        0.4270     1.3380    -2.2420 O.2   1 <1>  -0.5700 
  2 C        0.4350     2.0270    -1.2490 C.2   1 <1>   0.4950 
  3 C        1.5980     2.2150    -0.4330 C.2   1 <1>   0.0290 
  4 C       -0.8900     2.6860    -0.9120 C.3   1 <1>  -0.0990 
  5 C        1.4970     3.0720     0.7160 C.2   1 <1>   0.4950 
  6 C        2.7690     1.5700    -0.7800 C.2   1 <1>  -0.0500 
  7 C       -0.6900     3.9880    -0.1390 C.3   1 <1>   0.0640 
  8 O        2.4140     3.3380     1.4610 O.2   1 <1>  -0.5700 
  9 C        0.1780     3.7240     1.0900 C.3   1 <1>  -0.0990 
 10 N        3.9500     1.6330    -0.1220 N.pl3 1 <1>  -0.8690 
 11 C       -2.0250     4.6200     0.2440 C.ar  1 <1>  -0.1430 
 12 C        5.2190     0.9730    -0.4970 C.3   1 <1>   0.3530 
 13 C       -2.9280     3.9650     1.0710 C.ar  1 <1>  -0.1500 
 14 C       -2.3520     5.8790    -0.2410 C.ar  1 <1>  -0.1500 
 15 C        6.3640     1.9610    -0.3400 C.ar  1 <1>  -0.1430 
 16 C       -4.1330     4.5570     1.4060 C.ar  1 <1>  -0.1500 
 17 C       -3.5570     6.4720     0.0940 C.ar  1 <1>  -0.1500 
 18 C        6.3080     3.2040    -0.9510 C.ar  1 <1>  -0.1500 
 19 C        7.4780     1.6280     0.4130 C.ar  1 <1>  -0.1500 
 20 C       -4.4490     5.8110     0.9180 C.ar  1 <1>  -0.1500 
 21 C        7.3540     4.1140    -0.8200 C.ar  1 <1>   0.0830 
 22 C        8.5300     2.5160     0.5610 C.ar  1 <1>   0.0830 
 23 O        7.3140     5.3470    -1.4020 O.3   1 <1>  -0.3620 
 24 C        8.4810     3.7610    -0.0750 C.ar  1 <1>   0.0830 
 25 O        9.5660     2.0890     1.3330 O.3   1 <1>  -0.3630 
 26 C        6.0850     5.9260    -1.7810 C.3   1 <1>   0.0400 
 27 O        9.5240     4.6320     0.0220 O.3   1 <1>  -0.3630 
 28 C       10.0900     2.9640     2.3090 C.3   1 <1>   0.0400 
 29 C       10.3830     4.6630    -1.0930 C.3   1 <1>   0.0400 
 30 H       -1.4780     1.9900    -0.3440 H     1 <1>   0.0800 
 31 H       -1.4210     2.8960    -1.8240 H     1 <1>   0.0800 
 32 H        2.7600     0.9460    -1.6630 H     1 <1>   0.1500 
 33 H       -0.1560     4.6730    -0.7780 H     1 <1>   0.0800 
 34 H        0.3730     4.6580     1.5870 H     1 <1>   0.0800 
 35 H       -0.3300     3.0830     1.7870 H     1 <1>   0.0800 
 36 H        4.0280     2.2260     0.7260 H     1 <1>   0.4000 
 37 H        5.1670     0.6330    -1.5170 H     1 <1>   0.0800 
 38 H        5.3720     0.1200     0.1410 H     1 <1>   0.0800 
 39 H       -2.7080     2.9890     1.4640 H     1 <1>   0.1500 
 40 H       -1.6730     6.4120    -0.8830 H     1 <1>   0.1500 
 41 H       -4.8270     4.0410     2.0480 H     1 <1>   0.1500 
 42 H       -3.8000     7.4490    -0.2870 H     1 <1>   0.1500 
 43 H        5.4350     3.4460    -1.5290 H     1 <1>   0.1500 
 44 H        7.5450     0.6730     0.9020 H     1 <1>   0.1500 
 45 H       -5.3860     6.2720     1.1780 H     1 <1>   0.1500 
 46 H        6.2670     6.9530    -2.0410 H     1 <1>   0.0800 
 47 H        5.4040     5.8740    -0.9500 H     1 <1>   0.0800 
 48 H        5.6970     5.3970    -2.6330 H     1 <1>   0.0800 
 49 H        9.2870     3.5450     2.7300 H     1 <1>   0.0800 
 50 H       10.5580     2.3720     3.0740 H     1 <1>   0.0800 
 51 H       10.8190     3.6050     1.8490 H     1 <1>   0.0800 
 52 H       10.7810     3.6760    -1.2510 H     1 <1>   0.0800 
 53 H        9.8270     4.9870    -1.9550 H     1 <1>   0.0800 
 54 H       11.1780     5.3560    -0.8860 H     1 <1>   0.0800 
@<TRIPOS>BOND
  1   1   2  2   
  2   2   3  1   
  3   2   4  1   
  4   3   5  1   
  5   3   6  2   
  6   4   7  1   
  7   4  30  1   
  8   4  31  1   
  9   5   8  2   
 10   5   9  1   
 11   6  10  1   
 12   6  32  1   
 13   7   9  1   
 14   7  11  1   
 15   7  33  1   
 16   9  34  1   
 17   9  35  1   
 18  10  12  1   
 19  10  36  1   
 20  11  13  ar  
 21  11  14  ar  
 22  12  15  1   
 23  12  37  1   
 24  12  38  1   
 25  13  16  ar  
 26  13  39  1   
 27  14  17  ar  
 28  14  40  1   
 29  15  18  ar  
 30  15  19  ar  
 31  16  20  ar  
 32  16  41  1   
 33  17  20  ar  
 34  17  42  1   
 35  18  21  ar  
 36  18  43  1   
 37  19  22  ar  
 38  19  44  1   
 39  20  45  1   
 40  21  23  1   
 41  21  24  ar  
 42  22  24  ar  
 43  22  25  1   
 44  23  26  1   
 45  24  27  1   
 46  25  28  1   
 47  26  46  1   
 48  26  47  1   
 49  26  48  1   
 50  27  29  1   
 51  28  49  1   
 52  28  50  1   
 53  28  51  1   
 54  29  52  1   
 55  29  53  1   
 56  29  54  1   
@<TRIPOS>SUBSTRUCTURE
  1 ****   8 GROUP 4 **** **** 0

# MOE 2024.06 (io_trps.svl 2023.06)
