@<TRIPOS>MOLECULE
NONAME
51 53 1 0 0 
SMALL
USER_CHARGES


@<TRIPOS>ATOM
  1 O       -1.5700    -0.2670    -0.4580 O.2   1 <1>  -0.5700 
  2 C       -2.3420    -1.0540     0.0550 C.2   1 <1>   0.7060 
  3 O       -3.6420    -0.8120    -0.0820 O.3   1 <1>  -0.2330 
  4 C       -1.9260    -2.2130     0.7940 C.2   1 <1>  -0.1240 
  5 C       -4.6070    -1.5840     0.4610 C.ar  1 <1>   0.0820 
  6 C       -2.8500    -3.0560     1.3300 C.2   1 <1>  -0.1670 
  7 C       -0.4030    -2.3960     0.8920 C.3   1 <1>   0.0390 
  8 C       -4.2490    -2.7300     1.1930 C.ar  1 <1>   0.0280 
  9 C       -5.9370    -1.2090     0.2760 C.ar  1 <1>  -0.1440 
 10 C       -2.5000    -4.3560     2.0600 C.3   1 <1>  -0.1020 
 11 C        0.2100    -2.9500    -0.3810 C.2   1 <1>   0.6590 
 12 C       -5.2890    -3.4820     1.7520 C.ar  1 <1>  -0.1500 
 13 C       -6.9350    -2.0080     0.8200 C.ar  1 <1>   0.0830 
 14 C       -6.2870     0.0590    -0.5040 C.3   1 <1>  -0.0960 
 15 O        1.3640    -2.7440    -0.6570 O.2   1 <1>  -0.5700 
 16 O       -0.5750    -3.6960    -1.1510 O.3   1 <1>  -0.4300 
 17 C       -6.6080    -3.1280     1.5670 C.ar  1 <1>  -0.1500 
 18 O       -8.2400    -1.7240     0.6550 O.3   1 <1>  -0.3630 
 19 C       -0.1140    -4.2490    -2.3650 C.3   1 <1>   0.0400 
 20 C       -8.8160    -2.0340    -0.6080 C.3   1 <1>   0.1810 
 21 C       -9.5800    -0.8450    -1.1890 C.2   1 <1>   0.5690 
 22 O       -9.2400    -0.4600    -2.2840 O.2   1 <1>  -0.5700 
 23 N      -10.6180    -0.2460    -0.5140 N.am  1 <1>  -0.6600 
 24 C      -11.3220     0.9500    -1.0670 C.3   1 <1>   0.1400 
 25 C      -11.1080    -0.6380     0.8430 C.3   1 <1>   0.1400 
 26 C      -12.8450     0.8040    -0.9230 C.3   1 <1>   0.1200 
 27 C      -12.6450    -0.6840     0.8790 C.3   1 <1>   0.1200 
 28 O      -13.1910     0.5120     0.4010 O.3   1 <1>  -0.5600 
 29 H       -0.1250    -3.0340     1.7050 H     1 <1>   0.0800 
 30 H        0.0600    -1.4470     1.0950 H     1 <1>   0.0800 
 31 H       -2.7310    -4.2640     3.1060 H     1 <1>   0.0800 
 32 H       -1.4700    -4.6340     1.9630 H     1 <1>   0.0800 
 33 H       -3.0700    -5.1700     1.6480 H     1 <1>   0.0800 
 34 H       -5.0790    -4.3540     2.3410 H     1 <1>   0.1500 
 35 H       -6.4000    -0.1710    -1.5480 H     1 <1>   0.0800 
 36 H       -5.5220     0.8060    -0.3970 H     1 <1>   0.0800 
 37 H       -7.2040     0.4890    -0.1440 H     1 <1>   0.0800 
 38 H       -7.3970    -3.7160     2.0000 H     1 <1>   0.1500 
 39 H       -0.9180    -4.8020    -2.8160 H     1 <1>   0.0800 
 40 H        0.7170    -4.9020    -2.1580 H     1 <1>   0.0800 
 41 H        0.1960    -3.4480    -3.0150 H     1 <1>   0.0800 
 42 H       -9.4820    -2.8650    -0.4740 H     1 <1>   0.0800 
 43 H       -8.0360    -2.3210    -1.2900 H     1 <1>   0.0800 
 44 H      -11.0780     1.0870    -2.1060 H     1 <1>   0.0800 
 45 H      -10.9990     1.8270    -0.5340 H     1 <1>   0.0800 
 46 H      -10.7600     0.0820     1.5630 H     1 <1>   0.0800 
 47 H      -10.7270    -1.6010     1.1280 H     1 <1>   0.0800 
 48 H      -13.2110     0.0170    -1.5590 H     1 <1>   0.0800 
 49 H      -13.3330     1.7230    -1.1950 H     1 <1>   0.0800 
 50 H      -12.9880    -0.8200     1.8890 H     1 <1>   0.0800 
 51 H      -13.0150    -1.4960     0.2760 H     1 <1>   0.0800 
@<TRIPOS>BOND
  1   1   2  2   
  2   2   3  1   
  3   2   4  1   
  4   3   5  1   
  5   4   6  2   
  6   4   7  1   
  7   5   8  ar  
  8   5   9  ar  
  9   6   8  1   
 10   6  10  1   
 11   7  11  1   
 12   7  29  1   
 13   7  30  1   
 14   8  12  ar  
 15   9  13  ar  
 16   9  14  1   
 17  10  31  1   
 18  10  32  1   
 19  10  33  1   
 20  11  15  2   
 21  11  16  1   
 22  12  17  ar  
 23  12  34  1   
 24  13  17  ar  
 25  13  18  1   
 26  14  35  1   
 27  14  36  1   
 28  14  37  1   
 29  16  19  1   
 30  17  38  1   
 31  18  20  1   
 32  19  39  1   
 33  19  40  1   
 34  19  41  1   
 35  20  21  1   
 36  20  42  1   
 37  20  43  1   
 38  21  22  2   
 39  21  23  am  
 40  23  24  1   
 41  23  25  1   
 42  24  26  1   
 43  24  44  1   
 44  24  45  1   
 45  25  27  1   
 46  25  46  1   
 47  25  47  1   
 48  26  28  1   
 49  26  48  1   
 50  26  49  1   
 51  27  28  1   
 52  27  50  1   
 53  27  51  1   
@<TRIPOS>SUBSTRUCTURE
  1 ****   9 GROUP 4 **** **** 0

# MOE 2024.06 (io_trps.svl 2023.06)
