@<TRIPOS>MOLECULE
NONAME
29 29 1 0 0 
SMALL
USER_CHARGES


@<TRIPOS>ATOM
  1 CL      -0.2610    -0.0850     1.1900 Cl    1 <1>  -0.1770 
  2 C       -1.6390    -1.0230     0.6640 C.ar  1 <1>   0.1770 
  3 C       -1.4980    -2.0690    -0.2370 C.ar  1 <1>  -0.0090 
  4 C       -2.8690    -0.6700     1.1920 C.ar  1 <1>  -0.1500 
  5 S        0.1110    -2.5280    -0.9180 S.o2  1 <1>   1.4470 
  6 C       -2.6530    -2.7590    -0.5970 C.ar  1 <1>  -0.1500 
  7 C       -4.0010    -1.3700     0.8210 C.ar  1 <1>  -0.1500 
  8 O        0.7510    -1.3730    -1.5020 O.2   1 <1>  -0.6500 
  9 O       -0.0520    -3.7220    -1.7160 O.2   1 <1>  -0.6500 
 10 N        0.9650    -3.0850     0.4180 N.am  1 <1>  -0.9140 
 11 C       -3.8910    -2.4170    -0.0760 C.ar  1 <1>  -0.1500 
 12 C        2.4040    -3.0440     0.4260 C.3   1 <1>   0.3560 
 13 C        2.9010    -1.6300     0.7260 C.3   1 <1>  -0.2400 
 14 C        3.0090    -3.5980    -0.8670 C.3   1 <1>  -0.2400 
 15 C        2.8140    -3.9530     1.5830 C.3   1 <1>  -0.2400 
 16 H       -2.9340     0.1480     1.8880 H     1 <1>   0.1500 
 17 H       -2.5870    -3.5770    -1.2960 H     1 <1>   0.1500 
 18 H       -4.9620    -1.1030     1.2270 H     1 <1>   0.1500 
 19 H        0.7330    -4.0730     0.4270 H     1 <1>   0.4200 
 20 H       -4.7690    -2.9670    -0.3710 H     1 <1>   0.1500 
 21 H        3.9640    -1.6390     0.8820 H     1 <1>   0.0800 
 22 H        2.4330    -1.2500     1.6160 H     1 <1>   0.0800 
 23 H        2.7030    -0.9580    -0.0860 H     1 <1>   0.0800 
 24 H        2.8330    -2.9370    -1.6960 H     1 <1>   0.0800 
 25 H        2.6070    -4.5680    -1.0960 H     1 <1>   0.0800 
 26 H        4.0750    -3.6930    -0.7600 H     1 <1>   0.0800 
 27 H        2.3880    -3.6000     2.5060 H     1 <1>   0.0800 
 28 H        3.8840    -3.9590     1.6910 H     1 <1>   0.0800 
 29 H        2.4920    -4.9640     1.4110 H     1 <1>   0.0800 
@<TRIPOS>BOND
  1   1   2  1   
  2   2   3  ar  
  3   2   4  ar  
  4   3   5  1   
  5   3   6  ar  
  6   4   7  ar  
  7   4  16  1   
  8   5   8  2   
  9   5   9  2   
 10   5  10  am  
 11   6  11  ar  
 12   6  17  1   
 13   7  11  ar  
 14   7  18  1   
 15  10  12  1   
 16  10  19  1   
 17  11  20  1   
 18  12  13  1   
 19  12  14  1   
 20  12  15  1   
 21  13  21  1   
 22  13  22  1   
 23  13  23  1   
 24  14  24  1   
 25  14  25  1   
 26  14  26  1   
 27  15  27  1   
 28  15  28  1   
 29  15  29  1   
@<TRIPOS>SUBSTRUCTURE
  1 ****   5 GROUP 4 **** **** 0

# MOE 2024.06 (io_trps.svl 2023.06)
