@<TRIPOS>MOLECULE
NONAME
44 45 1 0 0 
SMALL
USER_CHARGES


@<TRIPOS>ATOM
  1 S       -0.0150     0.5590     0.3120 S.o2  1 <1>   1.4470 
  2 O       -0.1400     1.4070    -0.8490 O.2   1 <1>  -0.6500 
  3 O        0.4720     1.1000     1.5610 O.2   1 <1>  -0.6500 
  4 N        1.0400    -0.6390    -0.1940 N.am  1 <1>  -0.9140 
  5 C       -1.5550    -0.3570     0.5950 C.ar  1 <1>  -0.0090 
  6 C        2.4360    -0.2710    -0.0800 C.3   1 <1>   0.2760 
  7 C       -2.3870    -0.7050    -0.4570 C.ar  1 <1>  -0.1500 
  8 C       -1.9280    -0.7610     1.8690 C.ar  1 <1>  -0.1500 
  9 C        3.1630    -0.7990    -1.3270 C.3   1 <1>  -0.1600 
 10 C        2.9750    -0.8400     1.2430 C.3   1 <1>  -0.1600 
 11 C       -3.5690    -1.4340    -0.2990 C.ar  1 <1>   0.0860 
 12 C       -3.0890    -1.4790     2.0760 C.ar  1 <1>  -0.1500 
 13 C        4.3880     0.0550    -1.6920 C.3   1 <1>  -0.1600 
 14 C        4.5000    -1.0050     1.3610 C.3   1 <1>  -0.1600 
 15 C       -3.9150    -1.8230     1.0080 C.ar  1 <1>   0.0830 
 16 C       -4.3560    -1.7470    -1.4830 C.2   1 <1>   0.5440 
 17 C        5.5990    -0.1180    -0.7650 C.3   1 <1>  -0.1600 
 18 C        5.3180     0.1280     0.7250 C.3   1 <1>  -0.1600 
 19 O       -5.0510    -2.5390     1.2070 O.3   1 <1>  -0.3630 
 20 O       -3.8640    -1.7170    -2.5920 O.2   1 <1>  -0.5700 
 21 N       -5.6650    -2.0750    -1.4390 N.am  1 <1>  -0.8000 
 22 C       -5.4360    -3.0480     2.4670 C.3   1 <1>   0.0400 
 23 H        0.8520    -0.6860    -1.1910 H     1 <1>   0.4200 
 24 H        2.5290     0.8040    -0.0700 H     1 <1>   0.0800 
 25 H       -2.1090    -0.3960    -1.4520 H     1 <1>   0.1500 
 26 H       -1.2980    -0.5090     2.7070 H     1 <1>   0.1500 
 27 H        2.4970    -0.7510    -2.1700 H     1 <1>   0.0800 
 28 H        3.4460    -1.8280    -1.1920 H     1 <1>   0.0800 
 29 H        2.5300    -1.8040     1.4210 H     1 <1>   0.0800 
 30 H        2.6520    -0.1890     2.0350 H     1 <1>   0.0800 
 31 H       -3.3290    -1.7620     3.0840 H     1 <1>   0.1500 
 32 H        4.1060     1.0950    -1.7160 H     1 <1>   0.0800 
 33 H        4.6980    -0.2070    -2.6890 H     1 <1>   0.0800 
 34 H        4.7940    -1.9470     0.9320 H     1 <1>   0.0800 
 35 H        4.7420    -1.0570     2.4090 H     1 <1>   0.0800 
 36 H        6.3600     0.5740    -1.0830 H     1 <1>   0.0800 
 37 H        6.0050    -1.1070    -0.8930 H     1 <1>   0.0800 
 38 H        6.2690     0.1680     1.2290 H     1 <1>   0.0800 
 39 H        4.8400     1.0800     0.8760 H     1 <1>   0.0800 
 40 H       -6.1450    -2.3470    -2.2950 H     1 <1>   0.3700 
 41 H       -6.1170    -2.2920    -0.5470 H     1 <1>   0.3700 
 42 H       -6.3470    -3.6060     2.3400 H     1 <1>   0.0800 
 43 H       -5.6040    -2.2270     3.1410 H     1 <1>   0.0800 
 44 H       -4.6610    -3.6980     2.8340 H     1 <1>   0.0800 
@<TRIPOS>BOND
  1   1   2  2   
  2   1   3  2   
  3   1   4  am  
  4   1   5  1   
  5   4   6  1   
  6   4  23  1   
  7   5   7  ar  
  8   5   8  ar  
  9   6   9  1   
 10   6  10  1   
 11   6  24  1   
 12   7  11  ar  
 13   7  25  1   
 14   8  12  ar  
 15   8  26  1   
 16   9  13  1   
 17   9  27  1   
 18   9  28  1   
 19  10  14  1   
 20  10  29  1   
 21  10  30  1   
 22  11  15  ar  
 23  11  16  1   
 24  12  15  ar  
 25  12  31  1   
 26  13  17  1   
 27  13  32  1   
 28  13  33  1   
 29  14  18  1   
 30  14  34  1   
 31  14  35  1   
 32  15  19  1   
 33  16  20  2   
 34  16  21  am  
 35  17  18  1   
 36  17  36  1   
 37  17  37  1   
 38  18  38  1   
 39  18  39  1   
 40  19  22  1   
 41  21  40  1   
 42  21  41  1   
 43  22  42  1   
 44  22  43  1   
 45  22  44  1   
@<TRIPOS>SUBSTRUCTURE
  1 ****   5 GROUP 4 **** **** 0

# MOE 2024.06 (io_trps.svl 2023.06)
