@<TRIPOS>MOLECULE
NONAME
47 48 1 0 0 
SMALL
USER_CHARGES


@<TRIPOS>ATOM
  1 F       -4.2260    -1.9180     0.7060 F     1 <1>  -0.1900 
  2 C       -5.0970    -2.8440     0.3920 C.ar  1 <1>   0.1900 
  3 C       -4.6970    -4.1250    -0.0100 C.ar  1 <1>   0.0830 
  4 C       -6.4300    -2.4860     0.4800 C.ar  1 <1>  -0.1500 
  5 O       -3.4200    -4.5890    -0.1330 O.3   1 <1>  -0.3630 
  6 C       -5.6940    -5.0390    -0.3220 C.ar  1 <1>  -0.1500 
  7 C       -7.4040    -3.4180     0.1630 C.ar  1 <1>  -0.1500 
  8 C       -2.2930    -3.7950     0.1420 C.3   1 <1>   0.1200 
  9 C       -7.0330    -4.6910    -0.2370 C.ar  1 <1>  -0.1500 
 10 C       -1.0560    -4.6550    -0.1070 C.3   1 <1>  -0.1600 
 11 C        0.2130    -3.8590     0.1860 C.3   1 <1>   0.3430 
 12 N        1.4220    -4.6560    -0.1690 N.4   1 <1>  -0.9590 
 13 C        1.6470    -5.7970     0.7700 C.3   1 <1>   0.3430 
 14 C        2.6220    -3.7770    -0.2560 C.3   1 <1>   0.3430 
 15 C        2.8100    -6.6500     0.2670 C.3   1 <1>  -0.1600 
 16 C        3.8080    -4.5800    -0.7860 C.3   1 <1>  -0.1600 
 17 C        4.0960    -5.8240     0.0760 C.3   1 <1>  -0.0190 
 18 C        5.2020    -6.6740    -0.5420 C.2   1 <1>   0.6590 
 19 O        5.0840    -7.1420    -1.6440 O.2   1 <1>  -0.5700 
 20 O        6.2780    -6.8590     0.2050 O.3   1 <1>  -0.4300 
 21 C        7.3680    -7.6270    -0.2540 C.3   1 <1>   0.1200 
 22 C        8.4310    -7.6400     0.8390 C.3   1 <1>  -0.2400 
 23 H       -6.7000    -1.4930     0.7920 H     1 <1>   0.1500 
 24 H       -5.4170    -6.0300    -0.6340 H     1 <1>   0.1500 
 25 H       -8.4460    -3.1530     0.2270 H     1 <1>   0.1500 
 26 H       -2.3470    -3.4800     1.1700 H     1 <1>   0.0800 
 27 H       -2.3140    -2.9430    -0.5160 H     1 <1>   0.0800 
 28 H       -7.7910    -5.4160    -0.4840 H     1 <1>   0.1500 
 29 H       -1.0620    -4.9670    -1.1370 H     1 <1>   0.0800 
 30 H       -1.1160    -5.5170     0.5320 H     1 <1>   0.0800 
 31 H        0.2430    -3.5810     1.2270 H     1 <1>   0.0800 
 32 H        0.1950    -2.9550    -0.4030 H     1 <1>   0.0800 
 33 H        1.2700    -5.0570    -1.1060 H     1 <1>   0.4500 
 34 H        0.7630    -6.4100     0.8340 H     1 <1>   0.0800 
 35 H        1.8710    -5.4220     1.7560 H     1 <1>   0.0800 
 36 H        2.8590    -3.3810     0.7190 H     1 <1>   0.0800 
 37 H        2.4280    -2.9490    -0.9200 H     1 <1>   0.0800 
 38 H        2.5290    -7.1160    -0.6630 H     1 <1>   0.0800 
 39 H        2.9970    -7.4400     0.9740 H     1 <1>   0.0800 
 40 H        4.6800    -3.9500    -0.8030 H     1 <1>   0.0800 
 41 H        3.6080    -4.8740    -1.8030 H     1 <1>   0.0800 
 42 H        4.4370    -5.4960     1.0430 H     1 <1>   0.0800 
 43 H        7.7470    -7.1780    -1.1570 H     1 <1>   0.0800 
 44 H        7.0190    -8.6240    -0.4660 H     1 <1>   0.0800 
 45 H        8.7650    -6.6390     1.0460 H     1 <1>   0.0800 
 46 H        9.2760    -8.2200     0.5140 H     1 <1>   0.0800 
 47 H        8.0380    -8.0830     1.7360 H     1 <1>   0.0800 
@<TRIPOS>BOND
  1   1   2  1   
  2   2   3  ar  
  3   2   4  ar  
  4   3   5  1   
  5   3   6  ar  
  6   4   7  ar  
  7   4  23  1   
  8   5   8  1   
  9   6   9  ar  
 10   6  24  1   
 11   7   9  ar  
 12   7  25  1   
 13   8  10  1   
 14   8  26  1   
 15   8  27  1   
 16   9  28  1   
 17  10  11  1   
 18  10  29  1   
 19  10  30  1   
 20  11  12  1   
 21  11  31  1   
 22  11  32  1   
 23  12  13  1   
 24  12  14  1   
 25  12  33  1   
 26  13  15  1   
 27  13  34  1   
 28  13  35  1   
 29  14  16  1   
 30  14  36  1   
 31  14  37  1   
 32  15  17  1   
 33  15  38  1   
 34  15  39  1   
 35  16  17  1   
 36  16  40  1   
 37  16  41  1   
 38  17  18  1   
 39  17  42  1   
 40  18  19  2   
 41  18  20  1   
 42  20  21  1   
 43  21  22  1   
 44  21  43  1   
 45  21  44  1   
 46  22  45  1   
 47  22  46  1   
 48  22  47  1   
@<TRIPOS>SUBSTRUCTURE
  1 ****  11 GROUP 4 **** **** 0

# MOE 2024.06 (io_trps.svl 2023.06)
