@<TRIPOS>MOLECULE
NONAME
44 46 1 0 0 
SMALL
USER_CHARGES


@<TRIPOS>ATOM
  1 O       -0.5700    -0.5860     0.6620 O.3   1 <1>  -0.3630 
  2 C       -1.8300    -0.6520     0.1940 C.ar  1 <1>   0.0830 
  3 C       -0.2990    -1.8210     1.3210 C.3   1 <1>   0.4000 
  4 C       -2.5800     0.2760    -0.5280 C.ar  1 <1>   0.0830 
  5 C       -2.3710    -1.8590     0.5360 C.ar  1 <1>   0.0830 
  6 O       -1.4920    -2.5930     1.2220 O.3   1 <1>  -0.3630 
  7 O       -2.1640     1.5080    -0.9270 O.3   1 <1>  -0.3630 
  8 C       -3.8790    -0.0730    -0.8800 C.ar  1 <1>  -0.1500 
  9 C       -3.6600    -2.2170     0.1940 C.ar  1 <1>  -0.1500 
 10 C       -0.8460     1.9460    -0.6750 C.3   1 <1>   0.0400 
 11 C       -4.4250    -1.3040    -0.5230 C.ar  1 <1>  -0.1430 
 12 C       -5.8480    -1.6350    -0.9020 C.3   1 <1>   0.4870 
 13 N       -6.6990    -1.0860     0.1730 N.4   1 <1>  -0.9060 
 14 C       -8.1510    -1.2410    -0.0320 C.3   1 <1>   0.4230 
 15 C       -8.8510    -0.2990     0.9560 C.3   1 <1>  -0.1600 
 16 C       -8.5240    -2.7240     0.1260 C.3   1 <1>  -0.1600 
 17 C      -10.3290    -0.0830     0.5990 C.3   1 <1>  -0.1600 
 18 C      -10.0280    -3.0320     0.0250 C.3   1 <1>  -0.1600 
 19 C      -11.2930    -1.1110     1.2090 C.3   1 <1>  -0.1600 
 20 C      -10.8110    -2.5680     1.2600 C.3   1 <1>  -0.1600 
 21 H       -0.0710    -1.6370     2.3560 H     1 <1>   0.0800 
 22 H        0.5040    -2.3300     0.8190 H     1 <1>   0.0800 
 23 H       -4.4460     0.6470    -1.4450 H     1 <1>   0.1500 
 24 H       -4.0270    -3.1850     0.4900 H     1 <1>   0.1500 
 25 H       -0.7320     2.9280    -1.0980 H     1 <1>   0.0800 
 26 H       -0.1560     1.2650    -1.1400 H     1 <1>   0.0800 
 27 H       -0.6870     1.9860     0.3880 H     1 <1>   0.0800 
 28 H       -5.9700    -2.7040    -0.9800 H     1 <1>   0.0800 
 29 H       -6.0930    -1.1830    -1.8500 H     1 <1>   0.0800 
 30 H       -6.4690    -0.0910     0.2670 H     1 <1>   0.4500 
 31 H       -6.4260    -1.5190     1.0610 H     1 <1>   0.4500 
 32 H       -8.4050    -0.9220    -1.0310 H     1 <1>   0.0800 
 33 H       -8.3780     0.6660     0.9050 H     1 <1>   0.0800 
 34 H       -8.7620    -0.6580     1.9680 H     1 <1>   0.0800 
 35 H       -8.1630    -3.0930     1.0700 H     1 <1>   0.0800 
 36 H       -8.0430    -3.2870    -0.6530 H     1 <1>   0.0800 
 37 H      -10.4490    -0.0720    -0.4720 H     1 <1>   0.0800 
 38 H      -10.6330     0.8900     0.9500 H     1 <1>   0.0800 
 39 H      -10.1360    -4.1030    -0.0420 H     1 <1>   0.0800 
 40 H      -10.4550    -2.6180    -0.8730 H     1 <1>   0.0800 
 41 H      -12.2140    -1.0710     0.6500 H     1 <1>   0.0800 
 42 H      -11.5330    -0.8080     2.2140 H     1 <1>   0.0800 
 43 H      -10.2220    -2.7240     2.1470 H     1 <1>   0.0800 
 44 H      -11.6840    -3.1920     1.3650 H     1 <1>   0.0800 
@<TRIPOS>BOND
  1   1   2  1   
  2   1   3  1   
  3   2   4  ar  
  4   2   5  ar  
  5   3   6  1   
  6   3  21  1   
  7   3  22  1   
  8   4   7  1   
  9   4   8  ar  
 10   5   6  1   
 11   5   9  ar  
 12   7  10  1   
 13   8  11  ar  
 14   8  23  1   
 15   9  11  ar  
 16   9  24  1   
 17  10  25  1   
 18  10  26  1   
 19  10  27  1   
 20  11  12  1   
 21  12  13  1   
 22  12  28  1   
 23  12  29  1   
 24  13  14  1   
 25  13  30  1   
 26  13  31  1   
 27  14  15  1   
 28  14  16  1   
 29  14  32  1   
 30  15  17  1   
 31  15  33  1   
 32  15  34  1   
 33  16  18  1   
 34  16  35  1   
 35  16  36  1   
 36  17  19  1   
 37  17  37  1   
 38  17  38  1   
 39  18  20  1   
 40  18  39  1   
 41  18  40  1   
 42  19  20  1   
 43  19  41  1   
 44  19  42  1   
 45  20  43  1   
 46  20  44  1   
@<TRIPOS>SUBSTRUCTURE
  1 ****  11 GROUP 4 **** **** 0

# MOE 2024.06 (io_trps.svl 2023.06)
