@<TRIPOS>MOLECULE
NONAME
36 37 1 0 0 
SMALL
USER_CHARGES


@<TRIPOS>ATOM
  1 O        0.2410    -0.5280    -0.9110 O.2   1 <1>  -0.5700 
  2 C       -0.0210    -1.5660    -0.3310 C.2   1 <1>   0.6900 
  3 N        0.9510    -2.4950    -0.0570 N.am  1 <1>  -0.6600 
  4 N       -1.2980    -1.8180     0.0320 N.am  1 <1>  -0.7300 
  5 C        2.3370    -2.3060    -0.5560 C.3   1 <1>   0.1400 
  6 C        0.7220    -3.7050     0.7740 C.3   1 <1>   0.1400 
  7 C       -2.4550    -1.0270    -0.4040 C.3   1 <1>   0.2840 
  8 C        3.1780    -1.6100     0.5110 C.3   1 <1>  -0.2400 
  9 C        0.2730    -4.8600    -0.1190 C.3   1 <1>  -0.2400 
 10 C       -3.6190    -1.9830    -0.5930 C.ar  1 <1>  -0.1430 
 11 C       -4.5780    -2.1240     0.4050 C.ar  1 <1>  -0.1500 
 12 C       -3.7170    -2.7310    -1.7670 C.ar  1 <1>  -0.1500 
 13 C       -5.6130    -3.0130     0.1930 C.ar  1 <1>   0.0830 
 14 C       -4.7660    -3.6210    -1.9620 C.ar  1 <1>  -0.1500 
 15 O       -6.6330    -3.3060     1.0060 O.3   1 <1>  -0.3630 
 16 C       -5.7050    -3.7410    -0.9580 C.ar  1 <1>   0.0830 
 17 C       -7.4280    -4.2790     0.3290 C.3   1 <1>   0.4000 
 18 O       -6.7880    -4.5240    -0.9220 O.3   1 <1>  -0.3630 
 19 H       -1.5210    -2.7650     0.3220 H     1 <1>   0.3700 
 20 H        2.3240    -1.7060    -1.4520 H     1 <1>   0.0800 
 21 H        2.7670    -3.2610    -0.8060 H     1 <1>   0.0800 
 22 H       -0.0240    -3.5010     1.5230 H     1 <1>   0.0800 
 23 H        1.6310    -3.9710     1.2850 H     1 <1>   0.0800 
 24 H       -2.2340    -0.5210    -1.3290 H     1 <1>   0.0800 
 25 H       -2.6850    -0.2880     0.3440 H     1 <1>   0.0800 
 26 H        2.7490    -0.6510     0.7440 H     1 <1>   0.0800 
 27 H        4.1750    -1.4540     0.1420 H     1 <1>   0.0800 
 28 H        3.2310    -2.2040     1.4040 H     1 <1>   0.0800 
 29 H       -0.6390    -4.6100    -0.6310 H     1 <1>   0.0800 
 30 H        0.0990    -5.7350     0.4800 H     1 <1>   0.0800 
 31 H        1.0330    -5.0880    -0.8430 H     1 <1>   0.0800 
 32 H       -4.5310    -1.5670     1.3230 H     1 <1>   0.1500 
 33 H       -2.9680    -2.6210    -2.5330 H     1 <1>   0.1500 
 34 H       -4.8550    -4.2020    -2.8620 H     1 <1>   0.1500 
 35 H       -8.4140    -3.8840     0.1580 H     1 <1>   0.0800 
 36 H       -7.4560    -5.1860     0.9040 H     1 <1>   0.0800 
@<TRIPOS>BOND
  1   1   2  2   
  2   2   3  am  
  3   2   4  am  
  4   3   5  1   
  5   3   6  1   
  6   4   7  1   
  7   4  19  1   
  8   5   8  1   
  9   5  20  1   
 10   5  21  1   
 11   6   9  1   
 12   6  22  1   
 13   6  23  1   
 14   7  10  1   
 15   7  24  1   
 16   7  25  1   
 17   8  26  1   
 18   8  27  1   
 19   8  28  1   
 20   9  29  1   
 21   9  30  1   
 22   9  31  1   
 23  10  11  ar  
 24  10  12  ar  
 25  11  13  ar  
 26  11  32  1   
 27  12  14  ar  
 28  12  33  1   
 29  13  15  1   
 30  13  16  ar  
 31  14  16  ar  
 32  14  34  1   
 33  15  17  1   
 34  16  18  1   
 35  17  18  1   
 36  17  35  1   
 37  17  36  1   
@<TRIPOS>SUBSTRUCTURE
  1 ****  10 GROUP 4 **** **** 0

# MOE 2024.06 (io_trps.svl 2023.06)
