@<TRIPOS>MOLECULE
NONAME
35 36 1 0 0 
SMALL
USER_CHARGES


@<TRIPOS>ATOM
  1 BR       1.4310     1.3200     1.9730 Br    1 <1>  -0.1110 
  2 C        2.5680     0.0080     1.1450 C.ar  1 <1>   0.1110 
  3 C        3.8510     0.3690     0.7910 C.ar  1 <1>  -0.1500 
  4 C        2.0670    -1.2600     0.9270 C.ar  1 <1>  -0.1500 
  5 C        4.6960    -0.5620     0.1860 C.ar  1 <1>   0.0860 
  6 C        2.8940    -2.1960     0.3340 C.ar  1 <1>  -0.1500 
  7 C        6.0480    -0.1910    -0.1990 C.2   1 <1>   0.5440 
  8 C        4.1870    -1.8490    -0.0270 C.ar  1 <1>  -0.1500 
  9 O        6.6490     0.6840     0.3910 O.2   1 <1>  -0.5700 
 10 N        6.6940    -0.8200    -1.2280 N.am  1 <1>  -0.7300 
 11 C        7.9390    -0.3450    -1.9100 C.3   1 <1>   0.1400 
 12 C        9.2230    -0.7240    -1.1420 C.3   1 <1>   0.3430 
 13 N        9.2840    -0.0480     0.1840 N.4   1 <1>  -0.9590 
 14 C        9.7800     1.3450     0.1540 C.3   1 <1>   0.3430 
 15 C       10.0530    -0.7600     1.2250 C.3   1 <1>   0.3430 
 16 C       10.0890     1.6530     1.6110 C.3   1 <1>  -0.1600 
 17 C       10.3300     0.2990     2.2860 C.3   1 <1>  -0.1600 
 18 H        4.1950     1.3700     0.9840 H     1 <1>   0.1500 
 19 H        1.0600    -1.5040     1.2160 H     1 <1>   0.1500 
 20 H        2.5300    -3.1940     0.1570 H     1 <1>   0.1500 
 21 H        4.8100    -2.6030    -0.4740 H     1 <1>   0.1500 
 22 H        6.1370    -1.4800    -1.7800 H     1 <1>   0.3700 
 23 H        7.8930     0.7240    -2.0350 H     1 <1>   0.0800 
 24 H        7.9800    -0.7850    -2.8920 H     1 <1>   0.0800 
 25 H       10.0890    -0.4570    -1.7260 H     1 <1>   0.0800 
 26 H        9.2300    -1.7930    -1.0060 H     1 <1>   0.0800 
 27 H        8.2970     0.0370     0.5120 H     1 <1>   0.4500 
 28 H        9.0390     2.0200    -0.2450 H     1 <1>   0.0800 
 29 H       10.6840     1.4030    -0.4300 H     1 <1>   0.0800 
 30 H       10.9860    -1.1120     0.8160 H     1 <1>   0.0800 
 31 H        9.4970    -1.5910     1.6280 H     1 <1>   0.0800 
 32 H        9.2390     2.1430     2.0560 H     1 <1>   0.0800 
 33 H       10.9420     2.3040     1.6920 H     1 <1>   0.0800 
 34 H       11.3400     0.2080     2.6470 H     1 <1>   0.0800 
 35 H        9.6570     0.1690     3.1160 H     1 <1>   0.0800 
@<TRIPOS>BOND
  1   1   2  1   
  2   2   3  ar  
  3   2   4  ar  
  4   3   5  ar  
  5   3  18  1   
  6   4   6  ar  
  7   4  19  1   
  8   5   7  1   
  9   5   8  ar  
 10   6   8  ar  
 11   6  20  1   
 12   7   9  2   
 13   7  10  am  
 14   8  21  1   
 15  10  11  1   
 16  10  22  1   
 17  11  12  1   
 18  11  23  1   
 19  11  24  1   
 20  12  13  1   
 21  12  25  1   
 22  12  26  1   
 23  13  14  1   
 24  13  15  1   
 25  13  27  1   
 26  14  16  1   
 27  14  28  1   
 28  14  29  1   
 29  15  17  1   
 30  15  30  1   
 31  15  31  1   
 32  16  17  1   
 33  16  32  1   
 34  16  33  1   
 35  17  34  1   
 36  17  35  1   
@<TRIPOS>SUBSTRUCTURE
  1 ****   7 GROUP 4 **** **** 0

# MOE 2024.06 (io_trps.svl 2023.06)
