@<TRIPOS>MOLECULE
NONAME
56 58 1 0 0 
SMALL
USER_CHARGES


@<TRIPOS>ATOM
  1 S       -0.0610    -0.3850    -1.6750 S.o2  1 <1>   1.4470 
  2 O       -0.1050     0.9210    -1.0540 O.2   1 <1>  -0.6500 
  3 O        0.1470    -0.4770    -3.1040 O.2   1 <1>  -0.6500 
  4 N        1.2190    -1.2170    -0.9420 N.am  1 <1>  -0.8490 
  5 C       -1.5150    -1.3650    -1.2100 C.ar  1 <1>  -0.0090 
  6 C        1.1670    -1.2060     0.5390 C.3   1 <1>   0.1960 
  7 C        2.5240    -0.7520    -1.4230 C.3   1 <1>   0.1960 
  8 C       -2.2120    -1.1110    -0.0400 C.ar  1 <1>  -0.1500 
  9 C       -1.9490    -2.4230    -1.9970 C.ar  1 <1>  -0.1500 
 10 C        2.5530    -1.2870     1.2300 C.3   1 <1>   0.2000 
 11 C        3.6900    -1.5860    -0.8300 C.3   1 <1>   0.2000 
 12 C       -3.3130    -1.8610     0.3860 C.ar  1 <1>   0.0860 
 13 C       -3.0380    -3.1790    -1.6230 C.ar  1 <1>  -0.1500 
 14 O        3.4450    -2.0460     0.4730 O.3   1 <1>  -0.5600 
 15 C        2.4760    -1.9290     2.6130 C.3   1 <1>  -0.2400 
 16 C        5.0070    -0.8090    -0.8060 C.3   1 <1>  -0.2400 
 17 C       -3.7370    -2.9220    -0.4470 C.ar  1 <1>   0.1000 
 18 C       -3.9480    -1.5110     1.6470 C.2   1 <1>   0.5440 
 19 N       -4.8190    -3.7490    -0.1540 N.pl3 1 <1>  -0.8380 
 20 O       -3.3810    -0.7910     2.4510 O.2   1 <1>  -0.5700 
 21 N       -5.1900    -1.9720     1.9710 N.am  1 <1>  -0.7300 
 22 C       -5.9880    -3.7690    -1.0710 C.3   1 <1>   0.2090 
 23 C       -4.5500    -5.0380     0.5360 C.3   1 <1>   0.2090 
 24 C       -5.9560    -1.7070     3.2110 C.3   1 <1>   0.0600 
 25 C       -7.2400    -4.1530    -0.2760 C.3   1 <1>  -0.1600 
 26 C       -5.7880    -5.4520     1.3390 C.3   1 <1>  -0.1600 
 27 C       -7.0520    -5.4860     0.4660 C.3   1 <1>  -0.1600 
 28 H        0.5660    -2.0400     0.8590 H     1 <1>   0.0800 
 29 H        0.6840    -0.3130     0.8990 H     1 <1>   0.0800 
 30 H        2.6500     0.2860    -1.1620 H     1 <1>   0.0800 
 31 H        2.5670    -0.8210    -2.4970 H     1 <1>   0.0800 
 32 H       -1.8890    -0.2880     0.5760 H     1 <1>   0.1500 
 33 H       -1.4240    -2.6510    -2.9100 H     1 <1>   0.1500 
 34 H        2.9640    -0.2960     1.3260 H     1 <1>   0.0800 
 35 H        3.8180    -2.4650    -1.4380 H     1 <1>   0.0800 
 36 H       -3.3560    -3.9930    -2.2480 H     1 <1>   0.1500 
 37 H        2.1120    -2.9380     2.5340 H     1 <1>   0.0800 
 38 H        1.8120    -1.3690     3.2460 H     1 <1>   0.0800 
 39 H        3.4520    -1.9400     3.0640 H     1 <1>   0.0800 
 40 H        4.9200     0.0650    -0.1870 H     1 <1>   0.0800 
 41 H        5.2720    -0.5040    -1.8010 H     1 <1>   0.0800 
 42 H        5.7910    -1.4390    -0.4240 H     1 <1>   0.0800 
 43 H       -5.5440    -2.6970     1.3240 H     1 <1>   0.3700 
 44 H       -5.8170    -4.4860    -1.8560 H     1 <1>   0.0800 
 45 H       -6.1180    -2.7970    -1.5170 H     1 <1>   0.0800 
 46 H       -3.7040    -4.9290     1.1940 H     1 <1>   0.0800 
 47 H       -4.3170    -5.7920    -0.1970 H     1 <1>   0.0800 
 48 H       -6.9530    -1.3910     2.9610 H     1 <1>   0.0800 
 49 H       -5.4780    -0.9320     3.7860 H     1 <1>   0.0800 
 50 H       -6.0030    -2.6030     3.8060 H     1 <1>   0.0800 
 51 H       -8.0760    -4.2290    -0.9470 H     1 <1>   0.0800 
 52 H       -7.4580    -3.3700     0.4290 H     1 <1>   0.0800 
 53 H       -5.9230    -4.7570     2.1490 H     1 <1>   0.0800 
 54 H       -5.6210    -6.4230     1.7700 H     1 <1>   0.0800 
 55 H       -6.9660    -6.2830    -0.2530 H     1 <1>   0.0800 
 56 H       -7.9140    -5.6850     1.0810 H     1 <1>   0.0800 
@<TRIPOS>BOND
  1   1   2  2   
  2   1   3  2   
  3   1   4  am  
  4   1   5  1   
  5   4   6  1   
  6   4   7  1   
  7   5   8  ar  
  8   5   9  ar  
  9   6  10  1   
 10   6  28  1   
 11   6  29  1   
 12   7  11  1   
 13   7  30  1   
 14   7  31  1   
 15   8  12  ar  
 16   8  32  1   
 17   9  13  ar  
 18   9  33  1   
 19  10  14  1   
 20  10  15  1   
 21  10  34  1   
 22  11  14  1   
 23  11  16  1   
 24  11  35  1   
 25  12  17  ar  
 26  12  18  1   
 27  13  17  ar  
 28  13  36  1   
 29  15  37  1   
 30  15  38  1   
 31  15  39  1   
 32  16  40  1   
 33  16  41  1   
 34  16  42  1   
 35  17  19  1   
 36  18  20  2   
 37  18  21  am  
 38  19  22  1   
 39  19  23  1   
 40  21  24  1   
 41  21  43  1   
 42  22  25  1   
 43  22  44  1   
 44  22  45  1   
 45  23  26  1   
 46  23  46  1   
 47  23  47  1   
 48  24  48  1   
 49  24  49  1   
 50  24  50  1   
 51  25  27  1   
 52  25  51  1   
 53  25  52  1   
 54  26  27  1   
 55  26  53  1   
 56  26  54  1   
 57  27  55  1   
 58  27  56  1   
@<TRIPOS>SUBSTRUCTURE
  1 ****   8 GROUP 4 **** **** 0

# MOE 2024.06 (io_trps.svl 2023.06)
