@<TRIPOS>MOLECULE
NONAME
26 26 1 0 0 
SMALL
USER_CHARGES


@<TRIPOS>ATOM
  1 O       -2.6550     2.6980    -0.5730 O.co2 1 <1>  -0.9000 
  2 C       -3.3790     2.6860     0.4310 C.2   1 <1>   0.9060 
  3 O       -2.9300     2.8950     1.5660 O.co2 1 <1>  -0.9000 
  4 C       -4.8810     2.5080     0.2550 C.3   1 <1>   0.0140 
  5 O       -5.3030     1.1450     0.3220 O.3   1 <1>  -0.3630 
  6 C       -6.6060     0.7850     0.1630 C.ar  1 <1>   0.0820 
  7 C       -6.9430    -0.5710     0.1910 C.ar  1 <1>   0.1660 
  8 C       -7.6160     1.7150    -0.0310 C.ar  1 <1>  -0.1500 
  9 N       -8.1770    -1.0380     0.0390 N.ar  1 <1>  -0.6200 
 10 C       -5.8620    -1.6250     0.4010 C.3   1 <1>  -0.0160 
 11 C       -8.8960     1.2310    -0.1870 C.ar  1 <1>  -0.1500 
 12 C       -9.1230    -0.1350    -0.1460 C.ar  1 <1>   0.1660 
 13 C       -5.2380    -2.0590    -0.9300 C.3   1 <1>  -0.2400 
 14 C      -10.5250    -0.6800    -0.3180 C.3   1 <1>  -0.0970 
 15 H       -5.3760     3.0530     1.0340 H     1 <1>   0.0800 
 16 H       -5.1530     2.8980    -0.7060 H     1 <1>   0.0800 
 17 H       -7.4260     2.7710    -0.0610 H     1 <1>   0.1500 
 18 H       -6.2950    -2.4790     0.8910 H     1 <1>   0.0800 
 19 H       -5.0940    -1.2390     1.0490 H     1 <1>   0.0800 
 20 H       -9.7100     1.9140    -0.3400 H     1 <1>   0.1500 
 21 H       -4.4910    -2.8130    -0.7620 H     1 <1>   0.0800 
 22 H       -5.9970    -2.4530    -1.5810 H     1 <1>   0.0800 
 23 H       -4.7750    -1.2120    -1.4070 H     1 <1>   0.0800 
 24 H      -10.5510    -1.3340    -1.1690 H     1 <1>   0.0800 
 25 H      -11.2360     0.1120    -0.4630 H     1 <1>   0.0800 
 26 H      -10.8000    -1.2400     0.5570 H     1 <1>   0.0800 
@<TRIPOS>BOND
  1   1   2  ar  
  2   2   3  ar  
  3   2   4  1   
  4   4   5  1   
  5   4  15  1   
  6   4  16  1   
  7   5   6  1   
  8   6   7  ar  
  9   6   8  ar  
 10   7   9  ar  
 11   7  10  1   
 12   8  11  ar  
 13   8  17  1   
 14   9  12  ar  
 15  10  13  1   
 16  10  18  1   
 17  10  19  1   
 18  11  12  ar  
 19  11  20  1   
 20  12  14  1   
 21  13  21  1   
 22  13  22  1   
 23  13  23  1   
 24  14  24  1   
 25  14  25  1   
 26  14  26  1   
@<TRIPOS>SUBSTRUCTURE
  1 ****   6 GROUP 4 **** **** 0

# MOE 2024.06 (io_trps.svl 2023.06)
