@<TRIPOS>MOLECULE
NONAME
35 35 1 0 0 
SMALL
USER_CHARGES


@<TRIPOS>ATOM
  1 P        0.2290     0.2150     0.3120 P.3   1 <1>   1.2420 
  2 O        0.3730    -0.6110     1.5120 O.2   1 <1>  -0.7000 
  3 O        1.0780     1.5740     0.4120 O.3   1 <1>  -0.5510 
  4 O        0.8110    -0.4600    -1.0280 O.3   1 <1>  -0.5510 
  5 C       -1.4450     0.7790    -0.0790 C.3   1 <1>   0.1100 
  6 C        2.4420     1.4990     0.6160 C.3   1 <1>   0.1200 
  7 C        0.3440    -1.6730    -1.5110 C.3   1 <1>   0.1200 
  8 N       -2.5300    -0.2170    -0.3610 N.3   1 <1>  -0.8100 
  9 C        2.9810     2.9230     0.6880 C.3   1 <1>  -0.2400 
 10 C        1.0700    -2.8150    -0.8040 C.3   1 <1>  -0.2400 
 11 C       -3.7640     0.4220    -0.8750 C.3   1 <1>   0.1100 
 12 C       -2.8200    -1.0980     0.7870 C.3   1 <1>   0.1100 
 13 C       -5.0560    -0.3600    -0.5460 C.3   1 <1>   0.1200 
 14 C       -3.8780    -2.1660     0.4240 C.3   1 <1>   0.1200 
 15 O       -4.8200    -1.7360    -0.5260 O.3   1 <1>  -0.5600 
 16 H       -1.3780     1.4130    -0.9430 H     1 <1>   0.0800 
 17 H       -1.7900     1.4060     0.7230 H     1 <1>   0.0800 
 18 H        2.8860     0.9600    -0.2050 H     1 <1>   0.0800 
 19 H        2.6230     0.9710     1.5380 H     1 <1>   0.0800 
 20 H        0.5610    -1.7020    -2.5650 H     1 <1>   0.0800 
 21 H       -0.7220    -1.7350    -1.3750 H     1 <1>   0.0800 
 22 H        2.7840     3.4400    -0.2330 H     1 <1>   0.0800 
 23 H        4.0440     2.9000     0.8470 H     1 <1>   0.0800 
 24 H        2.5230     3.4510     1.5050 H     1 <1>   0.0800 
 25 H        2.1330    -2.7060    -0.9170 H     1 <1>   0.0800 
 26 H        0.7740    -3.7520    -1.2400 H     1 <1>   0.0800 
 27 H        0.8200    -2.8400     0.2410 H     1 <1>   0.0800 
 28 H       -3.6780     0.5110    -1.9440 H     1 <1>   0.0800 
 29 H       -3.8650     1.4160    -0.4750 H     1 <1>   0.0800 
 30 H       -3.1790    -0.5090     1.6130 H     1 <1>   0.0800 
 31 H       -1.9270    -1.6030     1.1110 H     1 <1>   0.0800 
 32 H       -5.8110    -0.1610    -1.2850 H     1 <1>   0.0800 
 33 H       -5.4370    -0.0710     0.4180 H     1 <1>   0.0800 
 34 H       -4.4080    -2.4730     1.3080 H     1 <1>   0.0800 
 35 H       -3.3870    -3.0280     0.0100 H     1 <1>   0.0800 
@<TRIPOS>BOND
  1   1   2  2   
  2   1   3  1   
  3   1   4  1   
  4   1   5  1   
  5   3   6  1   
  6   4   7  1   
  7   5   8  1   
  8   5  16  1   
  9   5  17  1   
 10   6   9  1   
 11   6  18  1   
 12   6  19  1   
 13   7  10  1   
 14   7  20  1   
 15   7  21  1   
 16   8  11  1   
 17   8  12  1   
 18   9  22  1   
 19   9  23  1   
 20   9  24  1   
 21  10  25  1   
 22  10  26  1   
 23  10  27  1   
 24  11  13  1   
 25  11  28  1   
 26  11  29  1   
 27  12  14  1   
 28  12  30  1   
 29  12  31  1   
 30  13  15  1   
 31  13  32  1   
 32  13  33  1   
 33  14  15  1   
 34  14  34  1   
 35  14  35  1   
@<TRIPOS>SUBSTRUCTURE
  1 ****   5 GROUP 4 **** **** 0

# MOE 2024.06 (io_trps.svl 2023.06)
