@<TRIPOS>MOLECULE
NONAME
43 44 1 0 0 
SMALL
USER_CHARGES


@<TRIPOS>ATOM
  1 O        0.6970    -0.3460     0.0000 O.3   1 <1>  -0.3630 
  2 C       -0.5430    -0.9170     0.0120 C.ar  1 <1>   0.0830 
  3 C        1.8720    -1.1200     0.0000 C.3   1 <1>   0.1200 
  4 C       -1.6550    -0.0690     0.0120 C.ar  1 <1>   0.0830 
  5 C       -0.7310    -2.2970     0.0250 C.ar  1 <1>  -0.1500 
  6 C        3.0630    -0.1640    -0.0150 C.3   1 <1>  -0.1600 
  7 O       -1.4360     1.2780     0.0000 O.3   1 <1>  -0.3630 
  8 C       -2.9350    -0.6180     0.0240 C.ar  1 <1>  -0.1500 
  9 C       -2.0090    -2.8290     0.0370 C.ar  1 <1>  -0.1500 
 10 C        4.3940    -0.9300    -0.0170 C.3   1 <1>  -0.1600 
 11 C       -2.4990     2.2040    -0.0020 C.3   1 <1>   0.0400 
 12 C       -3.1090    -1.9910     0.0360 C.ar  1 <1>  -0.1500 
 13 C        5.5810     0.0320    -0.0320 C.3   1 <1>   0.1200 
 14 O        6.7640    -0.7320    -0.0330 O.3   1 <1>  -0.3630 
 15 C        7.9840    -0.1380    -0.0450 C.ar  1 <1>   0.0830 
 16 C        8.1770     1.2400    -0.0580 C.ar  1 <1>  -0.1500 
 17 C        9.0860    -0.9770    -0.0460 C.ar  1 <1>  -0.1500 
 18 C        9.4600     1.7600    -0.0710 C.ar  1 <1>  -0.1500 
 19 C       10.3670    -0.4540    -0.0590 C.ar  1 <1>  -0.1500 
 20 C       10.5610     0.9180    -0.0730 C.ar  1 <1>  -0.1430 
 21 C       11.9660     1.4920    -0.0860 C.3   1 <1>  -0.0970 
 22 H        1.8690    -1.7410    -0.8800 H     1 <1>   0.0800 
 23 H        1.8800    -1.7260     0.8890 H     1 <1>   0.0800 
 24 H        0.1000    -2.9750     0.0250 H     1 <1>   0.1500 
 25 H        3.0120     0.4680     0.8550 H     1 <1>   0.0800 
 26 H        3.0020     0.4540    -0.8950 H     1 <1>   0.0800 
 27 H       -3.8090     0.0040     0.0240 H     1 <1>   0.1500 
 28 H       -2.1470    -3.8960     0.0460 H     1 <1>   0.1500 
 29 H        4.4450    -1.5600    -0.8870 H     1 <1>   0.0800 
 30 H        4.4550    -1.5460     0.8640 H     1 <1>   0.0800 
 31 H       -2.0780     3.1930    -0.0120 H     1 <1>   0.0800 
 32 H       -3.0830     2.0650     0.8900 H     1 <1>   0.0800 
 33 H       -3.0940     2.0500    -0.8840 H     1 <1>   0.0800 
 34 H       -4.1010    -2.4070     0.0460 H     1 <1>   0.1500 
 35 H        5.5790     0.6540     0.8470 H     1 <1>   0.0800 
 36 H        5.5690     0.6400    -0.9200 H     1 <1>   0.0800 
 37 H        7.3480     1.9210    -0.0570 H     1 <1>   0.1500 
 38 H        8.9330    -2.0410    -0.0350 H     1 <1>   0.1500 
 39 H        9.6000     2.8270    -0.0790 H     1 <1>   0.1500 
 40 H       11.2110    -1.1210    -0.0570 H     1 <1>   0.1500 
 41 H       11.9820     2.4360    -0.6000 H     1 <1>   0.0800 
 42 H       12.6410     0.8220    -0.5870 H     1 <1>   0.0800 
 43 H       12.3070     1.6390     0.9230 H     1 <1>   0.0800 
@<TRIPOS>BOND
  1   1   2  1   
  2   1   3  1   
  3   2   4  ar  
  4   2   5  ar  
  5   3   6  1   
  6   3  22  1   
  7   3  23  1   
  8   4   7  1   
  9   4   8  ar  
 10   5   9  ar  
 11   5  24  1   
 12   6  10  1   
 13   6  25  1   
 14   6  26  1   
 15   7  11  1   
 16   8  12  ar  
 17   8  27  1   
 18   9  12  ar  
 19   9  28  1   
 20  10  13  1   
 21  10  29  1   
 22  10  30  1   
 23  11  31  1   
 24  11  32  1   
 25  11  33  1   
 26  12  34  1   
 27  13  14  1   
 28  13  35  1   
 29  13  36  1   
 30  14  15  1   
 31  15  16  ar  
 32  15  17  ar  
 33  16  18  ar  
 34  16  37  1   
 35  17  19  ar  
 36  17  38  1   
 37  18  20  ar  
 38  18  39  1   
 39  19  20  ar  
 40  19  40  1   
 41  20  21  1   
 42  21  41  1   
 43  21  42  1   
 44  21  43  1   
@<TRIPOS>SUBSTRUCTURE
  1 ****   6 GROUP 4 **** **** 0

# MOE 2024.06 (io_trps.svl 2023.06)
