@<TRIPOS>MOLECULE
NONAME
43 44 1 0 0 
SMALL
USER_CHARGES


@<TRIPOS>ATOM
  1 S       -0.3990     0.1220    -0.7980 S.o2  1 <1>   1.3330 
  2 O       -1.4490     0.3660    -1.7530 O.2   1 <1>  -0.6500 
  3 O       -0.0060    -1.2140    -0.4270 O.2   1 <1>  -0.6500 
  4 N        0.9670     0.9100    -1.4750 N.am  1 <1>  -0.7570 
  5 C       -0.7110     1.0960     0.6580 C.3   1 <1>  -0.1350 
  6 C        2.3090     0.8010    -1.1510 C.ar  1 <1>   0.1990 
  7 C        3.2500     1.4110    -1.9710 C.ar  1 <1>  -0.1500 
  8 C        2.7740     0.1150    -0.0330 C.ar  1 <1>  -0.1500 
  9 C        4.6010     1.3320    -1.6920 C.ar  1 <1>  -0.1500 
 10 C        4.1250     0.0380     0.2460 C.ar  1 <1>  -0.1500 
 11 C        5.0810     0.6360    -0.5800 C.ar  1 <1>   0.0860 
 12 C        6.5030     0.5440    -0.3040 C.2   1 <1>   0.5440 
 13 O        7.2950     1.3200    -0.8060 O.2   1 <1>  -0.5700 
 14 N        7.0320    -0.4530     0.4830 N.am  1 <1>  -0.6600 
 15 C        6.9380    -1.8620     0.0090 C.3   1 <1>   0.1400 
 16 C        8.2840    -0.1700     1.2440 C.3   1 <1>   0.1400 
 17 C        8.1800    -2.2210    -0.8370 C.3   1 <1>   0.3430 
 18 C        9.5130    -0.5090     0.3790 C.3   1 <1>   0.3430 
 19 N        9.4780    -1.9360    -0.1200 N.4   1 <1>  -0.9590 
 20 C       10.6320    -2.2340    -1.0070 C.3   1 <1>   0.3430 
 21 C       11.9070    -2.3290    -0.1780 C.3   1 <1>  -0.2400 
 22 H        0.7090     1.3160    -2.3690 H     1 <1>   0.4200 
 23 H       -1.5800     0.7260     1.1670 H     1 <1>   0.0800 
 24 H       -0.8800     2.1200     0.3900 H     1 <1>   0.0800 
 25 H        0.1250     1.0470     1.3260 H     1 <1>   0.0800 
 26 H        2.9200     1.9550    -2.8380 H     1 <1>   0.1500 
 27 H        2.0820    -0.3710     0.6290 H     1 <1>   0.1500 
 28 H        5.3050     1.8200    -2.3450 H     1 <1>   0.1500 
 29 H        4.4450    -0.4930     1.1250 H     1 <1>   0.1500 
 30 H        6.0520    -1.9900    -0.5910 H     1 <1>   0.0800 
 31 H        6.8600    -2.5230     0.8550 H     1 <1>   0.0800 
 32 H        8.2950    -0.7430     2.1540 H     1 <1>   0.0800 
 33 H        8.3160     0.8730     1.5110 H     1 <1>   0.0800 
 34 H        8.1410    -1.6430    -1.7460 H     1 <1>   0.0800 
 35 H        8.1320    -3.2630    -1.1070 H     1 <1>   0.0800 
 36 H       10.4060    -0.3400     0.9580 H     1 <1>   0.0800 
 37 H        9.5270     0.1700    -0.4590 H     1 <1>   0.0800 
 38 H        9.5350    -2.5580     0.6960 H     1 <1>   0.4500 
 39 H       10.7320    -1.4670    -1.7590 H     1 <1>   0.0800 
 40 H       10.4730    -3.1770    -1.5070 H     1 <1>   0.0800 
 41 H       12.1620    -1.3830     0.2640 H     1 <1>   0.0800 
 42 H       12.7220    -2.6150    -0.8210 H     1 <1>   0.0800 
 43 H       11.8140    -3.0770     0.5880 H     1 <1>   0.0800 
@<TRIPOS>BOND
  1   1   2  2   
  2   1   3  2   
  3   1   4  am  
  4   1   5  1   
  5   4   6  1   
  6   4  22  1   
  7   5  23  1   
  8   5  24  1   
  9   5  25  1   
 10   6   7  ar  
 11   6   8  ar  
 12   7   9  ar  
 13   7  26  1   
 14   8  10  ar  
 15   8  27  1   
 16   9  11  ar  
 17   9  28  1   
 18  10  11  ar  
 19  10  29  1   
 20  11  12  1   
 21  12  13  2   
 22  12  14  am  
 23  14  15  1   
 24  14  16  1   
 25  15  17  1   
 26  15  30  1   
 27  15  31  1   
 28  16  18  1   
 29  16  32  1   
 30  16  33  1   
 31  17  19  1   
 32  17  34  1   
 33  17  35  1   
 34  18  19  1   
 35  18  36  1   
 36  18  37  1   
 37  19  20  1   
 38  19  38  1   
 39  20  21  1   
 40  20  39  1   
 41  20  40  1   
 42  21  41  1   
 43  21  42  1   
 44  21  43  1   
@<TRIPOS>SUBSTRUCTURE
  1 ****  11 GROUP 4 **** **** 0

# MOE 2024.06 (io_trps.svl 2023.06)
