@<TRIPOS>MOLECULE
NONAME
57 59 1 0 0 
SMALL
USER_CHARGES


@<TRIPOS>ATOM
  1 O       -0.2830     2.3300     2.0850 O.2   1 <1>  -0.5700 
  2 C        0.1940     2.1150     0.9860 C.2   1 <1>   0.5440 
  3 N       -0.5290     1.3420     0.1240 N.am  1 <1>  -0.7300 
  4 C        1.4750     2.6920     0.6040 C.ar  1 <1>   0.0860 
  5 C       -1.8640     0.7340     0.3790 C.3   1 <1>   0.1400 
  6 C        2.2730     2.2130    -0.4490 C.ar  1 <1>   0.0830 
  7 C        1.9610     3.7930     1.3160 C.ar  1 <1>  -0.1500 
  8 C       -3.0250     1.4480    -0.3540 C.3   1 <1>   0.1440 
  9 O        1.8630     1.1380    -1.1690 O.3   1 <1>  -0.3620 
 10 C        3.4840     2.8310    -0.7830 C.ar  1 <1>   0.0830 
 11 C        3.1600     4.4000     1.0030 C.ar  1 <1>  -0.1500 
 12 C       -4.3180     0.6830     0.0390 C.ar  1 <1>  -0.1440 
 13 C       -2.7670     1.4730    -1.8820 C.3   1 <1>  -0.1600 
 14 C       -3.1170     2.9340     0.0700 C.3   1 <1>  -0.1600 
 15 C        2.5270    -0.0820    -0.9300 C.3   1 <1>   0.1200 
 16 O        4.1960     2.3360    -1.8360 O.3   1 <1>  -0.3630 
 17 C        3.9230     3.9240    -0.0460 C.ar  1 <1>  -0.1500 
 18 C       -5.0140    -0.1490    -0.8380 C.ar  1 <1>  -0.1500 
 19 C       -4.8080     0.7890     1.3390 C.ar  1 <1>  -0.1500 
 20 C       -3.8200     2.3100    -2.6250 C.3   1 <1>   0.1200 
 21 C       -4.1820     3.6720    -0.7460 C.3   1 <1>   0.1200 
 22 C        1.7170    -1.2020    -1.5840 C.3   1 <1>  -0.1600 
 23 C        5.3210     3.0100    -2.3560 C.3   1 <1>   0.0400 
 24 C       -6.1590    -0.8180    -0.4420 C.ar  1 <1>  -0.1500 
 25 C       -5.9530     0.1230     1.7400 C.ar  1 <1>  -0.1500 
 26 O       -3.8450     3.6000    -2.0980 O.3   1 <1>  -0.5600 
 27 C        2.3790    -2.5670    -1.3670 C.3   1 <1>  -0.2400 
 28 C       -6.6340    -0.6810     0.8470 C.ar  1 <1>  -0.1500 
 29 H       -0.0910     1.1380    -0.7820 H     1 <1>   0.3700 
 30 H       -2.0550     0.7460     1.4380 H     1 <1>   0.0800 
 31 H       -1.8350    -0.2970     0.0730 H     1 <1>   0.0800 
 32 H        1.3780     4.1810     2.1350 H     1 <1>   0.1500 
 33 H        3.5000     5.2460     1.5760 H     1 <1>   0.1500 
 34 H       -2.7230     0.4780    -2.2830 H     1 <1>   0.0800 
 35 H       -1.8130     1.9260    -2.0850 H     1 <1>   0.0800 
 36 H       -2.1770     3.4280    -0.1040 H     1 <1>   0.0800 
 37 H       -3.3240     3.0390     1.1170 H     1 <1>   0.0800 
 38 H        2.5950    -0.2320     0.1350 H     1 <1>   0.0800 
 39 H        3.5140    -0.0250    -1.3530 H     1 <1>   0.0800 
 40 H        4.8500     4.4180    -0.2660 H     1 <1>   0.1500 
 41 H       -4.6880    -0.3040    -1.8470 H     1 <1>   0.1500 
 42 H       -4.3010     1.3890     2.0720 H     1 <1>   0.1500 
 43 H       -4.8080     1.8930    -2.5390 H     1 <1>   0.0800 
 44 H       -3.5680     2.3910    -3.6680 H     1 <1>   0.0800 
 45 H       -4.2130     4.7120    -0.4730 H     1 <1>   0.0800 
 46 H       -5.1590     3.2410    -0.6070 H     1 <1>   0.0800 
 47 H        1.6380    -1.0090    -2.6400 H     1 <1>   0.0800 
 48 H        0.7280    -1.2190    -1.1590 H     1 <1>   0.0800 
 49 H        5.6600     2.4730    -3.2230 H     1 <1>   0.0800 
 50 H        6.0970     3.0230    -1.6100 H     1 <1>   0.0800 
 51 H        5.0330     4.0080    -2.6340 H     1 <1>   0.0800 
 52 H       -6.6810    -1.4480    -1.1400 H     1 <1>   0.1500 
 53 H       -6.3110     0.2290     2.7490 H     1 <1>   0.1500 
 54 H        3.3650    -2.5790    -1.7970 H     1 <1>   0.0800 
 55 H        1.7930    -3.3380    -1.8370 H     1 <1>   0.0800 
 56 H        2.4540    -2.7870    -0.3170 H     1 <1>   0.0800 
 57 H       -7.5260    -1.1990     1.1550 H     1 <1>   0.1500 
@<TRIPOS>BOND
  1   1   2  2   
  2   2   3  am  
  3   2   4  1   
  4   3   5  1   
  5   3  29  1   
  6   4   6  ar  
  7   4   7  ar  
  8   5   8  1   
  9   5  30  1   
 10   5  31  1   
 11   6   9  1   
 12   6  10  ar  
 13   7  11  ar  
 14   7  32  1   
 15   8  12  1   
 16   8  13  1   
 17   8  14  1   
 18   9  15  1   
 19  10  16  1   
 20  10  17  ar  
 21  11  17  ar  
 22  11  33  1   
 23  12  18  ar  
 24  12  19  ar  
 25  13  20  1   
 26  13  34  1   
 27  13  35  1   
 28  14  21  1   
 29  14  36  1   
 30  14  37  1   
 31  15  22  1   
 32  15  38  1   
 33  15  39  1   
 34  16  23  1   
 35  17  40  1   
 36  18  24  ar  
 37  18  41  1   
 38  19  25  ar  
 39  19  42  1   
 40  20  26  1   
 41  20  43  1   
 42  20  44  1   
 43  21  26  1   
 44  21  45  1   
 45  21  46  1   
 46  22  27  1   
 47  22  47  1   
 48  22  48  1   
 49  23  49  1   
 50  23  50  1   
 51  23  51  1   
 52  24  28  ar  
 53  24  52  1   
 54  25  28  ar  
 55  25  53  1   
 56  27  54  1   
 57  27  55  1   
 58  27  56  1   
 59  28  57  1   
@<TRIPOS>SUBSTRUCTURE
  1 ****   3 GROUP 4 **** **** 0

# MOE 2024.06 (io_trps.svl 2023.06)
