@<TRIPOS>MOLECULE
NONAME
33 35 1 0 0 
SMALL
USER_CHARGES


@<TRIPOS>ATOM
  1 O       -0.4030     0.4770     0.1960 O.2   1 <1>  -0.5700 
  2 C       -0.8110    -0.6570     0.2310 C.2   1 <1>   0.5690 
  3 N       -0.0190    -1.7360     0.5080 N.am  1 <1>  -0.5470 
  4 C       -2.2970    -0.9050    -0.0230 C.3   1 <1>  -0.0190 
  5 C        1.3670    -1.8150     0.6930 C.ar  1 <1>   0.1170 
  6 C       -3.0550    -1.5220     1.1660 C.3   1 <1>  -0.1600 
  7 C       -2.5870    -1.8270    -1.2130 C.3   1 <1>  -0.1600 
  8 C        2.2620    -1.0400    -0.0330 C.ar  1 <1>  -0.1500 
  9 C        1.8660    -2.7260     1.6150 C.ar  1 <1>  -0.1500 
 10 C       -4.0360    -2.5460     0.5800 C.3   1 <1>  -0.1600 
 11 C       -3.9870    -2.3640    -0.9360 C.3   1 <1>  -0.1600 
 12 C        3.6450    -1.1580     0.1210 C.ar  1 <1>   0.0410 
 13 C        3.2280    -2.8580     1.8030 C.ar  1 <1>  -0.1500 
 14 C        4.5790    -0.3730    -0.6680 C.2   1 <1>   0.6960 
 15 C        4.1020    -2.0830     1.0640 C.ar  1 <1>  -0.1500 
 16 N        4.2570     0.3670    -1.6850 N.2   1 <1>  -0.6190 
 17 N        5.8660    -0.3350    -0.4590 N.2   1 <1>  -0.6190 
 18 N        5.3520     0.8770    -2.1200 N.2   1 <1>  -0.2500 
 19 N        6.3310     0.4500    -1.3740 N.2   1 <1>  -0.2500 
 20 H       -0.5190    -2.6170     0.6030 H     1 <1>   0.3700 
 21 H       -2.7530     0.0470    -0.2380 H     1 <1>   0.0800 
 22 H       -3.5850    -0.7500     1.6970 H     1 <1>   0.0800 
 23 H       -2.3880    -2.0080     1.8560 H     1 <1>   0.0800 
 24 H       -1.8920    -2.6480    -1.2380 H     1 <1>   0.0800 
 25 H       -2.5350    -1.2970    -2.1490 H     1 <1>   0.0800 
 26 H        1.8870    -0.3270    -0.7470 H     1 <1>   0.1500 
 27 H        1.1890    -3.3300     2.1900 H     1 <1>   0.1500 
 28 H       -5.0340    -2.4050     0.9590 H     1 <1>   0.0800 
 29 H       -3.7080    -3.5410     0.8310 H     1 <1>   0.0800 
 30 H       -4.1820    -3.2830    -1.4620 H     1 <1>   0.0800 
 31 H       -4.7160    -1.6280    -1.2310 H     1 <1>   0.0800 
 32 H        3.6120    -3.5600     2.5210 H     1 <1>   0.1500 
 33 H        5.1640    -2.1880     1.2090 H     1 <1>   0.1500 
@<TRIPOS>BOND
  1   1   2  2   
  2   2   3  am  
  3   2   4  1   
  4   3   5  1   
  5   3  20  1   
  6   4   6  1   
  7   4   7  1   
  8   4  21  1   
  9   5   8  ar  
 10   5   9  ar  
 11   6  10  1   
 12   6  22  1   
 13   6  23  1   
 14   7  11  1   
 15   7  24  1   
 16   7  25  1   
 17   8  12  ar  
 18   8  26  1   
 19   9  13  ar  
 20   9  27  1   
 21  10  11  1   
 22  10  28  1   
 23  10  29  1   
 24  11  30  1   
 25  11  31  1   
 26  12  14  1   
 27  12  15  ar  
 28  13  15  ar  
 29  13  32  1   
 30  14  16  1   
 31  14  17  2   
 32  15  33  1   
 33  16  18  1   
 34  17  19  1   
 35  18  19  2   
@<TRIPOS>SUBSTRUCTURE
  1 ****   8 GROUP 4 **** **** 0

# MOE 2024.06 (io_trps.svl 2023.06)
