@<TRIPOS>MOLECULE
NONAME
36 36 1 0 0 
SMALL
USER_CHARGES


@<TRIPOS>ATOM
  1 S        0.6440     0.3360    -0.8960 S.o2  1 <1>   1.3330 
  2 O        1.0890    -0.6990    -1.8000 O.2   1 <1>  -0.6500 
  3 O        0.8690     1.7240    -1.2190 O.2   1 <1>  -0.6500 
  4 N        1.3000     0.0230     0.6280 N.am  1 <1>  -0.8490 
  5 C       -1.0950     0.1100    -0.5960 C.3   1 <1>  -0.1350 
  6 C        2.1810    -1.1520     0.5980 C.3   1 <1>   0.5560 
  7 C        2.0360     1.1580     1.2310 C.3   1 <1>   0.1960 
  8 O        2.3030    -1.5610     1.9340 O.3   1 <1>  -0.5600 
  9 C        3.5890    -0.8630    -0.0670 C.3   1 <1>   0.5560 
 10 C        3.3990     1.4510     0.5550 C.3   1 <1>   0.1960 
 11 C        1.2020    -2.2400     2.4520 C.3   1 <1>   0.0400 
 12 O        4.4340    -1.9680     0.0740 O.3   1 <1>  -0.5600 
 13 N        4.2940     0.2800     0.5220 N.am  1 <1>  -0.8490 
 14 C        4.3700    -2.8710    -0.9860 C.3   1 <1>   0.0400 
 15 S        5.7230     0.6250    -0.3060 S.o2  1 <1>   1.3330 
 16 O        5.5600     0.2440    -1.6920 O.2   1 <1>  -0.6500 
 17 O        6.0690     1.9960    -0.0040 O.2   1 <1>  -0.6500 
 18 C        6.9640    -0.3900     0.4750 C.3   1 <1>  -0.1350 
 19 H       -1.2860    -0.8890    -0.2570 H     1 <1>   0.0800 
 20 H       -1.6480     0.2810    -1.4990 H     1 <1>   0.0800 
 21 H       -1.4330     0.8010     0.1510 H     1 <1>   0.0800 
 22 H        1.7150    -1.9600     0.0610 H     1 <1>   0.0800 
 23 H        2.2200     0.9420     2.2700 H     1 <1>   0.0800 
 24 H        1.4250     2.0440     1.2010 H     1 <1>   0.0800 
 25 H        3.4390    -0.6820    -1.1190 H     1 <1>   0.0800 
 26 H        3.8770     2.2410     1.1100 H     1 <1>   0.0800 
 27 H        3.2400     1.8190    -0.4460 H     1 <1>   0.0800 
 28 H        1.4300    -2.5150     3.4670 H     1 <1>   0.0800 
 29 H        1.0220    -3.1260     1.8690 H     1 <1>   0.0800 
 30 H        0.3420    -1.5930     2.4400 H     1 <1>   0.0800 
 31 H        3.3650    -3.2450    -1.0850 H     1 <1>   0.0800 
 32 H        5.0390    -3.6860    -0.7720 H     1 <1>   0.0800 
 33 H        4.6810    -2.3780    -1.8920 H     1 <1>   0.0800 
 34 H        6.7850    -1.4290     0.2890 H     1 <1>   0.0800 
 35 H        6.9580    -0.2230     1.5330 H     1 <1>   0.0800 
 36 H        7.9330    -0.1400     0.0910 H     1 <1>   0.0800 
@<TRIPOS>BOND
  1   1   2  2   
  2   1   3  2   
  3   1   4  am  
  4   1   5  1   
  5   4   6  1   
  6   4   7  1   
  7   5  19  1   
  8   5  20  1   
  9   5  21  1   
 10   6   8  1   
 11   6   9  1   
 12   6  22  1   
 13   7  10  1   
 14   7  23  1   
 15   7  24  1   
 16   8  11  1   
 17   9  12  1   
 18   9  13  1   
 19   9  25  1   
 20  10  13  1   
 21  10  26  1   
 22  10  27  1   
 23  11  28  1   
 24  11  29  1   
 25  11  30  1   
 26  12  14  1   
 27  13  15  am  
 28  14  31  1   
 29  14  32  1   
 30  14  33  1   
 31  15  16  2   
 32  15  17  2   
 33  15  18  1   
 34  18  34  1   
 35  18  35  1   
 36  18  36  1   
@<TRIPOS>SUBSTRUCTURE
  1 ****   9 GROUP 4 **** **** 0

# MOE 2024.06 (io_trps.svl 2023.06)
