@<TRIPOS>MOLECULE
NONAME
72 75 1 0 0 
SMALL
USER_CHARGES


@<TRIPOS>ATOM
  1 O        0.8940     0.5780    -1.1100 O.3   1 <1>  -0.6800 
  2 C        1.1750     0.5200     0.2600 C.3   1 <1>   0.2800 
  3 C        2.6700     0.8730     0.5240 C.3   1 <1>   0.0000 
  4 C        1.0700    -0.9720     0.6550 C.3   1 <1>  -0.1600 
  5 C        0.1600     1.4500     0.9820 C.3   1 <1>   0.3430 
  6 C        3.3600    -0.4130     0.0490 C.3   1 <1>  -0.0800 
  7 C        3.2690     2.0690    -0.2760 C.3   1 <1>  -0.1600 
  8 C        2.8640     1.1060     2.0540 C.3   1 <1>  -0.2400 
  9 C        2.4960    -1.5570     0.5850 C.3   1 <1>  -0.1600 
 10 N       -1.1590     1.4930     0.2660 N.4   1 <1>  -0.9590 
 11 C        4.8950    -0.4720     0.2570 C.3   1 <1>  -0.0800 
 12 C        4.6970     1.8200    -0.8370 C.3   1 <1>  -0.1600 
 13 C       -1.8220     2.8250     0.4460 C.3   1 <1>   0.3430 
 14 C       -2.0290     0.3300     0.6320 C.3   1 <1>   0.3430 
 15 C        5.5580     0.9420     0.1120 C.3   1 <1>  -0.0800 
 16 C        5.4450    -1.5020    -0.7510 C.3   1 <1>  -0.1600 
 17 C       -3.0180     3.0360    -0.4930 C.3   1 <1>   0.1200 
 18 C       -2.5060    -0.4330    -0.6100 C.3   1 <1>   0.1200 
 19 C        7.1170     0.9130    -0.1110 C.3   1 <1>   0.0000 
 20 C        6.9660    -1.5450    -0.8040 C.3   1 <1>  -0.1600 
 21 O       -3.4980     4.3160    -0.2800 O.3   1 <1>  -0.6800 
 22 O       -3.2910    -1.4870    -0.1800 O.3   1 <1>  -0.6800 
 23 C        7.5350    -0.1570    -1.1530 C.3   1 <1>  -0.0800 
 24 C        7.8110     0.6180     1.2550 C.3   1 <1>  -0.1600 
 25 C        7.6000     2.3070    -0.5840 C.3   1 <1>  -0.2400 
 26 C        9.0680    -0.2430    -1.3590 C.3   1 <1>  -0.1600 
 27 C        9.1650    -0.1250     1.2080 C.3   1 <1>  -0.1600 
 28 C        9.9270     0.0370    -0.1100 C.3   1 <1>  -0.1600 
 29 H        1.6110     0.1160    -1.5940 H     1 <1>   0.4000 
 30 H        0.3970    -1.5130     0.0130 H     1 <1>   0.0800 
 31 H        0.7170    -1.0690     1.6670 H     1 <1>   0.0800 
 32 H        0.5880     2.4380     0.9900 H     1 <1>   0.0800 
 33 H        0.0350     1.1430     2.0070 H     1 <1>   0.0800 
 34 H        3.2170    -0.4380    -1.0180 H     1 <1>   0.0800 
 35 H        3.3060     2.9360     0.3610 H     1 <1>   0.0800 
 36 H        2.6420     2.3390    -1.1070 H     1 <1>   0.0800 
 37 H        2.3950     0.3370     2.6420 H     1 <1>   0.0800 
 38 H        2.4510     2.0520     2.3560 H     1 <1>   0.0800 
 39 H        3.8930     1.1120     2.3470 H     1 <1>   0.0800 
 40 H        2.5430    -2.4150    -0.0640 H     1 <1>   0.0800 
 41 H        2.8300    -1.8470     1.5670 H     1 <1>   0.0800 
 42 H       -0.8570     1.3780    -0.7220 H     1 <1>   0.4500 
 43 H        5.1010    -0.8340     1.2500 H     1 <1>   0.0800 
 44 H        5.1340     2.7880    -0.9960 H     1 <1>   0.0800 
 45 H        4.6400     1.3390    -1.7980 H     1 <1>   0.0800 
 46 H       -1.1070     3.6060     0.2490 H     1 <1>   0.0800 
 47 H       -2.1600     2.9260     1.4650 H     1 <1>   0.0800 
 48 H       -2.8860     0.6720     1.1890 H     1 <1>   0.0800 
 49 H       -1.4790    -0.3570     1.2530 H     1 <1>   0.0800 
 50 H        5.4650     1.4410     1.0550 H     1 <1>   0.0800 
 51 H        5.0990    -1.2700    -1.7440 H     1 <1>   0.0800 
 52 H        5.0790    -2.4830    -0.5000 H     1 <1>   0.0800 
 53 H       -3.8140     2.3450    -0.2780 H     1 <1>   0.0800 
 54 H       -2.7170     2.9610    -1.5240 H     1 <1>   0.0800 
 55 H       -1.6720    -0.8380    -1.1570 H     1 <1>   0.0800 
 56 H       -3.1070     0.1910    -1.2480 H     1 <1>   0.0800 
 57 H        7.2610    -2.2550    -1.5570 H     1 <1>   0.0800 
 58 H        7.3390    -1.9000     0.1370 H     1 <1>   0.0800 
 59 H       -4.2630     4.5200    -0.8590 H     1 <1>   0.4000 
 60 H       -3.6170    -2.0290    -0.9300 H     1 <1>   0.4000 
 61 H        7.1060     0.1200    -2.1010 H     1 <1>   0.0800 
 62 H        7.1630     0.0240     1.8740 H     1 <1>   0.0800 
 63 H        7.9500     1.5450     1.7830 H     1 <1>   0.0800 
 64 H        7.2890     2.4970    -1.5950 H     1 <1>   0.0800 
 65 H        8.6670     2.3980    -0.5590 H     1 <1>   0.0800 
 66 H        7.2040     3.0780     0.0520 H     1 <1>   0.0800 
 67 H        9.3500     0.4670    -2.1160 H     1 <1>   0.0800 
 68 H        9.3220    -1.2140    -1.7480 H     1 <1>   0.0800 
 69 H        8.9970    -1.1740     1.3700 H     1 <1>   0.0800 
 70 H        9.7830     0.2130     2.0210 H     1 <1>   0.0800 
 71 H       10.3150     1.0380    -0.1600 H     1 <1>   0.0800 
 72 H       10.7790    -0.6210    -0.1110 H     1 <1>   0.0800 
@<TRIPOS>BOND
  1   1   2  1   
  2   1  29  1   
  3   2   3  1   
  4   2   4  1   
  5   2   5  1   
  6   3   6  1   
  7   3   7  1   
  8   3   8  1   
  9   4   9  1   
 10   4  30  1   
 11   4  31  1   
 12   5  10  1   
 13   5  32  1   
 14   5  33  1   
 15   6   9  1   
 16   6  11  1   
 17   6  34  1   
 18   7  12  1   
 19   7  35  1   
 20   7  36  1   
 21   8  37  1   
 22   8  38  1   
 23   8  39  1   
 24   9  40  1   
 25   9  41  1   
 26  10  13  1   
 27  10  14  1   
 28  10  42  1   
 29  11  15  1   
 30  11  16  1   
 31  11  43  1   
 32  12  15  1   
 33  12  44  1   
 34  12  45  1   
 35  13  17  1   
 36  13  46  1   
 37  13  47  1   
 38  14  18  1   
 39  14  48  1   
 40  14  49  1   
 41  15  19  1   
 42  15  50  1   
 43  16  20  1   
 44  16  51  1   
 45  16  52  1   
 46  17  21  1   
 47  17  53  1   
 48  17  54  1   
 49  18  22  1   
 50  18  55  1   
 51  18  56  1   
 52  19  23  1   
 53  19  24  1   
 54  19  25  1   
 55  20  23  1   
 56  20  57  1   
 57  20  58  1   
 58  21  59  1   
 59  22  60  1   
 60  23  26  1   
 61  23  61  1   
 62  24  27  1   
 63  24  62  1   
 64  24  63  1   
 65  25  64  1   
 66  25  65  1   
 67  25  66  1   
 68  26  28  1   
 69  26  67  1   
 70  26  68  1   
 71  27  28  1   
 72  27  69  1   
 73  27  70  1   
 74  28  71  1   
 75  28  72  1   
@<TRIPOS>SUBSTRUCTURE
  1 ****   3 GROUP 4 **** **** 0

# MOE 2024.06 (io_trps.svl 2023.06)
