@<TRIPOS>MOLECULE
NONAME
41 42 1 0 0 
SMALL
USER_CHARGES


@<TRIPOS>ATOM
  1 S        0.1240    -1.7640     0.4010 S.3   1 <1>  -0.2860 
  2 C       -1.5710    -1.1910     0.2540 C.2   1 <1>   0.2420 
  3 C        1.0080    -0.2460     1.0160 C.3   1 <1>   0.1310 
  4 N       -1.9330     0.0180     0.4930 N.2   1 <1>  -0.3380 
  5 N       -2.5740    -1.9870    -0.1130 N.pl3 1 <1>   0.0480 
  6 C        2.5070    -0.4750     1.1280 C.2   1 <1>   0.5690 
  7 N       -3.2510     0.0470     0.2780 N.2   1 <1>  -0.3380 
  8 C       -3.6170    -1.1430    -0.0770 C.2   1 <1>   0.0060 
  9 C       -2.5170    -3.4240    -0.4500 C.3   1 <1>   0.0160 
 10 O        3.1270     0.2280     1.8880 O.2   1 <1>  -0.5700 
 11 N        3.0770    -1.4570     0.3630 N.am  1 <1>  -0.5470 
 12 C       -5.0460    -1.5600    -0.4160 C.3   1 <1>   0.0200 
 13 C        4.4060    -1.8830     0.2120 C.ar  1 <1>   0.1170 
 14 C       -6.0700    -0.4360    -0.2170 C.3   1 <1>  -0.2400 
 15 C        4.6440    -3.1200    -0.3720 C.ar  1 <1>  -0.1500 
 16 C        5.5010    -1.1230     0.6050 C.ar  1 <1>  -0.1500 
 17 C        5.9300    -3.6010    -0.5630 C.ar  1 <1>  -0.1430 
 18 C        6.7880    -1.5920     0.4210 C.ar  1 <1>  -0.1500 
 19 C        7.0150    -2.8290    -0.1620 C.ar  1 <1>  -0.1430 
 20 C        6.1240    -4.9660    -1.2070 C.3   1 <1>  -0.0970 
 21 C        8.4480    -3.3080    -0.3460 C.3   1 <1>  -0.0970 
 22 H        0.5920    -0.0040     1.9770 H     1 <1>   0.0800 
 23 H        0.8030     0.5490     0.3230 H     1 <1>   0.0800 
 24 H       -1.6810    -3.6050    -1.1010 H     1 <1>   0.0800 
 25 H       -3.4210    -3.7240    -0.9460 H     1 <1>   0.0800 
 26 H       -2.3960    -3.9940     0.4530 H     1 <1>   0.0800 
 27 H        2.3980    -2.0160    -0.1540 H     1 <1>   0.3700 
 28 H       -5.3230    -2.3920     0.2070 H     1 <1>   0.0800 
 29 H       -5.0790    -1.8810    -1.4420 H     1 <1>   0.0800 
 30 H       -6.0630    -0.1050     0.8070 H     1 <1>   0.0800 
 31 H       -7.0570    -0.7820    -0.4630 H     1 <1>   0.0800 
 32 H       -5.8290     0.4020    -0.8490 H     1 <1>   0.0800 
 33 H        3.8060    -3.7170    -0.6790 H     1 <1>   0.1500 
 34 H        5.3580    -0.1590     1.0550 H     1 <1>   0.1500 
 35 H        7.6150    -0.9810     0.7370 H     1 <1>   0.1500 
 36 H        5.1800    -5.4180    -1.4510 H     1 <1>   0.0800 
 37 H        6.6470    -5.6200    -0.5320 H     1 <1>   0.0800 
 38 H        6.6950    -4.8680    -2.1130 H     1 <1>   0.0800 
 39 H        8.6010    -4.2250     0.1930 H     1 <1>   0.0800 
 40 H        9.1480    -2.5800     0.0220 H     1 <1>   0.0800 
 41 H        8.6500    -3.4730    -1.3880 H     1 <1>   0.0800 
@<TRIPOS>BOND
  1   1   2  1   
  2   1   3  1   
  3   2   4  2   
  4   2   5  1   
  5   3   6  1   
  6   3  22  1   
  7   3  23  1   
  8   4   7  1   
  9   5   8  1   
 10   5   9  1   
 11   6  10  2   
 12   6  11  am  
 13   7   8  2   
 14   8  12  1   
 15   9  24  1   
 16   9  25  1   
 17   9  26  1   
 18  11  13  1   
 19  11  27  1   
 20  12  14  1   
 21  12  28  1   
 22  12  29  1   
 23  13  15  ar  
 24  13  16  ar  
 25  14  30  1   
 26  14  31  1   
 27  14  32  1   
 28  15  17  ar  
 29  15  33  1   
 30  16  18  ar  
 31  16  34  1   
 32  17  19  ar  
 33  17  20  1   
 34  18  19  ar  
 35  18  35  1   
 36  19  21  1   
 37  20  36  1   
 38  20  37  1   
 39  20  38  1   
 40  21  39  1   
 41  21  40  1   
 42  21  41  1   
@<TRIPOS>SUBSTRUCTURE
  1 ****   1 GROUP 4 **** **** 0

# MOE 2024.06 (io_trps.svl 2023.06)
