@<TRIPOS>MOLECULE
NONAME
51 53 1 0 0 
SMALL
USER_CHARGES


@<TRIPOS>ATOM
  1 CL       0.5790    -0.1620    -0.2320 Cl    1 <1>  -0.1770 
  2 C        2.0420    -1.0720     0.0560 C.ar  1 <1>   0.1770 
  3 C        2.0140    -2.1460     0.9260 C.ar  1 <1>  -0.1500 
  4 C        3.2080    -0.7060    -0.5910 C.ar  1 <1>  -0.1500 
  5 C        3.1770    -2.8630     1.1490 C.ar  1 <1>  -0.1500 
  6 C        4.3650    -1.4300    -0.3620 C.ar  1 <1>  -0.1500 
  7 C        4.3640    -2.5170     0.5100 C.ar  1 <1>   0.1000 
  8 N        5.5150    -3.2650     0.7500 N.pl3 1 <1>  -0.8380 
  9 C        5.5570    -4.6930     0.3120 C.3   1 <1>   0.2090 
 10 C        6.8340    -2.6030     0.9900 C.3   1 <1>   0.2090 
 11 C        6.5540    -4.8960    -0.8480 C.3   1 <1>   0.3430 
 12 C        7.8150    -2.8510    -0.1760 C.3   1 <1>   0.3430 
 13 N        7.9070    -4.3080    -0.5550 N.4   1 <1>  -0.9590 
 14 C        8.8960    -4.5510    -1.6340 C.3   1 <1>   0.4860 
 15 C       10.2610    -4.1400    -1.1220 C.ar  1 <1>  -0.1430 
 16 C       10.7840    -4.7230     0.0290 C.ar  1 <1>   0.0830 
 17 C       10.9860    -3.1640    -1.7850 C.ar  1 <1>  -0.1500 
 18 O       10.0670    -5.7080     0.6240 O.3   1 <1>  -0.3630 
 19 C       11.9970    -4.2860     0.5610 C.ar  1 <1>  -0.1430 
 20 C       12.2120    -2.7580    -1.2930 C.ar  1 <1>  -0.1500 
 21 C       10.5570    -7.0270     0.4620 C.3   1 <1>   0.0400 
 22 C       12.7210    -3.3110    -0.1200 C.ar  1 <1>   0.0830 
 23 C       12.5430    -4.8350     1.8810 C.3   1 <1>  -0.0970 
 24 O       13.9180    -2.9310     0.4010 O.3   1 <1>  -0.3630 
 25 C       14.7750    -2.0260    -0.2590 C.3   1 <1>   0.0400 
 26 H        1.0960    -2.4090     1.4200 H     1 <1>   0.1500 
 27 H        3.2000     0.1350    -1.2610 H     1 <1>   0.1500 
 28 H        3.1710    -3.6930     1.8320 H     1 <1>   0.1500 
 29 H        5.2680    -1.1480    -0.8670 H     1 <1>   0.1500 
 30 H        4.5760    -5.0040    -0.0060 H     1 <1>   0.0800 
 31 H        5.8400    -5.3090     1.1480 H     1 <1>   0.0800 
 32 H        7.2570    -2.9880     1.9020 H     1 <1>   0.0800 
 33 H        6.6920    -1.5440     1.1260 H     1 <1>   0.0800 
 34 H        6.1420    -4.4280    -1.7270 H     1 <1>   0.0800 
 35 H        6.6470    -5.9510    -1.0470 H     1 <1>   0.0800 
 36 H        8.7890    -2.4830     0.1070 H     1 <1>   0.0800 
 37 H        7.4800    -2.2790    -1.0240 H     1 <1>   0.0800 
 38 H        8.3130    -4.7960     0.2640 H     1 <1>   0.4500 
 39 H        8.6390    -3.9850    -2.5140 H     1 <1>   0.0800 
 40 H        8.9170    -5.5990    -1.8880 H     1 <1>   0.0800 
 41 H       10.6120    -2.7090    -2.6870 H     1 <1>   0.1500 
 42 H       12.7570    -2.0060    -1.8320 H     1 <1>   0.1500 
 43 H       11.5420    -7.1020     0.8870 H     1 <1>   0.0800 
 44 H       10.5950    -7.2620    -0.5870 H     1 <1>   0.0800 
 45 H        9.8930    -7.7030     0.9700 H     1 <1>   0.0800 
 46 H       11.7740    -5.3030     2.4660 H     1 <1>   0.0800 
 47 H       12.9570    -4.0380     2.4730 H     1 <1>   0.0800 
 48 H       13.3210    -5.5500     1.6840 H     1 <1>   0.0800 
 49 H       15.6680    -1.9230     0.3310 H     1 <1>   0.0800 
 50 H       14.2830    -1.0740    -0.3430 H     1 <1>   0.0800 
 51 H       15.0230    -2.4220    -1.2280 H     1 <1>   0.0800 
@<TRIPOS>BOND
  1   1   2  1   
  2   2   3  ar  
  3   2   4  ar  
  4   3   5  ar  
  5   3  26  1   
  6   4   6  ar  
  7   4  27  1   
  8   5   7  ar  
  9   5  28  1   
 10   6   7  ar  
 11   6  29  1   
 12   7   8  1   
 13   8   9  1   
 14   8  10  1   
 15   9  11  1   
 16   9  30  1   
 17   9  31  1   
 18  10  12  1   
 19  10  32  1   
 20  10  33  1   
 21  11  13  1   
 22  11  34  1   
 23  11  35  1   
 24  12  13  1   
 25  12  36  1   
 26  12  37  1   
 27  13  14  1   
 28  13  38  1   
 29  14  15  1   
 30  14  39  1   
 31  14  40  1   
 32  15  16  ar  
 33  15  17  ar  
 34  16  18  1   
 35  16  19  ar  
 36  17  20  ar  
 37  17  41  1   
 38  18  21  1   
 39  19  22  ar  
 40  19  23  1   
 41  20  22  ar  
 42  20  42  1   
 43  21  43  1   
 44  21  44  1   
 45  21  45  1   
 46  22  24  1   
 47  23  46  1   
 48  23  47  1   
 49  23  48  1   
 50  24  25  1   
 51  25  49  1   
 52  25  50  1   
 53  25  51  1   
@<TRIPOS>SUBSTRUCTURE
  1 ****  12 GROUP 4 **** **** 0

# MOE 2024.06 (io_trps.svl 2023.06)
