@<TRIPOS>MOLECULE
NONAME
37 39 1 0 0 
SMALL
USER_CHARGES


@<TRIPOS>ATOM
  1 O       -0.0550    -0.9240    -0.1460 O.3   1 <1>  -0.6800 
  2 C        1.2950    -1.0170    -0.3790 C.3   1 <1>   0.2000 
  3 C        1.6880    -2.4910    -0.3000 C.3   1 <1>  -0.1600 
  4 C        1.9900    -0.1890     0.6990 C.3   1 <1>  -0.1600 
  5 C        3.2060    -2.6520    -0.3130 C.3   1 <1>   0.3430 
  6 C        3.4990    -0.3960     0.6610 C.3   1 <1>   0.3430 
  7 N        3.8090    -1.8490     0.7930 N.4   1 <1>  -0.9590 
  8 C        5.2730    -2.1350     0.9760 C.3   1 <1>   0.3430 
  9 C        6.1710    -1.6800    -0.1950 C.3   1 <1>  -0.0800 
 10 C        7.6160    -2.4720    -0.1170 C.3   1 <1>   0.0580 
 11 C        6.5280    -0.0220    -0.2070 C.3   1 <1>  -0.1600 
 12 C        9.1980    -2.1610     0.0580 C.2   1 <1>  -0.2880 
 13 C        7.8540    -1.1660    -0.1670 C.3   1 <1>  -0.1600 
 14 C        8.1670     0.1260    -0.1700 C.3   1 <1>   0.0580 
 15 C        9.4870    -0.7950     0.0310 C.2   1 <1>  -0.2880 
 16 H       -0.5770    -1.3200    -0.8720 H     1 <1>   0.4000 
 17 H        1.4990    -0.6120    -1.3580 H     1 <1>   0.0800 
 18 H        1.2760    -3.0200    -1.1410 H     1 <1>   0.0800 
 19 H        1.2950    -2.9320     0.6000 H     1 <1>   0.0800 
 20 H        1.6190    -0.4590     1.6720 H     1 <1>   0.0800 
 21 H        1.7740     0.8530     0.5380 H     1 <1>   0.0800 
 22 H        3.5940    -2.3180    -1.2620 H     1 <1>   0.0800 
 23 H        3.4560    -3.6940    -0.1920 H     1 <1>   0.0800 
 24 H        3.9560     0.1550     1.4670 H     1 <1>   0.0800 
 25 H        3.8900    -0.0210    -0.2720 H     1 <1>   0.0800 
 26 H        3.3380    -2.1570     1.6560 H     1 <1>   0.4500 
 27 H        5.4010    -3.1980     1.1030 H     1 <1>   0.0800 
 28 H        5.6240    -1.6630     1.8800 H     1 <1>   0.0800 
 29 H        5.6980    -1.9510    -1.1260 H     1 <1>   0.0800 
 30 H        7.6120    -3.0720    -1.0180 H     1 <1>   0.0800 
 31 H        6.1160     0.4820     0.6530 H     1 <1>   0.0800 
 32 H        6.1280     0.4500    -1.0920 H     1 <1>   0.0800 
 33 H        9.8800    -2.9880     0.1740 H     1 <1>   0.1500 
 34 H        7.9090    -1.1980    -1.3380 H     1 <1>   0.0800 
 35 H        7.7390    -1.1180     1.0430 H     1 <1>   0.0800 
 36 H        8.3900     0.6430    -1.0950 H     1 <1>   0.0800 
 37 H       10.4460    -0.3090     0.1220 H     1 <1>   0.1500 
@<TRIPOS>BOND
  1   1   2  1   
  2   1  16  1   
  3   2   3  1   
  4   2   4  1   
  5   2  17  1   
  6   3   5  1   
  7   3  18  1   
  8   3  19  1   
  9   4   6  1   
 10   4  20  1   
 11   4  21  1   
 12   5   7  1   
 13   5  22  1   
 14   5  23  1   
 15   6   7  1   
 16   6  24  1   
 17   6  25  1   
 18   7   8  1   
 19   7  26  1   
 20   8   9  1   
 21   8  27  1   
 22   8  28  1   
 23   9  10  1   
 24   9  11  1   
 25   9  29  1   
 26  10  12  1   
 27  10  13  1   
 28  10  30  1   
 29  11  14  1   
 30  11  31  1   
 31  11  32  1   
 32  12  15  2   
 33  12  33  1   
 34  13  14  1   
 35  13  34  1   
 36  13  35  1   
 37  14  15  1   
 38  14  36  1   
 39  15  37  1   
@<TRIPOS>SUBSTRUCTURE
  1 ****   9 GROUP 4 **** **** 0

# MOE 2024.06 (io_trps.svl 2023.06)
