@<TRIPOS>MOLECULE
NONAME
52 54 1 0 0 
SMALL
USER_CHARGES


@<TRIPOS>ATOM
  1 O        0.4300     0.9880     2.4630 O.2   1 <1>  -0.5700 
  2 C       -0.1330     1.8670     1.8340 C.2   1 <1>   0.5440 
  3 N       -1.4540     1.6650     1.4680 N.am  1 <1>  -0.6600 
  4 C        0.5940     3.0620     1.4650 C.ar  1 <1>   0.0860 
  5 C       -2.1480     2.4750     0.4200 C.3   1 <1>   0.1400 
  6 C       -2.0680     0.3170     1.6310 C.3   1 <1>   0.1400 
  7 C        1.7590     3.0140     0.6790 C.ar  1 <1>   0.1170 
  8 C        0.1450     4.3090     1.9070 C.ar  1 <1>  -0.1500 
  9 C       -2.1590     1.7330    -0.9340 C.3   1 <1>   0.3430 
 10 C       -1.9480    -0.4400     0.2990 C.3   1 <1>   0.3430 
 11 N        2.3470     1.8180     0.2490 N.am  1 <1>  -0.5470 
 12 C        2.4030     4.1990     0.3400 C.ar  1 <1>  -0.1500 
 13 C        0.7950     5.4760     1.5630 C.ar  1 <1>  -0.1500 
 14 N       -2.6170     0.2940    -0.8400 N.4   1 <1>  -0.9590 
 15 C        1.8070     0.7590    -0.4260 C.2   1 <1>   0.5690 
 16 C        1.9280     5.4210     0.7710 C.ar  1 <1>  -0.1500 
 17 C       -2.3070    -0.4000    -2.1240 C.3   1 <1>   0.2630 
 18 O        0.7230     0.8040    -0.9590 O.2   1 <1>  -0.5700 
 19 C        2.6120    -0.5360    -0.5020 C.3   1 <1>  -0.0190 
 20 C        2.8010    -1.1620     0.8950 C.3   1 <1>  -0.1600 
 21 C        3.9710    -0.3370    -1.2030 C.3   1 <1>  -0.1600 
 22 C        3.5920    -2.4740     0.8180 C.3   1 <1>  -0.1600 
 23 C        4.7570    -1.6530    -1.2770 C.3   1 <1>  -0.1600 
 24 C        4.9400    -2.2690     0.1160 C.3   1 <1>  -0.1600 
 25 H       -1.6690     3.4270     0.2840 H     1 <1>   0.0800 
 26 H       -3.1580     2.6660     0.7350 H     1 <1>   0.0800 
 27 H       -3.1010     0.4180     1.9150 H     1 <1>   0.0800 
 28 H       -1.5730    -0.2400     2.4080 H     1 <1>   0.0800 
 29 H       -0.7280     4.3550     2.5350 H     1 <1>   0.1500 
 30 H       -1.1640     1.7690    -1.3380 H     1 <1>   0.0800 
 31 H       -2.7930     2.2700    -1.6200 H     1 <1>   0.0800 
 32 H       -2.3800    -1.4210     0.4080 H     1 <1>   0.0800 
 33 H       -0.8980    -0.5640     0.0830 H     1 <1>   0.0800 
 34 H        3.2960     1.6620     0.5890 H     1 <1>   0.3700 
 35 H        3.2890     4.1640    -0.2690 H     1 <1>   0.1500 
 36 H        0.4300     6.4280     1.9120 H     1 <1>   0.1500 
 37 H       -3.6310     0.2860    -0.6750 H     1 <1>   0.4500 
 38 H        2.4390     6.3300     0.4990 H     1 <1>   0.1500 
 39 H       -1.2420    -0.3860    -2.3010 H     1 <1>   0.0800 
 40 H       -2.7990     0.0930    -2.9470 H     1 <1>   0.0800 
 41 H       -2.6380    -1.4250    -2.0880 H     1 <1>   0.0800 
 42 H        2.0410    -1.2290    -1.0940 H     1 <1>   0.0800 
 43 H        1.8380    -1.3480     1.3410 H     1 <1>   0.0800 
 44 H        3.3250    -0.4760     1.5380 H     1 <1>   0.0800 
 45 H        4.5610     0.3870    -0.6680 H     1 <1>   0.0800 
 46 H        3.8110     0.0390    -2.1990 H     1 <1>   0.0800 
 47 H        3.0180    -3.2090     0.2790 H     1 <1>   0.0800 
 48 H        3.7580    -2.8530     1.8130 H     1 <1>   0.0800 
 49 H        5.7220    -1.4730    -1.7200 H     1 <1>   0.0800 
 50 H        4.2320    -2.3500    -1.9080 H     1 <1>   0.0800 
 51 H        5.4460    -3.2160     0.0270 H     1 <1>   0.0800 
 52 H        5.5590    -1.6230     0.7150 H     1 <1>   0.0800 
@<TRIPOS>BOND
  1   1   2  2   
  2   2   3  am  
  3   2   4  1   
  4   3   5  1   
  5   3   6  1   
  6   4   7  ar  
  7   4   8  ar  
  8   5   9  1   
  9   5  25  1   
 10   5  26  1   
 11   6  10  1   
 12   6  27  1   
 13   6  28  1   
 14   7  11  1   
 15   7  12  ar  
 16   8  13  ar  
 17   8  29  1   
 18   9  14  1   
 19   9  30  1   
 20   9  31  1   
 21  10  14  1   
 22  10  32  1   
 23  10  33  1   
 24  11  15  am  
 25  11  34  1   
 26  12  16  ar  
 27  12  35  1   
 28  13  16  ar  
 29  13  36  1   
 30  14  17  1   
 31  14  37  1   
 32  15  18  2   
 33  15  19  1   
 34  16  38  1   
 35  17  39  1   
 36  17  40  1   
 37  17  41  1   
 38  19  20  1   
 39  19  21  1   
 40  19  42  1   
 41  20  22  1   
 42  20  43  1   
 43  20  44  1   
 44  21  23  1   
 45  21  45  1   
 46  21  46  1   
 47  22  24  1   
 48  22  47  1   
 49  22  48  1   
 50  23  24  1   
 51  23  49  1   
 52  23  50  1   
 53  24  51  1   
 54  24  52  1   
@<TRIPOS>SUBSTRUCTURE
  1 ****  15 GROUP 4 **** **** 0

# MOE 2024.06 (io_trps.svl 2023.06)
