@<TRIPOS>MOLECULE
NONAME
44 45 1 0 0 
SMALL
USER_CHARGES


@<TRIPOS>ATOM
  1 S        0.3330    -1.6070     0.4470 S.3   1 <1>  -0.2860 
  2 C       -1.3580    -1.0130     0.2990 C.2   1 <1>   0.2420 
  3 C        1.2590    -0.0750     0.9610 C.3   1 <1>   0.1310 
  4 N       -1.6740     0.2180     0.4810 N.2   1 <1>  -0.3380 
  5 N       -2.3950    -1.8000    -0.0030 N.pl3 1 <1>   0.0480 
  6 C        2.7550    -0.3320     1.0580 C.2   1 <1>   0.5690 
  7 N       -2.9930     0.2830     0.3000 N.2   1 <1>  -0.3380 
  8 C       -3.4060    -0.9080     0.0180 C.2   1 <1>   0.0060 
  9 C       -2.3490    -3.2710    -0.2480 C.3   1 <1>   0.1760 
 10 O        3.4060     0.3980     1.7650 O.2   1 <1>  -0.5700 
 11 N        3.2870    -1.3690     0.3390 N.am  1 <1>  -0.5470 
 12 C       -4.8710    -1.2060    -0.2460 C.3   1 <1>  -0.0600 
 13 C       -3.0760    -3.6700    -1.5390 C.3   1 <1>  -0.2400 
 14 C       -2.8950    -4.0380     0.9620 C.3   1 <1>  -0.2400 
 15 C        4.6020    -1.8380     0.1910 C.ar  1 <1>   0.1170 
 16 C        4.7950    -3.1090    -0.3370 C.ar  1 <1>  -0.1500 
 17 C        5.7230    -1.0930     0.5310 C.ar  1 <1>  -0.1500 
 18 C        6.0630    -3.6350    -0.5230 C.ar  1 <1>  -0.1430 
 19 C        6.9930    -1.6080     0.3520 C.ar  1 <1>  -0.1500 
 20 C        7.1760    -2.8770    -0.1740 C.ar  1 <1>  -0.1430 
 21 C        6.2090    -5.0350    -1.1040 C.3   1 <1>  -0.0970 
 22 C        8.5920    -3.4060    -0.3550 C.3   1 <1>  -0.0970 
 23 H        0.8670     0.2280     1.9140 H     1 <1>   0.0800 
 24 H        1.0580     0.6840     0.2280 H     1 <1>   0.0800 
 25 H       -1.3180    -3.5500    -0.3710 H     1 <1>   0.0800 
 26 H        2.5850    -1.9370    -0.1350 H     1 <1>   0.3700 
 27 H       -5.2020    -2.0450     0.3350 H     1 <1>   0.0800 
 28 H       -5.0250    -1.4030    -1.2910 H     1 <1>   0.0800 
 29 H       -5.4670    -0.3530     0.0250 H     1 <1>   0.0800 
 30 H       -4.1410    -3.5840    -1.4340 H     1 <1>   0.0800 
 31 H       -2.8530    -4.6960    -1.7740 H     1 <1>   0.0800 
 32 H       -2.7430    -3.0590    -2.3590 H     1 <1>   0.0800 
 33 H       -2.3460    -3.7700     1.8480 H     1 <1>   0.0800 
 34 H       -2.7830    -5.0960     0.8070 H     1 <1>   0.0800 
 35 H       -3.9370    -3.8290     1.1180 H     1 <1>   0.0800 
 36 H        3.9360    -3.6940    -0.6040 H     1 <1>   0.1500 
 37 H        5.6150    -0.1050     0.9360 H     1 <1>   0.1500 
 38 H        7.8420    -1.0070     0.6270 H     1 <1>   0.1500 
 39 H        5.2490    -5.4700    -1.3120 H     1 <1>   0.0800 
 40 H        6.7230    -5.6700    -0.4060 H     1 <1>   0.0800 
 41 H        6.7680    -4.9960    -2.0210 H     1 <1>   0.0800 
 42 H        8.7730    -3.6270    -1.3910 H     1 <1>   0.0800 
 43 H        8.7270    -4.3010     0.2250 H     1 <1>   0.0800 
 44 H        9.3180    -2.6820    -0.0330 H     1 <1>   0.0800 
@<TRIPOS>BOND
  1   1   2  1   
  2   1   3  1   
  3   2   4  2   
  4   2   5  1   
  5   3   6  1   
  6   3  23  1   
  7   3  24  1   
  8   4   7  1   
  9   5   8  1   
 10   5   9  1   
 11   6  10  2   
 12   6  11  am  
 13   7   8  2   
 14   8  12  1   
 15   9  13  1   
 16   9  14  1   
 17   9  25  1   
 18  11  15  1   
 19  11  26  1   
 20  12  27  1   
 21  12  28  1   
 22  12  29  1   
 23  13  30  1   
 24  13  31  1   
 25  13  32  1   
 26  14  33  1   
 27  14  34  1   
 28  14  35  1   
 29  15  16  ar  
 30  15  17  ar  
 31  16  18  ar  
 32  16  36  1   
 33  17  19  ar  
 34  17  37  1   
 35  18  20  ar  
 36  18  21  1   
 37  19  20  ar  
 38  19  38  1   
 39  20  22  1   
 40  21  39  1   
 41  21  40  1   
 42  21  41  1   
 43  22  42  1   
 44  22  43  1   
 45  22  44  1   
@<TRIPOS>SUBSTRUCTURE
  1 ****   1 GROUP 4 **** **** 0

# MOE 2024.06 (io_trps.svl 2023.06)
