@<TRIPOS>MOLECULE
NONAME
48 50 1 0 0 
SMALL
USER_CHARGES


@<TRIPOS>ATOM
  1 O        0.6050    -2.4790     1.9520 O.2   1 <1>  -0.5700 
  2 C        0.2370    -2.7560     0.8280 C.2   1 <1>   0.5440 
  3 N        1.1470    -2.8260    -0.2050 N.am  1 <1>  -0.5470 
  4 C       -1.1660    -3.0070     0.5620 C.ar  1 <1>   0.0860 
  5 C        2.5370    -2.6450    -0.2400 C.ar  1 <1>   0.1170 
  6 C       -1.5880    -3.8790    -0.4420 C.ar  1 <1>  -0.1500 
  7 C       -2.1600    -2.3790     1.3100 C.ar  1 <1>  -0.1500 
  8 C        3.2340    -1.8790     0.6860 C.ar  1 <1>  -0.1500 
  9 C        3.2610    -3.2400    -1.2650 C.ar  1 <1>  -0.1500 
 10 C       -2.9250    -4.1060    -0.7130 C.ar  1 <1>   0.0830 
 11 C       -3.5030    -2.5850     1.0550 C.ar  1 <1>  -0.1500 
 12 C        4.6050    -1.7260     0.6010 C.ar  1 <1>  -0.1500 
 13 C        4.6330    -3.0890    -1.3530 C.ar  1 <1>  -0.1500 
 14 O       -3.1520    -4.9890    -1.7270 O.3   1 <1>  -0.3630 
 15 C       -3.9110    -3.4400     0.0350 C.ar  1 <1>   0.0830 
 16 C        5.3330    -2.3390    -0.4140 C.ar  1 <1>  -0.1430 
 17 C       -4.3110    -5.7930    -1.7650 C.3   1 <1>   0.0400 
 18 O       -5.2290    -3.6220    -0.2510 O.3   1 <1>  -0.3630 
 19 C        6.8620    -2.1770    -0.5190 C.3   1 <1>   0.3430 
 20 C       -6.2580    -2.9200     0.4120 C.3   1 <1>   0.0400 
 21 C        7.1770    -1.0470    -1.4610 C.1   1 <1>   0.3570 
 22 C        7.5650    -3.4630    -0.9890 C.3   1 <1>  -0.1600 
 23 C        7.5510    -1.9390     0.8360 C.3   1 <1>  -0.1600 
 24 N        7.4370    -0.1990    -2.1760 N.1   1 <1>  -0.5570 
 25 C        9.0150    -3.3740    -0.4970 C.3   1 <1>  -0.1600 
 26 C        9.0090    -2.3740     0.6630 C.3   1 <1>  -0.1600 
 27 H        0.7350    -3.0610    -1.1050 H     1 <1>   0.3700 
 28 H       -0.8640    -4.4140    -1.0280 H     1 <1>   0.1500 
 29 H       -1.8660    -1.7130     2.1050 H     1 <1>   0.1500 
 30 H        2.7030    -1.3890     1.4820 H     1 <1>   0.1500 
 31 H        2.7480    -3.8310    -2.0020 H     1 <1>   0.1500 
 32 H       -4.2150    -2.0640     1.6660 H     1 <1>   0.1500 
 33 H        5.0890    -1.1150     1.3420 H     1 <1>   0.1500 
 34 H        5.1450    -3.5640    -2.1710 H     1 <1>   0.1500 
 35 H       -4.1260    -6.6180    -2.4280 H     1 <1>   0.0800 
 36 H       -5.1300    -5.2040    -2.1380 H     1 <1>   0.0800 
 37 H       -4.5210    -6.1550    -0.7740 H     1 <1>   0.0800 
 38 H       -6.1110    -1.8650     0.2690 H     1 <1>   0.0800 
 39 H       -6.2390    -3.1760     1.4570 H     1 <1>   0.0800 
 40 H       -7.1970    -3.2190    -0.0180 H     1 <1>   0.0800 
 41 H        7.5190    -3.5900    -2.0570 H     1 <1>   0.0800 
 42 H        7.0950    -4.3100    -0.5190 H     1 <1>   0.0800 
 43 H        7.0930    -2.5700     1.5790 H     1 <1>   0.0800 
 44 H        7.4790    -0.9140     1.1580 H     1 <1>   0.0800 
 45 H        9.6510    -3.0070    -1.2860 H     1 <1>   0.0800 
 46 H        9.3740    -4.3390    -0.1840 H     1 <1>   0.0800 
 47 H        9.3920    -2.8160     1.5680 H     1 <1>   0.0800 
 48 H        9.6190    -1.5230     0.4080 H     1 <1>   0.0800 
@<TRIPOS>BOND
  1   1   2  2   
  2   2   3  am  
  3   2   4  1   
  4   3   5  1   
  5   3  27  1   
  6   4   6  ar  
  7   4   7  ar  
  8   5   8  ar  
  9   5   9  ar  
 10   6  10  ar  
 11   6  28  1   
 12   7  11  ar  
 13   7  29  1   
 14   8  12  ar  
 15   8  30  1   
 16   9  13  ar  
 17   9  31  1   
 18  10  14  1   
 19  10  15  ar  
 20  11  15  ar  
 21  11  32  1   
 22  12  16  ar  
 23  12  33  1   
 24  13  16  ar  
 25  13  34  1   
 26  14  17  1   
 27  15  18  1   
 28  16  19  1   
 29  17  35  1   
 30  17  36  1   
 31  17  37  1   
 32  18  20  1   
 33  19  21  1   
 34  19  22  1   
 35  19  23  1   
 36  20  38  1   
 37  20  39  1   
 38  20  40  1   
 39  21  24  3   
 40  22  25  1   
 41  22  41  1   
 42  22  42  1   
 43  23  26  1   
 44  23  43  1   
 45  23  44  1   
 46  25  26  1   
 47  25  45  1   
 48  25  46  1   
 49  26  47  1   
 50  26  48  1   
@<TRIPOS>SUBSTRUCTURE
  1 ****   3 GROUP 4 **** **** 0

# MOE 2024.06 (io_trps.svl 2023.06)
