@<TRIPOS>MOLECULE
NONAME
47 49 1 0 0 
SMALL
USER_CHARGES


@<TRIPOS>ATOM
  1 F       -1.7990     0.4360     1.7940 F     1 <1>  -0.3400 
  2 C       -1.8850    -0.1010     0.5830 C.3   1 <1>   1.1640 
  3 F       -1.8160     0.9090    -0.2760 F     1 <1>  -0.3400 
  4 F       -0.7840    -0.8180     0.4100 F     1 <1>  -0.3400 
  5 C       -3.1570    -0.9490     0.4020 C.ar  1 <1>  -0.1440 
  6 C       -3.7840    -1.0450    -0.8360 C.ar  1 <1>  -0.1500 
  7 C       -3.7010    -1.6500     1.4740 C.ar  1 <1>  -0.1500 
  8 C       -4.9270    -1.8070    -0.9960 C.ar  1 <1>  -0.1500 
  9 C       -4.8440    -2.4120     1.3170 C.ar  1 <1>  -0.1500 
 10 C       -5.4700    -2.4890     0.0820 C.ar  1 <1>  -0.1430 
 11 C       -6.7410    -3.3020    -0.0820 C.3   1 <1>   0.4870 
 12 N       -7.8880    -2.3630    -0.1860 N.4   1 <1>  -0.9590 
 13 C       -8.0470    -1.5260     1.0620 C.3   1 <1>   0.3430 
 14 C       -9.1760    -3.0730    -0.5180 C.3   1 <1>   0.3430 
 15 C       -9.2250    -0.5380     0.9580 C.3   1 <1>   0.2090 
 16 C      -10.3680    -2.1010    -0.6340 C.3   1 <1>   0.2090 
 17 N      -10.4850    -1.2460     0.5840 N.pl3 1 <1>  -0.8380 
 18 C      -11.6300    -0.4360     0.6110 C.ar  1 <1>   0.1000 
 19 C      -11.8570     0.6340    -0.2750 C.ar  1 <1>   0.0830 
 20 C      -12.5860    -0.7200     1.5750 C.ar  1 <1>  -0.1500 
 21 O      -10.9050     0.9080    -1.2240 O.3   1 <1>  -0.3630 
 22 C      -13.0290     1.3780    -0.1670 C.ar  1 <1>  -0.1500 
 23 C      -13.7470     0.0240     1.6760 C.ar  1 <1>  -0.1500 
 24 C      -11.0500     1.9980    -2.1100 C.3   1 <1>   0.0400 
 25 C      -13.9680     1.0740     0.8040 C.ar  1 <1>  -0.1500 
 26 H       -3.3780    -0.5250    -1.6900 H     1 <1>   0.1500 
 27 H       -3.2300    -1.6060     2.4440 H     1 <1>   0.1500 
 28 H       -5.3790    -1.8600    -1.9730 H     1 <1>   0.1500 
 29 H       -5.2330    -2.9440     2.1700 H     1 <1>   0.1500 
 30 H       -6.8710    -3.9590     0.7620 H     1 <1>   0.0800 
 31 H       -6.6670    -3.9010    -0.9750 H     1 <1>   0.0800 
 32 H       -7.6810    -1.7070    -0.9470 H     1 <1>   0.4500 
 33 H       -7.1440    -0.9680     1.2490 H     1 <1>   0.0800 
 34 H       -8.2230    -2.1670     1.9090 H     1 <1>   0.0800 
 35 H       -9.4060    -3.7870     0.2560 H     1 <1>   0.0800 
 36 H       -9.0740    -3.6100    -1.4460 H     1 <1>   0.0800 
 37 H       -8.9970     0.2200     0.2300 H     1 <1>   0.0800 
 38 H       -9.3660    -0.0490     1.9070 H     1 <1>   0.0800 
 39 H      -11.2780    -2.6640    -0.7540 H     1 <1>   0.0800 
 40 H      -10.2470    -1.4840    -1.5070 H     1 <1>   0.0800 
 41 H      -12.4150    -1.5360     2.2520 H     1 <1>   0.1500 
 42 H      -13.2390     2.1990    -0.8240 H     1 <1>   0.1500 
 43 H      -14.4760    -0.2130     2.4310 H     1 <1>   0.1500 
 44 H      -10.1840     2.0330    -2.7450 H     1 <1>   0.0800 
 45 H      -11.1210     2.9060    -1.5380 H     1 <1>   0.0800 
 46 H      -11.9330     1.8490    -2.7070 H     1 <1>   0.0800 
 47 H      -14.8710     1.6540     0.8810 H     1 <1>   0.1500 
@<TRIPOS>BOND
  1   1   2  1   
  2   2   3  1   
  3   2   4  1   
  4   2   5  1   
  5   5   6  ar  
  6   5   7  ar  
  7   6   8  ar  
  8   6  26  1   
  9   7   9  ar  
 10   7  27  1   
 11   8  10  ar  
 12   8  28  1   
 13   9  10  ar  
 14   9  29  1   
 15  10  11  1   
 16  11  12  1   
 17  11  30  1   
 18  11  31  1   
 19  12  13  1   
 20  12  14  1   
 21  12  32  1   
 22  13  15  1   
 23  13  33  1   
 24  13  34  1   
 25  14  16  1   
 26  14  35  1   
 27  14  36  1   
 28  15  17  1   
 29  15  37  1   
 30  15  38  1   
 31  16  17  1   
 32  16  39  1   
 33  16  40  1   
 34  17  18  1   
 35  18  19  ar  
 36  18  20  ar  
 37  19  21  1   
 38  19  22  ar  
 39  20  23  ar  
 40  20  41  1   
 41  21  24  1   
 42  22  25  ar  
 43  22  42  1   
 44  23  25  ar  
 45  23  43  1   
 46  24  44  1   
 47  24  45  1   
 48  24  46  1   
 49  25  47  1   
@<TRIPOS>SUBSTRUCTURE
  1 ****  13 GROUP 4 **** **** 0

# MOE 2024.06 (io_trps.svl 2023.06)
