@<TRIPOS>MOLECULE
NONAME
46 48 1 0 0 
SMALL
USER_CHARGES


@<TRIPOS>ATOM
  1 F       -0.7440     0.7780     1.4330 F     1 <1>  -0.1900 
  2 C        0.1080     1.4620     0.7050 C.ar  1 <1>   0.1900 
  3 C       -0.3560     2.4950    -0.1200 C.ar  1 <1>   0.1000 
  4 C        1.4420     1.1170     0.7950 C.ar  1 <1>  -0.1500 
  5 N       -1.6960     2.8820    -0.2460 N.pl3 1 <1>  -0.8380 
  6 C        0.5990     3.1780    -0.8630 C.ar  1 <1>  -0.1500 
  7 C        2.3680     1.8180     0.0400 C.ar  1 <1>  -0.1500 
  8 C       -2.3000     3.5290     0.9610 C.3   1 <1>   0.2090 
  9 C       -2.6110     1.8710    -0.8550 C.3   1 <1>   0.2090 
 10 C        1.9430     2.8460    -0.7870 C.ar  1 <1>  -0.1500 
 11 C       -3.6650     4.1600     0.6360 C.3   1 <1>   0.1400 
 12 C       -3.9750     2.4950    -1.2010 C.3   1 <1>   0.1400 
 13 N       -4.5830     3.1670    -0.0080 N.am  1 <1>  -0.6600 
 14 C       -5.8810     3.0230     0.4110 C.2   1 <1>   0.6900 
 15 O       -6.3700     3.8310     1.1770 O.2   1 <1>  -0.5700 
 16 N       -6.6010     1.9500    -0.0250 N.am  1 <1>  -0.5470 
 17 C       -7.9420     1.6270     0.2280 C.ar  1 <1>   0.1170 
 18 C       -9.0160     2.4390    -0.1590 C.ar  1 <1>  -0.1430 
 19 C       -8.1960     0.4270     0.8780 C.ar  1 <1>  -0.1500 
 20 C      -10.3190     2.0430     0.1390 C.ar  1 <1>  -0.1430 
 21 C       -8.7580     3.7510    -0.9030 C.3   1 <1>  -0.0970 
 22 C       -9.4870     0.0310     1.1580 C.ar  1 <1>  -0.1500 
 23 C      -10.5440     0.8400     0.7900 C.ar  1 <1>  -0.1500 
 24 C      -11.5300     2.8950    -0.2210 C.3   1 <1>  -0.0970 
 25 H        1.7480     0.3160     1.4420 H     1 <1>   0.1500 
 26 H        0.2740     3.9770    -1.5040 H     1 <1>   0.1500 
 27 H        3.4130     1.5650     0.0940 H     1 <1>   0.1500 
 28 H       -1.6330     4.2900     1.3270 H     1 <1>   0.0800 
 29 H       -2.4280     2.7960     1.7390 H     1 <1>   0.0800 
 30 H       -2.7580     1.0550    -0.1690 H     1 <1>   0.0800 
 31 H       -2.1590     1.4800    -1.7500 H     1 <1>   0.0800 
 32 H        2.6610     3.3920    -1.3740 H     1 <1>   0.1500 
 33 H       -3.5200     4.9900    -0.0310 H     1 <1>   0.0800 
 34 H       -4.0980     4.5380     1.5460 H     1 <1>   0.0800 
 35 H       -4.6260     1.7360    -1.5930 H     1 <1>   0.0800 
 36 H       -3.8280     3.2300    -1.9730 H     1 <1>   0.0800 
 37 H       -6.0220     1.1850    -0.3420 H     1 <1>   0.3700 
 38 H       -7.3750    -0.1990     1.1760 H     1 <1>   0.1500 
 39 H       -7.8620     3.6940    -1.4910 H     1 <1>   0.0800 
 40 H       -8.6480     4.5490    -0.1910 H     1 <1>   0.0800 
 41 H       -9.5580     3.9910    -1.5760 H     1 <1>   0.0800 
 42 H       -9.6720    -0.9000     1.6640 H     1 <1>   0.1500 
 43 H      -11.5470     0.5250     1.0200 H     1 <1>   0.1500 
 44 H      -11.3820     3.9070     0.1110 H     1 <1>   0.0800 
 45 H      -12.4210     2.5200     0.2490 H     1 <1>   0.0800 
 46 H      -11.6800     2.8890    -1.2850 H     1 <1>   0.0800 
@<TRIPOS>BOND
  1   1   2  1   
  2   2   3  ar  
  3   2   4  ar  
  4   3   5  1   
  5   3   6  ar  
  6   4   7  ar  
  7   4  25  1   
  8   5   8  1   
  9   5   9  1   
 10   6  10  ar  
 11   6  26  1   
 12   7  10  ar  
 13   7  27  1   
 14   8  11  1   
 15   8  28  1   
 16   8  29  1   
 17   9  12  1   
 18   9  30  1   
 19   9  31  1   
 20  10  32  1   
 21  11  13  1   
 22  11  33  1   
 23  11  34  1   
 24  12  13  1   
 25  12  35  1   
 26  12  36  1   
 27  13  14  am  
 28  14  15  2   
 29  14  16  am  
 30  16  17  1   
 31  16  37  1   
 32  17  18  ar  
 33  17  19  ar  
 34  18  20  ar  
 35  18  21  1   
 36  19  22  ar  
 37  19  38  1   
 38  20  23  ar  
 39  20  24  1   
 40  21  39  1   
 41  21  40  1   
 42  21  41  1   
 43  22  23  ar  
 44  22  42  1   
 45  23  43  1   
 46  24  44  1   
 47  24  45  1   
 48  24  46  1   
@<TRIPOS>SUBSTRUCTURE
  1 ****  13 GROUP 4 **** **** 0

# MOE 2024.06 (io_trps.svl 2023.06)
