@<TRIPOS>MOLECULE
NONAME
30 30 1 0 0 
SMALL
USER_CHARGES


@<TRIPOS>ATOM
  1 CL      -2.7190     1.1840     3.0350 Cl    1 <1>  -0.1770 
  2 C       -1.6170     2.0510     1.9850 C.ar  1 <1>   0.1770 
  3 C       -2.0420     2.4830     0.7330 C.ar  1 <1>   0.0830 
  4 C       -0.3310     2.2880     2.4330 C.ar  1 <1>  -0.1500 
  5 O       -3.3220     2.2120     0.3650 O.3   1 <1>  -0.3630 
  6 C       -1.1400     3.1700    -0.0770 C.ar  1 <1>  -0.1500 
  7 C        0.5560     2.9720     1.6190 C.ar  1 <1>  -0.1500 
  8 C       -3.8400     2.6110    -0.8970 C.3   1 <1>   0.1810 
  9 C        0.1500     3.4100     0.3690 C.ar  1 <1>  -0.1500 
 10 C       -5.2960     2.1880    -1.0510 C.2   1 <1>   0.5690 
 11 O       -5.9060     2.5600    -2.0250 O.2   1 <1>  -0.5700 
 12 N       -5.8750     1.4150    -0.0940 N.am  1 <1>  -0.7300 
 13 C       -7.2700     0.9110    -0.1190 C.3   1 <1>   0.1400 
 14 C       -8.2190     1.9530     0.4710 C.3   1 <1>   0.1200 
 15 O       -9.4860     1.3860     0.5850 O.3   1 <1>  -0.5600 
 16 C      -10.4560     2.2670     1.0500 C.3   1 <1>   0.0400 
 17 H       -0.0310     1.9420     3.4060 H     1 <1>   0.1500 
 18 H       -1.4180     3.5250    -1.0520 H     1 <1>   0.1500 
 19 H        1.5610     3.1630     1.9580 H     1 <1>   0.1500 
 20 H       -3.2540     2.1490    -1.6700 H     1 <1>   0.0800 
 21 H       -3.7740     3.6810    -0.9710 H     1 <1>   0.0800 
 22 H        0.8440     3.9410    -0.2610 H     1 <1>   0.1500 
 23 H       -5.3080     1.1680     0.7240 H     1 <1>   0.3700 
 24 H       -7.3280     0.0020     0.4530 H     1 <1>   0.0800 
 25 H       -7.5590     0.7060    -1.1360 H     1 <1>   0.0800 
 26 H       -8.2760     2.8080    -0.1820 H     1 <1>   0.0800 
 27 H       -7.8890     2.2490     1.4520 H     1 <1>   0.0800 
 28 H      -11.3900     1.7370     1.1060 H     1 <1>   0.0800 
 29 H      -10.5470     3.0900     0.3610 H     1 <1>   0.0800 
 30 H      -10.1780     2.6190     2.0280 H     1 <1>   0.0800 
@<TRIPOS>BOND
  1   1   2  1   
  2   2   3  ar  
  3   2   4  ar  
  4   3   5  1   
  5   3   6  ar  
  6   4   7  ar  
  7   4  17  1   
  8   5   8  1   
  9   6   9  ar  
 10   6  18  1   
 11   7   9  ar  
 12   7  19  1   
 13   8  10  1   
 14   8  20  1   
 15   8  21  1   
 16   9  22  1   
 17  10  11  2   
 18  10  12  am  
 19  12  13  1   
 20  12  23  1   
 21  13  14  1   
 22  13  24  1   
 23  13  25  1   
 24  14  15  1   
 25  14  26  1   
 26  14  27  1   
 27  15  16  1   
 28  16  28  1   
 29  16  29  1   
 30  16  30  1   
@<TRIPOS>SUBSTRUCTURE
  1 ****   5 GROUP 4 **** **** 0

# MOE 2024.06 (io_trps.svl 2023.06)
