@<TRIPOS>MOLECULE
NONAME
45 46 1 0 0 
SMALL
USER_CHARGES


@<TRIPOS>ATOM
  1 BR       0.1100     0.5380    -1.5140 Br    1 <1>  -0.1110 
  2 C        1.8930     0.1210    -0.9210 C.ar  1 <1>   0.1110 
  3 C        2.2640     0.4600     0.3660 C.ar  1 <1>  -0.1500 
  4 C        2.7570    -0.5070    -1.7980 C.ar  1 <1>  -0.1500 
  5 C        3.5480     0.1560     0.7840 C.ar  1 <1>  -0.1500 
  6 C        4.0400    -0.8070    -1.3710 C.ar  1 <1>  -0.1500 
  7 C        4.4390    -0.4750    -0.0750 C.ar  1 <1>   0.0830 
  8 O        5.6760    -0.7330     0.4210 O.3   1 <1>  -0.3630 
  9 C        6.6510    -1.4080    -0.3470 C.3   1 <1>   0.1200 
 10 C        7.9220    -1.5500     0.4990 C.3   1 <1>   0.2000 
 11 O        8.2680    -0.2980     1.0160 O.3   1 <1>  -0.6800 
 12 C        9.1120    -2.1210    -0.3070 C.3   1 <1>   0.3430 
 13 N       10.4120    -1.6160     0.2430 N.4   1 <1>  -0.9590 
 14 C       11.2440    -0.9910    -0.8200 C.3   1 <1>   0.4230 
 15 C       11.1700    -2.5780     1.0860 C.3   1 <1>   0.4230 
 16 C       12.4440    -1.8690    -1.2280 C.3   1 <1>  -0.1600 
 17 C       11.7000     0.3700    -0.3100 C.3   1 <1>  -0.2400 
 18 C       11.6470    -3.7710     0.2390 C.3   1 <1>  -0.1600 
 19 C       10.3500    -3.0200     2.2950 C.3   1 <1>  -0.2400 
 20 C       12.1150    -3.3680    -1.1730 C.3   1 <1>  -0.1600 
 21 H        1.5640     0.9480     1.0210 H     1 <1>   0.1500 
 22 H        2.4280    -0.7530    -2.7920 H     1 <1>   0.1500 
 23 H        3.8630     0.4080     1.7810 H     1 <1>   0.1500 
 24 H        4.7030    -1.2940    -2.0600 H     1 <1>   0.1500 
 25 H        6.8460    -0.8290    -1.2330 H     1 <1>   0.0800 
 26 H        6.2610    -2.3750    -0.6160 H     1 <1>   0.0800 
 27 H        7.7100    -2.1970     1.3330 H     1 <1>   0.0800 
 28 H        7.4440     0.1440     1.3300 H     1 <1>   0.4000 
 29 H        9.0080    -1.8010    -1.3300 H     1 <1>   0.0800 
 30 H        9.0830    -3.1980    -0.2990 H     1 <1>   0.0800 
 31 H       10.1030    -0.8370     0.8540 H     1 <1>   0.4500 
 32 H       10.6310    -0.8310    -1.6930 H     1 <1>   0.0800 
 33 H       12.0470    -2.0680     1.4540 H     1 <1>   0.0800 
 34 H       13.2820    -1.6710    -0.5820 H     1 <1>   0.0800 
 35 H       12.7500    -1.5990    -2.2240 H     1 <1>   0.0800 
 36 H       12.3050     0.2720     0.5740 H     1 <1>   0.0800 
 37 H       10.8500     0.9930    -0.0940 H     1 <1>   0.0800 
 38 H       12.2860     0.8610    -1.0660 H     1 <1>   0.0800 
 39 H       10.8750    -4.5170     0.1600 H     1 <1>   0.0800 
 40 H       12.4690    -4.2320     0.7610 H     1 <1>   0.0800 
 41 H        9.5160    -3.6330     2.0100 H     1 <1>   0.0800 
 42 H       10.0020    -2.1640     2.8460 H     1 <1>   0.0800 
 43 H       10.9740    -3.6010     2.9510 H     1 <1>   0.0800 
 44 H       12.9780    -3.9490    -1.4550 H     1 <1>   0.0800 
 45 H       11.3350    -3.5820    -1.8850 H     1 <1>   0.0800 
@<TRIPOS>BOND
  1   1   2  1   
  2   2   3  ar  
  3   2   4  ar  
  4   3   5  ar  
  5   3  21  1   
  6   4   6  ar  
  7   4  22  1   
  8   5   7  ar  
  9   5  23  1   
 10   6   7  ar  
 11   6  24  1   
 12   7   8  1   
 13   8   9  1   
 14   9  10  1   
 15   9  25  1   
 16   9  26  1   
 17  10  11  1   
 18  10  12  1   
 19  10  27  1   
 20  11  28  1   
 21  12  13  1   
 22  12  29  1   
 23  12  30  1   
 24  13  14  1   
 25  13  15  1   
 26  13  31  1   
 27  14  16  1   
 28  14  17  1   
 29  14  32  1   
 30  15  18  1   
 31  15  19  1   
 32  15  33  1   
 33  16  20  1   
 34  16  34  1   
 35  16  35  1   
 36  17  36  1   
 37  17  37  1   
 38  17  38  1   
 39  18  20  1   
 40  18  39  1   
 41  18  40  1   
 42  19  41  1   
 43  19  42  1   
 44  19  43  1   
 45  20  44  1   
 46  20  45  1   
@<TRIPOS>SUBSTRUCTURE
  1 ****   9 GROUP 4 **** **** 0

# MOE 2024.06 (io_trps.svl 2023.06)
