@<TRIPOS>MOLECULE
NONAME
76 78 1 0 0 
SMALL
USER_CHARGES


@<TRIPOS>ATOM
  1 O        0.0740    -0.4470    -1.3980 O.2   1 <1>  -0.5700 
  2 C       -0.4450    -1.2670    -0.6630 C.2   1 <1>   0.5440 
  3 N       -1.6620    -0.9910    -0.1110 N.am  1 <1>  -0.7300 
  4 C        0.2220    -2.5010    -0.3230 C.ar  1 <1>   0.0860 
  5 C       -2.2670     0.3440    -0.1100 C.3   1 <1>   0.2200 
  6 C        1.4120    -2.4820     0.4160 C.ar  1 <1>   0.0860 
  7 C       -0.3130    -3.7280    -0.7110 C.ar  1 <1>  -0.1500 
  8 C       -1.7350     1.1080     1.0980 C.3   1 <1>  -0.1600 
  9 C       -3.7830     0.2130    -0.0110 C.3   1 <1>  -0.1600 
 10 C        2.0020    -1.2270     0.8170 C.2   1 <1>   0.5440 
 11 C        2.0230    -3.6910     0.7460 C.ar  1 <1>  -0.1500 
 12 C        0.3060    -4.9170    -0.3780 C.ar  1 <1>  -0.1500 
 13 C       -2.3620     2.5000     1.2250 C.3   1 <1>   0.5030 
 14 C       -4.4720     1.5810     0.0810 C.3   1 <1>   0.5030 
 15 O        1.4350    -0.4770     1.5890 O.2   1 <1>  -0.5700 
 16 N        3.1990    -0.8500     0.2810 N.am  1 <1>  -0.7300 
 17 C        1.4780    -4.8990     0.3550 C.ar  1 <1>  -0.1500 
 18 N       -3.8280     2.4390     1.0910 N.4   1 <1>  -0.9060 
 19 C       -1.7780     3.4860     0.2100 C.3   1 <1>  -0.2400 
 20 C       -2.0970     3.0490     2.6250 C.3   1 <1>  -0.2400 
 21 C       -4.5120     2.2990    -1.2710 C.3   1 <1>  -0.2400 
 22 C       -5.9100     1.3950     0.5610 C.3   1 <1>  -0.2400 
 23 C        3.7200     0.5180     0.3450 C.3   1 <1>   0.2200 
 24 C        3.1400     1.3050    -0.8260 C.3   1 <1>  -0.1600 
 25 C        5.2410     0.4860     0.2420 C.3   1 <1>  -0.1600 
 26 C        3.6790     2.7370    -0.8850 C.3   1 <1>   0.5030 
 27 C        5.8440     1.8970     0.2160 C.3   1 <1>   0.5030 
 28 N        5.1460     2.7610    -0.7520 N.4   1 <1>  -0.9060 
 29 C        3.0370     3.6360     0.1750 C.3   1 <1>  -0.2400 
 30 C        3.3790     3.3360    -2.2580 C.3   1 <1>  -0.2400 
 31 C        5.8410     2.5500     1.6010 C.3   1 <1>  -0.2400 
 32 C        7.2900     1.8240    -0.2690 C.3   1 <1>  -0.2400 
 33 H       -2.0220    -1.6500     0.5820 H     1 <1>   0.3700 
 34 H       -1.9960     0.8480    -1.0240 H     1 <1>   0.0800 
 35 H       -1.2230    -3.7470    -1.2870 H     1 <1>   0.1500 
 36 H       -0.6670     1.2070     1.0110 H     1 <1>   0.0800 
 37 H       -1.9310     0.5390     1.9900 H     1 <1>   0.0800 
 38 H       -4.0300    -0.3730     0.8570 H     1 <1>   0.0800 
 39 H       -4.1500    -0.3140    -0.8750 H     1 <1>   0.0800 
 40 H        2.9330    -3.6810     1.3210 H     1 <1>   0.1500 
 41 H       -0.1200    -5.8580    -0.6880 H     1 <1>   0.1500 
 42 H        3.5980    -1.4510    -0.4420 H     1 <1>   0.3700 
 43 H        1.9610    -5.8250     0.6190 H     1 <1>   0.1500 
 44 H       -4.1720     3.3920     0.9650 H     1 <1>   0.4500 
 45 H       -4.1800     2.1270     1.9980 H     1 <1>   0.4500 
 46 H       -1.7840     3.0990    -0.7890 H     1 <1>   0.0800 
 47 H       -0.7470     3.6800     0.4520 H     1 <1>   0.0800 
 48 H       -2.3000     4.4260     0.2330 H     1 <1>   0.0800 
 49 H       -2.5110     2.4080     3.3840 H     1 <1>   0.0800 
 50 H       -2.5020     4.0400     2.7400 H     1 <1>   0.0800 
 51 H       -1.0360     3.1080     2.8010 H     1 <1>   0.0800 
 52 H       -3.5510     2.3410    -1.7420 H     1 <1>   0.0800 
 53 H       -4.9060     3.2950    -1.1740 H     1 <1>   0.0800 
 54 H       -5.1550     1.7600    -1.9450 H     1 <1>   0.0800 
 55 H       -5.9460     0.9170     1.5240 H     1 <1>   0.0800 
 56 H       -6.4490     0.7700    -0.1300 H     1 <1>   0.0800 
 57 H       -6.4280     2.3370     0.6160 H     1 <1>   0.0800 
 58 H        3.4200     0.9600     1.2810 H     1 <1>   0.0800 
 59 H        2.0680     1.3330    -0.7360 H     1 <1>   0.0800 
 60 H        3.3690     0.7930    -1.7440 H     1 <1>   0.0800 
 61 H        5.5220    -0.0410    -0.6530 H     1 <1>   0.0800 
 62 H        5.6410    -0.0580     1.0800 H     1 <1>   0.0800 
 63 H        5.4310     3.7260    -0.5800 H     1 <1>   0.4500 
 64 H        5.5160     2.5150    -1.6720 H     1 <1>   0.4500 
 65 H        3.0680     3.2020     1.1540 H     1 <1>   0.0800 
 66 H        1.9960     3.7770    -0.0590 H     1 <1>   0.0800 
 67 H        3.5000     4.6060     0.1980 H     1 <1>   0.0800 
 68 H        3.8310     2.7590    -3.0450 H     1 <1>   0.0800 
 69 H        3.7210     4.3540    -2.3250 H     1 <1>   0.0800 
 70 H        2.3160     3.3370    -2.4320 H     1 <1>   0.0800 
 71 H        4.8800     2.5110     2.0730 H     1 <1>   0.0800 
 72 H        6.1720     3.5720     1.5530 H     1 <1>   0.0800 
 73 H        6.5170     2.0210     2.2500 H     1 <1>   0.0800 
 74 H        7.3540     1.3950    -1.2540 H     1 <1>   0.0800 
 75 H        7.8680     1.2000     0.3920 H     1 <1>   0.0800 
 76 H        7.7480     2.7980    -0.2790 H     1 <1>   0.0800 
@<TRIPOS>BOND
  1   1   2  2   
  2   2   3  am  
  3   2   4  1   
  4   3   5  1   
  5   3  33  1   
  6   4   6  ar  
  7   4   7  ar  
  8   5   8  1   
  9   5   9  1   
 10   5  34  1   
 11   6  10  1   
 12   6  11  ar  
 13   7  12  ar  
 14   7  35  1   
 15   8  13  1   
 16   8  36  1   
 17   8  37  1   
 18   9  14  1   
 19   9  38  1   
 20   9  39  1   
 21  10  15  2   
 22  10  16  am  
 23  11  17  ar  
 24  11  40  1   
 25  12  17  ar  
 26  12  41  1   
 27  13  18  1   
 28  13  19  1   
 29  13  20  1   
 30  14  18  1   
 31  14  21  1   
 32  14  22  1   
 33  16  23  1   
 34  16  42  1   
 35  17  43  1   
 36  18  44  1   
 37  18  45  1   
 38  19  46  1   
 39  19  47  1   
 40  19  48  1   
 41  20  49  1   
 42  20  50  1   
 43  20  51  1   
 44  21  52  1   
 45  21  53  1   
 46  21  54  1   
 47  22  55  1   
 48  22  56  1   
 49  22  57  1   
 50  23  24  1   
 51  23  25  1   
 52  23  58  1   
 53  24  26  1   
 54  24  59  1   
 55  24  60  1   
 56  25  27  1   
 57  25  61  1   
 58  25  62  1   
 59  26  28  1   
 60  26  29  1   
 61  26  30  1   
 62  27  28  1   
 63  27  31  1   
 64  27  32  1   
 65  28  63  1   
 66  28  64  1   
 67  29  65  1   
 68  29  66  1   
 69  29  67  1   
 70  30  68  1   
 71  30  69  1   
 72  30  70  1   
 73  31  71  1   
 74  31  72  1   
 75  31  73  1   
 76  32  74  1   
 77  32  75  1   
 78  32  76  1   
@<TRIPOS>SUBSTRUCTURE
  1 ****  15 GROUP 4 **** **** 0

# MOE 2024.06 (io_trps.svl 2023.06)
