@<TRIPOS>MOLECULE
NONAME
46 48 1 0 0 
SMALL
USER_CHARGES


@<TRIPOS>ATOM
  1 CL       1.9580    -4.2560     3.3400 Cl    1 <1>  -0.1770 
  2 C        2.0300    -3.4820     1.7730 C.ar  1 <1>   0.1770 
  3 C        0.8680    -3.0990     1.1210 C.ar  1 <1>   0.1770 
  4 C        3.2640    -3.2580     1.1950 C.ar  1 <1>  -0.1500 
  5 CL      -0.7020    -3.3770     1.8440 Cl    1 <1>  -0.1770 
  6 C        0.9330    -2.4870    -0.1190 C.ar  1 <1>  -0.1500 
  7 C        3.3430    -2.6440    -0.0500 C.ar  1 <1>   0.1000 
  8 C        2.1720    -2.2630    -0.6960 C.ar  1 <1>  -0.1500 
  9 N        4.5650    -2.4030    -0.6620 N.pl3 1 <1>  -0.8380 
 10 C        5.3700    -3.6090    -1.0390 C.3   1 <1>   0.2090 
 11 C        5.4100    -1.3330    -0.0460 C.3   1 <1>   0.2090 
 12 C        6.5370    -3.2260    -1.9650 C.3   1 <1>   0.1400 
 13 C        6.5900    -0.9500    -0.9590 C.3   1 <1>   0.1400 
 14 N        7.3810    -2.1590    -1.3450 N.am  1 <1>  -0.6600 
 15 C        8.5580    -2.4820    -0.7320 C.2   1 <1>   0.6900 
 16 O        8.8230    -3.6400    -0.4660 O.2   1 <1>  -0.5700 
 17 N        9.4280    -1.4910    -0.4320 N.am  1 <1>  -0.7300 
 18 C       10.7470    -1.6800     0.1880 C.3   1 <1>   0.2200 
 19 C       10.9150    -0.6530     1.3130 C.3   1 <1>  -0.1600 
 20 C       11.8300    -1.5150    -0.8830 C.3   1 <1>  -0.1600 
 21 C       12.3190    -0.7320     1.9310 C.3   1 <1>  -0.1600 
 22 C       13.2350    -1.5960    -0.2690 C.3   1 <1>  -0.1600 
 23 C       13.4070    -0.5710     0.8610 C.3   1 <1>  -0.1600 
 24 H        4.1590    -3.5580     1.7070 H     1 <1>   0.1500 
 25 H        0.0280    -2.1920    -0.6200 H     1 <1>   0.1500 
 26 H        2.2480    -1.7900    -1.6590 H     1 <1>   0.1500 
 27 H        4.7350    -4.3190    -1.5390 H     1 <1>   0.0800 
 28 H        5.7660    -4.0760    -0.1540 H     1 <1>   0.0800 
 29 H        5.7940    -1.6780     0.8990 H     1 <1>   0.0800 
 30 H        4.8030    -0.4630     0.1370 H     1 <1>   0.0800 
 31 H        6.1430    -2.8670    -2.8990 H     1 <1>   0.0800 
 32 H        7.1310    -4.0990    -2.1720 H     1 <1>   0.0800 
 33 H        7.2100    -0.2380    -0.4460 H     1 <1>   0.0800 
 34 H        6.2070    -0.4810    -1.8480 H     1 <1>   0.0800 
 35 H        9.2890    -0.6050    -0.9070 H     1 <1>   0.3700 
 36 H       10.8130    -2.6710     0.6070 H     1 <1>   0.0800 
 37 H       10.1800    -0.8390     2.0750 H     1 <1>   0.0800 
 38 H       10.7610     0.3380     0.9220 H     1 <1>   0.0800 
 39 H       11.7150    -0.5630    -1.3700 H     1 <1>   0.0800 
 40 H       11.7190    -2.2930    -1.6190 H     1 <1>   0.0800 
 41 H       12.4390    -1.6850     2.4190 H     1 <1>   0.0800 
 42 H       12.4290     0.0360     2.6780 H     1 <1>   0.0800 
 43 H       13.9740    -1.4200    -1.0320 H     1 <1>   0.0800 
 44 H       13.3950    -2.5860     0.1220 H     1 <1>   0.0800 
 45 H       14.3770    -0.6920     1.3120 H     1 <1>   0.0800 
 46 H       13.3590     0.4240     0.4500 H     1 <1>   0.0800 
@<TRIPOS>BOND
  1   1   2  1   
  2   2   3  ar  
  3   2   4  ar  
  4   3   5  1   
  5   3   6  ar  
  6   4   7  ar  
  7   4  24  1   
  8   6   8  ar  
  9   6  25  1   
 10   7   8  ar  
 11   7   9  1   
 12   8  26  1   
 13   9  10  1   
 14   9  11  1   
 15  10  12  1   
 16  10  27  1   
 17  10  28  1   
 18  11  13  1   
 19  11  29  1   
 20  11  30  1   
 21  12  14  1   
 22  12  31  1   
 23  12  32  1   
 24  13  14  1   
 25  13  33  1   
 26  13  34  1   
 27  14  15  am  
 28  15  16  2   
 29  15  17  am  
 30  17  18  1   
 31  17  35  1   
 32  18  19  1   
 33  18  20  1   
 34  18  36  1   
 35  19  21  1   
 36  19  37  1   
 37  19  38  1   
 38  20  22  1   
 39  20  39  1   
 40  20  40  1   
 41  21  23  1   
 42  21  41  1   
 43  21  42  1   
 44  22  23  1   
 45  22  43  1   
 46  22  44  1   
 47  23  45  1   
 48  23  46  1   
@<TRIPOS>SUBSTRUCTURE
  1 ****  11 GROUP 4 **** **** 0

# MOE 2024.06 (io_trps.svl 2023.06)
