@<TRIPOS>MOLECULE
NONAME
47 48 1 0 0 
SMALL
USER_CHARGES


@<TRIPOS>ATOM
  1 S       -0.4670     1.3030    -0.2160 S.o2  1 <1>   1.4470 
  2 O       -1.1040     1.8090    -1.4120 O.2   1 <1>  -0.6500 
  3 O       -0.8570     0.0090     0.3030 O.2   1 <1>  -0.6500 
  4 N       -0.7390     2.4230     1.0290 N.am  1 <1>  -0.8490 
  5 C        1.3370     1.3390    -0.4070 C.ar  1 <1>  -0.0090 
  6 C       -2.1050     2.3120     1.6100 C.3   1 <1>   0.2570 
  7 C       -0.4490     3.8090     0.6340 C.3   1 <1>   0.1160 
  8 C        1.9320     1.7960    -1.5780 C.ar  1 <1>  -0.1500 
  9 C        2.1710     0.9230     0.6250 C.ar  1 <1>  -0.1500 
 10 C       -3.2830     2.7610     0.7170 C.2   1 <1>   0.5690 
 11 C        3.3090     1.8370    -1.7110 C.ar  1 <1>  -0.1500 
 12 C        3.5490     0.9590     0.5020 C.ar  1 <1>  -0.1500 
 13 O       -3.5120     3.9520     0.7060 O.2   1 <1>  -0.5700 
 14 N       -4.0510     1.8850    -0.0190 N.am  1 <1>  -0.6600 
 15 C        4.1280     1.4210    -0.6760 C.ar  1 <1>   0.0830 
 16 C       -3.9340     0.3960    -0.0150 C.3   1 <1>   0.1400 
 17 C       -5.0080     2.3970    -1.0420 C.3   1 <1>   0.1400 
 18 O        5.4640     1.4950    -0.8860 O.3   1 <1>  -0.3630 
 19 C       -5.3100    -0.2400     0.2050 C.3   1 <1>  -0.1600 
 20 C       -6.3950     1.7860    -0.8200 C.3   1 <1>  -0.1600 
 21 C        6.3870     1.0660     0.0880 C.3   1 <1>   0.1200 
 22 C       -6.3390     0.2530    -0.8200 C.3   1 <1>  -0.1600 
 23 C        7.7920     1.2670    -0.4720 C.3   1 <1>  -0.2400 
 24 H       -2.1370     2.9310     2.4880 H     1 <1>   0.0800 
 25 H       -2.2640     1.3100     1.9590 H     1 <1>   0.0800 
 26 H        0.5860     3.9070     0.3540 H     1 <1>   0.0800 
 27 H       -0.6410     4.4770     1.4560 H     1 <1>   0.0800 
 28 H       -1.0620     4.1060    -0.2020 H     1 <1>   0.0800 
 29 H        1.3120     2.1240    -2.3960 H     1 <1>   0.1500 
 30 H        1.7280     0.5650     1.5400 H     1 <1>   0.1500 
 31 H        3.7590     2.1930    -2.6220 H     1 <1>   0.1500 
 32 H        4.1500     0.6270     1.3270 H     1 <1>   0.1500 
 33 H       -3.2770     0.0510     0.7590 H     1 <1>   0.0800 
 34 H       -3.5280     0.0770    -0.9610 H     1 <1>   0.0800 
 35 H       -4.6430     2.1300    -2.0190 H     1 <1>   0.0800 
 36 H       -5.0810     3.4700    -1.0000 H     1 <1>   0.0800 
 37 H       -5.6480    -0.0020     1.1990 H     1 <1>   0.0800 
 38 H       -5.2190    -1.3100     0.1380 H     1 <1>   0.0800 
 39 H       -7.0590     2.1240    -1.5950 H     1 <1>   0.0800 
 40 H       -6.7810     2.1390     0.1210 H     1 <1>   0.0800 
 41 H        6.2060     0.0250     0.2950 H     1 <1>   0.0800 
 42 H        6.2440     1.6550     0.9770 H     1 <1>   0.0800 
 43 H       -7.3100    -0.1490    -0.5880 H     1 <1>   0.0800 
 44 H       -6.0590    -0.0930    -1.8010 H     1 <1>   0.0800 
 45 H        7.9190     0.6870    -1.3690 H     1 <1>   0.0800 
 46 H        8.5220     0.9470     0.2490 H     1 <1>   0.0800 
 47 H        7.9580     2.3070    -0.6910 H     1 <1>   0.0800 
@<TRIPOS>BOND
  1   1   2  2   
  2   1   3  2   
  3   1   4  am  
  4   1   5  1   
  5   4   6  1   
  6   4   7  1   
  7   5   8  ar  
  8   5   9  ar  
  9   6  10  1   
 10   6  24  1   
 11   6  25  1   
 12   7  26  1   
 13   7  27  1   
 14   7  28  1   
 15   8  11  ar  
 16   8  29  1   
 17   9  12  ar  
 18   9  30  1   
 19  10  13  2   
 20  10  14  am  
 21  11  15  ar  
 22  11  31  1   
 23  12  15  ar  
 24  12  32  1   
 25  14  16  1   
 26  14  17  1   
 27  15  18  1   
 28  16  19  1   
 29  16  33  1   
 30  16  34  1   
 31  17  20  1   
 32  17  35  1   
 33  17  36  1   
 34  18  21  1   
 35  19  22  1   
 36  19  37  1   
 37  19  38  1   
 38  20  22  1   
 39  20  39  1   
 40  20  40  1   
 41  21  23  1   
 42  21  41  1   
 43  21  42  1   
 44  22  43  1   
 45  22  44  1   
 46  23  45  1   
 47  23  46  1   
 48  23  47  1   
@<TRIPOS>SUBSTRUCTURE
  1 ****   1 GROUP 4 **** **** 0

# MOE 2024.06 (io_trps.svl 2023.06)
