@<TRIPOS>MOLECULE
NONAME
34 34 1 0 0 
SMALL
USER_CHARGES


@<TRIPOS>ATOM
  1 S       -0.0210     0.0220     0.5590 S.o2  1 <1>   1.3330 
  2 O        0.3530     1.1960     1.3040 O.2   1 <1>  -0.6500 
  3 O        0.7810    -1.1760     0.5800 O.2   1 <1>  -0.6500 
  4 N       -1.6020    -0.3750     1.1020 N.am  1 <1>  -0.7570 
  5 C       -0.3290     0.4920    -1.1290 C.3   1 <1>  -0.1350 
  6 C       -2.3800    -1.4300     0.6380 C.ar  1 <1>   0.1990 
  7 C       -3.6610    -1.2220     0.0880 C.ar  1 <1>   0.0860 
  8 C       -1.8710    -2.7190     0.7360 C.ar  1 <1>  -0.1500 
  9 C       -4.2470     0.0960    -0.0380 C.2   1 <1>   0.6340 
 10 C       -4.3640    -2.3500    -0.3490 C.ar  1 <1>  -0.1500 
 11 C       -2.5720    -3.8260     0.2820 C.ar  1 <1>   0.0830 
 12 O       -3.6320     1.1350     0.1240 O.2   1 <1>  -0.5700 
 13 O       -5.5450     0.1800    -0.3560 O.3   1 <1>  -0.4300 
 14 C       -3.8510    -3.6260    -0.2570 C.ar  1 <1>   0.0830 
 15 O       -2.0470    -5.0790     0.3320 O.3   1 <1>  -0.3630 
 16 C       -6.2080     1.4220    -0.4970 C.3   1 <1>   0.0400 
 17 O       -4.6520    -4.6230    -0.7280 O.3   1 <1>  -0.3630 
 18 C       -0.6980    -5.3140     0.6770 C.3   1 <1>   0.0400 
 19 C       -4.8120    -5.7960     0.0420 C.3   1 <1>   0.0400 
 20 H       -2.1060     0.5060     1.2520 H     1 <1>   0.4200 
 21 H       -1.0330     1.3010    -1.1670 H     1 <1>   0.0800 
 22 H       -0.7230    -0.3390    -1.6800 H     1 <1>   0.0800 
 23 H        0.5840     0.8090    -1.5930 H     1 <1>   0.0800 
 24 H       -0.9060    -2.8390     1.1890 H     1 <1>   0.1500 
 25 H       -5.3440    -2.2380    -0.7770 H     1 <1>   0.1500 
 26 H       -7.2350     1.2330    -0.7520 H     1 <1>   0.0800 
 27 H       -5.7300     1.9860    -1.2800 H     1 <1>   0.0800 
 28 H       -6.1500     1.9560     0.4350 H     1 <1>   0.0800 
 29 H       -0.4980    -6.3630     0.5510 H     1 <1>   0.0800 
 30 H       -0.5450    -5.0350     1.7050 H     1 <1>   0.0800 
 31 H       -0.0630    -4.7410     0.0250 H     1 <1>   0.0800 
 32 H       -5.7470    -6.2510    -0.2310 H     1 <1>   0.0800 
 33 H       -4.8170    -5.5380     1.0860 H     1 <1>   0.0800 
 34 H       -4.0050    -6.4700    -0.1790 H     1 <1>   0.0800 
@<TRIPOS>BOND
  1   1   2  2   
  2   1   3  2   
  3   1   4  am  
  4   1   5  1   
  5   4   6  1   
  6   4  20  1   
  7   5  21  1   
  8   5  22  1   
  9   5  23  1   
 10   6   7  ar  
 11   6   8  ar  
 12   7   9  1   
 13   7  10  ar  
 14   8  11  ar  
 15   8  24  1   
 16   9  12  2   
 17   9  13  1   
 18  10  14  ar  
 19  10  25  1   
 20  11  14  ar  
 21  11  15  1   
 22  13  16  1   
 23  14  17  1   
 24  15  18  1   
 25  16  26  1   
 26  16  27  1   
 27  16  28  1   
 28  17  19  1   
 29  18  29  1   
 30  18  30  1   
 31  18  31  1   
 32  19  32  1   
 33  19  33  1   
 34  19  34  1   
@<TRIPOS>SUBSTRUCTURE
  1 ****   6 GROUP 4 **** **** 0

# MOE 2024.06 (io_trps.svl 2023.06)
