@<TRIPOS>MOLECULE
NONAME
40 40 1 0 0 
SMALL
USER_CHARGES


@<TRIPOS>ATOM
  1 O       -0.2800     1.0360    -1.9010 O.2   1 <1>  -0.5700 
  2 C       -0.3450     1.7100    -0.8880 C.2   1 <1>   0.5440 
  3 N        0.7570     1.7840    -0.0550 N.am  1 <1>  -0.6600 
  4 C       -1.5760     2.4110    -0.6020 C.ar  1 <1>   0.0860 
  5 C        0.7400     2.5210     1.2400 C.3   1 <1>   0.1400 
  6 C        1.9830     0.9820    -0.3300 C.3   1 <1>   0.1400 
  7 C       -2.4970     2.0060     0.3770 C.ar  1 <1>   0.0820 
  8 C       -1.8700     3.5700    -1.3170 C.ar  1 <1>  -0.1500 
  9 C        0.9540     4.0160     1.0100 C.3   1 <1>  -0.2400 
 10 C        3.0520     1.8620    -0.9720 C.3   1 <1>  -0.2400 
 11 O       -2.3560     0.8820     1.1210 O.3   1 <1>  -0.3620 
 12 C       -3.6250     2.7650     0.6430 C.ar  1 <1>  -0.1500 
 13 C       -2.9920     4.3330    -1.0600 C.ar  1 <1>   0.0820 
 14 C       -2.0370    -0.3450     0.4950 C.3   1 <1>   0.0400 
 15 C       -3.8970     3.9290    -0.0660 C.ar  1 <1>   0.0820 
 16 O       -3.1270     5.4510    -1.8290 O.3   1 <1>  -0.3630 
 17 O       -5.0200     4.6620     0.1680 O.3   1 <1>  -0.3630 
 18 C       -3.5720     6.6560    -1.2470 C.3   1 <1>   0.0400 
 19 C       -6.0360     4.2260     1.0450 C.3   1 <1>   0.0400 
 20 H        1.5150     2.1440     1.8840 H     1 <1>   0.0800 
 21 H       -0.2000     2.3590     1.7400 H     1 <1>   0.0800 
 22 H        1.7490     0.1680    -0.9950 H     1 <1>   0.0800 
 23 H        2.3540     0.5540     0.5850 H     1 <1>   0.0800 
 24 H       -1.1930     3.8860    -2.0900 H     1 <1>   0.1500 
 25 H        1.8890     4.1950     0.5140 H     1 <1>   0.0800 
 26 H        0.9690     4.5250     1.9560 H     1 <1>   0.0800 
 27 H        0.1570     4.4300     0.4210 H     1 <1>   0.0800 
 28 H        2.6580     2.3280    -1.8580 H     1 <1>   0.0800 
 29 H        3.8950     1.2570    -1.2500 H     1 <1>   0.0800 
 30 H        3.3880     2.6150    -0.2840 H     1 <1>   0.0800 
 31 H       -4.2810     2.4110     1.4140 H     1 <1>   0.1500 
 32 H       -2.4500    -1.1410     1.0860 H     1 <1>   0.0800 
 33 H       -0.9680    -0.4480     0.4480 H     1 <1>   0.0800 
 34 H       -2.4610    -0.3630    -0.4940 H     1 <1>   0.0800 
 35 H       -3.2240     7.4710    -1.8560 H     1 <1>   0.0800 
 36 H       -3.1690     6.7400    -0.2530 H     1 <1>   0.0800 
 37 H       -4.6460     6.6550    -1.2240 H     1 <1>   0.0800 
 38 H       -6.8350     4.9440     1.0120 H     1 <1>   0.0800 
 39 H       -5.6380     4.1700     2.0420 H     1 <1>   0.0800 
 40 H       -6.3940     3.2670     0.7160 H     1 <1>   0.0800 
@<TRIPOS>BOND
  1   1   2  2   
  2   2   3  am  
  3   2   4  1   
  4   3   5  1   
  5   3   6  1   
  6   4   7  ar  
  7   4   8  ar  
  8   5   9  1   
  9   5  20  1   
 10   5  21  1   
 11   6  10  1   
 12   6  22  1   
 13   6  23  1   
 14   7  11  1   
 15   7  12  ar  
 16   8  13  ar  
 17   8  24  1   
 18   9  25  1   
 19   9  26  1   
 20   9  27  1   
 21  10  28  1   
 22  10  29  1   
 23  10  30  1   
 24  11  14  1   
 25  12  15  ar  
 26  12  31  1   
 27  13  15  ar  
 28  13  16  1   
 29  14  32  1   
 30  14  33  1   
 31  14  34  1   
 32  15  17  1   
 33  16  18  1   
 34  17  19  1   
 35  18  35  1   
 36  18  36  1   
 37  18  37  1   
 38  19  38  1   
 39  19  39  1   
 40  19  40  1   
@<TRIPOS>SUBSTRUCTURE
  1 ****   4 GROUP 4 **** **** 0

# MOE 2024.06 (io_trps.svl 2023.06)
