@<TRIPOS>MOLECULE
NONAME
43 44 1 0 0 
SMALL
USER_CHARGES


@<TRIPOS>ATOM
  1 S       -0.4950     0.6640     0.2990 S.3   1 <1>  -0.0800 
  2 C       -0.6310    -1.0470    -0.0130 C.2   1 <1>   0.1040 
  3 C        1.2490     0.5850     0.4580 C.2   1 <1>  -0.1400 
  4 N       -1.9340    -1.4720    -0.2120 N.am  1 <1>  -0.4940 
  5 C        0.6100    -1.6240    -0.0380 C.2   1 <1>  -0.0860 
  6 C        1.6770    -0.6850     0.2630 C.2   1 <1>  -0.1810 
  7 C        1.8580     1.9410     0.7760 C.3   1 <1>  -0.0600 
  8 C       -2.6320    -2.5710     0.2010 C.2   1 <1>   0.5690 
  9 C        0.8830    -2.9940    -0.3840 C.2   1 <1>   0.7160 
 10 C        3.1040    -1.2520     0.3220 C.3   1 <1>   0.0210 
 11 O       -2.1680    -3.4250     0.9180 O.2   1 <1>  -0.5700 
 12 C       -4.0750    -2.6930    -0.2540 C.3   1 <1>   0.0440 
 13 O        1.5400    -3.2960    -1.3610 O.2   1 <1>  -0.5700 
 14 N        0.4500    -4.0180     0.3720 N.am  1 <1>  -0.8000 
 15 C        4.2040    -0.3360     0.8610 C.3   1 <1>  -0.2400 
 16 C       -4.9240    -1.5110     0.2130 C.ar  1 <1>  -0.1430 
 17 C       -4.9180    -0.2950    -0.4710 C.ar  1 <1>   0.0820 
 18 C       -5.7120    -1.6530     1.3450 C.ar  1 <1>  -0.1500 
 19 O       -4.1160    -0.1880    -1.5640 O.3   1 <1>  -0.3630 
 20 C       -5.7090     0.7560    -0.0140 C.ar  1 <1>  -0.1500 
 21 C       -6.4940    -0.6040     1.7940 C.ar  1 <1>  -0.1500 
 22 C       -4.0150     1.0130    -2.2990 C.3   1 <1>   0.0400 
 23 C       -6.4930     0.6000     1.1140 C.ar  1 <1>  -0.1500 
 24 H       -2.5550    -0.7560    -0.6080 H     1 <1>   0.3700 
 25 H        1.5160     2.6630     0.0560 H     1 <1>   0.0800 
 26 H        2.9260     1.9370     0.7510 H     1 <1>   0.0800 
 27 H        1.5400     2.2560     1.7530 H     1 <1>   0.0800 
 28 H        3.3890    -1.5710    -0.6660 H     1 <1>   0.0800 
 29 H        3.0880    -2.1270     0.9480 H     1 <1>   0.0800 
 30 H       -4.4820    -3.6100     0.1320 H     1 <1>   0.0800 
 31 H       -4.0970    -2.7640    -1.3260 H     1 <1>   0.0800 
 32 H        0.5750    -4.9580     0.0080 H     1 <1>   0.3700 
 33 H       -0.4030    -3.8810     0.9320 H     1 <1>   0.3700 
 34 H        4.4060     0.4530     0.1610 H     1 <1>   0.0800 
 35 H        5.1100    -0.9010     0.9910 H     1 <1>   0.0800 
 36 H        3.9190     0.0730     1.8130 H     1 <1>   0.0800 
 37 H       -5.7210    -2.5830     1.8880 H     1 <1>   0.1500 
 38 H       -5.7290     1.7030    -0.5180 H     1 <1>   0.1500 
 39 H       -7.1020    -0.7250     2.6740 H     1 <1>   0.1500 
 40 H       -3.3180     0.8580    -3.1030 H     1 <1>   0.0800 
 41 H       -3.6560     1.7930    -1.6500 H     1 <1>   0.0800 
 42 H       -4.9830     1.2600    -2.6990 H     1 <1>   0.0800 
 43 H       -7.1030     1.4140     1.4650 H     1 <1>   0.1500 
@<TRIPOS>BOND
  1   1   2  1   
  2   1   3  1   
  3   2   4  1   
  4   2   5  2   
  5   3   6  2   
  6   3   7  1   
  7   4   8  am  
  8   4  24  1   
  9   5   6  1   
 10   5   9  1   
 11   6  10  1   
 12   7  25  1   
 13   7  26  1   
 14   7  27  1   
 15   8  11  2   
 16   8  12  1   
 17   9  13  2   
 18   9  14  am  
 19  10  15  1   
 20  10  28  1   
 21  10  29  1   
 22  12  16  1   
 23  12  30  1   
 24  12  31  1   
 25  14  32  1   
 26  14  33  1   
 27  15  34  1   
 28  15  35  1   
 29  15  36  1   
 30  16  17  ar  
 31  16  18  ar  
 32  17  19  1   
 33  17  20  ar  
 34  18  21  ar  
 35  18  37  1   
 36  19  22  1   
 37  20  23  ar  
 38  20  38  1   
 39  21  23  ar  
 40  21  39  1   
 41  22  40  1   
 42  22  41  1   
 43  22  42  1   
 44  23  43  1   
@<TRIPOS>SUBSTRUCTURE
  1 ****   4 GROUP 4 **** **** 0

# MOE 2024.06 (io_trps.svl 2023.06)
