@<TRIPOS>MOLECULE
NONAME
51 53 1 0 0 
SMALL
USER_CHARGES


@<TRIPOS>ATOM
  1 F       -2.0880     0.1790     1.0440 F     1 <1>  -0.1900 
  2 C       -3.1890     0.2500     0.3480 C.ar  1 <1>   0.1900 
  3 C       -3.8040    -0.9250    -0.0370 C.ar  1 <1>  -0.1500 
  4 C       -3.6980     1.4930     0.0270 C.ar  1 <1>  -0.1500 
  5 C       -4.9820    -0.8570    -0.7680 C.ar  1 <1>  -0.1440 
  6 C       -4.8680     1.5560    -0.7100 C.ar  1 <1>  -0.1500 
  7 C       -5.5040     0.3880    -1.1050 C.ar  1 <1>  -0.1500 
  8 C       -5.6980    -2.1270    -1.1900 C.3   1 <1>   0.4870 
  9 N       -6.3490    -2.7260     0.0070 N.4   1 <1>  -0.9590 
 10 C       -6.9270    -4.0790    -0.3240 C.3   1 <1>   0.3430 
 11 C       -7.3940    -1.7960     0.5760 C.3   1 <1>   0.3430 
 12 C       -7.7060    -4.6890     0.8610 C.3   1 <1>   0.1400 
 13 C       -8.1530    -2.4210     1.7650 C.3   1 <1>   0.1400 
 14 N       -8.7340    -3.7310     1.3630 N.am  1 <1>  -0.6600 
 15 C       -9.9160    -3.6790     0.6880 C.2   1 <1>   0.6900 
 16 O       -9.8880    -3.6580    -0.5280 O.2   1 <1>  -0.5700 
 17 N      -11.0610    -3.6090     1.4180 N.am  1 <1>  -0.5470 
 18 C      -12.4060    -3.4600     1.0440 C.ar  1 <1>   0.1170 
 19 C      -13.3910    -3.7960     1.9650 C.ar  1 <1>  -0.1500 
 20 C      -12.8040    -2.9770    -0.2000 C.ar  1 <1>  -0.1500 
 21 C      -14.7310    -3.6580     1.6550 C.ar  1 <1>  -0.1500 
 22 C      -14.1440    -2.8380    -0.5160 C.ar  1 <1>  -0.1500 
 23 C      -15.1190    -3.1800     0.4150 C.ar  1 <1>   0.0830 
 24 O      -16.4560    -3.0760     0.1910 O.3   1 <1>  -0.3620 
 25 C      -16.9460    -2.6330    -1.0520 C.3   1 <1>   0.1200 
 26 C      -18.4710    -2.6470    -0.9900 C.3   1 <1>  -0.2400 
 27 H       -3.3470    -1.8600     0.2370 H     1 <1>   0.1500 
 28 H       -3.1880     2.3850     0.3450 H     1 <1>   0.1500 
 29 H       -5.2800     2.5150    -0.9780 H     1 <1>   0.1500 
 30 H       -6.4100     0.4680    -1.6840 H     1 <1>   0.1500 
 31 H       -4.9830    -2.8160    -1.6100 H     1 <1>   0.0800 
 32 H       -6.4370    -1.9020    -1.9420 H     1 <1>   0.0800 
 33 H       -5.6200    -2.8420     0.7210 H     1 <1>   0.4500 
 34 H       -6.1420    -4.7560    -0.6170 H     1 <1>   0.0800 
 35 H       -7.6090    -3.9850    -1.1550 H     1 <1>   0.0800 
 36 H       -8.1140    -1.5540    -0.1890 H     1 <1>   0.0800 
 37 H       -6.9320    -0.8760     0.8980 H     1 <1>   0.0800 
 38 H       -7.0320    -4.9490     1.6580 H     1 <1>   0.0800 
 39 H       -8.1930    -5.5930     0.5340 H     1 <1>   0.0800 
 40 H       -8.9410    -1.7540     2.0730 H     1 <1>   0.0800 
 41 H       -7.4900    -2.5570     2.6020 H     1 <1>   0.0800 
 42 H      -10.9090    -3.8020     2.4040 H     1 <1>   0.3700 
 43 H      -13.1150    -4.1720     2.9330 H     1 <1>   0.1500 
 44 H      -12.0710    -2.7030    -0.9340 H     1 <1>   0.1500 
 45 H      -15.4890    -3.9210     2.3710 H     1 <1>   0.1500 
 46 H      -14.4050    -2.4640    -1.4880 H     1 <1>   0.1500 
 47 H      -16.5900    -3.3020    -1.8170 H     1 <1>   0.0800 
 48 H      -16.5820    -1.6350    -1.2270 H     1 <1>   0.0800 
 49 H      -18.8230    -3.6450    -0.7990 H     1 <1>   0.0800 
 50 H      -18.8760    -2.3130    -1.9270 H     1 <1>   0.0800 
 51 H      -18.8140    -1.9890    -0.2120 H     1 <1>   0.0800 
@<TRIPOS>BOND
  1   1   2  1   
  2   2   3  ar  
  3   2   4  ar  
  4   3   5  ar  
  5   3  27  1   
  6   4   6  ar  
  7   4  28  1   
  8   5   7  ar  
  9   5   8  1   
 10   6   7  ar  
 11   6  29  1   
 12   7  30  1   
 13   8   9  1   
 14   8  31  1   
 15   8  32  1   
 16   9  10  1   
 17   9  11  1   
 18   9  33  1   
 19  10  12  1   
 20  10  34  1   
 21  10  35  1   
 22  11  13  1   
 23  11  36  1   
 24  11  37  1   
 25  12  14  1   
 26  12  38  1   
 27  12  39  1   
 28  13  14  1   
 29  13  40  1   
 30  13  41  1   
 31  14  15  am  
 32  15  16  2   
 33  15  17  am  
 34  17  18  1   
 35  17  42  1   
 36  18  19  ar  
 37  18  20  ar  
 38  19  21  ar  
 39  19  43  1   
 40  20  22  ar  
 41  20  44  1   
 42  21  23  ar  
 43  21  45  1   
 44  22  23  ar  
 45  22  46  1   
 46  23  24  1   
 47  24  25  1   
 48  25  26  1   
 49  25  47  1   
 50  25  48  1   
 51  26  49  1   
 52  26  50  1   
 53  26  51  1   
@<TRIPOS>SUBSTRUCTURE
  1 ****  15 GROUP 4 **** **** 0

# MOE 2024.06 (io_trps.svl 2023.06)
