@<TRIPOS>MOLECULE
NONAME
33 34 1 0 0 
SMALL
USER_CHARGES


@<TRIPOS>ATOM
  1 O        0.3050    -0.4690    -0.1130 O.3   1 <1>  -0.2800 
  2 C       -0.6010    -0.9620     0.7070 C.2   1 <1>  -0.0100 
  3 C       -0.0360    -0.8180    -1.3370 C.2   1 <1>  -0.0100 
  4 C       -1.5510    -1.6360     0.0210 C.2   1 <1>  -0.1810 
  5 C       -1.1760    -1.5410    -1.3270 C.2   1 <1>  -0.1500 
  6 C       -2.7790    -2.3540     0.5460 C.3   1 <1>   0.2910 
  7 N       -4.0050    -1.7830    -0.0470 N.3   1 <1>  -0.8100 
  8 C       -4.1720    -0.3490     0.2800 C.3   1 <1>   0.1100 
  9 C       -5.2000    -2.5650     0.3200 C.3   1 <1>   0.1100 
 10 C       -5.4280     0.2360    -0.3940 C.3   1 <1>   0.3430 
 11 C       -6.4690    -2.0010    -0.3520 C.3   1 <1>   0.3430 
 12 N       -6.6680    -0.5400    -0.0410 N.4   1 <1>  -0.9590 
 13 C       -7.8550     0.0300    -0.7280 C.3   1 <1>   0.3430 
 14 C       -9.1290    -0.5100    -0.0880 C.3   1 <1>  -0.2400 
 15 H       -0.4890    -0.7840     1.7620 H     1 <1>   0.1500 
 16 H        0.5890    -0.5090    -2.1570 H     1 <1>   0.1500 
 17 H       -1.7120    -1.9700    -2.1540 H     1 <1>   0.1500 
 18 H       -2.8140    -2.2790     1.6190 H     1 <1>   0.0800 
 19 H       -2.7020    -3.3960     0.2810 H     1 <1>   0.0800 
 20 H       -3.3180     0.2050    -0.0730 H     1 <1>   0.0800 
 21 H       -4.2330    -0.2160     1.3470 H     1 <1>   0.0800 
 22 H       -5.3270    -2.5680     1.3900 H     1 <1>   0.0800 
 23 H       -5.0670    -3.5850     0.0000 H     1 <1>   0.0800 
 24 H       -5.2770     0.2130    -1.4610 H     1 <1>   0.0800 
 25 H       -5.5400     1.2650    -0.0970 H     1 <1>   0.0800 
 26 H       -7.3220    -2.5690    -0.0220 H     1 <1>   0.0800 
 27 H       -6.3730    -2.1330    -1.4170 H     1 <1>   0.0800 
 28 H       -6.8080    -0.4520     0.9730 H     1 <1>   0.4500 
 29 H       -7.8320    -0.2160    -1.7780 H     1 <1>   0.0800 
 30 H       -7.8470     1.1040    -0.6340 H     1 <1>   0.0800 
 31 H       -9.2290    -1.5690    -0.2400 H     1 <1>   0.0800 
 32 H       -9.9780    -0.0350    -0.5470 H     1 <1>   0.0800 
 33 H       -9.1550    -0.2880     0.9630 H     1 <1>   0.0800 
@<TRIPOS>BOND
  1   1   2  1   
  2   1   3  1   
  3   2   4  2   
  4   2  15  1   
  5   3   5  2   
  6   3  16  1   
  7   4   5  1   
  8   4   6  1   
  9   5  17  1   
 10   6   7  1   
 11   6  18  1   
 12   6  19  1   
 13   7   8  1   
 14   7   9  1   
 15   8  10  1   
 16   8  20  1   
 17   8  21  1   
 18   9  11  1   
 19   9  22  1   
 20   9  23  1   
 21  10  12  1   
 22  10  24  1   
 23  10  25  1   
 24  11  12  1   
 25  11  26  1   
 26  11  27  1   
 27  12  13  1   
 28  12  28  1   
 29  13  14  1   
 30  13  29  1   
 31  13  30  1   
 32  14  31  1   
 33  14  32  1   
 34  14  33  1   
@<TRIPOS>SUBSTRUCTURE
  1 ****   7 GROUP 4 **** **** 0

# MOE 2024.06 (io_trps.svl 2023.06)
