@<TRIPOS>MOLECULE
NONAME
46 50 1 0 0 
SMALL
USER_CHARGES


@<TRIPOS>ATOM
  1 N       -0.3200    -0.1140    -0.1420 N.pl3 1 <1>   0.0330 
  2 C       -0.3140    -1.4260     0.2560 C.ar  1 <1>  -0.1520 
  3 C       -1.5810     0.3800     0.0500 C.2   1 <1>  -0.3020 
  4 C       -1.5820    -1.7550     0.7220 C.ar  1 <1>   0.0000 
  5 C        0.7170    -2.3680     0.2480 C.ar  1 <1>  -0.1500 
  6 C       -2.3700    -0.5930     0.5690 C.2   1 <1>  -0.1810 
  7 C       -1.8240    -3.0460     1.2100 C.ar  1 <1>  -0.1500 
  8 C        0.4620    -3.6350     0.7180 C.ar  1 <1>  -0.1500 
  9 C       -3.8310    -0.5370     0.9180 C.3   1 <1>   0.5240 
 10 C       -0.8070    -3.9720     1.2020 C.ar  1 <1>  -0.1500 
 11 N       -4.5040    -1.2730    -0.1660 N.4   1 <1>  -0.9060 
 12 C       -5.9390    -1.5380    -0.0200 C.3   1 <1>   0.5030 
 13 C       -6.7300    -0.2200     0.1070 C.3   1 <1>  -0.1600 
 14 C       -6.2060    -2.4260     1.2120 C.3   1 <1>  -0.1600 
 15 C       -6.3990    -2.2820    -1.2870 C.3   1 <1>  -0.1600 
 16 C       -8.2370    -0.5240     0.2050 C.3   1 <1>  -0.0800 
 17 C       -7.7120    -2.7370     1.3130 C.3   1 <1>  -0.0800 
 18 C       -7.9040    -2.5960    -1.2010 C.3   1 <1>  -0.0800 
 19 C       -8.4950    -1.4150     1.4370 C.3   1 <1>  -0.1600 
 20 C       -8.6870    -1.2760    -1.0610 C.3   1 <1>  -0.1600 
 21 C       -8.1660    -3.4720     0.0380 C.3   1 <1>  -0.1600 
 22 H        0.4940     0.3940    -0.5090 H     1 <1>   0.2700 
 23 H       -1.8220     1.4000    -0.2010 H     1 <1>   0.1500 
 24 H        1.6930    -2.1010    -0.1200 H     1 <1>   0.1500 
 25 H       -2.7890    -3.3110     1.5980 H     1 <1>   0.1500 
 26 H        1.2400    -4.3790     0.7230 H     1 <1>   0.1500 
 27 H       -4.1700     0.4850     0.9550 H     1 <1>   0.0800 
 28 H       -3.9970    -1.0080     1.8730 H     1 <1>   0.0800 
 29 H       -0.9710    -4.9700     1.5730 H     1 <1>   0.1500 
 30 H       -4.0020    -2.1590    -0.2760 H     1 <1>   0.4500 
 31 H       -4.3380    -0.7570    -1.0340 H     1 <1>   0.4500 
 32 H       -6.5550     0.4070    -0.7500 H     1 <1>   0.0800 
 33 H       -6.4380     0.3200     0.9900 H     1 <1>   0.0800 
 34 H       -5.6630    -3.3510     1.1320 H     1 <1>   0.0800 
 35 H       -5.9050    -1.9310     2.1170 H     1 <1>   0.0800 
 36 H       -5.8580    -3.2060    -1.3960 H     1 <1>   0.0800 
 37 H       -6.2210    -1.6800    -2.1610 H     1 <1>   0.0800 
 38 H       -8.7940     0.3940     0.2980 H     1 <1>   0.0800 
 39 H       -7.9050    -3.3550     2.1750 H     1 <1>   0.0800 
 40 H       -8.2250    -3.1160    -2.0880 H     1 <1>   0.0800 
 41 H       -9.5490    -1.6260     1.5150 H     1 <1>   0.0800 
 42 H       -8.2070    -0.8960     2.3350 H     1 <1>   0.0800 
 43 H       -9.7420    -1.4860    -1.0020 H     1 <1>   0.0800 
 44 H       -8.5320    -0.6610    -1.9310 H     1 <1>   0.0800 
 45 H       -9.2170    -3.6980     0.1060 H     1 <1>   0.0800 
 46 H       -7.6430    -4.4090    -0.0540 H     1 <1>   0.0800 
@<TRIPOS>BOND
  1   1   2  1   
  2   1   3  1   
  3   1  22  1   
  4   2   4  ar  
  5   2   5  ar  
  6   3   6  2   
  7   3  23  1   
  8   4   6  1   
  9   4   7  ar  
 10   5   8  ar  
 11   5  24  1   
 12   6   9  1   
 13   7  10  ar  
 14   7  25  1   
 15   8  10  ar  
 16   8  26  1   
 17   9  11  1   
 18   9  27  1   
 19   9  28  1   
 20  10  29  1   
 21  11  12  1   
 22  11  30  1   
 23  11  31  1   
 24  12  13  1   
 25  12  14  1   
 26  12  15  1   
 27  13  16  1   
 28  13  32  1   
 29  13  33  1   
 30  14  17  1   
 31  14  34  1   
 32  14  35  1   
 33  15  18  1   
 34  15  36  1   
 35  15  37  1   
 36  16  19  1   
 37  16  20  1   
 38  16  38  1   
 39  17  19  1   
 40  17  21  1   
 41  17  39  1   
 42  18  20  1   
 43  18  21  1   
 44  18  40  1   
 45  19  41  1   
 46  19  42  1   
 47  20  43  1   
 48  20  44  1   
 49  21  45  1   
 50  21  46  1   
@<TRIPOS>SUBSTRUCTURE
  1 ****  11 GROUP 4 **** **** 0

# MOE 2024.06 (io_trps.svl 2023.06)
