@<TRIPOS>MOLECULE
NONAME
33 34 1 0 0 
SMALL
USER_CHARGES


@<TRIPOS>ATOM
  1 O       -0.0620    -0.4050    -1.2110 O.2   1 <1>  -0.5700 
  2 C        0.0120    -1.4400    -0.5790 C.2   1 <1>   0.5440 
  3 N        1.2150    -1.8690    -0.0960 N.am  1 <1>  -0.4930 
  4 C       -1.1820    -2.2190    -0.3040 C.ar  1 <1>   0.0860 
  5 C        2.4960    -1.3670    -0.2530 C.2   1 <1>   0.5790 
  6 C       -2.4150    -1.5920    -0.1190 C.ar  1 <1>  -0.1500 
  7 C       -1.1500    -3.6120    -0.2080 C.ar  1 <1>  -0.1500 
  8 N        2.8660    -0.3970    -1.0870 N.2   1 <1>  -0.2270 
  9 N        3.4470    -1.8670     0.4380 N.2   1 <1>  -0.7070 
 10 C       -3.5640    -2.3100     0.1650 C.ar  1 <1>  -0.1430 
 11 C       -2.2910    -4.3380     0.0770 C.ar  1 <1>  -0.1500 
 12 N        4.1230    -0.2590    -0.9230 N.2   1 <1>  -0.4180 
 13 N        4.4630    -1.1450    -0.0040 N.pl3 1 <1>   0.5800 
 14 C       -3.4970    -3.6880     0.2670 C.ar  1 <1>  -0.1500 
 15 C       -4.8900    -1.5980     0.3660 C.3   1 <1>  -0.0970 
 16 C        5.8450    -1.3140     0.4870 C.3   1 <1>   0.0960 
 17 C        6.5750    -2.4340    -0.2720 C.3   1 <1>  -0.1600 
 18 C        8.0120    -2.6060     0.2360 C.3   1 <1>  -0.2400 
 19 H        1.2030    -2.6420     0.5590 H     1 <1>   0.3700 
 20 H       -2.4600    -0.5200    -0.2020 H     1 <1>   0.1500 
 21 H       -0.2270    -4.1400    -0.3680 H     1 <1>   0.1500 
 22 H       -2.2460    -5.4120     0.1490 H     1 <1>   0.1500 
 23 H       -4.3820    -4.2590     0.4900 H     1 <1>   0.1500 
 24 H       -4.8520    -0.6010    -0.0370 H     1 <1>   0.0800 
 25 H       -5.1160    -1.5380     1.4150 H     1 <1>   0.0800 
 26 H       -5.6790    -2.1340    -0.1310 H     1 <1>   0.0800 
 27 H        5.8010    -1.5430     1.5350 H     1 <1>   0.0800 
 28 H        6.3620    -0.3810     0.3580 H     1 <1>   0.0800 
 29 H        6.5980    -2.1980    -1.3230 H     1 <1>   0.0800 
 30 H        6.0420    -3.3610    -0.1420 H     1 <1>   0.0800 
 31 H        8.5740    -1.6990     0.0980 H     1 <1>   0.0800 
 32 H        8.5010    -3.3950    -0.3100 H     1 <1>   0.0800 
 33 H        8.0170    -2.8630     1.2810 H     1 <1>   0.0800 
@<TRIPOS>BOND
  1   1   2  2   
  2   2   3  am  
  3   2   4  1   
  4   3   5  1   
  5   3  19  1   
  6   4   6  ar  
  7   4   7  ar  
  8   5   8  1   
  9   5   9  2   
 10   6  10  ar  
 11   6  20  1   
 12   7  11  ar  
 13   7  21  1   
 14   8  12  2   
 15   9  13  1   
 16  10  14  ar  
 17  10  15  1   
 18  11  14  ar  
 19  11  22  1   
 20  12  13  1   
 21  13  16  1   
 22  14  23  1   
 23  15  24  1   
 24  15  25  1   
 25  15  26  1   
 26  16  17  1   
 27  16  27  1   
 28  16  28  1   
 29  17  18  1   
 30  17  29  1   
 31  17  30  1   
 32  18  31  1   
 33  18  32  1   
 34  18  33  1   
@<TRIPOS>SUBSTRUCTURE
  1 ****   3 GROUP 4 **** **** 0

# MOE 2024.06 (io_trps.svl 2023.06)
