@<TRIPOS>MOLECULE
NONAME
30 30 1 0 0 
SMALL
USER_CHARGES


@<TRIPOS>ATOM
  1 CL      -1.7190     1.3840    -2.4850 Cl    1 <1>  -0.1770 
  2 C       -1.0170     2.3460    -1.2000 C.ar  1 <1>   0.1770 
  3 C       -1.7480     2.5720    -0.0340 C.ar  1 <1>   0.1170 
  4 C        0.2550     2.8540    -1.3840 C.ar  1 <1>  -0.1500 
  5 N       -3.0430     2.0300     0.0930 N.am  1 <1>  -0.5470 
  6 C       -1.1480     3.3490     0.9540 C.ar  1 <1>  -0.1500 
  7 C        0.8320     3.6190    -0.3850 C.ar  1 <1>  -0.1500 
  8 C       -3.8530     1.8360     1.1760 C.2   1 <1>   0.5690 
  9 C        0.1270     3.8640     0.7810 C.ar  1 <1>  -0.1500 
 10 O       -3.5410     2.1220     2.3060 O.2   1 <1>  -0.5700 
 11 C       -5.2040     1.1850     0.9390 C.3   1 <1>  -0.0990 
 12 C       -6.0480     1.9020    -0.1320 C.3   1 <1>  -0.1600 
 13 C       -7.3650     1.1690    -0.4620 C.3   1 <1>  -0.1860 
 14 C       -7.9880     1.7640    -1.7270 C.2   1 <1>   0.9060 
 15 C       -8.3480     1.1740     0.7280 C.3   1 <1>  -0.2400 
 16 O       -8.5220     2.8770    -1.6750 O.co2 1 <1>  -0.9000 
 17 O       -7.9040     1.1160    -2.7760 O.co2 1 <1>  -0.9000 
 18 H        0.7850     2.6530    -2.2980 H     1 <1>   0.1500 
 19 H       -3.4420     1.6960    -0.7880 H     1 <1>   0.3700 
 20 H       -1.6740     3.5610     1.8660 H     1 <1>   0.1500 
 21 H        1.8220     4.0210    -0.5130 H     1 <1>   0.1500 
 22 H        0.5700     4.4590     1.5620 H     1 <1>   0.1500 
 23 H       -5.7380     1.1770     1.8710 H     1 <1>   0.0800 
 24 H       -5.0390     0.1650     0.6460 H     1 <1>   0.0800 
 25 H       -5.4850     1.9780    -1.0460 H     1 <1>   0.0800 
 26 H       -6.2730     2.9060     0.1870 H     1 <1>   0.0800 
 27 H       -7.1370     0.1470    -0.7020 H     1 <1>   0.0800 
 28 H       -8.5650     2.1870     1.0200 H     1 <1>   0.0800 
 29 H       -7.9530     0.6360     1.5690 H     1 <1>   0.0800 
 30 H       -9.2710     0.7090     0.4280 H     1 <1>   0.0800 
@<TRIPOS>BOND
  1   1   2  1   
  2   2   3  ar  
  3   2   4  ar  
  4   3   5  1   
  5   3   6  ar  
  6   4   7  ar  
  7   4  18  1   
  8   5   8  am  
  9   5  19  1   
 10   6   9  ar  
 11   6  20  1   
 12   7   9  ar  
 13   7  21  1   
 14   8  10  2   
 15   8  11  1   
 16   9  22  1   
 17  11  12  1   
 18  11  23  1   
 19  11  24  1   
 20  12  13  1   
 21  12  25  1   
 22  12  26  1   
 23  13  14  1   
 24  13  15  1   
 25  13  27  1   
 26  14  16  ar  
 27  14  17  ar  
 28  15  28  1   
 29  15  29  1   
 30  15  30  1   
@<TRIPOS>SUBSTRUCTURE
  1 ****   5 GROUP 4 **** **** 0

# MOE 2024.06 (io_trps.svl 2023.06)
