@<TRIPOS>MOLECULE
NONAME
46 47 1 0 0 
SMALL
USER_CHARGES


@<TRIPOS>ATOM
  1 CL      -3.6480    -1.0790     1.2780 Cl    1 <1>  -0.1770 
  2 C       -2.0820    -1.4350     0.5910 C.ar  1 <1>   0.1770 
  3 C       -1.9470    -1.8000    -0.7440 C.ar  1 <1>  -0.0090 
  4 C       -0.9930    -1.3370     1.4430 C.ar  1 <1>  -0.1500 
  5 S       -3.3710    -1.9360    -1.8510 S.o2  1 <1>   1.4470 
  6 C       -0.6610    -2.0690    -1.2070 C.ar  1 <1>  -0.1500 
  7 C        0.2770    -1.6100     0.9660 C.ar  1 <1>  -0.1500 
  8 O       -4.1650    -0.7280    -1.7860 O.2   1 <1>  -0.6500 
  9 O       -2.9360    -2.4180    -3.1420 O.2   1 <1>  -0.6500 
 10 N       -4.3440    -3.1700    -1.2160 N.am  1 <1>  -0.8490 
 11 C        0.4260    -1.9740    -0.3580 C.ar  1 <1>   0.1770 
 12 C       -5.5830    -3.2900    -2.0450 C.3   1 <1>   0.2570 
 13 C       -3.6370    -4.4560    -1.1460 C.3   1 <1>   0.1960 
 14 CL       2.0190    -2.3250    -0.9740 Cl    1 <1>  -0.1770 
 15 C       -6.8500    -3.7530    -1.3040 C.2   1 <1>   0.5690 
 16 C       -4.3310    -5.4060    -0.1750 C.3   1 <1>  -0.2400 
 17 O       -7.4190    -4.7280    -1.7380 O.2   1 <1>  -0.5700 
 18 N       -7.3500    -3.0830    -0.2070 N.am  1 <1>  -0.6600 
 19 C       -6.7560    -1.8330     0.3600 C.3   1 <1>   0.1400 
 20 C       -8.5260    -3.6150     0.5500 C.3   1 <1>   0.1400 
 21 C       -7.8300    -0.7610     0.6190 C.3   1 <1>   0.3430 
 22 C       -9.5780    -2.5150     0.7860 C.3   1 <1>   0.3430 
 23 N       -8.9830    -1.2910     1.4320 N.4   1 <1>  -0.9590 
 24 C      -10.0180    -0.2350     1.6440 C.3   1 <1>   0.2630 
 25 H       -1.1400    -1.0500     2.4700 H     1 <1>   0.1500 
 26 H       -0.4980    -2.3530    -2.2340 H     1 <1>   0.1500 
 27 H        1.1400    -1.5420     1.6060 H     1 <1>   0.1500 
 28 H       -5.4050    -3.9550    -2.8730 H     1 <1>   0.0800 
 29 H       -5.8350    -2.3390    -2.4780 H     1 <1>   0.0800 
 30 H       -2.6370    -4.3010    -0.7780 H     1 <1>   0.0800 
 31 H       -3.5540    -4.9040    -2.1240 H     1 <1>   0.0800 
 32 H       -5.2460    -5.7860    -0.5880 H     1 <1>   0.0800 
 33 H       -4.5300    -4.9110     0.7590 H     1 <1>   0.0800 
 34 H       -3.6910    -6.2480     0.0170 H     1 <1>   0.0800 
 35 H       -6.0320    -1.4140    -0.3100 H     1 <1>   0.0800 
 36 H       -6.2510    -2.0720     1.2790 H     1 <1>   0.0800 
 37 H       -8.1890    -4.0060     1.4940 H     1 <1>   0.0800 
 38 H       -8.9890    -4.4250     0.0130 H     1 <1>   0.0800 
 39 H       -8.1900    -0.4070    -0.3330 H     1 <1>   0.0800 
 40 H       -7.3730     0.0730     1.1270 H     1 <1>   0.0800 
 41 H      -10.3650    -2.9120     1.4050 H     1 <1>   0.0800 
 42 H      -10.0090    -2.2510    -0.1660 H     1 <1>   0.0800 
 43 H       -8.6050    -1.5760     2.3470 H     1 <1>   0.4500 
 44 H      -10.4280     0.0830     0.6990 H     1 <1>   0.0800 
 45 H       -9.5850     0.6210     2.1370 H     1 <1>   0.0800 
 46 H      -10.8200    -0.6140     2.2580 H     1 <1>   0.0800 
@<TRIPOS>BOND
  1   1   2  1   
  2   2   3  ar  
  3   2   4  ar  
  4   3   5  1   
  5   3   6  ar  
  6   4   7  ar  
  7   4  25  1   
  8   5   8  2   
  9   5   9  2   
 10   5  10  am  
 11   6  11  ar  
 12   6  26  1   
 13   7  11  ar  
 14   7  27  1   
 15  10  12  1   
 16  10  13  1   
 17  11  14  1   
 18  12  15  1   
 19  12  28  1   
 20  12  29  1   
 21  13  16  1   
 22  13  30  1   
 23  13  31  1   
 24  15  17  2   
 25  15  18  am  
 26  16  32  1   
 27  16  33  1   
 28  16  34  1   
 29  18  19  1   
 30  18  20  1   
 31  19  21  1   
 32  19  35  1   
 33  19  36  1   
 34  20  22  1   
 35  20  37  1   
 36  20  38  1   
 37  21  23  1   
 38  21  39  1   
 39  21  40  1   
 40  22  23  1   
 41  22  41  1   
 42  22  42  1   
 43  23  24  1   
 44  23  43  1   
 45  24  44  1   
 46  24  45  1   
 47  24  46  1   
@<TRIPOS>SUBSTRUCTURE
  1 ****  10 GROUP 4 **** **** 0

# MOE 2024.06 (io_trps.svl 2023.06)
