@<TRIPOS>MOLECULE
NONAME
41 42 1 0 0 
SMALL
USER_CHARGES


@<TRIPOS>ATOM
  1 BR       0.0420     0.2510     2.1120 Br    1 <1>  -0.1110 
  2 C        1.5590    -0.4680     1.1610 C.ar  1 <1>   0.1110 
  3 C        1.7980    -0.0880    -0.1490 C.ar  1 <1>   0.0820 
  4 C        2.3750    -1.3580     1.8260 C.ar  1 <1>  -0.1500 
  5 O        0.9460     0.7910    -0.7390 O.3   1 <1>  -0.3630 
  6 C        2.9070    -0.6320    -0.7880 C.ar  1 <1>  -0.1500 
  7 C        3.4770    -1.8940     1.1750 C.ar  1 <1>  -0.1430 
  8 C        1.0820     1.1600    -2.0950 C.3   1 <1>   0.0400 
  9 C        3.7610    -1.5310    -0.1490 C.ar  1 <1>  -0.0090 
 10 C        4.3480    -2.8780     1.9470 C.3   1 <1>  -0.0960 
 11 S        5.1970    -2.1710    -1.0750 S.o2  1 <1>   1.4470 
 12 O        5.1790    -3.6180    -1.0830 O.2   1 <1>  -0.6500 
 13 O        5.3240    -1.4710    -2.3360 O.2   1 <1>  -0.6500 
 14 N        6.5340    -1.6950    -0.1490 N.am  1 <1>  -0.8490 
 15 C        7.7310    -2.4720    -0.5000 C.3   1 <1>   0.1960 
 16 C        6.7830    -0.2560    -0.1990 C.3   1 <1>   0.1960 
 17 C        9.0150    -1.8930     0.1200 C.3   1 <1>  -0.1600 
 18 C        7.7580     0.1450     0.9190 C.3   1 <1>  -0.1600 
 19 C        8.7130    -0.9950     1.3340 C.3   1 <1>  -0.0190 
 20 C        9.9700    -0.4720     2.0240 C.2   1 <1>   0.5690 
 21 O       10.1070    -0.6240     3.2080 O.2   1 <1>  -0.5700 
 22 N       10.9220     0.1650     1.3160 N.am  1 <1>  -0.8000 
 23 H        2.1430    -1.6220     2.8430 H     1 <1>   0.1500 
 24 H        3.1270    -0.3620    -1.8040 H     1 <1>   0.1500 
 25 H        0.2780     1.8310    -2.3390 H     1 <1>   0.0800 
 26 H        1.0180     0.2770    -2.7060 H     1 <1>   0.0800 
 27 H        2.0260     1.6570    -2.2300 H     1 <1>   0.0800 
 28 H        3.9150    -3.1110     2.9030 H     1 <1>   0.0800 
 29 H        5.3240    -2.4600     2.1200 H     1 <1>   0.0800 
 30 H        4.4530    -3.8000     1.4030 H     1 <1>   0.0800 
 31 H        7.8430    -2.5150    -1.5720 H     1 <1>   0.0800 
 32 H        7.5940    -3.4810    -0.1460 H     1 <1>   0.0800 
 33 H        5.8620     0.2900    -0.0740 H     1 <1>   0.0800 
 34 H        7.1950     0.0010    -1.1620 H     1 <1>   0.0800 
 35 H        9.5320    -1.3240    -0.6320 H     1 <1>   0.0800 
 36 H        9.6620    -2.7020     0.4110 H     1 <1>   0.0800 
 37 H        7.1960     0.4520     1.7830 H     1 <1>   0.0800 
 38 H        8.3160     1.0010     0.5850 H     1 <1>   0.0800 
 39 H        8.1950    -1.6060     2.0540 H     1 <1>   0.0800 
 40 H       11.7530     0.5050     1.8020 H     1 <1>   0.3700 
 41 H       10.8780     0.3290     0.3120 H     1 <1>   0.3700 
@<TRIPOS>BOND
  1   1   2  1   
  2   2   3  ar  
  3   2   4  ar  
  4   3   5  1   
  5   3   6  ar  
  6   4   7  ar  
  7   4  23  1   
  8   5   8  1   
  9   6   9  ar  
 10   6  24  1   
 11   7   9  ar  
 12   7  10  1   
 13   8  25  1   
 14   8  26  1   
 15   8  27  1   
 16   9  11  1   
 17  10  28  1   
 18  10  29  1   
 19  10  30  1   
 20  11  12  2   
 21  11  13  2   
 22  11  14  am  
 23  14  15  1   
 24  14  16  1   
 25  15  17  1   
 26  15  31  1   
 27  15  32  1   
 28  16  18  1   
 29  16  33  1   
 30  16  34  1   
 31  17  19  1   
 32  17  35  1   
 33  17  36  1   
 34  18  19  1   
 35  18  37  1   
 36  18  38  1   
 37  19  20  1   
 38  19  39  1   
 39  20  21  2   
 40  20  22  am  
 41  22  40  1   
 42  22  41  1   
@<TRIPOS>SUBSTRUCTURE
  1 ****  14 GROUP 4 **** **** 0

# MOE 2024.06 (io_trps.svl 2023.06)
