@<TRIPOS>MOLECULE
NONAME
53 55 1 0 0 
SMALL
USER_CHARGES


@<TRIPOS>ATOM
  1 O        0.1090    -0.5880    -1.2180 O.2   1 <1>  -0.5700 
  2 C        0.5240    -1.3430    -0.3710 C.2   1 <1>   0.5690 
  3 N        1.5910    -1.0160     0.4100 N.am  1 <1>  -0.7300 
  4 C       -0.1660    -2.7020    -0.1610 C.3   1 <1>   0.1710 
  5 C        2.3320     0.2670     0.3180 C.3   1 <1>   0.1400 
  6 N       -1.6540    -2.6520    -0.0560 N.3   1 <1>  -0.8100 
  7 C        3.5860     0.0880    -0.5370 C.3   1 <1>  -0.0170 
  8 C       -2.2820    -3.9840     0.0640 C.3   1 <1>   0.1100 
  9 C       -2.1380    -1.7240     0.9990 C.3   1 <1>   0.1100 
 10 C        4.3850     1.3810    -0.5690 C.ar  1 <1>  -0.1440 
 11 C       -3.8270    -3.8950    -0.0270 C.3   1 <1>   0.3430 
 12 C       -3.6830    -1.6880     1.0860 C.3   1 <1>   0.3430 
 13 C        5.4250     1.5880     0.3240 C.ar  1 <1>  -0.1500 
 14 C        4.0730     2.3680    -1.4920 C.ar  1 <1>  -0.1500 
 15 N       -4.2920    -2.4690    -0.0420 N.4   1 <1>  -0.9590 
 16 C        6.1460     2.7690     0.2950 C.ar  1 <1>  -0.1500 
 17 C        4.7940     3.5490    -1.5210 C.ar  1 <1>  -0.1500 
 18 C       -5.7610    -2.3060    -0.1830 C.3   1 <1>   0.4860 
 19 C        5.8310     3.7510    -0.6280 C.ar  1 <1>  -0.1500 
 20 C       -6.0970    -0.8290    -0.2680 C.ar  1 <1>  -0.1440 
 21 C       -5.7170    -0.0820    -1.3740 C.ar  1 <1>  -0.1500 
 22 C       -6.7810    -0.2120     0.7700 C.ar  1 <1>  -0.1500 
 23 C       -6.0110     1.2690    -1.4370 C.ar  1 <1>  -0.1500 
 24 C       -7.0760     1.1390     0.7050 C.ar  1 <1>  -0.1500 
 25 C       -6.6900     1.8790    -0.3970 C.ar  1 <1>  -0.1500 
 26 H        1.9610    -1.6820     1.0890 H     1 <1>   0.3700 
 27 H        0.2360    -3.1610     0.7240 H     1 <1>   0.0800 
 28 H        0.0980    -3.3200    -1.0010 H     1 <1>   0.0800 
 29 H        2.6050     0.5960     1.3060 H     1 <1>   0.0800 
 30 H        1.7040     1.0230    -0.1240 H     1 <1>   0.0800 
 31 H        3.2990    -0.1810    -1.5380 H     1 <1>   0.0800 
 32 H        4.1950    -0.7010    -0.1340 H     1 <1>   0.0800 
 33 H       -2.0030    -4.4370     1.0010 H     1 <1>   0.0800 
 34 H       -1.9250    -4.6240    -0.7260 H     1 <1>   0.0800 
 35 H       -1.7920    -0.7270     0.7800 H     1 <1>   0.0800 
 36 H       -1.7330    -2.0050     1.9560 H     1 <1>   0.0800 
 37 H       -4.2610    -4.4190     0.8080 H     1 <1>   0.0800 
 38 H       -4.1480    -4.3900    -0.9280 H     1 <1>   0.0800 
 39 H       -4.0060    -0.6590     1.0460 H     1 <1>   0.0800 
 40 H       -4.0000    -2.0960     2.0310 H     1 <1>   0.0800 
 41 H        5.6800     0.8320     1.0460 H     1 <1>   0.1500 
 42 H        3.2680     2.2210    -2.1910 H     1 <1>   0.1500 
 43 H       -3.8320    -2.0560    -0.8690 H     1 <1>   0.4500 
 44 H        6.9520     2.9250     0.9900 H     1 <1>   0.1500 
 45 H        4.5470     4.3110    -2.2400 H     1 <1>   0.1500 
 46 H       -6.2650    -2.7430     0.6630 H     1 <1>   0.0800 
 47 H       -6.1040    -2.8000    -1.0770 H     1 <1>   0.0800 
 48 H        6.3910     4.6690    -0.6510 H     1 <1>   0.1500 
 49 H       -5.1920    -0.5340    -2.1990 H     1 <1>   0.1500 
 50 H       -7.0950    -0.7690     1.6370 H     1 <1>   0.1500 
 51 H       -5.7140     1.8490    -2.2950 H     1 <1>   0.1500 
 52 H       -7.6090     1.6170     1.5090 H     1 <1>   0.1500 
 53 H       -6.9200     2.9300    -0.4480 H     1 <1>   0.1500 
@<TRIPOS>BOND
  1   1   2  2   
  2   2   3  am  
  3   2   4  1   
  4   3   5  1   
  5   3  26  1   
  6   4   6  1   
  7   4  27  1   
  8   4  28  1   
  9   5   7  1   
 10   5  29  1   
 11   5  30  1   
 12   6   8  1   
 13   6   9  1   
 14   7  10  1   
 15   7  31  1   
 16   7  32  1   
 17   8  11  1   
 18   8  33  1   
 19   8  34  1   
 20   9  12  1   
 21   9  35  1   
 22   9  36  1   
 23  10  13  ar  
 24  10  14  ar  
 25  11  15  1   
 26  11  37  1   
 27  11  38  1   
 28  12  15  1   
 29  12  39  1   
 30  12  40  1   
 31  13  16  ar  
 32  13  41  1   
 33  14  17  ar  
 34  14  42  1   
 35  15  18  1   
 36  15  43  1   
 37  16  19  ar  
 38  16  44  1   
 39  17  19  ar  
 40  17  45  1   
 41  18  20  1   
 42  18  46  1   
 43  18  47  1   
 44  19  48  1   
 45  20  21  ar  
 46  20  22  ar  
 47  21  23  ar  
 48  21  49  1   
 49  22  24  ar  
 50  22  50  1   
 51  23  25  ar  
 52  23  51  1   
 53  24  25  ar  
 54  24  52  1   
 55  25  53  1   
@<TRIPOS>SUBSTRUCTURE
  1 ****   1 GROUP 4 **** **** 0

# MOE 2024.06 (io_trps.svl 2023.06)
