@<TRIPOS>MOLECULE
NONAME
50 52 1 0 0 
SMALL
USER_CHARGES


@<TRIPOS>ATOM
  1 O       -0.2590     0.8840    -1.0500 O.3   1 <1>  -0.3630 
  2 C       -1.3440     1.1430    -0.2500 C.ar  1 <1>   0.0830 
  3 C       -0.2470    -0.2250    -1.9240 C.3   1 <1>   0.0400 
  4 C       -1.2950     2.2640     0.6010 C.ar  1 <1>   0.1000 
  5 C       -2.4780     0.3370    -0.2580 C.ar  1 <1>  -0.1500 
  6 N       -0.2010     3.1380     0.6840 N.pl3 1 <1>  -0.8380 
  7 C       -2.3870     2.5340     1.4130 C.ar  1 <1>  -0.1500 
  8 C       -3.5550     0.6290     0.5620 C.ar  1 <1>  -0.1500 
  9 C        0.0410     3.9400    -0.5490 C.3   1 <1>   0.2090 
 10 C        1.0320     2.5270     1.2550 C.3   1 <1>   0.2090 
 11 C       -3.5090     1.7280     1.3980 C.ar  1 <1>  -0.1500 
 12 C        1.1620     4.9750    -0.3310 C.3   1 <1>   0.3430 
 13 C        2.1400     3.5810     1.4480 C.3   1 <1>   0.3430 
 14 N        2.4460     4.3590     0.1840 N.4   1 <1>  -0.9590 
 15 C        3.5440     5.3590     0.3640 C.3   1 <1>   0.4230 
 16 C        3.8220     6.0880    -0.9650 C.3   1 <1>  -0.1600 
 17 C        4.8250     4.6600     0.8600 C.3   1 <1>  -0.1600 
 18 C        5.0150     7.0510    -0.8600 C.3   1 <1>  -0.1600 
 19 C        6.0140     5.6270     0.9580 C.3   1 <1>  -0.1600 
 20 C        6.2800     6.3300    -0.3790 C.3   1 <1>  -0.0800 
 21 C        7.4390     7.3220    -0.2400 C.3   1 <1>  -0.2400 
 22 H        0.6930    -0.2320    -2.4460 H     1 <1>   0.0800 
 23 H       -1.0530    -0.1240    -2.6290 H     1 <1>   0.0800 
 24 H       -0.3490    -1.1270    -1.3470 H     1 <1>   0.0800 
 25 H       -2.5540    -0.5250    -0.8920 H     1 <1>   0.1500 
 26 H       -2.3510     3.3890     2.0620 H     1 <1>   0.1500 
 27 H       -4.4290     0.0000     0.5490 H     1 <1>   0.1500 
 28 H       -0.8690     4.4500    -0.8170 H     1 <1>   0.0800 
 29 H        0.3040     3.2910    -1.3660 H     1 <1>   0.0800 
 30 H        1.3890     1.7440     0.6090 H     1 <1>   0.0800 
 31 H        0.7930     2.0820     2.2060 H     1 <1>   0.0800 
 32 H       -4.3460     1.9560     2.0360 H     1 <1>   0.1500 
 33 H        0.8070     5.7090     0.3720 H     1 <1>   0.0800 
 34 H        1.3390     5.4730    -1.2690 H     1 <1>   0.0800 
 35 H        3.0240     3.0730     1.7950 H     1 <1>   0.0800 
 36 H        1.8240     4.2610     2.2210 H     1 <1>   0.0800 
 37 H        2.7590     3.6800    -0.5190 H     1 <1>   0.4500 
 38 H        3.2480     6.0900     1.1000 H     1 <1>   0.0800 
 39 H        2.9730     6.6750    -1.2610 H     1 <1>   0.0800 
 40 H        4.0320     5.3680    -1.7370 H     1 <1>   0.0800 
 41 H        5.0880     3.8640     0.1860 H     1 <1>   0.0800 
 42 H        4.6770     4.2470     1.8410 H     1 <1>   0.0800 
 43 H        4.7740     7.8490    -0.1780 H     1 <1>   0.0800 
 44 H        5.2010     7.4930    -1.8250 H     1 <1>   0.0800 
 45 H        6.8940     5.0810     1.2560 H     1 <1>   0.0800 
 46 H        5.8170     6.3640     1.7190 H     1 <1>   0.0800 
 47 H        6.5600     5.5900    -1.1120 H     1 <1>   0.0800 
 48 H        7.2090     8.0840     0.4840 H     1 <1>   0.0800 
 49 H        7.6410     7.7970    -1.1840 H     1 <1>   0.0800 
 50 H        8.3330     6.8110     0.0750 H     1 <1>   0.0800 
@<TRIPOS>BOND
  1   1   2  1   
  2   1   3  1   
  3   2   4  ar  
  4   2   5  ar  
  5   3  22  1   
  6   3  23  1   
  7   3  24  1   
  8   4   6  1   
  9   4   7  ar  
 10   5   8  ar  
 11   5  25  1   
 12   6   9  1   
 13   6  10  1   
 14   7  11  ar  
 15   7  26  1   
 16   8  11  ar  
 17   8  27  1   
 18   9  12  1   
 19   9  28  1   
 20   9  29  1   
 21  10  13  1   
 22  10  30  1   
 23  10  31  1   
 24  11  32  1   
 25  12  14  1   
 26  12  33  1   
 27  12  34  1   
 28  13  14  1   
 29  13  35  1   
 30  13  36  1   
 31  14  15  1   
 32  14  37  1   
 33  15  16  1   
 34  15  17  1   
 35  15  38  1   
 36  16  18  1   
 37  16  39  1   
 38  16  40  1   
 39  17  19  1   
 40  17  41  1   
 41  17  42  1   
 42  18  20  1   
 43  18  43  1   
 44  18  44  1   
 45  19  20  1   
 46  19  45  1   
 47  19  46  1   
 48  20  21  1   
 49  20  47  1   
 50  21  48  1   
 51  21  49  1   
 52  21  50  1   
@<TRIPOS>SUBSTRUCTURE
  1 ****  14 GROUP 4 **** **** 0

# MOE 2024.06 (io_trps.svl 2023.06)
