@<TRIPOS>MOLECULE
NONAME
40 41 1 0 0 
SMALL
USER_CHARGES


@<TRIPOS>ATOM
  1 O       -0.0600    -0.7370     0.5650 O.2   1 <1>  -0.5700 
  2 C       -0.5180     0.3710     0.6920 C.2   1 <1>   0.5690 
  3 N        0.2040     1.5230     0.5430 N.am  1 <1>  -0.5470 
  4 C       -1.9840     0.5080     1.0620 C.3   1 <1>  -0.0990 
  5 C        1.5420     1.7430     0.1780 C.ar  1 <1>   0.1170 
  6 C       -2.8360     1.1900    -0.0270 C.3   1 <1>  -0.0800 
  7 C        2.1090     2.9820     0.4490 C.ar  1 <1>  -0.1500 
  8 C        2.3280     0.7890    -0.4610 C.ar  1 <1>  -0.1500 
  9 C       -4.2830     1.3470     0.4570 C.3   1 <1>  -0.2400 
 10 C       -2.8140     0.3910    -1.3370 C.3   1 <1>  -0.2400 
 11 C        3.4160     3.2640     0.0960 C.ar  1 <1>  -0.1500 
 12 C        3.6350     1.0670    -0.8160 C.ar  1 <1>  -0.1500 
 13 C        4.1910     2.3070    -0.5420 C.ar  1 <1>  -0.1440 
 14 C        5.6300     2.6100    -0.9450 C.3   1 <1>   0.1270 
 15 C        6.6350     1.6650    -0.2960 C.ar  1 <1>  -0.1440 
 16 C        7.7300     1.1860    -0.9890 C.ar  1 <1>  -0.1500 
 17 C        6.5170     1.2430     1.0140 C.ar  1 <1>  -0.1500 
 18 C        8.6250     0.3380    -0.3580 C.ar  1 <1>   0.1600 
 19 C        7.4690     0.3910     1.5500 C.ar  1 <1>   0.1600 
 20 N        8.5230    -0.0700     0.8960 N.ar  1 <1>  -0.6200 
 21 H       -0.3210     2.3720     0.7360 H     1 <1>   0.3700 
 22 H       -2.0470     1.0660     1.9780 H     1 <1>   0.0800 
 23 H       -2.3760    -0.4740     1.2580 H     1 <1>   0.0800 
 24 H       -2.4410     2.1730    -0.2220 H     1 <1>   0.0800 
 25 H        1.5260     3.7370     0.9440 H     1 <1>   0.1500 
 26 H        1.9220    -0.1790    -0.6900 H     1 <1>   0.1500 
 27 H       -4.7240     0.3860     0.6540 H     1 <1>   0.0800 
 28 H       -4.8740     1.8470    -0.2900 H     1 <1>   0.0800 
 29 H       -4.3170     1.9320     1.3600 H     1 <1>   0.0800 
 30 H       -3.1850    -0.6060    -1.1800 H     1 <1>   0.0800 
 31 H       -1.8140     0.3240    -1.7270 H     1 <1>   0.0800 
 32 H       -3.4280     0.8710    -2.0790 H     1 <1>   0.0800 
 33 H        3.8260     4.2330     0.3210 H     1 <1>   0.1500 
 34 H        4.2230     0.3090    -1.3050 H     1 <1>   0.1500 
 35 H        5.8850     3.6180    -0.6720 H     1 <1>   0.0800 
 36 H        5.7030     2.5370    -2.0160 H     1 <1>   0.0800 
 37 H        7.8980     1.4640    -2.0130 H     1 <1>   0.1500 
 38 H        5.6920     1.5660     1.6220 H     1 <1>   0.1500 
 39 H        9.4730    -0.0230    -0.9160 H     1 <1>   0.1500 
 40 H        7.3550     0.0730     2.5720 H     1 <1>   0.1500 
@<TRIPOS>BOND
  1   1   2  2   
  2   2   3  am  
  3   2   4  1   
  4   3   5  1   
  5   3  21  1   
  6   4   6  1   
  7   4  22  1   
  8   4  23  1   
  9   5   7  ar  
 10   5   8  ar  
 11   6   9  1   
 12   6  10  1   
 13   6  24  1   
 14   7  11  ar  
 15   7  25  1   
 16   8  12  ar  
 17   8  26  1   
 18   9  27  1   
 19   9  28  1   
 20   9  29  1   
 21  10  30  1   
 22  10  31  1   
 23  10  32  1   
 24  11  13  ar  
 25  11  33  1   
 26  12  13  ar  
 27  12  34  1   
 28  13  14  1   
 29  14  15  1   
 30  14  35  1   
 31  14  36  1   
 32  15  16  ar  
 33  15  17  ar  
 34  16  18  ar  
 35  16  37  1   
 36  17  19  ar  
 37  17  38  1   
 38  18  20  ar  
 39  18  39  1   
 40  19  20  ar  
 41  19  40  1   
@<TRIPOS>SUBSTRUCTURE
  1 ****   8 GROUP 4 **** **** 0

# MOE 2024.06 (io_trps.svl 2023.06)
