@<TRIPOS>MOLECULE
NONAME
37 39 1 0 0 
SMALL
USER_CHARGES


@<TRIPOS>ATOM
  1 N        1.6670    -0.6330    -1.7780 N.ar  1 <1>  -0.6200 
  2 C        1.0130    -1.5130    -1.0600 C.ar  1 <1>   0.4100 
  3 C        2.9840    -0.5490    -1.5570 C.ar  1 <1>   0.4700 
  4 N       -0.3220    -1.6020    -1.3000 N.pl3 1 <1>  -0.9000 
  5 C        1.6680    -2.3060    -0.1030 C.ar  1 <1>   0.2270 
  6 N        3.7240    -1.2360    -0.7100 N.ar  1 <1>  -0.5670 
  7 N        1.2470    -3.2720     0.7750 N.2   1 <1>  -0.5650 
  8 C        3.0190    -2.1150     0.0190 C.ar  1 <1>   0.1050 
  9 C        2.3220    -3.6290     1.3860 C.2   1 <1>   0.0360 
 10 N        3.4420    -2.9710     0.9760 N.pl3 1 <1>   0.0480 
 11 C        4.8300    -3.1530     1.4320 C.3   1 <1>   0.0960 
 12 C        5.7090    -3.5700     0.2420 C.3   1 <1>   0.3430 
 13 N        7.0000    -2.8090     0.1640 N.4   1 <1>  -0.9590 
 14 C        6.7690    -1.3740    -0.2020 C.3   1 <1>   0.3430 
 15 C        7.9190    -3.4560    -0.8200 C.3   1 <1>   0.3430 
 16 C        8.0940    -0.6120    -0.1710 C.3   1 <1>  -0.1600 
 17 C        9.2750    -2.7480    -0.8030 C.3   1 <1>  -0.1600 
 18 C        9.1360    -1.2490    -1.0990 C.3   1 <1>  -0.1600 
 19 H        3.4940     0.1820    -2.1620 H     1 <1>   0.1500 
 20 H       -0.9190    -2.1370    -0.6640 H     1 <1>   0.4000 
 21 H       -0.7670    -0.8860    -1.8730 H     1 <1>   0.4000 
 22 H        2.3510    -4.3810     2.1580 H     1 <1>   0.1500 
 23 H        4.8520    -3.9140     2.1910 H     1 <1>   0.0800 
 24 H        5.1610    -2.2250     1.8600 H     1 <1>   0.0800 
 25 H        5.1610    -3.4180    -0.6750 H     1 <1>   0.0800 
 26 H        5.9190    -4.6240     0.3270 H     1 <1>   0.0800 
 27 H        7.4780    -2.8260     1.0740 H     1 <1>   0.4500 
 28 H        6.0760    -0.9160     0.4860 H     1 <1>   0.0800 
 29 H        6.3410    -1.3150    -1.1900 H     1 <1>   0.0800 
 30 H        7.4950    -3.3970    -1.8100 H     1 <1>   0.0800 
 31 H        8.0570    -4.4970    -0.5720 H     1 <1>   0.0800 
 32 H        8.4680    -0.5820     0.8380 H     1 <1>   0.0800 
 33 H        7.9200     0.4050    -0.4780 H     1 <1>   0.0800 
 34 H        9.9150    -3.1970    -1.5440 H     1 <1>   0.0800 
 35 H        9.7440    -2.8920     0.1540 H     1 <1>   0.0800 
 36 H       10.0880    -0.7600    -0.9740 H     1 <1>   0.0800 
 37 H        8.8320    -1.1130    -2.1240 H     1 <1>   0.0800 
@<TRIPOS>BOND
  1   1   2  ar  
  2   1   3  ar  
  3   2   4  1   
  4   2   5  ar  
  5   3   6  ar  
  6   3  19  1   
  7   4  20  1   
  8   4  21  1   
  9   5   7  1   
 10   5   8  ar  
 11   6   8  ar  
 12   7   9  2   
 13   8  10  1   
 14   9  10  1   
 15   9  22  1   
 16  10  11  1   
 17  11  12  1   
 18  11  23  1   
 19  11  24  1   
 20  12  13  1   
 21  12  25  1   
 22  12  26  1   
 23  13  14  1   
 24  13  15  1   
 25  13  27  1   
 26  14  16  1   
 27  14  28  1   
 28  14  29  1   
 29  15  17  1   
 30  15  30  1   
 31  15  31  1   
 32  16  18  1   
 33  16  32  1   
 34  16  33  1   
 35  17  18  1   
 36  17  34  1   
 37  17  35  1   
 38  18  36  1   
 39  18  37  1   
@<TRIPOS>SUBSTRUCTURE
  1 ****   6 GROUP 4 **** **** 0

# MOE 2024.06 (io_trps.svl 2023.06)
