@<TRIPOS>MOLECULE
NONAME
47 48 1 0 0 
SMALL
USER_CHARGES


@<TRIPOS>ATOM
  1 O       -1.0610    -6.3460     1.0670 O.2   1 <1>  -0.5700 
  2 C       -1.3390    -5.4580     0.3040 C.2   1 <1>   0.6590 
  3 O       -2.5820    -5.1870    -0.0570 O.3   1 <1>  -0.4300 
  4 C       -0.2640    -4.5750    -0.3050 C.3   1 <1>  -0.0190 
  5 C       -3.6750    -5.9240     0.4430 C.3   1 <1>   0.1200 
  6 C        1.1050    -5.2730    -0.1850 C.3   1 <1>   0.3430 
  7 C       -0.2500    -3.1680     0.3250 C.3   1 <1>  -0.1600 
  8 C       -4.9500    -5.3500    -0.1660 C.3   1 <1>  -0.2400 
  9 N        2.2480    -4.3110     0.0060 N.4   1 <1>  -0.9590 
 10 C        0.8550    -2.2920    -0.2970 C.3   1 <1>  -0.1600 
 11 C        2.0690    -3.0770    -0.8130 C.3   1 <1>   0.3430 
 12 C        3.5520    -5.0070    -0.2530 C.3   1 <1>   0.3430 
 13 C        4.7660    -4.2030     0.2220 C.3   1 <1>   0.1200 
 14 O        5.9090    -4.9590    -0.0870 O.3   1 <1>  -0.3630 
 15 C        7.1550    -4.5040     0.1980 C.ar  1 <1>   0.0820 
 16 C        8.2140    -5.3060    -0.1960 C.ar  1 <1>  -0.1500 
 17 C        7.4110    -3.3000     0.8480 C.ar  1 <1>  -0.1500 
 18 C        9.5220    -4.9230     0.0490 C.ar  1 <1>  -0.1430 
 19 C        8.7170    -2.9140     1.0930 C.ar  1 <1>  -0.1500 
 20 C        9.7680    -3.7220     0.6940 C.ar  1 <1>  -0.1500 
 21 C       10.6800    -5.8040    -0.3860 C.3   1 <1>  -0.0970 
 22 H       -0.4970    -4.4800    -1.3510 H     1 <1>   0.0800 
 23 H       -3.6870    -5.8360     1.5170 H     1 <1>   0.0800 
 24 H       -3.5480    -6.9580     0.1680 H     1 <1>   0.0800 
 25 H        1.2640    -5.8660    -1.0710 H     1 <1>   0.0800 
 26 H        1.0900    -5.9510     0.6550 H     1 <1>   0.0800 
 27 H       -0.0810    -3.2620     1.3860 H     1 <1>   0.0800 
 28 H       -1.2090    -2.6920     0.1960 H     1 <1>   0.0800 
 29 H       -5.0630    -4.3170     0.1090 H     1 <1>   0.0800 
 30 H       -5.8020    -5.8950     0.1990 H     1 <1>   0.0800 
 31 H       -4.9240    -5.4370    -1.2380 H     1 <1>   0.0800 
 32 H        2.2240    -4.0230     0.9950 H     1 <1>   0.4500 
 33 H        1.1800    -1.5640     0.4270 H     1 <1>   0.0800 
 34 H        0.4460    -1.7380    -1.1260 H     1 <1>   0.0800 
 35 H        1.9080    -3.3540    -1.8430 H     1 <1>   0.0800 
 36 H        2.9460    -2.4510    -0.7670 H     1 <1>   0.0800 
 37 H        3.6550    -5.2000    -1.3090 H     1 <1>   0.0800 
 38 H        3.5600    -5.9530     0.2640 H     1 <1>   0.0800 
 39 H        4.7400    -4.0580     1.2880 H     1 <1>   0.0800 
 40 H        4.8450    -3.2640    -0.2960 H     1 <1>   0.0800 
 41 H        8.0070    -6.2340    -0.6970 H     1 <1>   0.1500 
 42 H        6.6230    -2.6500     1.1730 H     1 <1>   0.1500 
 43 H        8.9220    -1.9850     1.5950 H     1 <1>   0.1500 
 44 H       10.7800    -3.4120     0.8890 H     1 <1>   0.1500 
 45 H       10.3500    -6.8150    -0.5440 H     1 <1>   0.0800 
 46 H       11.4450    -5.8110     0.3700 H     1 <1>   0.0800 
 47 H       11.0980    -5.4280    -1.3020 H     1 <1>   0.0800 
@<TRIPOS>BOND
  1   1   2  2   
  2   2   3  1   
  3   2   4  1   
  4   3   5  1   
  5   4   6  1   
  6   4   7  1   
  7   4  22  1   
  8   5   8  1   
  9   5  23  1   
 10   5  24  1   
 11   6   9  1   
 12   6  25  1   
 13   6  26  1   
 14   7  10  1   
 15   7  27  1   
 16   7  28  1   
 17   8  29  1   
 18   8  30  1   
 19   8  31  1   
 20   9  11  1   
 21   9  12  1   
 22   9  32  1   
 23  10  11  1   
 24  10  33  1   
 25  10  34  1   
 26  11  35  1   
 27  11  36  1   
 28  12  13  1   
 29  12  37  1   
 30  12  38  1   
 31  13  14  1   
 32  13  39  1   
 33  13  40  1   
 34  14  15  1   
 35  15  16  ar  
 36  15  17  ar  
 37  16  18  ar  
 38  16  41  1   
 39  17  19  ar  
 40  17  42  1   
 41  18  20  ar  
 42  18  21  1   
 43  19  20  ar  
 44  19  43  1   
 45  20  44  1   
 46  21  45  1   
 47  21  46  1   
 48  21  47  1   
@<TRIPOS>SUBSTRUCTURE
  1 ****  12 GROUP 4 **** **** 0

# MOE 2024.06 (io_trps.svl 2023.06)
