@<TRIPOS>MOLECULE
NONAME
43 44 1 0 0 
SMALL
USER_CHARGES


@<TRIPOS>ATOM
  1 O        0.5520    -0.6850     1.1410 O.2   1 <1>  -0.5700 
  2 C        0.6000    -1.8840     1.0330 C.2   1 <1>   0.5690 
  3 N        1.7980    -2.5410     0.9110 N.am  1 <1>  -0.6600 
  4 C       -0.7080    -2.6400     1.0160 C.3   1 <1>  -0.1790 
  5 C        1.9640    -3.9590     0.4720 C.3   1 <1>   0.1400 
  6 C        3.0880    -1.8020     1.0820 C.3   1 <1>   0.1400 
  7 C        2.8230    -4.0290    -0.8090 C.3   1 <1>   0.3430 
  8 C        3.9170    -1.8650    -0.2110 C.3   1 <1>   0.3430 
  9 N        4.1240    -3.2860    -0.6720 N.4   1 <1>  -0.9590 
 10 C        4.9310    -3.3550    -1.9080 C.3   1 <1>   0.4810 
 11 C        6.3330    -2.9810    -1.5050 C.2   1 <1>  -0.2880 
 12 C        7.2510    -3.8610    -1.0720 C.2   1 <1>  -0.1780 
 13 C        8.5980    -3.5740    -0.6330 C.ar  1 <1>   0.0280 
 14 C        9.2000    -4.3230     0.3870 C.ar  1 <1>   0.0820 
 15 C        9.3310    -2.5430    -1.2160 C.ar  1 <1>  -0.1500 
 16 O        8.4660    -5.3180     0.9560 O.3   1 <1>  -0.3620 
 17 C       10.5000    -4.0320     0.7940 C.ar  1 <1>  -0.1500 
 18 C       10.6190    -2.2570    -0.8070 C.ar  1 <1>  -0.1500 
 19 C        9.0110    -6.1860     1.9280 C.3   1 <1>   0.0400 
 20 C       11.2050    -3.0020     0.2000 C.ar  1 <1>  -0.1500 
 21 H       -0.9140    -2.9990     0.0270 H     1 <1>   0.0800 
 22 H       -1.5050    -1.9820     1.3130 H     1 <1>   0.0800 
 23 H       -0.6720    -3.4600     1.7080 H     1 <1>   0.0800 
 24 H        2.4380    -4.5190     1.2600 H     1 <1>   0.0800 
 25 H        1.0100    -4.4150     0.2770 H     1 <1>   0.0800 
 26 H        2.9090    -0.7700     1.3330 H     1 <1>   0.0800 
 27 H        3.6430    -2.2360     1.8950 H     1 <1>   0.0800 
 28 H        2.2520    -3.6060    -1.6200 H     1 <1>   0.0800 
 29 H        3.0150    -5.0630    -1.0460 H     1 <1>   0.0800 
 30 H        4.8700    -1.3910    -0.0370 H     1 <1>   0.0800 
 31 H        3.4010    -1.3030    -0.9720 H     1 <1>   0.0800 
 32 H        4.6950    -3.7510     0.0480 H     1 <1>   0.4500 
 33 H        4.9320    -4.3650    -2.2870 H     1 <1>   0.0800 
 34 H        4.5510    -2.6940    -2.6700 H     1 <1>   0.0800 
 35 H        6.5320    -1.9260    -1.5790 H     1 <1>   0.1500 
 36 H        7.0090    -4.9100    -1.0080 H     1 <1>   0.1500 
 37 H        8.8960    -1.9610    -2.0070 H     1 <1>   0.1500 
 38 H       10.9830    -4.5910     1.5720 H     1 <1>   0.1500 
 39 H       11.1710    -1.4570    -1.2710 H     1 <1>   0.1500 
 40 H        9.2860    -5.6120     2.7950 H     1 <1>   0.0800 
 41 H        9.8670    -6.6850     1.5090 H     1 <1>   0.0800 
 42 H        8.2610    -6.9090     2.1920 H     1 <1>   0.0800 
 43 H       12.2090    -2.7800     0.5180 H     1 <1>   0.1500 
@<TRIPOS>BOND
  1   1   2  2   
  2   2   3  am  
  3   2   4  1   
  4   3   5  1   
  5   3   6  1   
  6   4  21  1   
  7   4  22  1   
  8   4  23  1   
  9   5   7  1   
 10   5  24  1   
 11   5  25  1   
 12   6   8  1   
 13   6  26  1   
 14   6  27  1   
 15   7   9  1   
 16   7  28  1   
 17   7  29  1   
 18   8   9  1   
 19   8  30  1   
 20   8  31  1   
 21   9  10  1   
 22   9  32  1   
 23  10  11  1   
 24  10  33  1   
 25  10  34  1   
 26  11  12  2   
 27  11  35  1   
 28  12  13  1   
 29  12  36  1   
 30  13  14  ar  
 31  13  15  ar  
 32  14  16  1   
 33  14  17  ar  
 34  15  18  ar  
 35  15  37  1   
 36  16  19  1   
 37  17  20  ar  
 38  17  38  1   
 39  18  20  ar  
 40  18  39  1   
 41  19  40  1   
 42  19  41  1   
 43  19  42  1   
 44  20  43  1   
@<TRIPOS>SUBSTRUCTURE
  1 ****  11 GROUP 4 **** **** 0

# MOE 2024.06 (io_trps.svl 2023.06)
