@<TRIPOS>MOLECULE
NONAME
41 42 1 0 0 
SMALL
USER_CHARGES


@<TRIPOS>ATOM
  1 S        0.4810     0.4300    -0.3160 S.3   1 <1>  -0.3710 
  2 C       -1.1200     1.1280    -0.6440 C.2   1 <1>   0.6410 
  3 C        1.5360     1.8000     0.3710 C.3   1 <1>   0.1310 
  4 N       -1.3770     2.3490    -0.1010 N.pl3 1 <1>  -0.5500 
  5 N       -1.9300     0.4520    -1.3650 N.2   1 <1>  -0.6610 
  6 C        2.8850     1.2710     0.8400 C.2   1 <1>   0.5690 
  7 C       -2.5790     2.9780    -0.3040 C.2   1 <1>   0.0720 
  8 C       -3.1430     1.0280    -1.6040 C.2   1 <1>   0.7670 
  9 O        3.0440     1.1980     2.0370 O.2   1 <1>  -0.5700 
 10 N        3.8800     0.9310    -0.0470 N.am  1 <1>  -0.6600 
 11 C       -2.8010     4.2730     0.2900 C.ar  1 <1>   0.0280 
 12 C       -3.4680     2.2990    -1.0720 C.2   1 <1>  -0.1360 
 13 O       -3.9500     0.4250    -2.2960 O.2   1 <1>  -0.5700 
 14 C        3.7550     1.0090    -1.5280 C.3   1 <1>   0.1400 
 15 C        5.1740     0.3890     0.4480 C.3   1 <1>   0.1400 
 16 C       -3.2460     5.3460    -0.4780 C.ar  1 <1>  -0.1500 
 17 C       -2.5760     4.4910     1.6480 C.ar  1 <1>  -0.1500 
 18 C        4.3060     2.3460    -2.0160 C.3   1 <1>  -0.2400 
 19 C        5.1000    -1.1350     0.5030 C.3   1 <1>  -0.2400 
 20 C       -3.4520     6.5920     0.0850 C.ar  1 <1>  -0.1500 
 21 C       -2.7790     5.7360     2.2160 C.ar  1 <1>  -0.1500 
 22 C       -3.2180     6.7900     1.4340 C.ar  1 <1>  -0.1500 
 23 H        1.0130     2.2180     1.2100 H     1 <1>   0.0800 
 24 H        1.6590     2.5380    -0.3980 H     1 <1>   0.0800 
 25 H       -0.6740     2.7910     0.4860 H     1 <1>   0.4000 
 26 H       -4.4420     2.6840    -1.3010 H     1 <1>   0.1500 
 27 H        2.7280     0.9050    -1.8290 H     1 <1>   0.0800 
 28 H        4.3040     0.2010    -1.9800 H     1 <1>   0.0800 
 29 H        5.3790     0.7750     1.4340 H     1 <1>   0.0800 
 30 H        5.9750     0.7000    -0.2000 H     1 <1>   0.0800 
 31 H       -3.4270     5.2060    -1.5290 H     1 <1>   0.1500 
 32 H       -2.2480     3.6770     2.2700 H     1 <1>   0.1500 
 33 H        3.7650     3.1630    -1.5740 H     1 <1>   0.0800 
 34 H        4.2070     2.4090    -3.0840 H     1 <1>   0.0800 
 35 H        5.3490     2.4370    -1.7670 H     1 <1>   0.0800 
 36 H        4.3080    -1.4390     1.1650 H     1 <1>   0.0800 
 37 H        6.0260    -1.5280     0.8800 H     1 <1>   0.0800 
 38 H        4.9260    -1.5450    -0.4740 H     1 <1>   0.0800 
 39 H       -3.7950     7.4110    -0.5250 H     1 <1>   0.1500 
 40 H       -2.6010     5.8870     3.2670 H     1 <1>   0.1500 
 41 H       -3.3780     7.7590     1.8730 H     1 <1>   0.1500 
@<TRIPOS>BOND
  1   1   2  1   
  2   1   3  1   
  3   2   4  1   
  4   2   5  2   
  5   3   6  1   
  6   3  23  1   
  7   3  24  1   
  8   4   7  1   
  9   4  25  1   
 10   5   8  1   
 11   6   9  2   
 12   6  10  am  
 13   7  11  1   
 14   7  12  2   
 15   8  12  1   
 16   8  13  2   
 17  10  14  1   
 18  10  15  1   
 19  11  16  ar  
 20  11  17  ar  
 21  12  26  1   
 22  14  18  1   
 23  14  27  1   
 24  14  28  1   
 25  15  19  1   
 26  15  29  1   
 27  15  30  1   
 28  16  20  ar  
 29  16  31  1   
 30  17  21  ar  
 31  17  32  1   
 32  18  33  1   
 33  18  34  1   
 34  18  35  1   
 35  19  36  1   
 36  19  37  1   
 37  19  38  1   
 38  20  22  ar  
 39  20  39  1   
 40  21  22  ar  
 41  21  40  1   
 42  22  41  1   
@<TRIPOS>SUBSTRUCTURE
  1 ****   4 GROUP 4 **** **** 0

# MOE 2024.06 (io_trps.svl 2023.06)
