@<TRIPOS>MOLECULE
NONAME
47 48 1 0 0 
SMALL
USER_CHARGES


@<TRIPOS>ATOM
  1 S       -0.5060     0.1630     0.7660 S.o2  1 <1>   1.4470 
  2 O       -1.0820     0.2600     2.0890 O.2   1 <1>  -0.6500 
  3 O       -0.4670    -1.1160     0.0920 O.2   1 <1>  -0.6500 
  4 N       -1.4150     1.2070    -0.2170 N.am  1 <1>  -0.8490 
  5 C        1.1510     0.9050     0.7640 C.ar  1 <1>  -0.0090 
  6 C       -1.5900     2.5690     0.3670 C.3   1 <1>   0.2570 
  7 C       -1.0140     1.2090    -1.6260 C.3   1 <1>   0.1960 
  8 C        2.0670     0.6070    -0.2390 C.ar  1 <1>  -0.1500 
  9 C        1.5390     1.8120     1.7440 C.ar  1 <1>  -0.1500 
 10 C       -3.0410     3.0560     0.3680 C.2   1 <1>   0.5690 
 11 C       -2.1080     1.8080    -2.5070 C.3   1 <1>  -0.2400 
 12 C        3.3210     1.1950    -0.2820 C.ar  1 <1>  -0.1440 
 13 C        2.7860     2.4100     1.7180 C.ar  1 <1>  -0.1500 
 14 O       -3.2570     4.2450     0.3560 O.2   1 <1>  -0.5700 
 15 N       -4.0300     2.1230     0.3780 N.am  1 <1>  -0.5790 
 16 C        3.6860     2.1080     0.7010 C.ar  1 <1>   0.0830 
 17 C        4.2890     0.8350    -1.4010 C.3   1 <1>  -0.0970 
 18 C       -5.4750     2.3750     0.3660 C.3   1 <1>   0.0490 
 19 O        4.9220     2.6630     0.6180 O.3   1 <1>  -0.3620 
 20 C       -6.3600     1.4030     1.0720 C.3   1 <1>  -0.2000 
 21 C       -6.3370     1.4510    -0.4270 C.3   1 <1>  -0.2000 
 22 C        5.4120     3.5500     1.5970 C.3   1 <1>   0.1200 
 23 C        6.8300     3.9510     1.2030 C.3   1 <1>  -0.2400 
 24 H       -0.9850     3.2820    -0.1650 H     1 <1>   0.0800 
 25 H       -1.2710     2.5880     1.3930 H     1 <1>   0.0800 
 26 H       -0.8480     0.1950    -1.9530 H     1 <1>   0.0800 
 27 H       -0.0940     1.7560    -1.7540 H     1 <1>   0.0800 
 28 H        1.7900    -0.1060    -0.9970 H     1 <1>   0.1500 
 29 H        0.8580     2.0520     2.5430 H     1 <1>   0.1500 
 30 H       -3.0410     1.3000    -2.3390 H     1 <1>   0.0800 
 31 H       -1.8400     1.6840    -3.5410 H     1 <1>   0.0800 
 32 H       -2.2320     2.8590    -2.3230 H     1 <1>   0.0800 
 33 H        3.0390     3.1040     2.4970 H     1 <1>   0.1500 
 34 H       -3.7380     1.1430     0.3390 H     1 <1>   0.3700 
 35 H        3.8610     0.1150    -2.0740 H     1 <1>   0.0800 
 36 H        5.1890     0.4220    -0.9830 H     1 <1>   0.0800 
 37 H        4.5450     1.7190    -1.9580 H     1 <1>   0.0800 
 38 H       -5.7260     3.4240     0.3960 H     1 <1>   0.1000 
 39 H       -7.2310     1.7760     1.5810 H     1 <1>   0.1000 
 40 H       -5.9090     0.5680     1.5780 H     1 <1>   0.1000 
 41 H       -5.8750     0.6450    -0.9690 H     1 <1>   0.1000 
 42 H       -7.1950     1.8560    -0.9350 H     1 <1>   0.1000 
 43 H        5.4090     3.0440     2.5470 H     1 <1>   0.0800 
 44 H        4.7680     4.4120     1.6290 H     1 <1>   0.0800 
 45 H        7.4610     3.0810     1.1580 H     1 <1>   0.0800 
 46 H        7.2330     4.6290     1.9330 H     1 <1>   0.0800 
 47 H        6.8240     4.4400     0.2460 H     1 <1>   0.0800 
@<TRIPOS>BOND
  1   1   2  2   
  2   1   3  2   
  3   1   4  am  
  4   1   5  1   
  5   4   6  1   
  6   4   7  1   
  7   5   8  ar  
  8   5   9  ar  
  9   6  10  1   
 10   6  24  1   
 11   6  25  1   
 12   7  11  1   
 13   7  26  1   
 14   7  27  1   
 15   8  12  ar  
 16   8  28  1   
 17   9  13  ar  
 18   9  29  1   
 19  10  14  2   
 20  10  15  am  
 21  11  30  1   
 22  11  31  1   
 23  11  32  1   
 24  12  16  ar  
 25  12  17  1   
 26  13  16  ar  
 27  13  33  1   
 28  15  18  1   
 29  15  34  1   
 30  16  19  1   
 31  17  35  1   
 32  17  36  1   
 33  17  37  1   
 34  18  20  1   
 35  18  21  1   
 36  18  38  1   
 37  19  22  1   
 38  20  21  1   
 39  20  39  1   
 40  20  40  1   
 41  21  41  1   
 42  21  42  1   
 43  22  23  1   
 44  22  43  1   
 45  22  44  1   
 46  23  45  1   
 47  23  46  1   
 48  23  47  1   
@<TRIPOS>SUBSTRUCTURE
  1 ****   5 GROUP 4 **** **** 0

# MOE 2024.06 (io_trps.svl 2023.06)
