@<TRIPOS>MOLECULE
NONAME
40 42 1 0 0 
SMALL
USER_CHARGES


@<TRIPOS>ATOM
  1 S       -0.1760     0.2260     0.4770 S.o2  1 <1>   1.5010 
  2 O       -0.7960     0.6910     1.6980 O.2   1 <1>  -0.6500 
  3 O       -0.5080    -1.0760    -0.0530 O.2   1 <1>  -0.6500 
  4 N       -0.5050     1.4220    -0.7490 N.am  1 <1>  -0.6930 
  5 C        1.6090     0.2850     0.6690 C.2   1 <1>  -0.0630 
  6 C        0.0560     2.6830    -0.5760 C.ar  1 <1>   0.1990 
  7 C       -1.8810     1.5190    -1.2950 C.3   1 <1>   0.2760 
  8 C        2.2660     1.0450     1.6270 C.2   1 <1>   0.1390 
  9 C        2.6190    -0.3000    -0.0240 C.2   1 <1>  -0.3020 
 10 C       -0.7210     3.7250    -0.0570 C.ar  1 <1>  -0.1440 
 11 C        1.3830     2.9260    -0.9270 C.ar  1 <1>  -0.1500 
 12 C       -2.7880     2.1940    -0.2590 C.3   1 <1>  -0.1600 
 13 C       -2.4590     0.2000    -1.8050 C.3   1 <1>  -0.2400 
 14 N        3.5590     0.9510     1.5450 N.2   1 <1>  -0.7070 
 15 N        3.7780     0.1120     0.5210 N.pl3 1 <1>   0.3140 
 16 C       -0.1560     4.9740     0.1430 C.ar  1 <1>  -0.1500 
 17 C       -2.1980     3.5150     0.2790 C.3   1 <1>  -0.0170 
 18 C        1.9530     4.1700    -0.7290 C.ar  1 <1>  -0.1500 
 19 C        5.1410    -0.2630     0.0920 C.3   1 <1>   0.0960 
 20 C        1.1700     5.1720    -0.1920 C.ar  1 <1>   0.1900 
 21 C        5.5770     0.5510    -1.1320 C.3   1 <1>  -0.2400 
 22 F        1.7000     6.3520     0.0010 F     1 <1>  -0.1900 
 23 H       -1.8270     2.1740    -2.1510 H     1 <1>   0.0800 
 24 H        1.7600     1.6540     2.3600 H     1 <1>   0.1500 
 25 H        2.5620    -0.9720    -0.8600 H     1 <1>   0.1500 
 26 H        1.9700     2.1340    -1.3570 H     1 <1>   0.1500 
 27 H       -2.9540     1.5190     0.5610 H     1 <1>   0.0800 
 28 H       -3.7480     2.3890    -0.7010 H     1 <1>   0.0800 
 29 H       -2.7440    -0.4440    -0.9920 H     1 <1>   0.0800 
 30 H       -1.7430    -0.3030    -2.4300 H     1 <1>   0.0800 
 31 H       -3.3390     0.3950    -2.3890 H     1 <1>   0.0800 
 32 H       -0.7260     5.7890     0.5500 H     1 <1>   0.1500 
 33 H       -2.7580     4.3350    -0.1350 H     1 <1>   0.0800 
 34 H       -2.3210     3.5440     1.3480 H     1 <1>   0.0800 
 35 H        2.9800     4.3620    -0.9830 H     1 <1>   0.1500 
 36 H        5.1520    -1.3130    -0.1330 H     1 <1>   0.0800 
 37 H        5.8120    -0.0810     0.9130 H     1 <1>   0.0800 
 38 H        4.9220     0.3630    -1.9640 H     1 <1>   0.0800 
 39 H        6.5770     0.2760    -1.4150 H     1 <1>   0.0800 
 40 H        5.5650     1.6020    -0.8990 H     1 <1>   0.0800 
@<TRIPOS>BOND
  1   1   2  2   
  2   1   3  2   
  3   1   4  am  
  4   1   5  1   
  5   4   6  1   
  6   4   7  1   
  7   5   8  1   
  8   5   9  2   
  9   6  10  ar  
 10   6  11  ar  
 11   7  12  1   
 12   7  13  1   
 13   7  23  1   
 14   8  14  2   
 15   8  24  1   
 16   9  15  1   
 17   9  25  1   
 18  10  16  ar  
 19  10  17  1   
 20  11  18  ar  
 21  11  26  1   
 22  12  17  1   
 23  12  27  1   
 24  12  28  1   
 25  13  29  1   
 26  13  30  1   
 27  13  31  1   
 28  14  15  1   
 29  15  19  1   
 30  16  20  ar  
 31  16  32  1   
 32  17  33  1   
 33  17  34  1   
 34  18  20  ar  
 35  18  35  1   
 36  19  21  1   
 37  19  36  1   
 38  19  37  1   
 39  20  22  1   
 40  21  38  1   
 41  21  39  1   
 42  21  40  1   
@<TRIPOS>SUBSTRUCTURE
  1 ****   6 GROUP 4 **** **** 0

# MOE 2024.06 (io_trps.svl 2023.06)
