@<TRIPOS>MOLECULE
NONAME
56 58 1 0 0 
SMALL
USER_CHARGES


@<TRIPOS>ATOM
  1 O       -0.2000    -0.2570    -0.6420 O.3   1 <1>  -0.3630 
  2 C       -1.2860    -1.0820    -0.7860 C.ar  1 <1>   0.0830 
  3 C       -0.2120     1.0620    -1.1370 C.3   1 <1>   0.1200 
  4 C       -1.1800    -2.4100    -0.3310 C.ar  1 <1>   0.1000 
  5 C       -2.4750    -0.6470    -1.3640 C.ar  1 <1>  -0.1500 
  6 C        1.1530     1.6830    -0.8570 C.3   1 <1>  -0.2400 
  7 N       -0.0270    -2.9420     0.2660 N.pl3 1 <1>  -0.8380 
  8 C       -2.2710    -3.2540    -0.4740 C.ar  1 <1>  -0.1500 
  9 C       -3.5500    -1.5100    -1.4950 C.ar  1 <1>  -0.1500 
 10 C        0.3040    -2.3450     1.5930 C.3   1 <1>   0.2090 
 11 C        1.1410    -3.0590    -0.6590 C.3   1 <1>   0.2090 
 12 C       -3.4480    -2.8140    -1.0500 C.ar  1 <1>  -0.1500 
 13 C        1.4920    -3.0740     2.2510 C.3   1 <1>   0.3430 
 14 C        2.3240    -3.7740     0.0220 C.3   1 <1>   0.3430 
 15 N        2.6940    -3.1430     1.3450 N.4   1 <1>  -0.9590 
 16 C        3.8410    -3.8340     1.9920 C.3   1 <1>   0.4860 
 17 C        5.0580    -3.6830     1.1010 C.ar  1 <1>  -0.1430 
 18 C        5.4300    -4.7260     0.2670 C.ar  1 <1>  -0.1500 
 19 C        5.8010    -2.5110     1.1010 C.ar  1 <1>  -0.1500 
 20 C        6.5150    -4.6190    -0.5870 C.ar  1 <1>   0.0830 
 21 C        6.8990    -2.3790     0.2570 C.ar  1 <1>   0.0830 
 22 O        6.7320    -5.7290    -1.3470 O.3   1 <1>  -0.3630 
 23 C        7.2530    -3.4260    -0.5930 C.ar  1 <1>   0.0830 
 24 O        7.6670    -1.2510     0.2090 O.3   1 <1>  -0.3630 
 25 C        7.8970    -5.9070    -2.1240 C.3   1 <1>   0.0400 
 26 O        8.3180    -3.2070    -1.3970 O.3   1 <1>  -0.5330 
 27 C        7.5670    -0.2410     1.1900 C.3   1 <1>   0.0400 
 28 H       -0.9900     1.6100    -0.6330 H     1 <1>   0.0800 
 29 H       -0.4040     1.0280    -2.1960 H     1 <1>   0.0800 
 30 H       -2.5960     0.3580    -1.7210 H     1 <1>   0.1500 
 31 H        1.3400     1.7050     0.2010 H     1 <1>   0.0800 
 32 H        1.1720     2.6920    -1.2280 H     1 <1>   0.0800 
 33 H        1.9240     1.1230    -1.3540 H     1 <1>   0.0800 
 34 H       -2.1910    -4.2680    -0.1280 H     1 <1>   0.1500 
 35 H       -4.4660    -1.1660    -1.9430 H     1 <1>   0.1500 
 36 H       -0.5600    -2.4180     2.2330 H     1 <1>   0.0800 
 37 H        0.5390    -1.3020     1.4810 H     1 <1>   0.0800 
 38 H        1.4530    -2.0830    -0.9870 H     1 <1>   0.0800 
 39 H        0.8430    -3.6160    -1.5310 H     1 <1>   0.0800 
 40 H       -4.2830    -3.4860    -1.1520 H     1 <1>   0.1500 
 41 H        1.1710    -4.0720     2.5020 H     1 <1>   0.0800 
 42 H        1.7470    -2.5670     3.1670 H     1 <1>   0.0800 
 43 H        3.1700    -3.7540    -0.6460 H     1 <1>   0.0800 
 44 H        2.0490    -4.8040     0.1760 H     1 <1>   0.0800 
 45 H        2.9900    -2.1830     1.1310 H     1 <1>   0.4500 
 46 H        3.6150    -4.8790     2.1330 H     1 <1>   0.0800 
 47 H        4.0460    -3.3960     2.9540 H     1 <1>   0.0800 
 48 H        4.8840    -5.6530     0.2600 H     1 <1>   0.1500 
 49 H        5.5230    -1.7050     1.7540 H     1 <1>   0.1500 
 50 H        7.8840    -6.9030    -2.5280 H     1 <1>   0.0800 
 51 H        8.7600    -5.7780    -1.4960 H     1 <1>   0.0800 
 52 H        7.8950    -5.1900    -2.9250 H     1 <1>   0.0800 
 53 H        8.6690    -2.3090    -1.2250 H     1 <1>   0.4500 
 54 H        7.7090    -0.6790     2.1620 H     1 <1>   0.0800 
 55 H        6.6050     0.2320     1.1120 H     1 <1>   0.0800 
 56 H        8.3410     0.4840     1.0040 H     1 <1>   0.0800 
@<TRIPOS>BOND
  1   1   2  1   
  2   1   3  1   
  3   2   4  ar  
  4   2   5  ar  
  5   3   6  1   
  6   3  28  1   
  7   3  29  1   
  8   4   7  1   
  9   4   8  ar  
 10   5   9  ar  
 11   5  30  1   
 12   6  31  1   
 13   6  32  1   
 14   6  33  1   
 15   7  10  1   
 16   7  11  1   
 17   8  12  ar  
 18   8  34  1   
 19   9  12  ar  
 20   9  35  1   
 21  10  13  1   
 22  10  36  1   
 23  10  37  1   
 24  11  14  1   
 25  11  38  1   
 26  11  39  1   
 27  12  40  1   
 28  13  15  1   
 29  13  41  1   
 30  13  42  1   
 31  14  15  1   
 32  14  43  1   
 33  14  44  1   
 34  15  16  1   
 35  15  45  1   
 36  16  17  1   
 37  16  46  1   
 38  16  47  1   
 39  17  18  ar  
 40  17  19  ar  
 41  18  20  ar  
 42  18  48  1   
 43  19  21  ar  
 44  19  49  1   
 45  20  22  1   
 46  20  23  ar  
 47  21  23  ar  
 48  21  24  1   
 49  22  25  1   
 50  23  26  1   
 51  24  27  1   
 52  25  50  1   
 53  25  51  1   
 54  25  52  1   
 55  26  53  1   
 56  27  54  1   
 57  27  55  1   
 58  27  56  1   
@<TRIPOS>SUBSTRUCTURE
  1 ****  14 GROUP 4 **** **** 0

# MOE 2024.06 (io_trps.svl 2023.06)
