@<TRIPOS>MOLECULE
NONAME
46 50 1 0 0 
SMALL
USER_CHARGES


@<TRIPOS>ATOM
  1 S        0.4360     0.0290     0.9050 S.3   1 <1>  -0.0800 
  2 C        0.2670     1.6660     0.2730 C.2   1 <1>   0.3250 
  3 C        2.0070    -0.1030     0.1810 C.2   1 <1>  -0.1100 
  4 N        1.3050     2.0320    -0.4010 N.2   1 <1>  -0.5650 
  5 C       -0.9370     2.4230     0.5430 C.ar  1 <1>   0.0530 
  6 C        2.2760     1.0450    -0.4570 C.2   1 <1>   0.0460 
  7 C       -1.1200     3.6650    -0.0800 C.ar  1 <1>  -0.1500 
  8 C       -1.9490     1.9760     1.4140 C.ar  1 <1>  -0.1500 
  9 C        3.5470     1.3790    -1.2250 C.3   1 <1>   0.5240 
 10 C       -2.2590     4.3950     0.1790 C.ar  1 <1>   0.0830 
 11 C       -3.0920     2.7220     1.6630 C.ar  1 <1>  -0.1500 
 12 N        3.9440     2.7670    -0.8630 N.4   1 <1>  -0.9590 
 13 O       -2.6040     5.5890    -0.3120 O.3   1 <1>  -0.3630 
 14 C       -3.2230     3.9400     1.0270 C.ar  1 <1>   0.0830 
 15 C        4.8200     3.3940    -1.8940 C.3   1 <1>   0.3430 
 16 C        4.5180     2.8300     0.5150 C.3   1 <1>   0.3430 
 17 C       -3.8710     5.9140     0.2580 C.3   1 <1>   0.4000 
 18 O       -4.2190     4.8230     1.1090 O.3   1 <1>  -0.3630 
 19 C        5.0960     4.8460    -1.5320 C.3   1 <1>  -0.1600 
 20 C        4.7880     4.2770     0.9000 C.3   1 <1>  -0.1600 
 21 C        5.6990     4.9060    -0.1390 C.3   1 <1>   0.5600 
 22 O        6.9130     4.2260    -0.1460 O.3   1 <1>  -0.5600 
 23 O        5.9640     6.2170     0.2100 O.3   1 <1>  -0.5600 
 24 C        7.9270     5.0800     0.2560 C.3   1 <1>   0.1200 
 25 C        7.3200     6.4560     0.1110 C.3   1 <1>   0.1200 
 26 H        2.5420    -1.0260     0.3190 H     1 <1>   0.1500 
 27 H       -0.3870     4.0590    -0.7580 H     1 <1>   0.1500 
 28 H       -1.8540     1.0300     1.9140 H     1 <1>   0.1500 
 29 H        3.3290     1.3280    -2.2790 H     1 <1>   0.0800 
 30 H        4.3320     0.6780    -0.9950 H     1 <1>   0.0800 
 31 H       -3.8620     2.3770     2.3290 H     1 <1>   0.1500 
 32 H        3.0320     3.2590    -0.8310 H     1 <1>   0.4500 
 33 H        4.3480     3.3480    -2.8630 H     1 <1>   0.0800 
 34 H        5.7580     2.8630    -1.9450 H     1 <1>   0.0800 
 35 H        5.4440     2.2780     0.5500 H     1 <1>   0.0800 
 36 H        3.8310     2.3930     1.2230 H     1 <1>   0.0800 
 37 H       -4.6050     6.0110    -0.5220 H     1 <1>   0.0800 
 38 H       -3.7850     6.8130     0.8410 H     1 <1>   0.0800 
 39 H        4.1820     5.4110    -1.5610 H     1 <1>   0.0800 
 40 H        5.7810     5.2740    -2.2410 H     1 <1>   0.0800 
 41 H        5.2630     4.3150     1.8630 H     1 <1>   0.0800 
 42 H        3.8630     4.8200     0.9570 H     1 <1>   0.0800 
 43 H        8.7930     4.9420    -0.3660 H     1 <1>   0.0800 
 44 H        8.1670     4.8720     1.2840 H     1 <1>   0.0800 
 45 H        7.6290     7.1330     0.8880 H     1 <1>   0.0800 
 46 H        7.5280     6.8760    -0.8580 H     1 <1>   0.0800 
@<TRIPOS>BOND
  1   1   2  1   
  2   1   3  1   
  3   2   4  2   
  4   2   5  1   
  5   3   6  2   
  6   3  26  1   
  7   4   6  1   
  8   5   7  ar  
  9   5   8  ar  
 10   6   9  1   
 11   7  10  ar  
 12   7  27  1   
 13   8  11  ar  
 14   8  28  1   
 15   9  12  1   
 16   9  29  1   
 17   9  30  1   
 18  10  13  1   
 19  10  14  ar  
 20  11  14  ar  
 21  11  31  1   
 22  12  15  1   
 23  12  16  1   
 24  12  32  1   
 25  13  17  1   
 26  14  18  1   
 27  15  19  1   
 28  15  33  1   
 29  15  34  1   
 30  16  20  1   
 31  16  35  1   
 32  16  36  1   
 33  17  18  1   
 34  17  37  1   
 35  17  38  1   
 36  19  21  1   
 37  19  39  1   
 38  19  40  1   
 39  20  21  1   
 40  20  41  1   
 41  20  42  1   
 42  21  22  1   
 43  21  23  1   
 44  22  24  1   
 45  23  25  1   
 46  24  25  1   
 47  24  43  1   
 48  24  44  1   
 49  25  45  1   
 50  25  46  1   
@<TRIPOS>SUBSTRUCTURE
  1 ****   4 GROUP 4 **** **** 0

# MOE 2024.06 (io_trps.svl 2023.06)
