@<TRIPOS>MOLECULE
NONAME
42 44 1 0 0 
SMALL
USER_CHARGES


@<TRIPOS>ATOM
  1 O        0.2390     0.5570    -0.7760 O.3   1 <1>  -0.5600 
  2 C        1.3720    -0.2610    -0.7320 C.3   1 <1>   0.1200 
  3 C        0.1070     1.4450     0.2950 C.3   1 <1>   0.1200 
  4 C        2.6500     0.6000    -0.7170 C.3   1 <1>   0.3430 
  5 C        1.3250     2.3870     0.3600 C.3   1 <1>   0.3430 
  6 N        2.6190     1.6160     0.3980 N.4   1 <1>  -0.9590 
  7 C        3.8010     2.5240     0.4530 C.3   1 <1>   0.4230 
  8 C        4.0390     3.2770    -0.8680 C.3   1 <1>  -0.1600 
  9 C        5.0500     1.7310     0.8620 C.3   1 <1>  -0.1600 
 10 C        5.2530     4.2130    -0.7470 C.3   1 <1>  -0.1600 
 11 C        6.2690     2.6590     0.9870 C.3   1 <1>  -0.1600 
 12 C        6.5160     3.4500    -0.3100 C.3   1 <1>   0.0630 
 13 C        7.7040     4.3950    -0.1590 C.ar  1 <1>  -0.1440 
 14 C        7.6970     5.4280     0.7700 C.ar  1 <1>  -0.1500 
 15 C        8.8230     4.2280    -0.9640 C.ar  1 <1>  -0.1500 
 16 C        8.7850     6.2750     0.8910 C.ar  1 <1>  -0.1500 
 17 C        9.9110     5.0740    -0.8440 C.ar  1 <1>  -0.1500 
 18 C        9.8940     6.0990     0.0840 C.ar  1 <1>  -0.1500 
 19 H        1.3570    -0.8860    -1.6080 H     1 <1>   0.0800 
 20 H        1.3140    -0.8910     0.1390 H     1 <1>   0.0800 
 21 H        0.0000     0.8800     1.2050 H     1 <1>   0.0800 
 22 H       -0.7930     2.0140     0.1380 H     1 <1>   0.0800 
 23 H        2.7240     1.1010    -1.6680 H     1 <1>   0.0800 
 24 H        3.5080    -0.0420    -0.6120 H     1 <1>   0.0800 
 25 H        1.2420     3.0150     1.2320 H     1 <1>   0.0800 
 26 H        1.3030     3.0220    -0.5100 H     1 <1>   0.0800 
 27 H        2.6180     1.0860     1.2780 H     1 <1>   0.4500 
 28 H        3.6280     3.2610     1.2200 H     1 <1>   0.0800 
 29 H        3.1800     3.8710    -1.1240 H     1 <1>   0.0800 
 30 H        4.2320     2.5880    -1.6700 H     1 <1>   0.0800 
 31 H        5.2760     0.9770     0.1280 H     1 <1>   0.0800 
 32 H        4.8870     1.2510     1.8110 H     1 <1>   0.0800 
 33 H        5.0350     4.9910    -0.0360 H     1 <1>   0.0800 
 34 H        5.4420     4.6880    -1.6950 H     1 <1>   0.0800 
 35 H        7.1470     2.0780     1.2150 H     1 <1>   0.0800 
 36 H        6.1150     3.3430     1.8040 H     1 <1>   0.0800 
 37 H        6.7510     2.7390    -1.0850 H     1 <1>   0.0800 
 38 H        6.8470     5.5850     1.4080 H     1 <1>   0.1500 
 39 H        8.8590     3.4380    -1.6930 H     1 <1>   0.1500 
 40 H        8.7690     7.0720     1.6140 H     1 <1>   0.1500 
 41 H       10.7730     4.9350    -1.4740 H     1 <1>   0.1500 
 42 H       10.7400     6.7570     0.1770 H     1 <1>   0.1500 
@<TRIPOS>BOND
  1   1   2  1   
  2   1   3  1   
  3   2   4  1   
  4   2  19  1   
  5   2  20  1   
  6   3   5  1   
  7   3  21  1   
  8   3  22  1   
  9   4   6  1   
 10   4  23  1   
 11   4  24  1   
 12   5   6  1   
 13   5  25  1   
 14   5  26  1   
 15   6   7  1   
 16   6  27  1   
 17   7   8  1   
 18   7   9  1   
 19   7  28  1   
 20   8  10  1   
 21   8  29  1   
 22   8  30  1   
 23   9  11  1   
 24   9  31  1   
 25   9  32  1   
 26  10  12  1   
 27  10  33  1   
 28  10  34  1   
 29  11  12  1   
 30  11  35  1   
 31  11  36  1   
 32  12  13  1   
 33  12  37  1   
 34  13  14  ar  
 35  13  15  ar  
 36  14  16  ar  
 37  14  38  1   
 38  15  17  ar  
 39  15  39  1   
 40  16  18  ar  
 41  16  40  1   
 42  17  18  ar  
 43  17  41  1   
 44  18  42  1   
@<TRIPOS>SUBSTRUCTURE
  1 ****  10 GROUP 4 **** **** 0

# MOE 2024.06 (io_trps.svl 2023.06)
