@<TRIPOS>MOLECULE
NONAME
43 44 1 0 0 
SMALL
USER_CHARGES


@<TRIPOS>ATOM
  1 F        1.6530    -0.9180    -1.3640 F     1 <1>  -0.1900 
  2 C        0.9690    -1.9110    -0.8550 C.ar  1 <1>   0.1900 
  3 C        1.3970    -2.4670     0.3400 C.ar  1 <1>  -0.1440 
  4 C       -0.1360    -2.3750    -1.5420 C.ar  1 <1>  -0.1500 
  5 C        0.6780    -3.5340     0.8600 C.ar  1 <1>  -0.1500 
  6 C        2.6110    -1.9100     1.0440 C.3   1 <1>   0.4870 
  7 C       -0.8410    -3.4410    -1.0110 C.ar  1 <1>  -0.1500 
  8 C       -0.4340    -4.0160     0.1830 C.ar  1 <1>  -0.1500 
  9 N        3.7860    -2.2020     0.1840 N.4   1 <1>  -0.9060 
 10 C        5.0580    -1.5590     0.5810 C.3   1 <1>   0.4230 
 11 C        4.9910    -0.0480     0.3320 C.3   1 <1>  -0.1600 
 12 C        6.1910    -2.1800    -0.2370 C.3   1 <1>  -0.1600 
 13 C        6.3410     0.6220     0.6040 C.3   1 <1>   0.3430 
 14 C        7.5270    -1.4910     0.0480 C.3   1 <1>   0.3430 
 15 N        7.4090    -0.0250    -0.2100 N.4   1 <1>  -0.9590 
 16 C        8.7100     0.6760     0.0260 C.3   1 <1>   0.3430 
 17 C        9.7140     0.3310    -1.0770 C.3   1 <1>  -0.1600 
 18 C       11.0050     1.1390    -0.9060 C.3   1 <1>  -0.2400 
 19 H       -0.4390    -1.9160    -2.4670 H     1 <1>   0.1500 
 20 H        0.9590    -4.0030     1.7890 H     1 <1>   0.1500 
 21 H        2.7230    -2.3670     2.0140 H     1 <1>   0.0800 
 22 H        2.4850    -0.8470     1.1710 H     1 <1>   0.0800 
 23 H       -1.7080    -3.8230    -1.5250 H     1 <1>   0.1500 
 24 H       -0.9930    -4.8440     0.5880 H     1 <1>   0.1500 
 25 H        3.5130    -1.9130    -0.7670 H     1 <1>   0.4500 
 26 H        3.8800    -3.2250     0.1410 H     1 <1>   0.4500 
 27 H        5.2430    -1.7430     1.6290 H     1 <1>   0.0800 
 28 H        4.2650     0.4040     0.9840 H     1 <1>   0.0800 
 29 H        4.7020     0.1590    -0.6840 H     1 <1>   0.0800 
 30 H        5.9850    -2.1100    -1.2910 H     1 <1>   0.0800 
 31 H        6.2920    -3.2220     0.0160 H     1 <1>   0.0800 
 32 H        6.5840     0.5410     1.6530 H     1 <1>   0.0800 
 33 H        6.2770     1.6710     0.3590 H     1 <1>   0.0800 
 34 H        8.2890    -1.9180    -0.5860 H     1 <1>   0.0800 
 35 H        7.8160    -1.6590     1.0740 H     1 <1>   0.0800 
 36 H        7.1950     0.1210    -1.2080 H     1 <1>   0.4500 
 37 H        9.1160     0.4050     0.9880 H     1 <1>   0.0800 
 38 H        8.5540     1.7430     0.0190 H     1 <1>   0.0800 
 39 H        9.2950     0.5630    -2.0410 H     1 <1>   0.0800 
 40 H        9.9680    -0.7130    -1.0490 H     1 <1>   0.0800 
 41 H       10.8090     2.1960    -0.9600 H     1 <1>   0.0800 
 42 H       11.7010     0.8890    -1.6900 H     1 <1>   0.0800 
 43 H       11.4750     0.9210     0.0380 H     1 <1>   0.0800 
@<TRIPOS>BOND
  1   1   2  1   
  2   2   3  ar  
  3   2   4  ar  
  4   3   5  ar  
  5   3   6  1   
  6   4   7  ar  
  7   4  19  1   
  8   5   8  ar  
  9   5  20  1   
 10   6   9  1   
 11   6  21  1   
 12   6  22  1   
 13   7   8  ar  
 14   7  23  1   
 15   8  24  1   
 16   9  10  1   
 17   9  25  1   
 18   9  26  1   
 19  10  11  1   
 20  10  12  1   
 21  10  27  1   
 22  11  13  1   
 23  11  28  1   
 24  11  29  1   
 25  12  14  1   
 26  12  30  1   
 27  12  31  1   
 28  13  15  1   
 29  13  32  1   
 30  13  33  1   
 31  14  15  1   
 32  14  34  1   
 33  14  35  1   
 34  15  16  1   
 35  15  36  1   
 36  16  17  1   
 37  16  37  1   
 38  16  38  1   
 39  17  18  1   
 40  17  39  1   
 41  17  40  1   
 42  18  41  1   
 43  18  42  1   
 44  18  43  1   
@<TRIPOS>SUBSTRUCTURE
  1 ****   9 GROUP 4 **** **** 0

# MOE 2024.06 (io_trps.svl 2023.06)
