@<TRIPOS>MOLECULE
NONAME
41 43 1 0 0 
SMALL
USER_CHARGES


@<TRIPOS>ATOM
  1 S       -0.5770    -0.2630    -0.1740 S.3   1 <1>  -0.0800 
  2 C       -1.3760     1.2690    -0.3160 C.2   1 <1>   0.4420 
  3 C        0.9220     0.5960    -0.2580 C.2   1 <1>   0.1980 
  4 N       -0.5460     2.2420    -0.4080 N.2   1 <1>  -0.3380 
  5 N       -2.7560     1.2470    -0.3080 N.am  1 <1>  -0.4940 
  6 N        0.7650     1.8500    -0.3740 N.2   1 <1>  -0.3380 
  7 C        2.2060    -0.1990    -0.1870 C.3   1 <1>  -0.0600 
  8 C       -3.6340     2.2880    -0.4160 C.2   1 <1>   0.5690 
  9 O       -3.2920     3.4310    -0.5730 O.2   1 <1>  -0.5700 
 10 C       -5.1210     1.9650    -0.3460 C.3   1 <1>  -0.0190 
 11 C       -6.0350     3.2010    -0.3700 C.3   1 <1>   0.1400 
 12 C       -5.5330     1.2100     0.9280 C.3   1 <1>  -0.0990 
 13 N       -7.2060     2.8080     0.4390 N.am  1 <1>  -0.4770 
 14 C       -6.9450     1.6740     1.1480 C.2   1 <1>   0.5690 
 15 C       -8.4510     3.4380     0.2610 C.ar  1 <1>   0.1170 
 16 O       -7.7100     1.0590     1.8470 O.2   1 <1>  -0.5700 
 17 C       -8.6480     4.7980     0.5190 C.ar  1 <1>  -0.1440 
 18 C       -9.5230     2.6830    -0.2040 C.ar  1 <1>  -0.1500 
 19 C       -9.8890     5.3670     0.2780 C.ar  1 <1>  -0.1500 
 20 C       -7.5450     5.6870     1.0790 C.3   1 <1>  -0.0970 
 21 C      -10.7610     3.2520    -0.4390 C.ar  1 <1>  -0.1440 
 22 C      -10.9380     4.6030    -0.2000 C.ar  1 <1>  -0.1500 
 23 C      -11.9180     2.4110    -0.9460 C.3   1 <1>  -0.0970 
 24 H       -3.1600     0.3220    -0.2040 H     1 <1>   0.3700 
 25 H        2.2540    -0.7340     0.7430 H     1 <1>   0.0800 
 26 H        3.0480     0.4660    -0.2520 H     1 <1>   0.0800 
 27 H        2.2490    -0.8980    -1.0020 H     1 <1>   0.0800 
 28 H       -5.3740     1.3670    -1.2030 H     1 <1>   0.0800 
 29 H       -6.3280     3.4600    -1.3730 H     1 <1>   0.0800 
 30 H       -5.5580     4.0450     0.0970 H     1 <1>   0.0800 
 31 H       -4.9430     1.5090     1.7760 H     1 <1>   0.0800 
 32 H       -5.4990     0.1440     0.8040 H     1 <1>   0.0800 
 33 H       -9.3760     1.6330    -0.3770 H     1 <1>   0.1500 
 34 H      -10.0500     6.4130     0.4660 H     1 <1>   0.1500 
 35 H       -6.9770     5.1550     1.8210 H     1 <1>   0.0800 
 36 H       -7.9620     6.5610     1.5480 H     1 <1>   0.0800 
 37 H       -6.8900     6.0040     0.2890 H     1 <1>   0.0800 
 38 H      -11.8940     5.0620    -0.3770 H     1 <1>   0.1500 
 39 H      -11.5660     1.4740    -1.3370 H     1 <1>   0.0800 
 40 H      -12.4410     2.9320    -1.7270 H     1 <1>   0.0800 
 41 H      -12.6020     2.2130    -0.1400 H     1 <1>   0.0800 
@<TRIPOS>BOND
  1   1   2  1   
  2   1   3  1   
  3   2   4  2   
  4   2   5  1   
  5   3   6  2   
  6   3   7  1   
  7   4   6  1   
  8   5   8  am  
  9   5  24  1   
 10   7  25  1   
 11   7  26  1   
 12   7  27  1   
 13   8   9  2   
 14   8  10  1   
 15  10  11  1   
 16  10  12  1   
 17  10  28  1   
 18  11  13  1   
 19  11  29  1   
 20  11  30  1   
 21  12  14  1   
 22  12  31  1   
 23  12  32  1   
 24  13  14  am  
 25  13  15  1   
 26  14  16  2   
 27  15  17  ar  
 28  15  18  ar  
 29  17  19  ar  
 30  17  20  1   
 31  18  21  ar  
 32  18  33  1   
 33  19  22  ar  
 34  19  34  1   
 35  20  35  1   
 36  20  36  1   
 37  20  37  1   
 38  21  22  ar  
 39  21  23  1   
 40  22  38  1   
 41  23  39  1   
 42  23  40  1   
 43  23  41  1   
@<TRIPOS>SUBSTRUCTURE
  1 ****  10 GROUP 4 **** **** 0

# MOE 2024.06 (io_trps.svl 2023.06)
