@<TRIPOS>MOLECULE
NONAME
34 34 1 0 0 
SMALL
USER_CHARGES


@<TRIPOS>ATOM
  1 CL      -0.2740     0.2000     0.4490 Cl    1 <1>  -0.1770 
  2 C        1.3060     0.9410     0.3110 C.ar  1 <1>   0.1770 
  3 C        1.4270     2.3040     0.0720 C.ar  1 <1>  -0.1440 
  4 C        2.4120     0.1220     0.4470 C.ar  1 <1>  -0.1500 
  5 C        2.7100     2.8300    -0.0280 C.ar  1 <1>  -0.1500 
  6 C        0.1590     3.1520    -0.0690 C.3   1 <1>  -0.0160 
  7 C        3.6820     0.6600     0.3460 C.ar  1 <1>  -0.1500 
  8 C        3.8320     2.0240     0.1060 C.ar  1 <1>   0.0830 
  9 C        0.3860     4.6460    -0.3280 C.3   1 <1>  -0.2400 
 10 O        5.0370     2.6390    -0.0100 O.3   1 <1>  -0.3620 
 11 C        6.2420     1.9200     0.0850 C.3   1 <1>   0.1200 
 12 C        7.3850     2.9270    -0.0920 C.3   1 <1>   0.3430 
 13 N        8.7470     2.2980     0.0200 N.4   1 <1>  -0.9590 
 14 C        9.7960     3.3640     0.0820 C.3   1 <1>   0.2630 
 15 C        9.0360     1.3600    -1.1120 C.3   1 <1>   0.2630 
 16 H        2.2700    -0.9280     0.6320 H     1 <1>   0.1500 
 17 H        2.8680     3.8760    -0.2120 H     1 <1>   0.1500 
 18 H       -0.4210     3.0500     0.8330 H     1 <1>   0.0800 
 19 H       -0.4300     2.7540    -0.8770 H     1 <1>   0.0800 
 20 H        4.5230     0.0040     0.4560 H     1 <1>   0.1500 
 21 H        0.9360     5.0890     0.4830 H     1 <1>   0.0800 
 22 H       -0.5610     5.1490    -0.4090 H     1 <1>   0.0800 
 23 H        0.9260     4.7900    -1.2470 H     1 <1>   0.0800 
 24 H        6.2470     1.1800    -0.6950 H     1 <1>   0.0800 
 25 H        6.2810     1.4610     1.0570 H     1 <1>   0.0800 
 26 H        7.2790     3.6840     0.6670 H     1 <1>   0.0800 
 27 H        7.2840     3.4000    -1.0550 H     1 <1>   0.0800 
 28 H        8.7870     1.7700     0.9070 H     1 <1>   0.4500 
 29 H        9.7910     3.9500    -0.8230 H     1 <1>   0.0800 
 30 H       10.7720     2.9230     0.2010 H     1 <1>   0.0800 
 31 H        9.6140     4.0220     0.9180 H     1 <1>   0.0800 
 32 H        8.9890     1.8830    -2.0540 H     1 <1>   0.0800 
 33 H        8.3190     0.5550    -1.1300 H     1 <1>   0.0800 
 34 H       10.0210     0.9360    -1.0040 H     1 <1>   0.0800 
@<TRIPOS>BOND
  1   1   2  1   
  2   2   3  ar  
  3   2   4  ar  
  4   3   5  ar  
  5   3   6  1   
  6   4   7  ar  
  7   4  16  1   
  8   5   8  ar  
  9   5  17  1   
 10   6   9  1   
 11   6  18  1   
 12   6  19  1   
 13   7   8  ar  
 14   7  20  1   
 15   8  10  1   
 16   9  21  1   
 17   9  22  1   
 18   9  23  1   
 19  10  11  1   
 20  11  12  1   
 21  11  24  1   
 22  11  25  1   
 23  12  13  1   
 24  12  26  1   
 25  12  27  1   
 26  13  14  1   
 27  13  15  1   
 28  13  28  1   
 29  14  29  1   
 30  14  30  1   
 31  14  31  1   
 32  15  32  1   
 33  15  33  1   
 34  15  34  1   
@<TRIPOS>SUBSTRUCTURE
  1 ****   8 GROUP 4 **** **** 0

# MOE 2024.06 (io_trps.svl 2023.06)
