@<TRIPOS>MOLECULE
NONAME
38 39 1 0 0 
SMALL
USER_CHARGES


@<TRIPOS>ATOM
  1 O        0.3730    -0.0940     0.0970 O.3   1 <1>  -0.5600 
  2 C        0.4200    -1.4060     0.5780 C.3   1 <1>   0.1200 
  3 C        1.5420     0.6490     0.2940 C.3   1 <1>   0.1200 
  4 C        1.5490    -2.1890    -0.1190 C.3   1 <1>   0.3430 
  5 C        2.7300    -0.0300    -0.4140 C.3   1 <1>   0.3430 
  6 N        2.8650    -1.4730    -0.0050 N.4   1 <1>  -0.9590 
  7 C        3.9450    -2.1600    -0.7640 C.3   1 <1>   0.4860 
  8 C        5.2580    -1.4800    -0.4370 C.ar  1 <1>  -0.1440 
  9 C        5.8520    -0.6280    -1.3570 C.ar  1 <1>  -0.1500 
 10 C        5.8750    -1.6940     0.7860 C.ar  1 <1>  -0.1500 
 11 C        7.0380     0.0120    -1.0470 C.ar  1 <1>  -0.1500 
 12 C        7.0610    -1.0510     1.0900 C.ar  1 <1>  -0.1500 
 13 C        7.6530    -0.1900     0.1790 C.ar  1 <1>  -0.1440 
 14 C        8.9650     0.5090     0.5330 C.3   1 <1>   0.0630 
 15 C        8.7900     2.0310     0.5410 C.3   1 <1>  -0.2400 
 16 C       10.0820     0.0960    -0.4310 C.3   1 <1>  -0.2400 
 17 H       -0.5320    -1.8630     0.3700 H     1 <1>   0.0800 
 18 H        0.5610    -1.3800     1.6450 H     1 <1>   0.0800 
 19 H        1.7210     0.7440     1.3510 H     1 <1>   0.0800 
 20 H        1.3790     1.6310    -0.1150 H     1 <1>   0.0800 
 21 H        1.2860    -2.3050    -1.1580 H     1 <1>   0.0800 
 22 H        1.6220    -3.1720     0.3170 H     1 <1>   0.0800 
 23 H        3.6360     0.5070    -0.1800 H     1 <1>   0.0800 
 24 H        2.5720     0.0360    -1.4780 H     1 <1>   0.0800 
 25 H        3.1570    -1.4710     0.9790 H     1 <1>   0.4500 
 26 H        3.7530    -2.1040    -1.8230 H     1 <1>   0.0800 
 27 H        4.0010    -3.1980    -0.4790 H     1 <1>   0.0800 
 28 H        5.4070    -0.4520    -2.3210 H     1 <1>   0.1500 
 29 H        5.4510    -2.3620     1.5160 H     1 <1>   0.1500 
 30 H        7.4880     0.6710    -1.7710 H     1 <1>   0.1500 
 31 H        7.5290    -1.2270     2.0440 H     1 <1>   0.1500 
 32 H        9.2620     0.2090     1.5240 H     1 <1>   0.0800 
 33 H        8.5420     2.3960    -0.4390 H     1 <1>   0.0800 
 34 H        9.6990     2.5070     0.8630 H     1 <1>   0.0800 
 35 H        8.0030     2.3060     1.2210 H     1 <1>   0.0800 
 36 H        9.8660     0.4190    -1.4330 H     1 <1>   0.0800 
 37 H       10.1880    -0.9740    -0.4300 H     1 <1>   0.0800 
 38 H       11.0160     0.5320    -0.1250 H     1 <1>   0.0800 
@<TRIPOS>BOND
  1   1   2  1   
  2   1   3  1   
  3   2   4  1   
  4   2  17  1   
  5   2  18  1   
  6   3   5  1   
  7   3  19  1   
  8   3  20  1   
  9   4   6  1   
 10   4  21  1   
 11   4  22  1   
 12   5   6  1   
 13   5  23  1   
 14   5  24  1   
 15   6   7  1   
 16   6  25  1   
 17   7   8  1   
 18   7  26  1   
 19   7  27  1   
 20   8   9  ar  
 21   8  10  ar  
 22   9  11  ar  
 23   9  28  1   
 24  10  12  ar  
 25  10  29  1   
 26  11  13  ar  
 27  11  30  1   
 28  12  13  ar  
 29  12  31  1   
 30  13  14  1   
 31  14  15  1   
 32  14  16  1   
 33  14  32  1   
 34  15  33  1   
 35  15  34  1   
 36  15  35  1   
 37  16  36  1   
 38  16  37  1   
 39  16  38  1   
@<TRIPOS>SUBSTRUCTURE
  1 ****   8 GROUP 4 **** **** 0

# MOE 2024.06 (io_trps.svl 2023.06)
