@<TRIPOS>MOLECULE
NONAME
34 34 1 0 0 
SMALL
USER_CHARGES


@<TRIPOS>ATOM
  1 CL      -0.1270    -0.1210     0.0080 Cl    1 <1>  -0.1770 
  2 C        1.4350    -0.9130    -0.0080 C.ar  1 <1>   0.1770 
  3 C        1.5450    -2.3000     0.0090 C.ar  1 <1>  -0.1440 
  4 C        2.5470    -0.0970    -0.0470 C.ar  1 <1>  -0.1500 
  5 C        2.8190    -2.8710    -0.0380 C.ar  1 <1>  -0.1440 
  6 C        0.2850    -3.1650     0.0750 C.3   1 <1>  -0.0960 
  7 C        3.8070    -0.6610    -0.0720 C.ar  1 <1>  -0.1500 
  8 C        3.9500    -2.0470    -0.0650 C.ar  1 <1>   0.0820 
  9 C        2.9790    -4.3940    -0.0600 C.3   1 <1>  -0.0960 
 10 O        5.1740    -2.6420    -0.0780 O.3   1 <1>  -0.3630 
 11 C        6.3690    -1.9040    -0.0450 C.3   1 <1>   0.1200 
 12 C        7.5180    -2.9150    -0.0280 C.3   1 <1>   0.3430 
 13 N        8.8530    -2.2430     0.0130 N.4   1 <1>  -0.9060 
 14 C        9.9640    -3.2190     0.0310 C.3   1 <1>   0.3430 
 15 C       11.2730    -2.4450     0.0730 C.3   1 <1>  -0.2400 
 16 H        2.4180     0.9700    -0.0580 H     1 <1>   0.1500 
 17 H       -0.5380    -2.6370     0.5190 H     1 <1>   0.0800 
 18 H        0.4470    -4.0400     0.6750 H     1 <1>   0.0800 
 19 H        0.0010    -3.4680    -0.9170 H     1 <1>   0.0800 
 20 H        4.6490     0.0010    -0.0980 H     1 <1>   0.1500 
 21 H        2.2420    -4.8420    -0.7010 H     1 <1>   0.0800 
 22 H        2.8610    -4.7850     0.9350 H     1 <1>   0.0800 
 23 H        3.9390    -4.6960    -0.4330 H     1 <1>   0.0800 
 24 H        6.3660    -1.3060     0.8500 H     1 <1>   0.0800 
 25 H        6.4050    -1.2890    -0.9270 H     1 <1>   0.0800 
 26 H        7.4490    -3.5280    -0.9120 H     1 <1>   0.0800 
 27 H        7.4050    -3.5480     0.8370 H     1 <1>   0.0800 
 28 H        8.9250    -1.6480     0.8490 H     1 <1>   0.4500 
 29 H        8.9670    -1.6300    -0.8040 H     1 <1>   0.4500 
 30 H        9.9330    -3.8380    -0.8530 H     1 <1>   0.0800 
 31 H        9.8890    -3.8570     0.8990 H     1 <1>   0.0800 
 32 H       11.3830    -1.8230    -0.7980 H     1 <1>   0.0800 
 33 H       12.0940    -3.1410     0.0860 H     1 <1>   0.0800 
 34 H       11.3380    -1.8430     0.9620 H     1 <1>   0.0800 
@<TRIPOS>BOND
  1   1   2  1   
  2   2   3  ar  
  3   2   4  ar  
  4   3   5  ar  
  5   3   6  1   
  6   4   7  ar  
  7   4  16  1   
  8   5   8  ar  
  9   5   9  1   
 10   6  17  1   
 11   6  18  1   
 12   6  19  1   
 13   7   8  ar  
 14   7  20  1   
 15   8  10  1   
 16   9  21  1   
 17   9  22  1   
 18   9  23  1   
 19  10  11  1   
 20  11  12  1   
 21  11  24  1   
 22  11  25  1   
 23  12  13  1   
 24  12  26  1   
 25  12  27  1   
 26  13  14  1   
 27  13  28  1   
 28  13  29  1   
 29  14  15  1   
 30  14  30  1   
 31  14  31  1   
 32  15  32  1   
 33  15  33  1   
 34  15  34  1   
@<TRIPOS>SUBSTRUCTURE
  1 ****   8 GROUP 4 **** **** 0

# MOE 2024.06 (io_trps.svl 2023.06)
