@<TRIPOS>MOLECULE
NONAME
34 35 1 0 0 
SMALL
USER_CHARGES


@<TRIPOS>ATOM
  1 O       -1.1610     6.1510     0.1270 O.3   1 <1>  -0.6860 
  2 C       -1.7860     4.9550     0.4420 C.3   1 <1>   0.1090 
  3 C       -2.4450     4.4010    -0.8270 C.3   1 <1>   0.3450 
  4 N       -2.8220     2.9780    -0.6430 N.pl3 1 <1>  -0.7690 
  5 C       -2.1340     1.8910    -0.9830 C.cat 1 <1>   1.0680 
  6 C       -4.0120     2.5490    -0.0710 C.ar  1 <1>   0.3000 
  7 N       -0.9400     1.9140    -1.5300 N.pl3 1 <1>  -0.8410 
  8 N       -2.8000     0.7800    -0.6830 N.pl3 1 <1>  -0.7690 
  9 C       -3.9970     1.1660    -0.0930 C.ar  1 <1>   0.3000 
 10 C       -5.0940     3.2410     0.4640 C.ar  1 <1>  -0.1200 
 11 C       -2.4070    -0.6260    -0.9110 C.3   1 <1>   0.3450 
 12 C       -5.0630     0.4370     0.4250 C.ar  1 <1>  -0.1200 
 13 C       -6.1540     2.5170     0.9770 C.ar  1 <1>  -0.1610 
 14 C       -1.6790    -1.1560     0.3260 C.3   1 <1>  -0.1710 
 15 C       -6.1380     1.1220     0.9580 C.ar  1 <1>  -0.1610 
 16 C       -1.2230    -2.6070     0.1300 C.3   1 <1>  -0.2500 
 17 H       -0.7870     6.5800     0.9260 H     1 <1>   0.3910 
 18 H       -2.5230     5.1460     1.2030 H     1 <1>   0.0680 
 19 H       -1.0340     4.2810     0.8130 H     1 <1>   0.0680 
 20 H       -1.7590     4.4870    -1.6520 H     1 <1>   0.0680 
 21 H       -3.3220     4.9810    -1.0610 H     1 <1>   0.0680 
 22 H       -0.4310     1.0620    -1.7460 H     1 <1>   0.4420 
 23 H       -0.4520     2.7830    -1.7310 H     1 <1>   0.4420 
 24 H       -5.1050     4.3150     0.4790 H     1 <1>   0.1390 
 25 H       -1.7650    -0.6930    -1.7730 H     1 <1>   0.0680 
 26 H       -3.2830    -1.2200    -1.1060 H     1 <1>   0.0680 
 27 H       -5.0480    -0.6380     0.4120 H     1 <1>   0.1390 
 28 H       -7.0050     3.0290     1.3970 H     1 <1>   0.1390 
 29 H       -2.3390    -1.1130     1.1760 H     1 <1>   0.0680 
 30 H       -0.8170    -0.5470     0.5320 H     1 <1>   0.0680 
 31 H       -6.9770     0.5800     1.3650 H     1 <1>   0.1390 
 32 H       -2.0670    -3.2500    -0.0510 H     1 <1>   0.0680 
 33 H       -0.7200    -2.9550     1.0160 H     1 <1>   0.0680 
 34 H       -0.5410    -2.6860    -0.6980 H     1 <1>   0.0680 
@<TRIPOS>BOND
  1   1   2  1   
  2   1  17  1   
  3   2   3  1   
  4   2  18  1   
  5   2  19  1   
  6   3   4  1   
  7   3  20  1   
  8   3  21  1   
  9   4   5  ar  
 10   4   6  1   
 11   5   7  ar  
 12   5   8  ar  
 13   6   9  ar  
 14   6  10  ar  
 15   7  22  1   
 16   7  23  1   
 17   8   9  1   
 18   8  11  1   
 19   9  12  ar  
 20  10  13  ar  
 21  10  24  1   
 22  11  14  1   
 23  11  25  1   
 24  11  26  1   
 25  12  15  ar  
 26  12  27  1   
 27  13  15  ar  
 28  13  28  1   
 29  14  16  1   
 30  14  29  1   
 31  14  30  1   
 32  15  31  1   
 33  16  32  1   
 34  16  33  1   
 35  16  34  1   
@<TRIPOS>SUBSTRUCTURE
  1 ****   9 GROUP 4 **** **** 0

# MOE 2024.06 (io_trps.svl 2023.06)
