@<TRIPOS>MOLECULE
NONAME
51 54 1 0 0 
SMALL
USER_CHARGES


@<TRIPOS>ATOM
  1 O       -5.1070    -1.5360     0.7290 O.2   1 <1>  -0.5740 
  2 C       -3.9710    -1.8030     0.4020 C.2   1 <1>   0.7900 
  3 O       -3.1260    -0.7820     0.1980 O.3   1 <1>  -0.4350 
  4 C       -3.4930    -3.1610     0.2110 C.2   1 <1>   0.2710 
  5 C       -3.5520     0.5620     0.3600 C.3   1 <1>   0.1130 
  6 N       -4.3110    -4.3090     0.1600 N.pl3 1 <1>  -0.6410 
  7 C       -2.2180    -3.6280     0.0410 C.2   1 <1>   0.1750 
  8 C       -2.3910     1.5050     0.0170 C.3   1 <1>   0.3370 
  9 C       -3.5280    -5.3590    -0.0350 C.cat 1 <1>   1.0690 
 10 C       -5.6140    -4.8060     0.2280 C.ar  1 <1>   0.3810 
 11 N       -2.2590    -4.9890    -0.1160 N.pl3 1 <1>  -0.7040 
 12 C       -0.8610    -2.9400     0.0080 C.3   1 <1>  -0.0800 
 13 N       -2.7310     2.9420     0.2510 N.4   1 <1>  -0.9610 
 14 N       -4.1940    -6.5200    -0.1040 N.pl3 1 <1>  -0.5800 
 15 C       -5.5310    -6.1850     0.0630 C.ar  1 <1>   0.3050 
 16 C       -6.8490    -4.1960     0.4140 C.ar  1 <1>  -0.1570 
 17 C       -3.7900     3.4440    -0.6770 C.3   1 <1>   0.3370 
 18 C       -1.5010     3.7790     0.1530 C.3   1 <1>   0.3370 
 19 C       -3.6690    -7.8940    -0.3120 C.3   1 <1>   0.0800 
 20 C       -6.6750    -6.9770     0.0810 C.ar  1 <1>  -0.1570 
 21 C       -7.9850    -4.9830     0.4320 C.ar  1 <1>  -0.1570 
 22 C       -4.1700     4.8760    -0.2950 C.3   1 <1>  -0.1670 
 23 C       -1.8240     5.2180     0.5560 C.3   1 <1>  -0.1670 
 24 C       -7.8990    -6.3660     0.2670 C.ar  1 <1>  -0.1570 
 25 C       -2.9510     5.8060    -0.3010 C.3   1 <1>  -0.1670 
 26 H       -3.8570     0.6930     1.3850 H     1 <1>   0.0720 
 27 H       -4.3880     0.7280    -0.2970 H     1 <1>   0.0720 
 28 H       -2.1150     1.3680    -1.0160 H     1 <1>   0.0720 
 29 H       -1.5470     1.2430     0.6340 H     1 <1>   0.0720 
 30 H       -1.4800    -5.6310    -0.2640 H     1 <1>   0.4450 
 31 H       -0.9270    -1.9020     0.2700 H     1 <1>   0.0720 
 32 H       -0.4340    -3.0180    -0.9760 H     1 <1>   0.0720 
 33 H       -0.1950    -3.4140     0.7070 H     1 <1>   0.0720 
 34 H       -3.0860     3.0640     1.2080 H     1 <1>   0.4450 
 35 H       -6.9290    -3.1330     0.5430 H     1 <1>   0.1430 
 36 H       -4.6670     2.8200    -0.6180 H     1 <1>   0.0720 
 37 H       -3.4250     3.4280    -1.6910 H     1 <1>   0.0720 
 38 H       -1.1290     3.7640    -0.8590 H     1 <1>   0.0720 
 39 H       -0.7350     3.3890     0.8040 H     1 <1>   0.0720 
 40 H       -2.5970    -7.8810    -0.4130 H     1 <1>   0.0720 
 41 H       -4.0970    -8.3170    -1.2050 H     1 <1>   0.0720 
 42 H       -3.9310    -8.5160     0.5280 H     1 <1>   0.0720 
 43 H       -6.6040    -8.0430    -0.0470 H     1 <1>   0.1430 
 44 H       -8.9540    -4.5290     0.5760 H     1 <1>   0.1430 
 45 H       -4.6290     4.8770     0.6790 H     1 <1>   0.0720 
 46 H       -4.9000     5.2440    -0.9950 H     1 <1>   0.0720 
 47 H       -0.9400     5.8220     0.4420 H     1 <1>   0.0720 
 48 H       -2.1000     5.2460     1.5960 H     1 <1>   0.0720 
 49 H       -8.8020    -6.9550     0.2860 H     1 <1>   0.1430 
 50 H       -3.2290     6.7770     0.0740 H     1 <1>   0.0720 
 51 H       -2.6030     5.9330    -1.3130 H     1 <1>   0.0720 
@<TRIPOS>BOND
  1   1   2  2   
  2   2   3  1   
  3   2   4  1   
  4   3   5  1   
  5   4   6  1   
  6   4   7  2   
  7   5   8  1   
  8   5  26  1   
  9   5  27  1   
 10   6   9  ar  
 11   6  10  1   
 12   7  11  1   
 13   7  12  1   
 14   8  13  1   
 15   8  28  1   
 16   8  29  1   
 17   9  11  ar  
 18   9  14  ar  
 19  10  15  ar  
 20  10  16  ar  
 21  11  30  1   
 22  12  31  1   
 23  12  32  1   
 24  12  33  1   
 25  13  17  1   
 26  13  18  1   
 27  13  34  1   
 28  14  15  1   
 29  14  19  1   
 30  15  20  ar  
 31  16  21  ar  
 32  16  35  1   
 33  17  22  1   
 34  17  36  1   
 35  17  37  1   
 36  18  23  1   
 37  18  38  1   
 38  18  39  1   
 39  19  40  1   
 40  19  41  1   
 41  19  42  1   
 42  20  24  ar  
 43  20  43  1   
 44  21  24  ar  
 45  21  44  1   
 46  22  25  1   
 47  22  45  1   
 48  22  46  1   
 49  23  25  1   
 50  23  47  1   
 51  23  48  1   
 52  24  49  1   
 53  25  50  1   
 54  25  51  1   
@<TRIPOS>SUBSTRUCTURE
  1 ****   2 GROUP 4 **** **** 0

# MOE 2024.06 (io_trps.svl 2023.06)
