@<TRIPOS>MOLECULE
NONAME
41 43 1 0 0 
SMALL
USER_CHARGES


@<TRIPOS>ATOM
  1 O        0.0510     0.9970    -1.3150 O.2   1 <1>  -0.5700 
  2 C       -0.7560     1.5790    -0.6170 C.2   1 <1>   0.6160 
  3 N       -2.0350     1.1480    -0.5250 N.am  1 <1>  -0.7300 
  4 C       -0.5310     2.7440     0.1770 C.2   1 <1>   0.0290 
  5 C       -2.8220     2.0250     0.3670 C.3   1 <1>   0.2010 
  6 C       -1.7750     3.0470     0.7930 C.2   1 <1>   0.4950 
  7 C        0.6410     3.4340     0.3180 C.2   1 <1>  -0.0500 
  8 O       -2.0330     3.9550     1.5480 O.2   1 <1>  -0.5700 
  9 N        1.8160     3.1010    -0.2960 N.pl3 1 <1>  -0.6000 
 10 C        3.0730     3.7180    -0.2340 C.ar  1 <1>   0.1000 
 11 C        3.3710     4.7340     0.6660 C.ar  1 <1>  -0.1500 
 12 C        4.0700     3.2970    -1.1040 C.ar  1 <1>  -0.1500 
 13 C        4.6270     5.3130     0.6910 C.ar  1 <1>  -0.1500 
 14 C        5.3260     3.8740    -1.0800 C.ar  1 <1>  -0.1500 
 15 C        5.6200     4.8900    -0.1820 C.ar  1 <1>  -0.1430 
 16 C        7.0130     5.5170    -0.1690 C.3   1 <1>   0.0630 
 17 C        7.7130     5.2920     1.1820 C.3   1 <1>  -0.1600 
 18 C        6.9530     7.0140    -0.5150 C.3   1 <1>  -0.1600 
 19 C        9.1100     5.9290     1.2030 C.3   1 <1>  -0.1600 
 20 C        8.3500     7.6520    -0.4940 C.3   1 <1>  -0.1600 
 21 C        9.0440     7.4220     0.8560 C.3   1 <1>  -0.1600 
 22 H       -2.3950     0.3390    -1.0370 H     1 <1>   0.3700 
 23 H       -3.6250     2.5010    -0.1670 H     1 <1>   0.0800 
 24 H       -3.1930     1.4810     1.2180 H     1 <1>   0.0800 
 25 H        0.6500     4.3050     0.9520 H     1 <1>   0.1500 
 26 H        1.7800     2.2740    -0.9140 H     1 <1>   0.4000 
 27 H        2.6260     5.0780     1.3570 H     1 <1>   0.1500 
 28 H        3.8600     2.5120    -1.8070 H     1 <1>   0.1500 
 29 H        4.8280     6.0970     1.3980 H     1 <1>   0.1500 
 30 H        6.0760     3.5250    -1.7680 H     1 <1>   0.1500 
 31 H        7.6090     5.0350    -0.9250 H     1 <1>   0.0800 
 32 H        7.1220     5.7200     1.9720 H     1 <1>   0.0800 
 33 H        7.7940     4.2350     1.3680 H     1 <1>   0.0800 
 34 H        6.5150     7.1370    -1.4900 H     1 <1>   0.0800 
 35 H        6.3250     7.5250     0.1930 H     1 <1>   0.0800 
 36 H        9.5470     5.8040     2.1790 H     1 <1>   0.0800 
 37 H        9.7430     5.4250     0.4920 H     1 <1>   0.0800 
 38 H        8.9490     7.2240    -1.2800 H     1 <1>   0.0800 
 39 H        8.2660     8.7080    -0.6820 H     1 <1>   0.0800 
 40 H       10.0400     7.8290     0.8230 H     1 <1>   0.0800 
 41 H        8.5010     7.9420     1.6270 H     1 <1>   0.0800 
@<TRIPOS>BOND
  1   1   2  2   
  2   2   3  am  
  3   2   4  1   
  4   3   5  1   
  5   3  22  1   
  6   4   6  1   
  7   4   7  2   
  8   5   6  1   
  9   5  23  1   
 10   5  24  1   
 11   6   8  2   
 12   7   9  1   
 13   7  25  1   
 14   9  10  1   
 15   9  26  1   
 16  10  11  ar  
 17  10  12  ar  
 18  11  13  ar  
 19  11  27  1   
 20  12  14  ar  
 21  12  28  1   
 22  13  15  ar  
 23  13  29  1   
 24  14  15  ar  
 25  14  30  1   
 26  15  16  1   
 27  16  17  1   
 28  16  18  1   
 29  16  31  1   
 30  17  19  1   
 31  17  32  1   
 32  17  33  1   
 33  18  20  1   
 34  18  34  1   
 35  18  35  1   
 36  19  21  1   
 37  19  36  1   
 38  19  37  1   
 39  20  21  1   
 40  20  38  1   
 41  20  39  1   
 42  21  40  1   
 43  21  41  1   
@<TRIPOS>SUBSTRUCTURE
  1 ****  10 GROUP 4 **** **** 0

# MOE 2024.06 (io_trps.svl 2023.06)
