@<TRIPOS>MOLECULE
NONAME
41 44 1 0 0 
SMALL
USER_CHARGES


@<TRIPOS>ATOM
  1 N       -5.2400     0.3000    -0.6510 N.pl3 1 <1>  -0.8440 
  2 C       -5.6720     0.5430     0.5590 C.cat 1 <1>   1.2000 
  3 C       -4.0950     1.1590    -1.0340 C.3   1 <1>   0.1680 
  4 N       -4.9710     1.4910     1.1230 N.pl3 1 <1>  -0.8440 
  5 N       -6.6770    -0.0610     1.1450 N.pl3 1 <1>  -0.8440 
  6 C       -3.9010     2.0090     0.2350 C.3   1 <1>   0.1680 
  7 C       -7.5550    -1.1330     0.6010 C.3   1 <1>   0.1680 
  8 C       -8.9620    -0.6080     0.2440 C.3   1 <1>   0.0000 
  9 C       -9.8100    -1.7880    -0.2880 C.3   1 <1>  -0.1600 
 10 C       -9.6770    -0.0170     1.4850 C.3   1 <1>  -0.1600 
 11 C       -8.8980     0.4800    -0.8580 C.3   1 <1>  -0.1600 
 12 C      -11.2290    -1.3210    -0.6610 C.3   1 <1>  -0.0800 
 13 C      -11.0940     0.4610     1.1180 C.3   1 <1>  -0.0800 
 14 C      -10.3140     0.9590    -1.2310 C.3   1 <1>  -0.0800 
 15 C      -11.9100    -0.7310     0.5870 C.3   1 <1>  -0.1600 
 16 C      -11.1350    -0.2360    -1.7490 C.3   1 <1>  -0.1600 
 17 C      -10.9990     1.5380     0.0210 C.3   1 <1>  -0.1600 
 18 H       -5.6540    -0.3860    -1.2770 H     1 <1>   0.4500 
 19 H       -4.3390     1.7760    -1.8840 H     1 <1>   0.0800 
 20 H       -3.2190     0.5680    -1.2460 H     1 <1>   0.0800 
 21 H       -5.1120     1.8520     2.0630 H     1 <1>   0.4500 
 22 H       -6.9450     0.2600     2.0710 H     1 <1>   0.4500 
 23 H       -4.0410     3.0570     0.0260 H     1 <1>   0.0800 
 24 H       -2.9260     1.8480     0.6650 H     1 <1>   0.0800 
 25 H       -7.6460    -1.9150     1.3380 H     1 <1>   0.0800 
 26 H       -7.1080    -1.5720    -0.2750 H     1 <1>   0.0800 
 27 H       -9.8810    -2.5590     0.4590 H     1 <1>   0.0800 
 28 H       -9.3440    -2.2190    -1.1570 H     1 <1>   0.0800 
 29 H       -9.7440    -0.7590     2.2610 H     1 <1>   0.0800 
 30 H       -9.1270     0.8200     1.8760 H     1 <1>   0.0800 
 31 H       -8.4170     0.0880    -1.7370 H     1 <1>   0.0800 
 32 H       -8.3300     1.3270    -0.5200 H     1 <1>   0.0800 
 33 H      -11.8040    -2.1540    -1.0290 H     1 <1>   0.0800 
 34 H      -11.5790     0.8710     1.9880 H     1 <1>   0.0800 
 35 H      -10.2560     1.7160    -1.9950 H     1 <1>   0.0800 
 36 H      -11.9960    -1.4860     1.3490 H     1 <1>   0.0800 
 37 H      -12.9060    -0.4080     0.3380 H     1 <1>   0.0800 
 38 H      -12.1230     0.0930    -2.0200 H     1 <1>   0.0800 
 39 H      -10.6740    -0.6420    -2.6330 H     1 <1>   0.0800 
 40 H      -10.4440     2.3850     0.3850 H     1 <1>   0.0800 
 41 H      -11.9860     1.8830    -0.2340 H     1 <1>   0.0800 
@<TRIPOS>BOND
  1   1   2  ar  
  2   1   3  1   
  3   1  18  1   
  4   2   4  ar  
  5   2   5  ar  
  6   3   6  1   
  7   3  19  1   
  8   3  20  1   
  9   4   6  1   
 10   4  21  1   
 11   5   7  1   
 12   5  22  1   
 13   6  23  1   
 14   6  24  1   
 15   7   8  1   
 16   7  25  1   
 17   7  26  1   
 18   8   9  1   
 19   8  10  1   
 20   8  11  1   
 21   9  12  1   
 22   9  27  1   
 23   9  28  1   
 24  10  13  1   
 25  10  29  1   
 26  10  30  1   
 27  11  14  1   
 28  11  31  1   
 29  11  32  1   
 30  12  15  1   
 31  12  16  1   
 32  12  33  1   
 33  13  15  1   
 34  13  17  1   
 35  13  34  1   
 36  14  16  1   
 37  14  17  1   
 38  14  35  1   
 39  15  36  1   
 40  15  37  1   
 41  16  38  1   
 42  16  39  1   
 43  17  40  1   
 44  17  41  1   
@<TRIPOS>SUBSTRUCTURE
  1 ****   8 GROUP 4 **** **** 0

# MOE 2024.06 (io_trps.svl 2023.06)
