@<TRIPOS>MOLECULE
NONAME
30 30 1 0 0 
SMALL
USER_CHARGES


@<TRIPOS>ATOM
  1 S        0.0640    -0.3540     0.7690 S.o2  1 <1>   1.4470 
  2 O        0.3240    -0.7280     2.1430 O.2   1 <1>  -0.6500 
  3 O        0.2870     1.0150     0.3610 O.2   1 <1>  -0.6500 
  4 N        1.0730    -1.3290    -0.1790 N.am  1 <1>  -0.8490 
  5 C       -1.6050    -0.8680     0.2690 C.ar  1 <1>  -0.0090 
  6 C        2.4360    -0.7290    -0.2400 C.3   1 <1>   0.2570 
  7 C        1.0630    -2.7320     0.2440 C.3   1 <1>   0.1960 
  8 C       -2.5830    -1.1600     1.2190 C.ar  1 <1>  -0.1500 
  9 C       -1.9390    -0.9750    -1.0800 C.ar  1 <1>  -0.1500 
 10 C        3.5210    -1.5150    -0.9930 C.2   1 <1>   0.5690 
 11 C        0.9930    -3.6290    -0.9880 C.3   1 <1>  -0.2400 
 12 C       -3.8570    -1.5530     0.8400 C.ar  1 <1>  -0.1500 
 13 C       -3.2060    -1.3670    -1.4790 C.ar  1 <1>  -0.1500 
 14 O        3.6370    -1.4020    -2.1860 O.2   1 <1>  -0.5700 
 15 N        4.3710    -2.3260    -0.3230 N.am  1 <1>  -0.8000 
 16 C       -4.1440    -1.6510    -0.5070 C.ar  1 <1>   0.1900 
 17 F       -5.3400    -2.0230    -0.8720 F     1 <1>  -0.1900 
 18 H        2.7870    -0.5550     0.7620 H     1 <1>   0.0800 
 19 H        2.3650     0.2300    -0.7230 H     1 <1>   0.0800 
 20 H        0.1910    -2.9380     0.8440 H     1 <1>   0.0800 
 21 H        1.9270    -2.9620     0.8450 H     1 <1>   0.0800 
 22 H       -2.3440    -1.0770     2.2670 H     1 <1>   0.1500 
 23 H       -1.1930    -0.7480    -1.8250 H     1 <1>   0.1500 
 24 H        0.1080    -3.4050    -1.5570 H     1 <1>   0.0800 
 25 H        0.9480    -4.6580    -0.6830 H     1 <1>   0.0800 
 26 H        1.8540    -3.5020    -1.6170 H     1 <1>   0.0800 
 27 H       -4.6130    -1.7790     1.5710 H     1 <1>   0.1500 
 28 H       -3.4640    -1.4510    -2.5200 H     1 <1>   0.1500 
 29 H        5.0900    -2.8240    -0.8510 H     1 <1>   0.3700 
 30 H        4.3740    -2.4620     0.6870 H     1 <1>   0.3700 
@<TRIPOS>BOND
  1   1   2  2   
  2   1   3  2   
  3   1   4  am  
  4   1   5  1   
  5   4   6  1   
  6   4   7  1   
  7   5   8  ar  
  8   5   9  ar  
  9   6  10  1   
 10   6  18  1   
 11   6  19  1   
 12   7  11  1   
 13   7  20  1   
 14   7  21  1   
 15   8  12  ar  
 16   8  22  1   
 17   9  13  ar  
 18   9  23  1   
 19  10  14  2   
 20  10  15  am  
 21  11  24  1   
 22  11  25  1   
 23  11  26  1   
 24  12  16  ar  
 25  12  27  1   
 26  13  16  ar  
 27  13  28  1   
 28  15  29  1   
 29  15  30  1   
 30  16  17  1   
@<TRIPOS>SUBSTRUCTURE
  1 ****   4 GROUP 4 **** **** 0

# MOE 2024.06 (io_trps.svl 2023.06)
