@<TRIPOS>MOLECULE
NONAME
48 51 1 0 0 
SMALL
USER_CHARGES


@<TRIPOS>ATOM
  1 O        1.1250    -0.2200    -2.0060 O.2   1 <1>  -0.5700 
  2 C        2.0860    -0.1660    -1.2650 C.2   1 <1>   0.6900 
  3 N        2.6480    -1.2650    -0.7050 N.am  1 <1>  -0.6600 
  4 N        2.6770     0.9990    -0.9050 N.am  1 <1>  -0.6600 
  5 C        3.7520    -0.8510     0.1860 C.3   1 <1>   0.7440 
  6 C        2.2440    -2.6710    -0.9630 C.3   1 <1>   0.0600 
  7 C        3.7720     0.7200     0.0470 C.3   1 <1>   0.7440 
  8 C        2.3080     2.3470    -1.4070 C.3   1 <1>   0.0600 
  9 N        5.0220    -1.2710    -0.4420 N.am  1 <1>  -0.6600 
 10 C        3.5910    -1.3790     1.6310 C.ar  1 <1>  -0.1440 
 11 N        5.0510     0.9920    -0.6420 N.am  1 <1>  -0.6600 
 12 C        3.6270     1.4980     1.3760 C.ar  1 <1>  -0.1440 
 13 C        5.7000    -0.1770    -0.8640 C.2   1 <1>   0.6900 
 14 C        5.4650    -2.6800    -0.6060 C.3   1 <1>   0.0600 
 15 C        4.7020    -1.6120     2.4370 C.ar  1 <1>  -0.1500 
 16 C        2.3280    -1.6050     2.1740 C.ar  1 <1>  -0.1500 
 17 C        5.5290     2.3380    -1.0500 C.3   1 <1>   0.0600 
 18 C        2.3720     1.8480     1.8680 C.ar  1 <1>  -0.1500 
 19 C        4.7460     1.8410     2.1310 C.ar  1 <1>  -0.1500 
 20 O        6.7990    -0.2360    -1.3770 O.2   1 <1>  -0.5700 
 21 C        4.5580    -2.0720     3.7340 C.ar  1 <1>  -0.1500 
 22 C        2.1820    -2.0650     3.4700 C.ar  1 <1>  -0.1500 
 23 C        2.2400     2.5320     3.0630 C.ar  1 <1>  -0.1500 
 24 C        4.6160     2.5250     3.3270 C.ar  1 <1>  -0.1500 
 25 C        3.2980    -2.3010     4.2520 C.ar  1 <1>  -0.1500 
 26 C        3.3630     2.8730     3.7940 C.ar  1 <1>  -0.1500 
 27 H        2.8160    -3.0650    -1.7840 H     1 <1>   0.0800 
 28 H        1.2000    -2.7060    -1.2240 H     1 <1>   0.0800 
 29 H        2.4070    -3.2760    -0.0890 H     1 <1>   0.0800 
 30 H        1.2650     2.3620    -1.6730 H     1 <1>   0.0800 
 31 H        2.8870     2.5760    -2.2840 H     1 <1>   0.0800 
 32 H        2.4880     3.0920    -0.6530 H     1 <1>   0.0800 
 33 H        5.1110    -3.2840     0.2110 H     1 <1>   0.0800 
 34 H        6.5410    -2.7210    -0.6320 H     1 <1>   0.0800 
 35 H        5.0850    -3.0710    -1.5330 H     1 <1>   0.0800 
 36 H        5.6970    -1.4320     2.0650 H     1 <1>   0.1500 
 37 H        1.4400    -1.4200     1.5930 H     1 <1>   0.1500 
 38 H        5.1920     3.0850    -0.3530 H     1 <1>   0.0800 
 39 H        5.1570     2.5700    -2.0320 H     1 <1>   0.0800 
 40 H        6.6050     2.3470    -1.0800 H     1 <1>   0.0800 
 41 H        1.4780     1.5860     1.3270 H     1 <1>   0.1500 
 42 H        5.7350     1.5740     1.7990 H     1 <1>   0.1500 
 43 H        5.4290    -2.2480     4.3420 H     1 <1>   0.1500 
 44 H        1.1990    -2.2360     3.8730 H     1 <1>   0.1500 
 45 H        1.2620     2.7950     3.4280 H     1 <1>   0.1500 
 46 H        5.4920     2.7830     3.8970 H     1 <1>   0.1500 
 47 H        3.1850    -2.6570     5.2610 H     1 <1>   0.1500 
 48 H        3.2610     3.4040     4.7240 H     1 <1>   0.1500 
@<TRIPOS>BOND
  1   1   2  2   
  2   2   3  am  
  3   2   4  am  
  4   3   5  1   
  5   3   6  1   
  6   4   7  1   
  7   4   8  1   
  8   5   7  1   
  9   5   9  1   
 10   5  10  1   
 11   6  27  1   
 12   6  28  1   
 13   6  29  1   
 14   7  11  1   
 15   7  12  1   
 16   8  30  1   
 17   8  31  1   
 18   8  32  1   
 19   9  13  am  
 20   9  14  1   
 21  10  15  ar  
 22  10  16  ar  
 23  11  13  am  
 24  11  17  1   
 25  12  18  ar  
 26  12  19  ar  
 27  13  20  2   
 28  14  33  1   
 29  14  34  1   
 30  14  35  1   
 31  15  21  ar  
 32  15  36  1   
 33  16  22  ar  
 34  16  37  1   
 35  17  38  1   
 36  17  39  1   
 37  17  40  1   
 38  18  23  ar  
 39  18  41  1   
 40  19  24  ar  
 41  19  42  1   
 42  21  25  ar  
 43  21  43  1   
 44  22  25  ar  
 45  22  44  1   
 46  23  26  ar  
 47  23  45  1   
 48  24  26  ar  
 49  24  46  1   
 50  25  47  1   
 51  26  48  1   
@<TRIPOS>SUBSTRUCTURE
  1 ****   7 GROUP 4 **** **** 0

# MOE 2024.06 (io_trps.svl 2023.06)
