@<TRIPOS>MOLECULE
NONAME
35 35 1 0 0 
SMALL
USER_CHARGES


@<TRIPOS>ATOM
  1 CL      -0.9050    -0.5820    -1.8660 Cl    1 <1>  -0.1770 
  2 C       -2.0430     0.4840    -1.0900 C.ar  1 <1>   0.1770 
  3 C       -3.3980     0.2700    -1.2540 C.ar  1 <1>  -0.1500 
  4 C       -1.5800     1.5340    -0.3220 C.ar  1 <1>  -0.1500 
  5 C       -4.2980     1.1200    -0.6350 C.ar  1 <1>  -0.1500 
  6 C       -2.4900     2.3750     0.2930 C.ar  1 <1>  -0.1500 
  7 C       -3.8690     2.1860     0.1620 C.ar  1 <1>   0.0860 
  8 C       -4.7880     3.0910     0.8330 C.2   1 <1>   0.5440 
  9 O       -4.5700     4.2880     0.8420 O.2   1 <1>  -0.5700 
 10 N       -5.8960     2.6820     1.5140 N.am  1 <1>  -0.4300 
 11 N       -6.4090     1.3160     1.7180 N.am  1 <1>  -0.4300 
 12 C       -7.4300     0.7060     1.0670 C.2   1 <1>   0.5690 
 13 O       -7.7140    -0.4410     1.3210 O.2   1 <1>  -0.5700 
 14 C       -8.2340     1.4460     0.0110 C.3   1 <1>  -0.0990 
 15 C       -9.3640     2.2830     0.6320 C.3   1 <1>  -0.1600 
 16 C      -10.1590     3.0320    -0.4450 C.3   1 <1>  -0.1600 
 17 C      -11.2840     3.8650     0.1800 C.3   1 <1>  -0.1600 
 18 C      -12.0760     4.6150    -0.8950 C.3   1 <1>  -0.2400 
 19 H       -3.7370    -0.5510    -1.8610 H     1 <1>   0.1500 
 20 H       -0.5210     1.6880    -0.2120 H     1 <1>   0.1500 
 21 H       -5.3490     0.9530    -0.7790 H     1 <1>   0.1500 
 22 H       -2.1330     3.2000     0.8880 H     1 <1>   0.1500 
 23 H       -6.3970     3.4400     1.9930 H     1 <1>   0.3700 
 24 H       -5.9620     0.7550     2.4540 H     1 <1>   0.3700 
 25 H       -8.6550     0.7210    -0.6620 H     1 <1>   0.0800 
 26 H       -7.5800     2.0810    -0.5580 H     1 <1>   0.0800 
 27 H       -8.9460     2.9920     1.3260 H     1 <1>   0.0800 
 28 H      -10.0240     1.6310     1.1790 H     1 <1>   0.0800 
 29 H      -10.5830     2.3240    -1.1360 H     1 <1>   0.0800 
 30 H       -9.4980     3.6820    -0.9940 H     1 <1>   0.0800 
 31 H      -10.8670     4.5770     0.8720 H     1 <1>   0.0800 
 32 H      -11.9520     3.2200     0.7260 H     1 <1>   0.0800 
 33 H      -11.4330     5.2830    -1.4390 H     1 <1>   0.0800 
 34 H      -12.8600     5.1920    -0.4380 H     1 <1>   0.0800 
 35 H      -12.5210     3.9210    -1.5860 H     1 <1>   0.0800 
@<TRIPOS>BOND
  1   1   2  1   
  2   2   3  ar  
  3   2   4  ar  
  4   3   5  ar  
  5   3  19  1   
  6   4   6  ar  
  7   4  20  1   
  8   5   7  ar  
  9   5  21  1   
 10   6   7  ar  
 11   6  22  1   
 12   7   8  1   
 13   8   9  2   
 14   8  10  am  
 15  10  11  1   
 16  10  23  1   
 17  11  12  am  
 18  11  24  1   
 19  12  13  2   
 20  12  14  1   
 21  14  15  1   
 22  14  25  1   
 23  14  26  1   
 24  15  16  1   
 25  15  27  1   
 26  15  28  1   
 27  16  17  1   
 28  16  29  1   
 29  16  30  1   
 30  17  18  1   
 31  17  31  1   
 32  17  32  1   
 33  18  33  1   
 34  18  34  1   
 35  18  35  1   
@<TRIPOS>SUBSTRUCTURE
  1 ****  10 GROUP 4 **** **** 0

# MOE 2024.06 (io_trps.svl 2023.06)
