@<TRIPOS>MOLECULE
NONAME
55 56 1 0 0 
SMALL
USER_CHARGES


@<TRIPOS>ATOM
  1 O       -1.4920    -1.1840    -2.2110 O.2   1 <1>  -0.5700 
  2 C       -1.4320    -1.7740    -1.1470 C.2   1 <1>   0.5440 
  3 N       -2.2100    -1.3350    -0.0940 N.am  1 <1>  -0.6600 
  4 C       -0.5270    -2.8990    -1.0270 C.ar  1 <1>   0.0860 
  5 C       -2.4870     0.1280     0.0050 C.3   1 <1>   0.2200 
  6 C       -3.0620    -2.2490     0.7280 C.3   1 <1>   0.2200 
  7 C        0.4410    -2.9480    -0.0270 C.ar  1 <1>  -0.1500 
  8 C       -0.5730    -3.9660    -1.9220 C.ar  1 <1>  -0.1500 
  9 C       -2.2580     0.6250     1.4330 C.3   1 <1>  -0.2400 
 10 C       -3.8930     0.4570    -0.5010 C.3   1 <1>  -0.2400 
 11 C       -2.2550    -2.9320     1.8310 C.3   1 <1>  -0.2400 
 12 C       -3.7830    -3.2700    -0.1540 C.3   1 <1>  -0.2400 
 13 C        1.3090    -4.0180     0.0840 C.ar  1 <1>  -0.1500 
 14 C        0.2950    -5.0350    -1.8120 C.ar  1 <1>  -0.1500 
 15 C        1.2640    -5.0880    -0.8110 C.ar  1 <1>   0.0860 
 16 C        2.1740    -6.2140    -0.7200 C.2   1 <1>   0.5440 
 17 O        1.7790    -7.3460    -0.9030 O.2   1 <1>  -0.5700 
 18 N        3.5020    -6.0880    -0.4270 N.am  1 <1>  -0.5470 
 19 C        4.3340    -4.9630    -0.3820 C.ar  1 <1>   0.1170 
 20 C        5.3130    -4.8730     0.5990 C.ar  1 <1>  -0.1500 
 21 C        4.2130    -3.9250    -1.3000 C.ar  1 <1>  -0.1500 
 22 C        6.1400    -3.7680     0.6710 C.ar  1 <1>  -0.1500 
 23 C        5.0390    -2.8200    -1.2270 C.ar  1 <1>  -0.1500 
 24 C        6.0140    -2.7290    -0.2430 C.ar  1 <1>   0.1170 
 25 N        6.8320    -1.5960    -0.1810 N.am  1 <1>  -0.5470 
 26 C        8.1840    -1.4830    -0.1550 C.2   1 <1>   0.5690 
 27 O        8.6910    -0.3950    -0.0750 O.2   1 <1>  -0.5700 
 28 C        9.0730    -2.7000    -0.2450 C.3   1 <1>  -0.1790 
 29 H       -1.7850     0.6480    -0.6280 H     1 <1>   0.0800 
 30 H       -3.8230    -1.6650     1.2120 H     1 <1>   0.0800 
 31 H        0.5040    -2.1300     0.6710 H     1 <1>   0.1500 
 32 H       -1.3040    -3.9430    -2.7120 H     1 <1>   0.1500 
 33 H       -2.9810     0.2170     2.1130 H     1 <1>   0.0800 
 34 H       -2.3440     1.6960     1.4570 H     1 <1>   0.0800 
 35 H       -1.2680     0.3600     1.7570 H     1 <1>   0.0800 
 36 H       -4.6530     0.0510     0.1390 H     1 <1>   0.0800 
 37 H       -4.0180     0.0690    -1.4960 H     1 <1>   0.0800 
 38 H       -4.0200     1.5230    -0.5400 H     1 <1>   0.0800 
 39 H       -1.6270    -3.7060     1.4330 H     1 <1>   0.0800 
 40 H       -2.9290    -3.3910     2.5320 H     1 <1>   0.0800 
 41 H       -1.6580    -2.2120     2.3590 H     1 <1>   0.0800 
 42 H       -3.0950    -3.9790    -0.5760 H     1 <1>   0.0800 
 43 H       -4.3070    -2.7660    -0.9460 H     1 <1>   0.0800 
 44 H       -4.5000    -3.8130     0.4350 H     1 <1>   0.0800 
 45 H        2.0370    -4.0260     0.8770 H     1 <1>   0.1500 
 46 H        0.2300    -5.8500    -2.5130 H     1 <1>   0.1500 
 47 H        3.9490    -6.9940    -0.2820 H     1 <1>   0.3700 
 48 H        5.4200    -5.6690     1.3150 H     1 <1>   0.1500 
 49 H        3.4730    -3.9820    -2.0780 H     1 <1>   0.1500 
 50 H        6.8830    -3.7060     1.4460 H     1 <1>   0.1500 
 51 H        4.9320    -2.0240    -1.9430 H     1 <1>   0.1500 
 52 H        6.3640    -0.6900    -0.2160 H     1 <1>   0.3700 
 53 H        8.6660    -3.4110    -0.9400 H     1 <1>   0.0800 
 54 H        9.1660    -3.1530     0.7230 H     1 <1>   0.0800 
 55 H       10.0490    -2.4060    -0.5850 H     1 <1>   0.0800 
@<TRIPOS>BOND
  1   1   2  2   
  2   2   3  am  
  3   2   4  1   
  4   3   5  1   
  5   3   6  1   
  6   4   7  ar  
  7   4   8  ar  
  8   5   9  1   
  9   5  10  1   
 10   5  29  1   
 11   6  11  1   
 12   6  12  1   
 13   6  30  1   
 14   7  13  ar  
 15   7  31  1   
 16   8  14  ar  
 17   8  32  1   
 18   9  33  1   
 19   9  34  1   
 20   9  35  1   
 21  10  36  1   
 22  10  37  1   
 23  10  38  1   
 24  11  39  1   
 25  11  40  1   
 26  11  41  1   
 27  12  42  1   
 28  12  43  1   
 29  12  44  1   
 30  13  15  ar  
 31  13  45  1   
 32  14  15  ar  
 33  14  46  1   
 34  15  16  1   
 35  16  17  2   
 36  16  18  am  
 37  18  19  1   
 38  18  47  1   
 39  19  20  ar  
 40  19  21  ar  
 41  20  22  ar  
 42  20  48  1   
 43  21  23  ar  
 44  21  49  1   
 45  22  24  ar  
 46  22  50  1   
 47  23  24  ar  
 48  23  51  1   
 49  24  25  1   
 50  25  26  am  
 51  25  52  1   
 52  26  27  2   
 53  26  28  1   
 54  28  53  1   
 55  28  54  1   
 56  28  55  1   
@<TRIPOS>SUBSTRUCTURE
  1 ****  13 GROUP 4 **** **** 0

# MOE 2024.06 (io_trps.svl 2023.06)
