@<TRIPOS>MOLECULE
NONAME
55 58 1 0 0 
SMALL
USER_CHARGES


@<TRIPOS>ATOM
  1 S       -0.0090     0.6480     0.6980 S.3   1 <1>  -0.2860 
  2 C        0.1270    -0.9000    -0.2010 C.2   1 <1>   0.2420 
  3 C       -1.4110     1.5080    -0.1660 C.3   1 <1>   0.1310 
  4 N       -0.1900    -1.0360    -1.4410 N.2   1 <1>  -0.3380 
  5 N        0.5150    -2.0310     0.3800 N.pl3 1 <1>   0.0480 
  6 C       -2.7110     0.7730     0.1240 C.2   1 <1>   0.5690 
  7 N       -0.0280    -2.3330    -1.7120 N.2   1 <1>  -0.3380 
  8 C        0.3810    -2.9080    -0.6280 C.2   1 <1>   0.0060 
  9 C        0.9080    -2.2270     1.7900 C.3   1 <1>   0.0160 
 10 O       -3.4900     1.2700     0.9020 O.2   1 <1>  -0.5700 
 11 N       -2.9300    -0.4210    -0.4890 N.am  1 <1>  -0.7300 
 12 C        0.6470    -4.4000    -0.5190 C.3   1 <1>   0.0200 
 13 C       -3.9450    -1.4400    -0.1940 C.3   1 <1>   0.3000 
 14 C       -0.5540    -5.1130     0.1170 C.3   1 <1>  -0.1600 
 15 C       -3.7020    -2.6190    -1.1530 C.3   1 <1>  -0.1600 
 16 C       -3.7900    -1.9380     1.2550 C.3   1 <1>  -0.1600 
 17 C       -5.3700    -0.9020    -0.4170 C.3   1 <1>  -0.1600 
 18 C       -0.3060    -6.6170     0.2800 C.3   1 <1>  -0.1600 
 19 C       -4.7180    -3.7460    -0.8850 C.3   1 <1>  -0.0800 
 20 C       -4.8150    -3.0530     1.5410 C.3   1 <1>  -0.0800 
 21 C       -6.3990    -2.0160    -0.1380 C.3   1 <1>  -0.0800 
 22 C       -1.5280    -7.3050     0.8970 C.3   1 <1>  -0.2400 
 23 C       -4.5700    -4.2260     0.5720 C.3   1 <1>  -0.1600 
 24 C       -6.1410    -3.1960    -1.0950 C.3   1 <1>  -0.1600 
 25 C       -6.2360    -2.5010     1.3170 C.3   1 <1>  -0.1600 
 26 H       -1.1940     1.5160    -1.2180 H     1 <1>   0.0800 
 27 H       -1.4520     2.5110     0.2130 H     1 <1>   0.0800 
 28 H        0.0630    -2.0250     2.4230 H     1 <1>   0.0800 
 29 H        1.7040    -1.5470     2.0330 H     1 <1>   0.0800 
 30 H        1.2400    -3.2350     1.9490 H     1 <1>   0.0800 
 31 H       -2.1770    -0.7890    -1.0860 H     1 <1>   0.3700 
 32 H        1.5390    -4.5720     0.0550 H     1 <1>   0.0800 
 33 H        0.8120    -4.7940    -1.5070 H     1 <1>   0.0800 
 34 H       -1.4140    -4.9620    -0.5110 H     1 <1>   0.0800 
 35 H       -0.7660    -4.6790     1.0790 H     1 <1>   0.0800 
 36 H       -2.7060    -2.9990    -1.0180 H     1 <1>   0.0800 
 37 H       -3.7980    -2.2860    -2.1710 H     1 <1>   0.0800 
 38 H       -3.9550    -1.1250     1.9390 H     1 <1>   0.0800 
 39 H       -2.7940    -2.3120     1.4070 H     1 <1>   0.0800 
 40 H       -5.4740    -0.5530    -1.4280 H     1 <1>   0.0800 
 41 H       -5.5600    -0.0760     0.2450 H     1 <1>   0.0800 
 42 H        0.5500    -6.7820     0.9110 H     1 <1>   0.0800 
 43 H       -0.1020    -7.0580    -0.6820 H     1 <1>   0.0800 
 44 H       -4.5390    -4.5660    -1.5600 H     1 <1>   0.0800 
 45 H       -4.7120    -3.3910     2.5580 H     1 <1>   0.0800 
 46 H       -7.3950    -1.6350    -0.2870 H     1 <1>   0.0800 
 47 H       -1.7410    -6.8960     1.8690 H     1 <1>   0.0800 
 48 H       -1.3420    -8.3590     1.0030 H     1 <1>   0.0800 
 49 H       -2.3910    -7.1730     0.2680 H     1 <1>   0.0800 
 50 H       -3.5840    -4.6260     0.7270 H     1 <1>   0.0800 
 51 H       -5.2760    -5.0140     0.7690 H     1 <1>   0.0800 
 52 H       -6.8630    -3.9740    -0.9150 H     1 <1>   0.0800 
 53 H       -6.2600    -2.8710    -2.1140 H     1 <1>   0.0800 
 54 H       -6.4190    -1.6840     1.9930 H     1 <1>   0.0800 
 55 H       -6.9620    -3.2670     1.5280 H     1 <1>   0.0800 
@<TRIPOS>BOND
  1   1   2  1   
  2   1   3  1   
  3   2   4  2   
  4   2   5  1   
  5   3   6  1   
  6   3  26  1   
  7   3  27  1   
  8   4   7  1   
  9   5   8  1   
 10   5   9  1   
 11   6  10  2   
 12   6  11  am  
 13   7   8  2   
 14   8  12  1   
 15   9  28  1   
 16   9  29  1   
 17   9  30  1   
 18  11  13  1   
 19  11  31  1   
 20  12  14  1   
 21  12  32  1   
 22  12  33  1   
 23  13  15  1   
 24  13  16  1   
 25  13  17  1   
 26  14  18  1   
 27  14  34  1   
 28  14  35  1   
 29  15  19  1   
 30  15  36  1   
 31  15  37  1   
 32  16  20  1   
 33  16  38  1   
 34  16  39  1   
 35  17  21  1   
 36  17  40  1   
 37  17  41  1   
 38  18  22  1   
 39  18  42  1   
 40  18  43  1   
 41  19  23  1   
 42  19  24  1   
 43  19  44  1   
 44  20  23  1   
 45  20  25  1   
 46  20  45  1   
 47  21  24  1   
 48  21  25  1   
 49  21  46  1   
 50  22  47  1   
 51  22  48  1   
 52  22  49  1   
 53  23  50  1   
 54  23  51  1   
 55  24  52  1   
 56  24  53  1   
 57  25  54  1   
 58  25  55  1   
@<TRIPOS>SUBSTRUCTURE
  1 ****  13 GROUP 4 **** **** 0

# MOE 2024.06 (io_trps.svl 2023.06)
