@<TRIPOS>MOLECULE
NONAME
41 42 1 0 0 
SMALL
USER_CHARGES


@<TRIPOS>ATOM
  1 O       -1.0250    -1.3880     2.4920 O.2   1 <1>  -0.5700 
  2 C       -1.0920    -1.7030     1.3440 C.2   1 <1>   0.4480 
  3 C        0.0670    -2.3700     0.6380 C.3   1 <1>  -0.0380 
  4 C       -2.3340    -1.4340     0.5140 C.3   1 <1>  -0.0990 
  5 C       -0.4330    -3.5860    -0.1290 C.2   1 <1>   0.3280 
  6 C       -2.8030    -2.6870    -0.2530 C.3   1 <1>   0.0000 
  7 N        0.0370    -4.7610    -0.0690 N.2   1 <1>  -0.5120 
  8 C       -1.6170    -3.2850    -1.0360 C.3   1 <1>  -0.0990 
  9 C       -3.9180    -2.2960    -1.2350 C.3   1 <1>  -0.2400 
 10 C       -3.3670    -3.7290     0.7310 C.3   1 <1>  -0.2400 
 11 N        1.1080    -5.1090     0.7450 N.am  1 <1>  -0.3680 
 12 C        1.6530    -6.3570     0.9230 C.2   1 <1>   0.5440 
 13 O        2.6950    -6.4140     1.5490 O.2   1 <1>  -0.5700 
 14 C        1.0530    -7.5420     0.3530 C.ar  1 <1>   0.0860 
 15 C       -0.1720    -8.0540     0.8000 C.ar  1 <1>   0.0820 
 16 C        1.6990    -8.2190    -0.6800 C.ar  1 <1>  -0.1500 
 17 O       -0.8110    -7.4570     1.8200 O.3   1 <1>  -0.5320 
 18 C       -0.7430    -9.1840     0.2190 C.ar  1 <1>  -0.1440 
 19 C        1.1440    -9.3440    -1.2590 C.ar  1 <1>  -0.1500 
 20 C       -0.0750    -9.8220    -0.8130 C.ar  1 <1>  -0.1500 
 21 C       -2.0820    -9.7380     0.6910 C.3   1 <1>  -0.0970 
 22 H        0.8070    -2.6320     1.3680 H     1 <1>   0.0800 
 23 H        0.5060    -1.6730    -0.0500 H     1 <1>   0.0800 
 24 H       -2.1040    -0.6450    -0.1790 H     1 <1>   0.0800 
 25 H       -3.1170    -1.0800     1.1600 H     1 <1>   0.0800 
 26 H       -1.9260    -4.1930    -1.5260 H     1 <1>   0.0800 
 27 H       -1.2960    -2.6010    -1.8000 H     1 <1>   0.0800 
 28 H       -3.5660    -1.5720    -1.9480 H     1 <1>   0.0800 
 29 H       -4.7550    -1.8720    -0.7080 H     1 <1>   0.0800 
 30 H       -4.2650    -3.1600    -1.7760 H     1 <1>   0.0800 
 31 H       -2.6280    -4.0330     1.4530 H     1 <1>   0.0800 
 32 H       -3.6930    -4.6070     0.2030 H     1 <1>   0.0800 
 33 H       -4.2080    -3.3270     1.2680 H     1 <1>   0.0800 
 34 H        1.5880    -4.3950     1.2960 H     1 <1>   0.3700 
 35 H        2.6480    -7.8490    -1.0260 H     1 <1>   0.1500 
 36 H       -1.6580    -7.8770     2.0390 H     1 <1>   0.4500 
 37 H        1.6600    -9.8480    -2.0580 H     1 <1>   0.1500 
 38 H       -0.4950   -10.6970    -1.2780 H     1 <1>   0.1500 
 39 H       -2.8510    -8.9960     0.5750 H     1 <1>   0.0800 
 40 H       -2.0180   -10.0290     1.7250 H     1 <1>   0.0800 
 41 H       -2.3630   -10.6030     0.1170 H     1 <1>   0.0800 
@<TRIPOS>BOND
  1   1   2  2   
  2   2   3  1   
  3   2   4  1   
  4   3   5  1   
  5   3  22  1   
  6   3  23  1   
  7   4   6  1   
  8   4  24  1   
  9   4  25  1   
 10   5   7  2   
 11   5   8  1   
 12   6   8  1   
 13   6   9  1   
 14   6  10  1   
 15   7  11  1   
 16   8  26  1   
 17   8  27  1   
 18   9  28  1   
 19   9  29  1   
 20   9  30  1   
 21  10  31  1   
 22  10  32  1   
 23  10  33  1   
 24  11  12  am  
 25  11  34  1   
 26  12  13  2   
 27  12  14  1   
 28  14  15  ar  
 29  14  16  ar  
 30  15  17  1   
 31  15  18  ar  
 32  16  19  ar  
 33  16  35  1   
 34  17  36  1   
 35  18  20  ar  
 36  18  21  1   
 37  19  20  ar  
 38  19  37  1   
 39  20  38  1   
 40  21  39  1   
 41  21  40  1   
 42  21  41  1   
@<TRIPOS>SUBSTRUCTURE
  1 ****   7 GROUP 4 **** **** 0

# MOE 2024.06 (io_trps.svl 2023.06)
