@<TRIPOS>MOLECULE
NONAME
48 50 1 0 0 
SMALL
USER_CHARGES


@<TRIPOS>ATOM
  1 S        0.2880    -0.8970     0.8370 S.o2  1 <1>   1.4470 
  2 O       -0.6300    -1.3780     1.8490 O.2   1 <1>  -0.6500 
  3 O        1.7000    -1.0960     1.0820 O.2   1 <1>  -0.6500 
  4 N       -0.0950    -1.7010    -0.6070 N.am  1 <1>  -0.8490 
  5 C        0.0010     0.8510     0.4450 C.ar  1 <1>  -0.0090 
  6 C       -1.4890    -2.1240    -0.7000 C.3   1 <1>   0.3390 
  7 C        0.8740    -2.7510    -1.0040 C.3   1 <1>   0.2570 
  8 C        0.6210     1.4420    -0.6500 C.ar  1 <1>  -0.1500 
  9 C       -0.8460     1.6390     1.2170 C.ar  1 <1>  -0.1500 
 10 C       -2.4060    -0.9090    -0.7420 C.ar  1 <1>  -0.1440 
 11 C        2.1560    -2.2140    -1.6790 C.2   1 <1>   0.5690 
 12 C        0.4030     2.7710    -0.9680 C.ar  1 <1>  -0.1500 
 13 C       -1.0710     2.9690     0.9050 C.ar  1 <1>  -0.1500 
 14 C       -3.3240    -0.6830     0.2770 C.ar  1 <1>  -0.1500 
 15 C       -2.3110    -0.0130    -1.8010 C.ar  1 <1>  -0.1500 
 16 O        1.9980    -1.5460    -2.6770 O.2   1 <1>  -0.5700 
 17 N        3.4240    -2.5100    -1.2290 N.am  1 <1>  -0.6600 
 18 C       -0.4460     3.5360    -0.1900 C.ar  1 <1>  -0.1500 
 19 C       -4.1440     0.4330     0.2430 C.ar  1 <1>  -0.1500 
 20 C       -3.1230     1.1070    -1.8450 C.ar  1 <1>  -0.1500 
 21 C        3.7800    -3.1400     0.0830 C.3   1 <1>   0.1400 
 22 C        4.6360    -2.0630    -1.9860 C.3   1 <1>   0.1400 
 23 C       -4.0250     1.3090    -0.8180 C.ar  1 <1>   0.1900 
 24 C        4.7710    -2.2570     0.8610 C.3   1 <1>   0.1200 
 25 C        5.5720    -1.2410    -1.0860 C.3   1 <1>   0.1200 
 26 F       -4.7920     2.3650    -0.8510 F     1 <1>  -0.1900 
 27 O        5.8880    -1.9580     0.0730 O.3   1 <1>  -0.5600 
 28 H       -1.7430    -2.7700     0.1250 H     1 <1>   0.0800 
 29 H       -1.6400    -2.6770    -1.6110 H     1 <1>   0.0800 
 30 H        0.4160    -3.3860    -1.7400 H     1 <1>   0.0800 
 31 H        1.0990    -3.3710    -0.1590 H     1 <1>   0.0800 
 32 H        1.2790     0.8490    -1.2650 H     1 <1>   0.1500 
 33 H       -1.3410     1.2040     2.0680 H     1 <1>   0.1500 
 34 H        0.8920     3.2070    -1.8220 H     1 <1>   0.1500 
 35 H       -1.7360     3.5590     1.5120 H     1 <1>   0.1500 
 36 H       -3.3970    -1.3680     1.1050 H     1 <1>   0.1500 
 37 H       -1.5920    -0.1820    -2.5860 H     1 <1>   0.1500 
 38 H       -0.6210     4.5690    -0.4360 H     1 <1>   0.1500 
 39 H       -4.8570     0.6250     1.0230 H     1 <1>   0.1500 
 40 H       -3.0550     1.8130    -2.6520 H     1 <1>   0.1500 
 41 H        4.2340    -4.0990    -0.0960 H     1 <1>   0.0800 
 42 H        2.9160    -3.2920     0.7000 H     1 <1>   0.0800 
 43 H        4.3600    -1.4670    -2.8390 H     1 <1>   0.0800 
 44 H        5.1650    -2.9270    -2.3480 H     1 <1>   0.0800 
 45 H        5.1170    -2.7700     1.7400 H     1 <1>   0.0800 
 46 H        4.3020    -1.3360     1.1630 H     1 <1>   0.0800 
 47 H        5.1050    -0.3130    -0.8040 H     1 <1>   0.0800 
 48 H        6.4900    -1.0260    -1.6020 H     1 <1>   0.0800 
@<TRIPOS>BOND
  1   1   2  2   
  2   1   3  2   
  3   1   4  am  
  4   1   5  1   
  5   4   6  1   
  6   4   7  1   
  7   5   8  ar  
  8   5   9  ar  
  9   6  10  1   
 10   6  28  1   
 11   6  29  1   
 12   7  11  1   
 13   7  30  1   
 14   7  31  1   
 15   8  12  ar  
 16   8  32  1   
 17   9  13  ar  
 18   9  33  1   
 19  10  14  ar  
 20  10  15  ar  
 21  11  16  2   
 22  11  17  am  
 23  12  18  ar  
 24  12  34  1   
 25  13  18  ar  
 26  13  35  1   
 27  14  19  ar  
 28  14  36  1   
 29  15  20  ar  
 30  15  37  1   
 31  17  21  1   
 32  17  22  1   
 33  18  38  1   
 34  19  23  ar  
 35  19  39  1   
 36  20  23  ar  
 37  20  40  1   
 38  21  24  1   
 39  21  41  1   
 40  21  42  1   
 41  22  25  1   
 42  22  43  1   
 43  22  44  1   
 44  23  26  1   
 45  24  27  1   
 46  24  45  1   
 47  24  46  1   
 48  25  27  1   
 49  25  47  1   
 50  25  48  1   
@<TRIPOS>SUBSTRUCTURE
  1 ****   1 GROUP 4 **** **** 0

# MOE 2024.06 (io_trps.svl 2023.06)
