@<TRIPOS>MOLECULE
NONAME
42 43 1 0 0 
SMALL
USER_CHARGES


@<TRIPOS>ATOM
  1 O       -0.7280    -0.4530     1.7960 O.2   1 <1>  -0.5700 
  2 C       -1.6840    -0.2270     1.0900 C.2   1 <1>   0.5690 
  3 N       -2.3490     0.9740     1.0940 N.am  1 <1>  -0.4770 
  4 C       -2.1960    -1.3390     0.1800 C.3   1 <1>   0.1810 
  5 C       -3.4250     1.1840     0.1970 C.ar  1 <1>   0.1170 
  6 C       -1.8000     2.1110     1.9120 C.3   1 <1>   0.2010 
  7 O       -2.8740    -0.8480    -0.9700 O.3   1 <1>  -0.3630 
  8 C       -3.6450     0.2630    -0.8320 C.ar  1 <1>   0.0830 
  9 C       -4.2780     2.2820     0.2800 C.ar  1 <1>  -0.1500 
 10 C       -1.3200     3.2840     1.0660 C.2   1 <1>   0.6590 
 11 C       -4.6570     0.4610    -1.7490 C.ar  1 <1>  -0.1500 
 12 C       -5.3050     2.5010    -0.6330 C.ar  1 <1>  -0.1440 
 13 O       -1.7950     4.3850     1.1960 O.2   1 <1>  -0.5700 
 14 O       -0.3600     3.0290     0.1860 O.3   1 <1>  -0.4300 
 15 C       -5.4790     1.5690    -1.6520 C.ar  1 <1>  -0.1500 
 16 C       -6.1920     3.7580    -0.4810 C.3   1 <1>   0.1440 
 17 C        0.1290     4.0230    -0.6820 C.3   1 <1>   0.1200 
 18 C       -6.9020     3.7280     0.8800 C.3   1 <1>  -0.2400 
 19 C       -5.3160     5.0170    -0.5730 C.3   1 <1>  -0.2400 
 20 C       -7.2760     3.8680    -1.5670 C.3   1 <1>  -0.2400 
 21 C        1.1930     3.3880    -1.5710 C.3   1 <1>  -0.2400 
 22 H       -2.8840    -1.9560     0.7270 H     1 <1>   0.0800 
 23 H       -1.3730    -1.9410    -0.1570 H     1 <1>   0.0800 
 24 H       -0.9720     1.7820     2.5110 H     1 <1>   0.0800 
 25 H       -2.5620     2.4560     2.5860 H     1 <1>   0.0800 
 26 H       -4.1410     2.9910     1.0720 H     1 <1>   0.1500 
 27 H       -4.8000    -0.2540    -2.5390 H     1 <1>   0.1500 
 28 H       -6.2510     1.6790    -2.3910 H     1 <1>   0.1500 
 29 H        0.5420     4.8210    -0.0900 H     1 <1>   0.0800 
 30 H       -0.6940     4.3950    -1.2700 H     1 <1>   0.0800 
 31 H       -6.1960     3.7530     1.6890 H     1 <1>   0.0800 
 32 H       -7.4880     2.8300     0.9700 H     1 <1>   0.0800 
 33 H       -7.5570     4.5750     0.9850 H     1 <1>   0.0800 
 34 H       -4.7870     5.0290    -1.5100 H     1 <1>   0.0800 
 35 H       -4.5910     5.0490     0.2190 H     1 <1>   0.0800 
 36 H       -5.9180     5.9050    -0.5080 H     1 <1>   0.0800 
 37 H       -7.9370     3.0210    -1.5290 H     1 <1>   0.0800 
 38 H       -6.8290     3.9210    -2.5430 H     1 <1>   0.0800 
 39 H       -7.8660     4.7560    -1.4240 H     1 <1>   0.0800 
 40 H        2.0000     3.0100    -0.9710 H     1 <1>   0.0800 
 41 H        1.5850     4.1230    -2.2500 H     1 <1>   0.0800 
 42 H        0.7640     2.5860    -2.1450 H     1 <1>   0.0800 
@<TRIPOS>BOND
  1   1   2  2   
  2   2   3  am  
  3   2   4  1   
  4   3   5  1   
  5   3   6  1   
  6   4   7  1   
  7   4  22  1   
  8   4  23  1   
  9   5   8  ar  
 10   5   9  ar  
 11   6  10  1   
 12   6  24  1   
 13   6  25  1   
 14   7   8  1   
 15   8  11  ar  
 16   9  12  ar  
 17   9  26  1   
 18  10  13  2   
 19  10  14  1   
 20  11  15  ar  
 21  11  27  1   
 22  12  15  ar  
 23  12  16  1   
 24  14  17  1   
 25  15  28  1   
 26  16  18  1   
 27  16  19  1   
 28  16  20  1   
 29  17  21  1   
 30  17  29  1   
 31  17  30  1   
 32  18  31  1   
 33  18  32  1   
 34  18  33  1   
 35  19  34  1   
 36  19  35  1   
 37  19  36  1   
 38  20  37  1   
 39  20  38  1   
 40  20  39  1   
 41  21  40  1   
 42  21  41  1   
 43  21  42  1   
@<TRIPOS>SUBSTRUCTURE
  1 ****   5 GROUP 4 **** **** 0

# MOE 2024.06 (io_trps.svl 2023.06)
