@<TRIPOS>MOLECULE
NONAME
38 38 1 0 0 
SMALL
USER_CHARGES


@<TRIPOS>ATOM
  1 O       -0.6820    -3.5320    -0.0160 O.3   1 <1>  -0.3630 
  2 C       -0.9540    -4.8420    -0.2670 C.ar  1 <1>   0.0830 
  3 C       -1.7000    -2.6280     0.3550 C.3   1 <1>   0.1200 
  4 C        0.0770    -5.6230    -0.7810 C.ar  1 <1>  -0.1440 
  5 C       -2.1980    -5.4190    -0.0220 C.ar  1 <1>  -0.1500 
  6 C       -1.0730    -1.2440     0.4930 C.3   1 <1>  -0.2400 
  7 C       -0.1370    -6.9690    -1.0370 C.ar  1 <1>  -0.1500 
  8 C        1.4280    -5.0040    -1.0650 C.3   1 <1>   0.4860 
  9 C       -2.4020    -6.7610    -0.2830 C.ar  1 <1>  -0.1500 
 10 C       -1.3740    -7.5360    -0.7890 C.ar  1 <1>  -0.1500 
 11 N        1.9550    -4.5070     0.2140 N.4   1 <1>  -0.9060 
 12 C        3.2000    -3.7240     0.1340 C.3   1 <1>   0.4230 
 13 C        4.3950    -4.7030     0.0120 C.3   1 <1>   0.1200 
 14 C        3.2730    -2.8660     1.4060 C.3   1 <1>  -0.1600 
 15 O        4.1680    -5.8390     0.7990 O.3   1 <1>  -0.6800 
 16 C        4.3780    -1.7990     1.3530 C.3   1 <1>  -0.2400 
 17 H       -2.1220    -2.9480     1.2930 H     1 <1>   0.0800 
 18 H       -2.4570    -2.6290    -0.4120 H     1 <1>   0.0800 
 19 H       -3.0180    -4.8490     0.3720 H     1 <1>   0.1500 
 20 H       -0.3200    -1.2470     1.2600 H     1 <1>   0.0800 
 21 H       -1.8310    -0.5320     0.7650 H     1 <1>   0.0800 
 22 H       -0.6400    -0.9350    -0.4420 H     1 <1>   0.0800 
 23 H        0.6480    -7.5920    -1.4340 H     1 <1>   0.1500 
 24 H        1.3020    -4.1880    -1.7590 H     1 <1>   0.0800 
 25 H        2.0960    -5.7340    -1.4910 H     1 <1>   0.0800 
 26 H       -3.3650    -7.2070    -0.0930 H     1 <1>   0.1500 
 27 H       -1.5410    -8.5820    -0.9890 H     1 <1>   0.1500 
 28 H        2.1710    -5.3170     0.8150 H     1 <1>   0.4500 
 29 H        1.1890    -3.9770     0.6520 H     1 <1>   0.4500 
 30 H        3.1730    -3.0650    -0.7190 H     1 <1>   0.0800 
 31 H        5.3130    -4.2410     0.3310 H     1 <1>   0.0800 
 32 H        4.5140    -5.0220    -1.0090 H     1 <1>   0.0800 
 33 H        3.4340    -3.4960     2.2650 H     1 <1>   0.0800 
 34 H        2.3370    -2.3500     1.5390 H     1 <1>   0.0800 
 35 H        4.9740    -6.3990     0.8530 H     1 <1>   0.4000 
 36 H        5.3570    -2.2430     1.3200 H     1 <1>   0.0800 
 37 H        4.3290    -1.1830     2.2350 H     1 <1>   0.0800 
 38 H        4.2560    -1.1610     0.4940 H     1 <1>   0.0800 
@<TRIPOS>BOND
  1   1   2  1   
  2   1   3  1   
  3   2   4  ar  
  4   2   5  ar  
  5   3   6  1   
  6   3  17  1   
  7   3  18  1   
  8   4   7  ar  
  9   4   8  1   
 10   5   9  ar  
 11   5  19  1   
 12   6  20  1   
 13   6  21  1   
 14   6  22  1   
 15   7  10  ar  
 16   7  23  1   
 17   8  11  1   
 18   8  24  1   
 19   8  25  1   
 20   9  10  ar  
 21   9  26  1   
 22  10  27  1   
 23  11  12  1   
 24  11  28  1   
 25  11  29  1   
 26  12  13  1   
 27  12  14  1   
 28  12  30  1   
 29  13  15  1   
 30  13  31  1   
 31  13  32  1   
 32  14  16  1   
 33  14  33  1   
 34  14  34  1   
 35  15  35  1   
 36  16  36  1   
 37  16  37  1   
 38  16  38  1   
@<TRIPOS>SUBSTRUCTURE
  1 ****  11 GROUP 4 **** **** 0

# MOE 2024.06 (io_trps.svl 2023.06)
