@<TRIPOS>MOLECULE
NONAME
45 46 1 0 0 
SMALL
USER_CHARGES


@<TRIPOS>ATOM
  1 S       -0.1010     0.1360    -0.3860 S.o2  1 <1>   1.4470 
  2 O        0.7040     0.3780     0.7890 O.2   1 <1>  -0.6500 
  3 O        0.4370     0.3800    -1.7060 O.2   1 <1>  -0.6500 
  4 N       -1.3370     1.2490    -0.1640 N.am  1 <1>  -0.9140 
  5 C       -0.9320    -1.4750    -0.3190 C.ar  1 <1>  -0.0090 
  6 C       -1.0130     2.5680    -0.7140 C.3   1 <1>   0.1960 
  7 C       -0.1800    -2.6390    -0.1830 C.ar  1 <1>   0.0830 
  8 C       -2.3140    -1.5970    -0.4190 C.ar  1 <1>  -0.1500 
  9 C       -2.0830     3.6060    -0.3420 C.3   1 <1>   0.2000 
 10 O        1.1680    -2.4980    -0.1110 O.3   1 <1>  -0.3630 
 11 C       -0.8040    -3.8840    -0.1300 C.ar  1 <1>  -0.1500 
 12 C       -2.9430    -2.8290    -0.3670 C.ar  1 <1>   0.0830 
 13 O       -1.6820     4.8640    -0.7750 O.3   1 <1>  -0.5600 
 14 C       -2.3060     3.7890     1.1550 C.3   1 <1>  -0.1600 
 15 C        2.0360    -3.5940     0.0530 C.3   1 <1>   0.1200 
 16 C       -2.1790    -3.9800    -0.2190 C.ar  1 <1>  -0.1500 
 17 O       -4.2970    -2.8250    -0.4670 O.3   1 <1>  -0.3630 
 18 C       -2.3540     5.8570    -0.0680 C.3   1 <1>   0.1200 
 19 C       -2.7850     5.2270     1.2550 C.3   1 <1>  -0.1600 
 20 C        3.4600    -3.0520     0.1100 C.3   1 <1>  -0.2400 
 21 C       -5.0330    -4.0260    -0.4670 C.3   1 <1>   0.1200 
 22 C       -6.5100    -3.6730    -0.6170 C.3   1 <1>  -0.2400 
 23 H       -1.3420     1.3560     0.8480 H     1 <1>   0.4200 
 24 H       -0.9520     2.5050    -1.7880 H     1 <1>   0.0800 
 25 H       -0.0580     2.8940    -0.3340 H     1 <1>   0.0800 
 26 H       -2.9290    -0.7240    -0.5450 H     1 <1>   0.1500 
 27 H       -3.0100     3.3760    -0.8390 H     1 <1>   0.0800 
 28 H       -0.2360    -4.7890    -0.0210 H     1 <1>   0.1500 
 29 H       -1.3730     3.6740     1.6800 H     1 <1>   0.0800 
 30 H       -3.0240     3.0860     1.5400 H     1 <1>   0.0800 
 31 H        1.9140    -4.2570    -0.7860 H     1 <1>   0.0800 
 32 H        1.7840    -4.0960     0.9710 H     1 <1>   0.0800 
 33 H       -2.6340    -4.9520    -0.1730 H     1 <1>   0.1500 
 34 H       -3.2050     6.1690    -0.6510 H     1 <1>   0.0800 
 35 H       -1.6820     6.6860     0.0760 H     1 <1>   0.0800 
 36 H       -2.3420     5.7380     2.0920 H     1 <1>   0.0800 
 37 H       -3.8570     5.2740     1.3430 H     1 <1>   0.0800 
 38 H        3.6960    -2.5380    -0.8050 H     1 <1>   0.0800 
 39 H        4.1550    -3.8610     0.2400 H     1 <1>   0.0800 
 40 H        3.5640    -2.3730     0.9380 H     1 <1>   0.0800 
 41 H       -4.8570    -4.5350     0.4650 H     1 <1>   0.0800 
 42 H       -4.7010    -4.6310    -1.2940 H     1 <1>   0.0800 
 43 H       -6.8280    -3.0560     0.2040 H     1 <1>   0.0800 
 44 H       -7.1010    -4.5710    -0.6220 H     1 <1>   0.0800 
 45 H       -6.6720    -3.1500    -1.5430 H     1 <1>   0.0800 
@<TRIPOS>BOND
  1   1   2  2   
  2   1   3  2   
  3   1   4  am  
  4   1   5  1   
  5   4   6  1   
  6   4  23  1   
  7   5   7  ar  
  8   5   8  ar  
  9   6   9  1   
 10   6  24  1   
 11   6  25  1   
 12   7  10  1   
 13   7  11  ar  
 14   8  12  ar  
 15   8  26  1   
 16   9  13  1   
 17   9  14  1   
 18   9  27  1   
 19  10  15  1   
 20  11  16  ar  
 21  11  28  1   
 22  12  16  ar  
 23  12  17  1   
 24  13  18  1   
 25  14  19  1   
 26  14  29  1   
 27  14  30  1   
 28  15  20  1   
 29  15  31  1   
 30  15  32  1   
 31  16  33  1   
 32  17  21  1   
 33  18  19  1   
 34  18  34  1   
 35  18  35  1   
 36  19  36  1   
 37  19  37  1   
 38  20  38  1   
 39  20  39  1   
 40  20  40  1   
 41  21  22  1   
 42  21  41  1   
 43  21  42  1   
 44  22  43  1   
 45  22  44  1   
 46  22  45  1   
@<TRIPOS>SUBSTRUCTURE
  1 ****   5 GROUP 4 **** **** 0

# MOE 2024.06 (io_trps.svl 2023.06)
