@<TRIPOS>MOLECULE
NONAME
29 30 1 0 0 
SMALL
USER_CHARGES


@<TRIPOS>ATOM
  1 S       -0.2370     0.4520     1.1770 S.3   1 <1>  -0.0800 
  2 C       -1.4000     0.8210    -0.1070 C.2   1 <1>  -0.0450 
  3 C        0.5930     1.9780     0.9750 C.2   1 <1>  -0.1100 
  4 C       -2.4300    -0.1080    -0.4950 C.2   1 <1>   0.5940 
  5 C       -1.0960     2.0470    -0.6090 C.2   1 <1>  -0.1500 
  6 C        0.0170     2.6980    -0.0040 C.2   1 <1>  -0.1500 
  7 O       -2.9710    -0.0010    -1.5730 O.2   1 <1>  -0.5700 
  8 C       -2.8100    -1.3200     0.3830 C.3   1 <1>  -0.0190 
  9 C       -4.2970    -1.3190     0.8430 C.3   1 <1>  -0.1860 
 10 C       -2.4040    -2.6410    -0.3210 C.3   1 <1>  -0.1600 
 11 C       -4.7820     0.0800     1.2220 C.2   1 <1>   0.9060 
 12 C       -5.1880    -2.0700    -0.1690 C.3   1 <1>  -0.1600 
 13 C       -3.3050    -3.8180     0.0740 C.3   1 <1>  -0.1600 
 14 O       -5.9440     0.4220     0.9820 O.co2 1 <1>  -0.9000 
 15 O       -3.9910     0.8180     1.8210 O.co2 1 <1>  -0.9000 
 16 C       -4.7670    -3.5460    -0.3240 C.3   1 <1>  -0.1600 
 17 H        1.4300     2.1790     1.6190 H     1 <1>   0.1500 
 18 H       -1.6530     2.5120    -1.4040 H     1 <1>   0.1500 
 19 H        0.3290     3.6750    -0.3280 H     1 <1>   0.1500 
 20 H       -2.2500    -1.2600     1.2950 H     1 <1>   0.0800 
 21 H       -4.3520    -1.8670     1.7650 H     1 <1>   0.0800 
 22 H       -2.4770    -2.5190    -1.3890 H     1 <1>   0.0800 
 23 H       -1.3780    -2.8670    -0.0910 H     1 <1>   0.0800 
 24 H       -6.2170    -2.0200     0.1430 H     1 <1>   0.0800 
 25 H       -5.1200    -1.5680    -1.1190 H     1 <1>   0.0800 
 26 H       -2.9640    -4.7210    -0.4010 H     1 <1>   0.0800 
 27 H       -3.2440    -3.9620     1.1390 H     1 <1>   0.0800 
 28 H       -5.4070    -4.1620     0.2840 H     1 <1>   0.0800 
 29 H       -4.9200    -3.8340    -1.3500 H     1 <1>   0.0800 
@<TRIPOS>BOND
  1   1   2  1   
  2   1   3  1   
  3   2   4  1   
  4   2   5  2   
  5   3   6  2   
  6   3  17  1   
  7   4   7  2   
  8   4   8  1   
  9   5   6  1   
 10   5  18  1   
 11   6  19  1   
 12   8   9  1   
 13   8  10  1   
 14   8  20  1   
 15   9  11  1   
 16   9  12  1   
 17   9  21  1   
 18  10  13  1   
 19  10  22  1   
 20  10  23  1   
 21  11  14  ar  
 22  11  15  ar  
 23  12  16  1   
 24  12  24  1   
 25  12  25  1   
 26  13  16  1   
 27  13  26  1   
 28  13  27  1   
 29  16  28  1   
 30  16  29  1   
@<TRIPOS>SUBSTRUCTURE
  1 ****   4 GROUP 4 **** **** 0

# MOE 2024.06 (io_trps.svl 2023.06)
