@<TRIPOS>MOLECULE
NONAME
34 35 1 0 0 
SMALL
USER_CHARGES


@<TRIPOS>ATOM
  1 F       -0.4900    -1.0980    -0.5310 F     1 <1>  -0.3400 
  2 C        0.0760    -1.5140     0.6010 C.3   1 <1>   1.0810 
  3 F       -0.4740    -0.7850     1.5710 F     1 <1>  -0.3400 
  4 F       -0.3880    -2.7500     0.7850 F     1 <1>  -0.3400 
  5 C        1.6340    -1.4160     0.5810 C.2   1 <1>   0.4950 
  6 O        2.2520    -2.4180     0.9060 O.2   1 <1>  -0.5700 
  7 C        2.3260    -0.2010     0.1910 C.2   1 <1>  -0.1240 
  8 C        3.6890    -0.0950     0.0580 C.2   1 <1>  -0.0380 
  9 C        1.4570     1.0390    -0.1020 C.3   1 <1>  -0.0220 
 10 N        4.5490    -1.1390     0.3250 N.pl3 1 <1>  -0.6000 
 11 C        4.3970     1.1820    -0.4060 C.3   1 <1>  -0.0220 
 12 C        2.2230     2.3630    -0.1410 C.3   1 <1>  -0.1600 
 13 C        5.9470    -1.1910     0.3070 C.ar  1 <1>   0.1000 
 14 C        3.4580     2.2190    -1.0200 C.3   1 <1>  -0.1600 
 15 C        6.6010    -1.9710    -0.6390 C.ar  1 <1>  -0.1500 
 16 C        6.6990    -0.4810     1.2350 C.ar  1 <1>  -0.1500 
 17 C        7.9830    -2.0350    -0.6640 C.ar  1 <1>  -0.1500 
 18 C        8.0820    -0.5390     1.2170 C.ar  1 <1>  -0.1500 
 19 C        8.7180    -1.3180     0.2640 C.ar  1 <1>   0.0820 
 20 O       10.0590    -1.3860     0.2320 O.3   1 <1>  -0.5330 
 21 H        0.6930     1.1580     0.6440 H     1 <1>   0.0800 
 22 H        0.9760     0.9070    -1.0560 H     1 <1>   0.0800 
 23 H        4.0870    -2.0250     0.5940 H     1 <1>   0.4000 
 24 H        5.1470     0.9360    -1.1380 H     1 <1>   0.0800 
 25 H        4.8960     1.6190     0.4400 H     1 <1>   0.0800 
 26 H        2.5200     2.6410     0.8560 H     1 <1>   0.0800 
 27 H        1.5860     3.1400    -0.5280 H     1 <1>   0.0800 
 28 H        3.1680     1.9020    -2.0070 H     1 <1>   0.0800 
 29 H        3.9680     3.1620    -1.1060 H     1 <1>   0.0800 
 30 H        6.0200    -2.5230    -1.3550 H     1 <1>   0.1500 
 31 H        6.1890     0.1120     1.9720 H     1 <1>   0.1500 
 32 H        8.4940    -2.6350    -1.3950 H     1 <1>   0.1500 
 33 H        8.6510     0.0160     1.9400 H     1 <1>   0.1500 
 34 H       10.4760    -0.8530     0.9310 H     1 <1>   0.4500 
@<TRIPOS>BOND
  1   1   2  1   
  2   2   3  1   
  3   2   4  1   
  4   2   5  1   
  5   5   6  2   
  6   5   7  1   
  7   7   8  2   
  8   7   9  1   
  9   8  10  1   
 10   8  11  1   
 11   9  12  1   
 12   9  21  1   
 13   9  22  1   
 14  10  13  1   
 15  10  23  1   
 16  11  14  1   
 17  11  24  1   
 18  11  25  1   
 19  12  14  1   
 20  12  26  1   
 21  12  27  1   
 22  13  15  ar  
 23  13  16  ar  
 24  14  28  1   
 25  14  29  1   
 26  15  17  ar  
 27  15  30  1   
 28  16  18  ar  
 29  16  31  1   
 30  17  19  ar  
 31  17  32  1   
 32  18  19  ar  
 33  18  33  1   
 34  19  20  1   
 35  20  34  1   
@<TRIPOS>SUBSTRUCTURE
  1 ****   8 GROUP 4 **** **** 0

# MOE 2024.06 (io_trps.svl 2023.06)
