@<TRIPOS>MOLECULE
NONAME
35 35 1 0 0 
SMALL
USER_CHARGES


@<TRIPOS>ATOM
  1 S       -1.3990     0.5270     0.7890 S.3   1 <1>  -0.3320 
  2 C       -0.7310     2.0500     0.0690 C.ar  1 <1>   0.1020 
  3 C       -0.0310    -0.3300     1.6910 C.3   1 <1>  -0.0100 
  4 C       -1.5040     2.8090    -0.8260 C.ar  1 <1>   0.0860 
  5 C        0.5560     2.4360     0.4180 C.ar  1 <1>  -0.1500 
  6 C       -2.8650     2.5000    -1.2350 C.2   1 <1>   0.5440 
  7 C       -0.9020     3.9530    -1.3570 C.ar  1 <1>  -0.1500 
  8 C        1.1130     3.5790    -0.1240 C.ar  1 <1>  -0.1500 
  9 O       -3.2260     2.7300    -2.3740 O.2   1 <1>  -0.5700 
 10 N       -3.7840     1.9940    -0.3620 N.am  1 <1>  -0.7300 
 11 C        0.3810     4.3370    -1.0170 C.ar  1 <1>  -0.1500 
 12 C       -5.1840     1.6550    -0.6860 C.3   1 <1>   0.1400 
 13 C       -6.0580     1.9250     0.5410 C.3   1 <1>  -0.1600 
 14 C       -7.5580     1.7090     0.2710 C.3   1 <1>  -0.0800 
 15 C       -8.3720     2.1360     1.4970 C.3   1 <1>  -0.2400 
 16 C       -7.8780     0.2470    -0.0710 C.3   1 <1>  -0.2400 
 17 H       -0.4120    -1.2770     2.0310 H     1 <1>   0.0800 
 18 H        0.2570     0.2840     2.5250 H     1 <1>   0.0800 
 19 H        0.7830    -0.4740     1.0030 H     1 <1>   0.0800 
 20 H        1.1450     1.8670     1.1090 H     1 <1>   0.1500 
 21 H       -1.4610     4.5520    -2.0560 H     1 <1>   0.1500 
 22 H        2.1120     3.8780     0.1450 H     1 <1>   0.1500 
 23 H       -3.4290     1.6070     0.5170 H     1 <1>   0.3700 
 24 H        0.8100     5.2260    -1.4480 H     1 <1>   0.1500 
 25 H       -5.2320     0.6180    -0.9680 H     1 <1>   0.0800 
 26 H       -5.5190     2.2530    -1.5170 H     1 <1>   0.0800 
 27 H       -5.9060     2.9490     0.8380 H     1 <1>   0.0800 
 28 H       -5.7430     1.2880     1.3490 H     1 <1>   0.0800 
 29 H       -7.8530     2.3300    -0.5600 H     1 <1>   0.0800 
 30 H       -8.1110     1.5390     2.3530 H     1 <1>   0.0800 
 31 H       -9.4240     2.0210     1.3070 H     1 <1>   0.0800 
 32 H       -8.1840     3.1700     1.7300 H     1 <1>   0.0800 
 33 H       -7.5470    -0.4080     0.7150 H     1 <1>   0.0800 
 34 H       -7.4020    -0.0460    -0.9890 H     1 <1>   0.0800 
 35 H       -8.9390     0.1200    -0.1970 H     1 <1>   0.0800 
@<TRIPOS>BOND
  1   1   2  1   
  2   1   3  1   
  3   2   4  ar  
  4   2   5  ar  
  5   3  17  1   
  6   3  18  1   
  7   3  19  1   
  8   4   6  1   
  9   4   7  ar  
 10   5   8  ar  
 11   5  20  1   
 12   6   9  2   
 13   6  10  am  
 14   7  11  ar  
 15   7  21  1   
 16   8  11  ar  
 17   8  22  1   
 18  10  12  1   
 19  10  23  1   
 20  11  24  1   
 21  12  13  1   
 22  12  25  1   
 23  12  26  1   
 24  13  14  1   
 25  13  27  1   
 26  13  28  1   
 27  14  15  1   
 28  14  16  1   
 29  14  29  1   
 30  15  30  1   
 31  15  31  1   
 32  15  32  1   
 33  16  33  1   
 34  16  34  1   
 35  16  35  1   
@<TRIPOS>SUBSTRUCTURE
  1 ****  10 GROUP 4 **** **** 0

# MOE 2024.06 (io_trps.svl 2023.06)
