@<TRIPOS>MOLECULE
NONAME
32 32 1 0 0 
SMALL
USER_CHARGES


@<TRIPOS>ATOM
  1 BR       2.1450     0.1960    -3.5220 Br    1 <1>  -0.1110 
  2 C        2.6520     1.0460    -1.8730 C.ar  1 <1>   0.1110 
  3 C        3.6650     0.4850    -1.1190 C.ar  1 <1>  -0.1500 
  4 C        1.9910     2.1960    -1.4860 C.ar  1 <1>  -0.1500 
  5 C        4.0320     1.0950     0.0710 C.ar  1 <1>  -0.1440 
  6 C        2.3640     2.8030    -0.2990 C.ar  1 <1>  -0.1500 
  7 C        3.3790     2.2540     0.4720 C.ar  1 <1>  -0.1500 
  8 C        5.1390     0.4970     0.9220 C.3   1 <1>   0.2140 
  9 S        6.7260     0.9050     0.1430 S.3   1 <1>  -0.4600 
 10 C        7.9540     0.0720     1.2200 C.3   1 <1>   0.1310 
 11 C        9.3850     0.2660     0.7300 C.2   1 <1>   0.5690 
 12 O       10.2670    -0.2790     1.3490 O.2   1 <1>  -0.5700 
 13 N        9.6100     1.0350    -0.3700 N.am  1 <1>  -0.7300 
 14 C       10.8830     1.3690    -1.0320 C.3   1 <1>   0.2200 
 15 C       11.5490     0.0980    -1.5530 C.3   1 <1>  -0.2400 
 16 C       11.7870     2.1380    -0.0720 C.3   1 <1>  -0.2400 
 17 H        4.1560    -0.4080    -1.4630 H     1 <1>   0.1500 
 18 H        1.2070     2.6040    -2.0990 H     1 <1>   0.1500 
 19 H        1.8670     3.7010     0.0250 H     1 <1>   0.1500 
 20 H        3.6610     2.7410     1.3900 H     1 <1>   0.1500 
 21 H        5.0640    -0.5750     0.9660 H     1 <1>   0.0800 
 22 H        5.1490     0.9100     1.9140 H     1 <1>   0.0800 
 23 H        7.7140    -0.9750     1.2310 H     1 <1>   0.0800 
 24 H        7.8490     0.4830     2.2060 H     1 <1>   0.0800 
 25 H        8.7780     1.4360    -0.8130 H     1 <1>   0.3700 
 26 H       10.6620     2.0050    -1.8730 H     1 <1>   0.0800 
 27 H       11.8260    -0.5480    -0.7390 H     1 <1>   0.0800 
 28 H       12.4380     0.3500    -2.1010 H     1 <1>   0.0800 
 29 H       10.8800    -0.4280    -2.2100 H     1 <1>   0.0800 
 30 H       12.0690     1.5210     0.7620 H     1 <1>   0.0800 
 31 H       11.2810     3.0140     0.2910 H     1 <1>   0.0800 
 32 H       12.6810     2.4470    -0.5810 H     1 <1>   0.0800 
@<TRIPOS>BOND
  1   1   2  1   
  2   2   3  ar  
  3   2   4  ar  
  4   3   5  ar  
  5   3  17  1   
  6   4   6  ar  
  7   4  18  1   
  8   5   7  ar  
  9   5   8  1   
 10   6   7  ar  
 11   6  19  1   
 12   7  20  1   
 13   8   9  1   
 14   8  21  1   
 15   8  22  1   
 16   9  10  1   
 17  10  11  1   
 18  10  23  1   
 19  10  24  1   
 20  11  12  2   
 21  11  13  am  
 22  13  14  1   
 23  13  25  1   
 24  14  15  1   
 25  14  16  1   
 26  14  26  1   
 27  15  27  1   
 28  15  28  1   
 29  15  29  1   
 30  16  30  1   
 31  16  31  1   
 32  16  32  1   
@<TRIPOS>SUBSTRUCTURE
  1 ****   9 GROUP 4 **** **** 0

# MOE 2024.06 (io_trps.svl 2023.06)
