@<TRIPOS>MOLECULE
NONAME
44 45 1 0 0 
SMALL
USER_CHARGES


@<TRIPOS>ATOM
  1 CL      -0.6260    -1.9030    -0.4930 Cl    1 <1>  -0.1770 
  2 C       -1.9900    -0.8270    -0.3090 C.ar  1 <1>   0.1770 
  3 C       -2.4520    -0.1220    -1.4040 C.ar  1 <1>  -0.1500 
  4 C       -2.5890    -0.6970     0.9290 C.ar  1 <1>  -0.1500 
  5 C       -3.5330     0.7290    -1.2540 C.ar  1 <1>  -0.1500 
  6 C       -3.6690     0.1570     1.0700 C.ar  1 <1>  -0.1500 
  7 C       -4.1530     0.8830    -0.0150 C.ar  1 <1>   0.1170 
  8 N       -5.2550     1.7240     0.1890 N.am  1 <1>  -0.5470 
  9 C       -5.7250     2.8040    -0.5120 C.2   1 <1>   0.5690 
 10 O       -5.1670     3.2430    -1.4870 O.2   1 <1>  -0.5700 
 11 C       -6.9960     3.5140    -0.0700 C.3   1 <1>   0.0420 
 12 C       -7.0330     3.6300     1.4550 C.2   1 <1>   0.6590 
 13 C       -8.2750     2.8970    -0.6990 C.3   1 <1>  -0.0800 
 14 O       -6.9390     2.6500     2.1490 O.2   1 <1>  -0.5700 
 15 O       -7.1800     4.8140     2.0460 O.3   1 <1>  -0.4300 
 16 C       -9.5190     3.7500    -0.3770 C.3   1 <1>  -0.1600 
 17 C       -8.5280     1.4230    -0.3130 C.3   1 <1>  -0.1600 
 18 C       -7.1580     6.0880     1.4440 C.3   1 <1>   0.1200 
 19 C      -10.7770     3.1950    -1.0590 C.3   1 <1>  -0.1600 
 20 C       -9.7870     0.8720    -0.9950 C.3   1 <1>  -0.1600 
 21 C       -7.3130     7.1270     2.5480 C.3   1 <1>  -0.2400 
 22 C      -11.0140     1.7310    -0.6730 C.3   1 <1>  -0.1600 
 23 H       -1.9710    -0.2390    -2.3590 H     1 <1>   0.1500 
 24 H       -2.2120    -1.2560     1.7660 H     1 <1>   0.1500 
 25 H       -3.8940     1.2720    -2.1080 H     1 <1>   0.1500 
 26 H       -4.1380     0.2640     2.0320 H     1 <1>   0.1500 
 27 H       -5.7650     1.5560     1.0670 H     1 <1>   0.3700 
 28 H       -6.9140     4.4960    -0.4870 H     1 <1>   0.0800 
 29 H       -8.1370     2.9230    -1.7680 H     1 <1>   0.0800 
 30 H       -9.3670     4.7620    -0.7110 H     1 <1>   0.0800 
 31 H       -9.6870     3.7710     0.6870 H     1 <1>   0.0800 
 32 H       -8.6510     1.3320     0.7520 H     1 <1>   0.0800 
 33 H       -7.6930     0.8100    -0.6040 H     1 <1>   0.0800 
 34 H       -7.9750     6.1570     0.7460 H     1 <1>   0.0800 
 35 H       -6.2170     6.2140     0.9350 H     1 <1>   0.0800 
 36 H      -10.6670     3.2680    -2.1280 H     1 <1>   0.0800 
 37 H      -11.6320     3.7840    -0.7750 H     1 <1>   0.0800 
 38 H       -9.9600    -0.1390    -0.6670 H     1 <1>   0.0800 
 39 H       -9.6360     0.8500    -2.0610 H     1 <1>   0.0800 
 40 H       -8.2470     6.9860     3.0620 H     1 <1>   0.0800 
 41 H       -7.3000     8.1150     2.1250 H     1 <1>   0.0800 
 42 H       -6.5030     7.0450     3.2500 H     1 <1>   0.0800 
 43 H      -11.8700     1.3520    -1.2050 H     1 <1>   0.0800 
 44 H      -11.2270     1.6690     0.3810 H     1 <1>   0.0800 
@<TRIPOS>BOND
  1   1   2  1   
  2   2   3  ar  
  3   2   4  ar  
  4   3   5  ar  
  5   3  23  1   
  6   4   6  ar  
  7   4  24  1   
  8   5   7  ar  
  9   5  25  1   
 10   6   7  ar  
 11   6  26  1   
 12   7   8  1   
 13   8   9  am  
 14   8  27  1   
 15   9  10  2   
 16   9  11  1   
 17  11  12  1   
 18  11  13  1   
 19  11  28  1   
 20  12  14  2   
 21  12  15  1   
 22  13  16  1   
 23  13  17  1   
 24  13  29  1   
 25  15  18  1   
 26  16  19  1   
 27  16  30  1   
 28  16  31  1   
 29  17  20  1   
 30  17  32  1   
 31  17  33  1   
 32  18  21  1   
 33  18  34  1   
 34  18  35  1   
 35  19  22  1   
 36  19  36  1   
 37  19  37  1   
 38  20  22  1   
 39  20  38  1   
 40  20  39  1   
 41  21  40  1   
 42  21  41  1   
 43  21  42  1   
 44  22  43  1   
 45  22  44  1   
@<TRIPOS>SUBSTRUCTURE
  1 ****   9 GROUP 4 **** **** 0

# MOE 2024.06 (io_trps.svl 2023.06)
