@<TRIPOS>MOLECULE
NONAME
32 32 1 0 0 
SMALL
USER_CHARGES


@<TRIPOS>ATOM
  1 CL       1.1960    -0.5130     3.3400 Cl    1 <1>  -0.1770 
  2 C        1.4410    -1.8180     2.2090 C.ar  1 <1>   0.1770 
  3 C        0.7700    -3.0110     2.4020 C.ar  1 <1>  -0.1500 
  4 C        2.2980    -1.6400     1.1410 C.ar  1 <1>  -0.1500 
  5 C        0.9580    -4.0540     1.5060 C.ar  1 <1>  -0.1440 
  6 C        2.4890    -2.6770     0.2440 C.ar  1 <1>  -0.1500 
  7 C        1.8190    -3.8870     0.4210 C.ar  1 <1>   0.0830 
  8 C        0.2390    -5.3710     1.7110 C.3   1 <1>   0.4870 
  9 O        1.9530    -4.9380    -0.4320 O.3   1 <1>  -0.3630 
 10 N       -0.6100    -5.5970     0.5300 N.4   1 <1>  -0.9060 
 11 C        2.9360    -4.9390    -1.4470 C.3   1 <1>   0.1200 
 12 C       -1.2560    -6.9100     0.4780 C.3   1 <1>   0.4810 
 13 C        2.8790    -6.2890    -2.1550 C.3   1 <1>  -0.2400 
 14 C       -2.1030    -6.9010    -0.7690 C.2   1 <1>  -0.2880 
 15 C       -3.4400    -6.8760    -0.7940 C.2   1 <1>  -0.3000 
 16 H        0.1170    -3.1000     3.2530 H     1 <1>   0.1500 
 17 H        2.8080    -0.7000     1.0180 H     1 <1>   0.1500 
 18 H        3.1590    -2.5160    -0.5820 H     1 <1>   0.1500 
 19 H       -0.3580    -5.3380     2.6080 H     1 <1>   0.0800 
 20 H        0.9690    -6.1600     1.8030 H     1 <1>   0.0800 
 21 H        0.0140    -5.4820    -0.2840 H     1 <1>   0.4500 
 22 H       -1.3180    -4.8600     0.4500 H     1 <1>   0.4500 
 23 H        3.9010    -4.7890    -0.9920 H     1 <1>   0.0800 
 24 H        2.7230    -4.1410    -2.1380 H     1 <1>   0.0800 
 25 H       -1.8820    -7.0530     1.3440 H     1 <1>   0.0800 
 26 H       -0.5240    -7.7020     0.4330 H     1 <1>   0.0800 
 27 H        3.0810    -7.0850    -1.4610 H     1 <1>   0.0800 
 28 H        3.6260    -6.3200    -2.9290 H     1 <1>   0.0800 
 29 H        1.9170    -6.4360    -2.6110 H     1 <1>   0.0800 
 30 H       -1.5170    -6.9220    -1.6740 H     1 <1>   0.1500 
 31 H       -4.0210    -6.8740    -1.7040 H     1 <1>   0.1500 
 32 H       -4.0800    -6.8590     0.0740 H     1 <1>   0.1500 
@<TRIPOS>BOND
  1   1   2  1   
  2   2   3  ar  
  3   2   4  ar  
  4   3   5  ar  
  5   3  16  1   
  6   4   6  ar  
  7   4  17  1   
  8   5   7  ar  
  9   5   8  1   
 10   6   7  ar  
 11   6  18  1   
 12   7   9  1   
 13   8  10  1   
 14   8  19  1   
 15   8  20  1   
 16   9  11  1   
 17  10  12  1   
 18  10  21  1   
 19  10  22  1   
 20  11  13  1   
 21  11  23  1   
 22  11  24  1   
 23  12  14  1   
 24  12  25  1   
 25  12  26  1   
 26  13  27  1   
 27  13  28  1   
 28  13  29  1   
 29  14  15  2   
 30  14  30  1   
 31  15  31  1   
 32  15  32  1   
@<TRIPOS>SUBSTRUCTURE
  1 ****   5 GROUP 4 **** **** 0

# MOE 2024.06 (io_trps.svl 2023.06)
