@<TRIPOS>MOLECULE
NONAME
43 44 1 0 0 
SMALL
USER_CHARGES


@<TRIPOS>ATOM
  1 O       -7.4960     1.9110    -0.7580 O.2   1 <1>  -0.5700 
  2 C       -8.3500     1.5960     0.0350 C.2   1 <1>   0.5690 
  3 N       -8.5450     0.2930     0.3200 N.am  1 <1>  -0.8000 
  4 C       -9.1970     2.6710     0.7110 C.3   1 <1>   0.1810 
  5 O       -8.4620     3.8860     0.8260 O.3   1 <1>  -0.3630 
  6 C       -8.9470     4.9620     0.1520 C.ar  1 <1>   0.0830 
  7 C      -10.1800     5.5250     0.4940 C.ar  1 <1>   0.0830 
  8 C       -8.1750     5.5080    -0.8690 C.ar  1 <1>  -0.1430 
  9 O      -10.8840     4.9640     1.5180 O.3   1 <1>  -0.3630 
 10 C      -10.6360     6.6330    -0.2130 C.ar  1 <1>  -0.1500 
 11 C       -8.6480     6.6140    -1.5610 C.ar  1 <1>  -0.1500 
 12 C       -6.8290     4.9150    -1.2380 C.3   1 <1>   0.4860 
 13 C      -12.0680     5.5560     2.0110 C.3   1 <1>   0.0400 
 14 C       -9.8720     7.1700    -1.2340 C.ar  1 <1>  -0.1500 
 15 N       -5.9930     4.9450    -0.0260 N.4   1 <1>  -0.9060 
 16 C       -4.5690     4.6270    -0.2040 C.3   1 <1>   0.4230 
 17 C       -4.3880     3.1300    -0.4300 C.3   1 <1>  -0.1600 
 18 C       -3.8780     4.8450     1.1360 C.3   1 <1>  -0.1600 
 19 C       -4.4990     2.4830     0.9560 C.3   1 <1>  -0.1600 
 20 C       -4.1740     3.5900     1.9670 C.3   1 <1>  -0.1600 
 21 H       -7.9830    -0.4160    -0.1570 H     1 <1>   0.3700 
 22 H       -9.2520    -0.0660     0.9640 H     1 <1>   0.3700 
 23 H       -9.4730     2.3630     1.7030 H     1 <1>   0.0800 
 24 H      -10.0870     2.8390     0.1320 H     1 <1>   0.0800 
 25 H      -11.5800     7.0930     0.0110 H     1 <1>   0.1500 
 26 H       -8.0770     7.0550    -2.3610 H     1 <1>   0.1500 
 27 H       -6.3740     5.5010    -2.0190 H     1 <1>   0.0800 
 28 H       -6.9510     3.9040    -1.5900 H     1 <1>   0.0800 
 29 H      -12.4110     4.9730     2.8470 H     1 <1>   0.0800 
 30 H      -12.8120     5.5520     1.2350 H     1 <1>   0.0800 
 31 H      -11.8500     6.5590     2.3330 H     1 <1>   0.0800 
 32 H      -10.2350     8.0280    -1.7770 H     1 <1>   0.1500 
 33 H       -6.4140     4.2530     0.6110 H     1 <1>   0.4500 
 34 H       -6.1160     5.8530     0.4280 H     1 <1>   0.4500 
 35 H       -4.1310     5.2230    -0.9890 H     1 <1>   0.0800 
 36 H       -3.3910     2.9660    -0.8020 H     1 <1>   0.0800 
 37 H       -5.0760     2.7110    -1.1420 H     1 <1>   0.0800 
 38 H       -4.1820     5.7520     1.6300 H     1 <1>   0.0800 
 39 H       -2.8170     4.8980     0.9630 H     1 <1>   0.0800 
 40 H       -3.8160     1.6550     1.0470 H     1 <1>   0.0800 
 41 H       -5.4990     2.1170     1.1210 H     1 <1>   0.0800 
 42 H       -5.0210     3.7560     2.6120 H     1 <1>   0.0800 
 43 H       -3.3270     3.3250     2.5780 H     1 <1>   0.0800 
@<TRIPOS>BOND
  1   1   2  2   
  2   2   3  am  
  3   2   4  1   
  4   3  21  1   
  5   3  22  1   
  6   4   5  1   
  7   4  23  1   
  8   4  24  1   
  9   5   6  1   
 10   6   7  ar  
 11   6   8  ar  
 12   7   9  1   
 13   7  10  ar  
 14   8  11  ar  
 15   8  12  1   
 16   9  13  1   
 17  10  14  ar  
 18  10  25  1   
 19  11  14  ar  
 20  11  26  1   
 21  12  15  1   
 22  12  27  1   
 23  12  28  1   
 24  13  29  1   
 25  13  30  1   
 26  13  31  1   
 27  14  32  1   
 28  15  16  1   
 29  15  33  1   
 30  15  34  1   
 31  16  17  1   
 32  16  18  1   
 33  16  35  1   
 34  17  19  1   
 35  17  36  1   
 36  17  37  1   
 37  18  20  1   
 38  18  38  1   
 39  18  39  1   
 40  19  20  1   
 41  19  40  1   
 42  19  41  1   
 43  20  42  1   
 44  20  43  1   
@<TRIPOS>SUBSTRUCTURE
  1 ****   5 GROUP 4 **** **** 0

# MOE 2024.06 (io_trps.svl 2023.06)
