@<TRIPOS>MOLECULE
NONAME
36 36 1 0 0 
SMALL
USER_CHARGES


@<TRIPOS>ATOM
  1 O        4.2220    -5.3290    -0.1280 O.3   1 <1>  -0.3630 
  2 C        2.8680    -5.2380    -0.0830 C.ar  1 <1>   0.0830 
  3 C        5.0260    -4.1840    -0.2960 C.3   1 <1>   0.2580 
  4 C        2.1610    -4.0430    -0.1980 C.ar  1 <1>  -0.1500 
  5 C        2.1730    -6.4240     0.0890 C.ar  1 <1>  -0.1500 
  6 C        6.4770    -4.6250    -0.3110 C.2   1 <1>  -0.2880 
  7 C        0.7770    -4.0430    -0.1420 C.ar  1 <1>  -0.1500 
  8 C        0.7920    -6.4260     0.1450 C.ar  1 <1>  -0.1500 
  9 C        7.4330    -4.1820     0.5120 C.2   1 <1>  -0.3000 
 10 C        0.0840    -5.2400     0.0300 C.ar  1 <1>   0.0830 
 11 O       -1.2700    -5.3310     0.0960 O.3   1 <1>  -0.3630 
 12 C       -2.0850    -4.1910    -0.0060 C.3   1 <1>   0.1200 
 13 C       -3.5360    -4.6660     0.1110 C.3   1 <1>   0.3430 
 14 N       -4.5060    -3.5330     0.0170 N.4   1 <1>  -0.9060 
 15 C       -5.9070    -3.9930     0.1300 C.3   1 <1>   0.3430 
 16 C       -6.8140    -2.7770     0.0220 C.3   1 <1>  -0.2400 
 17 H        4.8380    -3.5110     0.5220 H     1 <1>   0.0800 
 18 H        4.7660    -3.7200    -1.2310 H     1 <1>   0.0800 
 19 H        2.6700    -3.1070    -0.3320 H     1 <1>   0.1500 
 20 H        2.7240    -7.3440     0.1780 H     1 <1>   0.1500 
 21 H        6.6640    -5.3600    -1.0750 H     1 <1>   0.1500 
 22 H        0.2680    -3.1040    -0.2350 H     1 <1>   0.1500 
 23 H        0.2600    -7.3510     0.2790 H     1 <1>   0.1500 
 24 H        8.4550    -4.5180     0.4780 H     1 <1>   0.1500 
 25 H        7.2770    -3.4520     1.2890 H     1 <1>   0.1500 
 26 H       -1.9010    -3.7350    -0.9630 H     1 <1>   0.0800 
 27 H       -1.8280    -3.5250     0.8000 H     1 <1>   0.0800 
 28 H       -3.6570    -5.1690     1.0580 H     1 <1>   0.0800 
 29 H       -3.7290    -5.3750    -0.6780 H     1 <1>   0.0800 
 30 H       -4.3920    -3.0430    -0.8800 H     1 <1>   0.4500 
 31 H       -4.3240    -2.8470     0.7610 H     1 <1>   0.4500 
 32 H       -6.0650    -4.4840     1.0780 H     1 <1>   0.0800 
 33 H       -6.1370    -4.6910    -0.6610 H     1 <1>   0.0800 
 34 H       -6.6220    -2.0790     0.8180 H     1 <1>   0.0800 
 35 H       -7.8400    -3.0930     0.1020 H     1 <1>   0.0800 
 36 H       -6.6940    -2.2870    -0.9280 H     1 <1>   0.0800 
@<TRIPOS>BOND
  1   1   2  1   
  2   1   3  1   
  3   2   4  ar  
  4   2   5  ar  
  5   3   6  1   
  6   3  17  1   
  7   3  18  1   
  8   4   7  ar  
  9   4  19  1   
 10   5   8  ar  
 11   5  20  1   
 12   6   9  2   
 13   6  21  1   
 14   7  10  ar  
 15   7  22  1   
 16   8  10  ar  
 17   8  23  1   
 18   9  24  1   
 19   9  25  1   
 20  10  11  1   
 21  11  12  1   
 22  12  13  1   
 23  12  26  1   
 24  12  27  1   
 25  13  14  1   
 26  13  28  1   
 27  13  29  1   
 28  14  15  1   
 29  14  30  1   
 30  14  31  1   
 31  15  16  1   
 32  15  32  1   
 33  15  33  1   
 34  16  34  1   
 35  16  35  1   
 36  16  36  1   
@<TRIPOS>SUBSTRUCTURE
  1 ****   7 GROUP 4 **** **** 0

# MOE 2024.06 (io_trps.svl 2023.06)
