@<TRIPOS>MOLECULE
NONAME
29 30 1 0 0 
SMALL
USER_CHARGES


@<TRIPOS>ATOM
  1 BR      -1.7260    -1.1350    -1.4390 Br    1 <1>  -0.1110 
  2 C       -0.5510    -2.2560    -0.4080 C.ar  1 <1>   0.1110 
  3 C        0.6090    -2.7220    -0.9940 C.ar  1 <1>  -0.1500 
  4 C       -0.9020    -2.5640     0.8910 C.ar  1 <1>  -0.1500 
  5 C        1.4880    -3.5350    -0.2740 C.ar  1 <1>   0.0860 
  6 C       -0.0500    -3.3750     1.6200 C.ar  1 <1>  -0.1500 
  7 C        1.1170    -3.8490     1.0410 C.ar  1 <1>   0.1770 
  8 C        2.7040    -4.0000    -0.9140 C.2   1 <1>   0.5440 
  9 CL       2.1060    -4.8830     2.0480 Cl    1 <1>  -0.1770 
 10 O        2.7040    -4.2530    -2.1020 O.2   1 <1>  -0.5700 
 11 N        3.8730    -4.1300    -0.2230 N.am  1 <1>  -0.7300 
 12 C        5.1460    -4.6370    -0.7610 C.3   1 <1>   0.2200 
 13 C        5.4410    -5.9860    -0.1180 C.3   1 <1>  -0.1600 
 14 C        6.2760    -3.7520    -0.2510 C.3   1 <1>  -0.1600 
 15 C        6.0340    -5.6700     1.2600 C.3   1 <1>  -0.1600 
 16 C        6.5750    -4.2360     1.1730 C.3   1 <1>  -0.1600 
 17 H        0.8370    -2.4570    -2.0130 H     1 <1>   0.1500 
 18 H       -1.8140    -2.1820     1.3160 H     1 <1>   0.1500 
 19 H       -0.2900    -3.6430     2.6340 H     1 <1>   0.1500 
 20 H        3.8660    -4.0450     0.7940 H     1 <1>   0.3700 
 21 H        5.1170    -4.6900    -1.8380 H     1 <1>   0.0800 
 22 H        6.1830    -6.4900    -0.7120 H     1 <1>   0.0800 
 23 H        4.5650    -6.6090    -0.0630 H     1 <1>   0.0800 
 24 H        6.0240    -2.7070    -0.2930 H     1 <1>   0.0800 
 25 H        7.1420    -3.9210    -0.8660 H     1 <1>   0.0800 
 26 H        6.8110    -6.3710     1.5130 H     1 <1>   0.0800 
 27 H        5.2630    -5.7220     2.0100 H     1 <1>   0.0800 
 28 H        6.0650    -3.6130     1.8880 H     1 <1>   0.0800 
 29 H        7.6320    -4.2020     1.3750 H     1 <1>   0.0800 
@<TRIPOS>BOND
  1   1   2  1   
  2   2   3  ar  
  3   2   4  ar  
  4   3   5  ar  
  5   3  17  1   
  6   4   6  ar  
  7   4  18  1   
  8   5   7  ar  
  9   5   8  1   
 10   6   7  ar  
 11   6  19  1   
 12   7   9  1   
 13   8  10  2   
 14   8  11  am  
 15  11  12  1   
 16  11  20  1   
 17  12  13  1   
 18  12  14  1   
 19  12  21  1   
 20  13  15  1   
 21  13  22  1   
 22  13  23  1   
 23  14  16  1   
 24  14  24  1   
 25  14  25  1   
 26  15  16  1   
 27  15  26  1   
 28  15  27  1   
 29  16  28  1   
 30  16  29  1   
@<TRIPOS>SUBSTRUCTURE
  1 ****   8 GROUP 4 **** **** 0

# MOE 2024.06 (io_trps.svl 2023.06)
