@<TRIPOS>MOLECULE
NONAME
36 37 1 0 0 
SMALL
USER_CHARGES


@<TRIPOS>ATOM
  1 S       -0.5920     0.3230     0.2370 S.3   1 <1>  -0.2860 
  2 C        1.1120     0.8780     0.2840 C.2   1 <1>   0.2420 
  3 C       -1.4110     1.6270    -0.8090 C.3   1 <1>   0.1310 
  4 N        1.5070     1.9600    -0.2980 N.2   1 <1>  -0.5650 
  5 N        2.0660     0.1810     0.9390 N.pl3 1 <1>   0.0480 
  6 C       -2.9060     1.3850    -0.9540 C.2   1 <1>   0.5690 
  7 C        2.8240     1.9810    -0.0070 C.2   1 <1>   0.0770 
  8 C        3.1820     0.9110     0.7420 C.2   1 <1>  -0.3020 
  9 C        1.9320    -1.0790     1.6900 C.3   1 <1>   0.0160 
 10 O       -3.5070     1.9990    -1.8020 O.2   1 <1>  -0.5700 
 11 N       -3.5310     0.5000    -0.1320 N.am  1 <1>  -0.7300 
 12 C       -4.9610     0.1630    -0.1560 C.3   1 <1>   0.2200 
 13 C       -5.5660     0.4760     1.2160 C.3   1 <1>  -0.1600 
 14 C       -5.1130    -1.3210    -0.5070 C.3   1 <1>  -0.1600 
 15 C       -7.0370     0.0400     1.2870 C.3   1 <1>  -0.1600 
 16 C       -6.5830    -1.7600    -0.4390 C.3   1 <1>  -0.1600 
 17 C       -7.1940    -1.4450     0.9340 C.3   1 <1>  -0.1600 
 18 H       -0.9340     1.6060    -1.7710 H     1 <1>   0.0800 
 19 H       -1.2300     2.5740    -0.3360 H     1 <1>   0.0800 
 20 H        3.4580     2.7790    -0.3580 H     1 <1>   0.1500 
 21 H        4.1460     0.6410     1.1330 H     1 <1>   0.1500 
 22 H        1.5570    -1.8440     1.0340 H     1 <1>   0.0800 
 23 H        1.2450    -0.9350     2.5040 H     1 <1>   0.0800 
 24 H        2.8910    -1.3750     2.0750 H     1 <1>   0.0800 
 25 H       -2.9670    -0.0150     0.5460 H     1 <1>   0.3700 
 26 H       -5.4610     0.7550    -0.9050 H     1 <1>   0.0800 
 27 H       -5.4990     1.5340     1.3990 H     1 <1>   0.0800 
 28 H       -5.0110    -0.0390     1.9810 H     1 <1>   0.0800 
 29 H       -4.5390    -1.9150     0.1820 H     1 <1>   0.0800 
 30 H       -4.7370    -1.4890    -1.5010 H     1 <1>   0.0800 
 31 H       -7.6170     0.6320     0.5990 H     1 <1>   0.0800 
 32 H       -7.4190     0.2190     2.2780 H     1 <1>   0.0800 
 33 H       -6.6550    -2.8160    -0.6330 H     1 <1>   0.0800 
 34 H       -7.1430    -1.2460    -1.2030 H     1 <1>   0.0800 
 35 H       -8.2380    -1.7070     0.9320 H     1 <1>   0.0800 
 36 H       -6.7070    -2.0430     1.6860 H     1 <1>   0.0800 
@<TRIPOS>BOND
  1   1   2  1   
  2   1   3  1   
  3   2   4  2   
  4   2   5  1   
  5   3   6  1   
  6   3  18  1   
  7   3  19  1   
  8   4   7  1   
  9   5   8  1   
 10   5   9  1   
 11   6  10  2   
 12   6  11  am  
 13   7   8  2   
 14   7  20  1   
 15   8  21  1   
 16   9  22  1   
 17   9  23  1   
 18   9  24  1   
 19  11  12  1   
 20  11  25  1   
 21  12  13  1   
 22  12  14  1   
 23  12  26  1   
 24  13  15  1   
 25  13  27  1   
 26  13  28  1   
 27  14  16  1   
 28  14  29  1   
 29  14  30  1   
 30  15  17  1   
 31  15  31  1   
 32  15  32  1   
 33  16  17  1   
 34  16  33  1   
 35  16  34  1   
 36  17  35  1   
 37  17  36  1   
@<TRIPOS>SUBSTRUCTURE
  1 ****  11 GROUP 4 **** **** 0

# MOE 2024.06 (io_trps.svl 2023.06)
