@<TRIPOS>MOLECULE
NONAME
41 43 1 0 0 
SMALL
USER_CHARGES


@<TRIPOS>ATOM
  1 S       -1.1430     0.4440     0.0340 S.3   1 <1>  -0.0800 
  2 C       -2.8100    -0.1250     0.2110 C.2   1 <1>  -0.0450 
  3 C       -1.5750     2.0900     0.4410 C.2   1 <1>  -0.1100 
  4 C       -3.1510    -1.5090    -0.0090 C.2   1 <1>   0.5210 
  5 C       -3.5830     0.9380     0.5600 C.2   1 <1>  -0.1500 
  6 C       -2.8940     2.1780     0.6890 C.2   1 <1>  -0.1500 
  7 N       -4.4060    -1.8650     0.1110 N.2   1 <1>  -0.5760 
  8 C       -2.1600    -2.4880    -0.3490 C.2   1 <1>  -0.1360 
  9 C       -4.7230    -3.1820    -0.0980 C.2   1 <1>  -0.0260 
 10 C       -2.4880    -3.7960    -0.5550 C.2   1 <1>  -0.1690 
 11 N       -3.8050    -4.1500    -0.4260 N.pl3 1 <1>   0.6010 
 12 C       -5.9430    -3.8090    -0.0320 C.2   1 <1>  -0.0860 
 13 C       -1.5370    -4.9170    -0.9170 C.3   1 <1>   1.1580 
 14 N       -4.3930    -5.3520    -0.5690 N.2   1 <1>  -0.7070 
 15 C       -7.2340    -3.2740     0.2740 C.2   1 <1>   0.7160 
 16 C       -5.6530    -5.1350    -0.3330 C.2   1 <1>   0.1390 
 17 F       -0.2910    -4.4700    -1.0180 F     1 <1>  -0.3400 
 18 F       -1.4960    -5.8830    -0.0090 F     1 <1>  -0.3400 
 19 F       -1.8100    -5.4800    -2.0860 F     1 <1>  -0.3400 
 20 O       -8.2210    -3.9850     0.3130 O.2   1 <1>  -0.5700 
 21 N       -7.3620    -1.9440     0.5220 N.am  1 <1>  -0.7300 
 22 C       -8.5630    -1.2580     1.0290 C.3   1 <1>   0.2200 
 23 C       -9.5520    -1.0170    -0.1250 C.3   1 <1>   0.1200 
 24 C       -8.0940     0.0380     1.6930 C.3   1 <1>  -0.2400 
 25 O      -10.6500    -0.2800     0.3280 O.3   1 <1>  -0.5600 
 26 C      -11.6270    -0.0770    -0.6400 C.3   1 <1>   0.0400 
 27 H       -0.7900     2.8260     0.4520 H     1 <1>   0.1500 
 28 H       -4.6440     0.8830     0.7340 H     1 <1>   0.1500 
 29 H       -3.4160     3.0790     0.9620 H     1 <1>   0.1500 
 30 H       -1.1400    -2.1600    -0.4370 H     1 <1>   0.1500 
 31 H       -6.4030    -5.9110    -0.3670 H     1 <1>   0.1500 
 32 H       -6.4930    -1.4000     0.5040 H     1 <1>   0.3700 
 33 H       -9.0410    -1.8890     1.7600 H     1 <1>   0.0800 
 34 H       -9.9050    -1.9620    -0.5000 H     1 <1>   0.0800 
 35 H       -9.0740    -0.4610    -0.9130 H     1 <1>   0.0800 
 36 H       -7.6440     0.6930     0.9700 H     1 <1>   0.0800 
 37 H       -7.3930    -0.1780     2.4780 H     1 <1>   0.0800 
 38 H       -8.9370     0.5440     2.1280 H     1 <1>   0.0800 
 39 H      -12.4210     0.4980    -0.1980 H     1 <1>   0.0800 
 40 H      -12.0070    -1.0300    -0.9650 H     1 <1>   0.0800 
 41 H      -11.2020     0.4650    -1.4660 H     1 <1>   0.0800 
@<TRIPOS>BOND
  1   1   2  1   
  2   1   3  1   
  3   2   4  1   
  4   2   5  2   
  5   3   6  2   
  6   3  27  1   
  7   4   7  2   
  8   4   8  1   
  9   5   6  1   
 10   5  28  1   
 11   6  29  1   
 12   7   9  1   
 13   8  10  2   
 14   8  30  1   
 15   9  11  1   
 16   9  12  2   
 17  10  11  1   
 18  10  13  1   
 19  11  14  1   
 20  12  15  1   
 21  12  16  1   
 22  13  17  1   
 23  13  18  1   
 24  13  19  1   
 25  14  16  2   
 26  15  20  2   
 27  15  21  am  
 28  16  31  1   
 29  21  22  1   
 30  21  32  1   
 31  22  23  1   
 32  22  24  1   
 33  22  33  1   
 34  23  25  1   
 35  23  34  1   
 36  23  35  1   
 37  24  36  1   
 38  24  37  1   
 39  24  38  1   
 40  25  26  1   
 41  26  39  1   
 42  26  40  1   
 43  26  41  1   
@<TRIPOS>SUBSTRUCTURE
  1 ****   7 GROUP 4 **** **** 0

# MOE 2024.06 (io_trps.svl 2023.06)
