@<TRIPOS>MOLECULE
NONAME
37 38 1 0 0 
SMALL
USER_CHARGES


@<TRIPOS>ATOM
  1 O       -0.4930     0.1730     0.0120 O.2   1 <1>  -0.5700 
  2 C       -1.4800     0.8790     0.0090 C.2   1 <1>   0.7060 
  3 O       -2.6710     0.2690     0.0100 O.3   1 <1>  -0.2320 
  4 C       -1.4480     2.3120     0.0060 C.2   1 <1>   0.0790 
  5 C       -3.8460     0.9370     0.0070 C.ar  1 <1>   0.0830 
  6 C       -0.1650     2.9370     0.0060 C.1   1 <1>   0.4920 
  7 C       -2.6080     3.0160     0.0040 C.2   1 <1>  -0.1780 
  8 C       -3.8600     2.3360     0.0040 C.ar  1 <1>   0.0280 
  9 C       -5.0300     0.2240     0.0080 C.ar  1 <1>  -0.1500 
 10 N        0.8290     3.4950     0.0050 N.1   1 <1>  -0.5570 
 11 C       -5.0930     2.9910     0.0020 C.ar  1 <1>  -0.1500 
 12 C       -6.2370     0.8940     0.0060 C.ar  1 <1>   0.0830 
 13 C       -6.2900     2.2910     0.0030 C.ar  1 <1>  -0.1440 
 14 O       -7.3570     0.1590     0.0060 O.3   1 <1>  -0.5320 
 15 C       -7.6570     2.9890     0.0000 C.3   1 <1>  -0.0170 
 16 C       -7.6240     4.5250    -0.0030 C.3   1 <1>  -0.1600 
 17 C       -9.0420     5.1130    -0.0050 C.3   1 <1>  -0.1600 
 18 C       -9.0040     6.6460    -0.0080 C.3   1 <1>  -0.1600 
 19 C      -10.4190     7.2340    -0.0100 C.3   1 <1>  -0.1600 
 20 C      -10.3800     8.7650    -0.0120 C.3   1 <1>  -0.2400 
 21 H       -2.6210     4.0940     0.0010 H     1 <1>   0.1500 
 22 H       -5.0140    -0.8510     0.0100 H     1 <1>   0.1500 
 23 H       -5.0790     4.0650     0.0000 H     1 <1>   0.1500 
 24 H       -8.1730     0.6880     0.0050 H     1 <1>   0.4500 
 25 H       -8.2010     2.6670     0.8710 H     1 <1>   0.0800 
 26 H       -8.2000     2.6640    -0.8710 H     1 <1>   0.0800 
 27 H       -7.1000     4.8700    -0.8780 H     1 <1>   0.0800 
 28 H       -7.1020     4.8730     0.8710 H     1 <1>   0.0800 
 29 H       -9.5740     4.7730     0.8670 H     1 <1>   0.0800 
 30 H       -9.5730     4.7700    -0.8770 H     1 <1>   0.0800 
 31 H       -8.4740     6.9910    -0.8800 H     1 <1>   0.0800 
 32 H       -8.4750     6.9940     0.8640 H     1 <1>   0.0800 
 33 H      -10.9540     6.8960     0.8620 H     1 <1>   0.0800 
 34 H      -10.9530     6.8930    -0.8810 H     1 <1>   0.0800 
 35 H       -9.8710     9.1300     0.8620 H     1 <1>   0.0800 
 36 H      -11.3820     9.1580    -0.0140 H     1 <1>   0.0800 
 37 H       -9.8700     9.1270    -0.8880 H     1 <1>   0.0800 
@<TRIPOS>BOND
  1   1   2  2   
  2   2   3  1   
  3   2   4  1   
  4   3   5  1   
  5   4   6  1   
  6   4   7  2   
  7   5   8  ar  
  8   5   9  ar  
  9   6  10  3   
 10   7   8  1   
 11   7  21  1   
 12   8  11  ar  
 13   9  12  ar  
 14   9  22  1   
 15  11  13  ar  
 16  11  23  1   
 17  12  13  ar  
 18  12  14  1   
 19  13  15  1   
 20  14  24  1   
 21  15  16  1   
 22  15  25  1   
 23  15  26  1   
 24  16  17  1   
 25  16  27  1   
 26  16  28  1   
 27  17  18  1   
 28  17  29  1   
 29  17  30  1   
 30  18  19  1   
 31  18  31  1   
 32  18  32  1   
 33  19  20  1   
 34  19  33  1   
 35  19  34  1   
 36  20  35  1   
 37  20  36  1   
 38  20  37  1   
@<TRIPOS>SUBSTRUCTURE
  1 ****  11 GROUP 4 **** **** 0

# MOE 2024.06 (io_trps.svl 2023.06)
