@<TRIPOS>MOLECULE
NONAME
42 44 1 0 0 
SMALL
USER_CHARGES


@<TRIPOS>ATOM
  1 O       -0.0980    -0.7390    -1.1950 O.2   1 <1>  -0.5700 
  2 C        0.1030    -1.6160    -0.3890 C.2   1 <1>   0.5690 
  3 N        1.3350    -1.8880     0.1410 N.am  1 <1>  -0.5470 
  4 C       -1.0650    -2.4950     0.0610 C.3   1 <1>  -0.0190 
  5 C        2.5850    -1.2740    -0.0500 C.ar  1 <1>   0.1170 
  6 C       -1.5550    -3.3990    -1.0870 C.3   1 <1>  -0.1600 
  7 C       -2.2290    -1.6540     0.6210 C.3   1 <1>  -0.1600 
  8 C        3.7630    -2.0120     0.1190 C.ar  1 <1>  -0.1430 
  9 C        2.6760     0.0750    -0.3760 C.ar  1 <1>  -0.1500 
 10 C       -2.7290    -4.2840    -0.6470 C.3   1 <1>  -0.1600 
 11 C       -3.4030    -2.5390     1.0630 C.3   1 <1>  -0.1600 
 12 C        5.0000    -1.3870    -0.0270 C.ar  1 <1>  -0.1430 
 13 C        3.6820    -3.5000     0.4770 C.3   1 <1>  -0.0170 
 14 C        3.9020     0.6890    -0.5290 C.ar  1 <1>  -0.1500 
 15 C       -3.8790    -3.4390    -0.0840 C.3   1 <1>  -0.1600 
 16 C        5.0600    -0.0420    -0.3530 C.ar  1 <1>  -0.1500 
 17 C        6.3200    -2.1310     0.1420 C.3   1 <1>  -0.0170 
 18 C        5.0030    -4.2540     0.2860 C.3   1 <1>  -0.1600 
 19 C        6.1620    -3.4590     0.8860 C.3   1 <1>  -0.1600 
 20 H        1.3710    -2.7030     0.7450 H     1 <1>   0.3700 
 21 H       -0.7180    -3.1330     0.8540 H     1 <1>   0.0800 
 22 H       -0.7450    -4.0190    -1.4320 H     1 <1>   0.0800 
 23 H       -1.8670    -2.7810    -1.9130 H     1 <1>   0.0800 
 24 H       -2.5690    -0.9700    -0.1380 H     1 <1>   0.0800 
 25 H       -1.8830    -1.0690     1.4560 H     1 <1>   0.0800 
 26 H        1.7820     0.6570    -0.5080 H     1 <1>   0.1500 
 27 H       -2.3950    -4.9780     0.1050 H     1 <1>   0.0800 
 28 H       -3.0830    -4.8560    -1.4880 H     1 <1>   0.0800 
 29 H       -4.2170    -1.9170     1.3940 H     1 <1>   0.0800 
 30 H       -3.0980    -3.1520     1.8950 H     1 <1>   0.0800 
 31 H        2.9360    -3.9830    -0.1280 H     1 <1>   0.0800 
 32 H        3.3860    -3.5820     1.5080 H     1 <1>   0.0800 
 33 H        3.9530     1.7330    -0.7840 H     1 <1>   0.1500 
 34 H       -4.6650    -4.0860     0.2670 H     1 <1>   0.0800 
 35 H       -4.2860    -2.8250    -0.8700 H     1 <1>   0.0800 
 36 H        6.0120     0.4440    -0.4740 H     1 <1>   0.1500 
 37 H        7.0210    -1.5120     0.6740 H     1 <1>   0.0800 
 38 H        6.7260    -2.3210    -0.8370 H     1 <1>   0.0800 
 39 H        5.1790    -4.4020    -0.7660 H     1 <1>   0.0800 
 40 H        4.9380    -5.2210     0.7530 H     1 <1>   0.0800 
 41 H        5.9680    -3.2650     1.9270 H     1 <1>   0.0800 
 42 H        7.0750    -4.0230     0.8130 H     1 <1>   0.0800 
@<TRIPOS>BOND
  1   1   2  2   
  2   2   3  am  
  3   2   4  1   
  4   3   5  1   
  5   3  20  1   
  6   4   6  1   
  7   4   7  1   
  8   4  21  1   
  9   5   8  ar  
 10   5   9  ar  
 11   6  10  1   
 12   6  22  1   
 13   6  23  1   
 14   7  11  1   
 15   7  24  1   
 16   7  25  1   
 17   8  12  ar  
 18   8  13  1   
 19   9  14  ar  
 20   9  26  1   
 21  10  15  1   
 22  10  27  1   
 23  10  28  1   
 24  11  15  1   
 25  11  29  1   
 26  11  30  1   
 27  12  16  ar  
 28  12  17  1   
 29  13  18  1   
 30  13  31  1   
 31  13  32  1   
 32  14  16  ar  
 33  14  33  1   
 34  15  34  1   
 35  15  35  1   
 36  16  36  1   
 37  17  19  1   
 38  17  37  1   
 39  17  38  1   
 40  18  19  1   
 41  18  39  1   
 42  18  40  1   
 43  19  41  1   
 44  19  42  1   
@<TRIPOS>SUBSTRUCTURE
  1 ****   3 GROUP 4 **** **** 0

# MOE 2024.06 (io_trps.svl 2023.06)
