@<TRIPOS>MOLECULE
NONAME
46 48 1 0 0 
SMALL
USER_CHARGES


@<TRIPOS>ATOM
  1 O       -1.2770    -0.1100    -0.7050 O.3   1 <1>  -0.5600 
  2 C       -2.2380     0.9030    -0.6400 C.3   1 <1>   0.1200 
  3 C       -1.3830    -1.0900     0.2860 C.3   1 <1>   0.1200 
  4 C       -3.6530     0.3040    -0.7620 C.3   1 <1>   0.3430 
  5 C       -2.7580    -1.7810     0.2060 C.3   1 <1>   0.3430 
  6 N       -3.8850    -0.7840     0.2560 N.4   1 <1>  -0.9590 
  7 C       -5.2000    -1.4820     0.0610 C.3   1 <1>   0.3430 
  8 C       -6.4080    -0.5750     0.3300 C.3   1 <1>   0.1200 
  9 O       -7.5490    -1.3490     0.1680 O.3   1 <1>  -0.5600 
 10 C       -8.7460    -0.6610     0.3910 C.3   1 <1>   0.1200 
 11 C       -9.9150    -1.6190     0.1810 C.3   1 <1>   0.1200 
 12 O      -11.1080    -0.9010     0.4060 O.3   1 <1>  -0.3630 
 13 C      -12.3200    -1.4970     0.2920 C.ar  1 <1>   0.0820 
 14 C      -12.5140    -2.8160    -0.0430 C.ar  1 <1>  -0.1500 
 15 C      -13.4300    -0.6790     0.5400 C.ar  1 <1>  -0.1500 
 16 C      -13.8090    -3.3630    -0.1410 C.ar  1 <1>   0.0000 
 17 C      -14.6970    -1.1840     0.4520 C.ar  1 <1>  -0.1500 
 18 C      -14.9230    -2.5320     0.1110 C.ar  1 <1>   0.0000 
 19 C      -14.0380    -4.7130    -0.4830 C.ar  1 <1>  -0.1500 
 20 C      -16.2160    -3.0820     0.0110 C.ar  1 <1>  -0.1500 
 21 C      -15.3050    -5.2200    -0.5720 C.ar  1 <1>  -0.1500 
 22 C      -16.4070    -4.3950    -0.3220 C.ar  1 <1>  -0.1500 
 23 H       -2.0510     1.5820    -1.4540 H     1 <1>   0.0800 
 24 H       -2.1170     1.4380     0.2860 H     1 <1>   0.0800 
 25 H       -1.2290    -0.6320     1.2470 H     1 <1>   0.0800 
 26 H       -0.5970    -1.8070     0.1190 H     1 <1>   0.0800 
 27 H       -3.7630    -0.0980    -1.7560 H     1 <1>   0.0800 
 28 H       -4.3800     1.0900    -0.6400 H     1 <1>   0.0800 
 29 H       -2.8490    -2.4840     1.0180 H     1 <1>   0.0800 
 30 H       -2.8020    -2.3360    -0.7170 H     1 <1>   0.0800 
 31 H       -3.8700    -0.3560     1.1910 H     1 <1>   0.4500 
 32 H       -5.2610    -2.3210     0.7340 H     1 <1>   0.0800 
 33 H       -5.2650    -1.8550    -0.9480 H     1 <1>   0.0800 
 34 H       -6.4500     0.2380    -0.3750 H     1 <1>   0.0800 
 35 H       -6.3910    -0.2040     1.3400 H     1 <1>   0.0800 
 36 H       -8.8140     0.1560    -0.3060 H     1 <1>   0.0800 
 37 H       -8.7520    -0.2940     1.4030 H     1 <1>   0.0800 
 38 H       -9.8710    -2.4300     0.8860 H     1 <1>   0.0800 
 39 H       -9.9270    -1.9850    -0.8300 H     1 <1>   0.0800 
 40 H      -11.6900    -3.4730    -0.2400 H     1 <1>   0.1500 
 41 H      -13.2570     0.3500     0.8010 H     1 <1>   0.1500 
 42 H      -15.5460    -0.5540     0.6430 H     1 <1>   0.1500 
 43 H      -13.1890    -5.3430    -0.6740 H     1 <1>   0.1500 
 44 H      -17.0600    -2.4440     0.2040 H     1 <1>   0.1500 
 45 H      -15.4710    -6.2500    -0.8330 H     1 <1>   0.1500 
 46 H      -17.3980    -4.8090    -0.3960 H     1 <1>   0.1500 
@<TRIPOS>BOND
  1   1   2  1   
  2   1   3  1   
  3   2   4  1   
  4   2  23  1   
  5   2  24  1   
  6   3   5  1   
  7   3  25  1   
  8   3  26  1   
  9   4   6  1   
 10   4  27  1   
 11   4  28  1   
 12   5   6  1   
 13   5  29  1   
 14   5  30  1   
 15   6   7  1   
 16   6  31  1   
 17   7   8  1   
 18   7  32  1   
 19   7  33  1   
 20   8   9  1   
 21   8  34  1   
 22   8  35  1   
 23   9  10  1   
 24  10  11  1   
 25  10  36  1   
 26  10  37  1   
 27  11  12  1   
 28  11  38  1   
 29  11  39  1   
 30  12  13  1   
 31  13  14  ar  
 32  13  15  ar  
 33  14  16  ar  
 34  14  40  1   
 35  15  17  ar  
 36  15  41  1   
 37  16  18  ar  
 38  16  19  ar  
 39  17  18  ar  
 40  17  42  1   
 41  18  20  ar  
 42  19  21  ar  
 43  19  43  1   
 44  20  22  ar  
 45  20  44  1   
 46  21  22  ar  
 47  21  45  1   
 48  22  46  1   
@<TRIPOS>SUBSTRUCTURE
  1 ****  11 GROUP 4 **** **** 0

# MOE 2024.06 (io_trps.svl 2023.06)
