@<TRIPOS>MOLECULE
NONAME
47 48 1 0 0 
SMALL
USER_CHARGES


@<TRIPOS>ATOM
  1 CL      -0.6320     1.0810    -1.8200 Cl    1 <1>  -0.1770 
  2 C        0.8210     1.2430    -0.8500 C.ar  1 <1>   0.1770 
  3 C        0.8730     2.1840     0.1810 C.ar  1 <1>   0.1170 
  4 C        1.9040     0.4400    -1.1530 C.ar  1 <1>  -0.1500 
  5 N       -0.2220     3.0030     0.4990 N.am  1 <1>  -0.5470 
  6 C        2.0580     2.3040     0.8970 C.ar  1 <1>  -0.1500 
  7 C        3.0750     0.5720    -0.4250 C.ar  1 <1>  -0.1500 
  8 C       -1.4370     2.5620     0.9290 C.2   1 <1>   0.5690 
  9 C        3.1490     1.5060     0.5970 C.ar  1 <1>  -0.1500 
 10 O       -1.6180     1.4500     1.3550 O.2   1 <1>  -0.5700 
 11 C       -2.6310     3.4790     0.8440 C.3   1 <1>  -0.0990 
 12 C       -3.8100     2.6440     0.3400 C.3   1 <1>   0.3430 
 13 N       -5.0790     3.4340     0.2900 N.4   1 <1>  -0.9590 
 14 C       -6.2360     2.4890     0.1430 C.3   1 <1>   0.3430 
 15 C       -5.0720     4.4530    -0.8040 C.3   1 <1>   0.3430 
 16 C       -7.5760     3.2330     0.1680 C.3   1 <1>  -0.0190 
 17 C       -6.3740     5.2560    -0.7710 C.3   1 <1>  -0.1600 
 18 C       -8.6940     2.2290    -0.0480 C.2   1 <1>   0.6590 
 19 C       -7.6070     4.3500    -0.8920 C.3   1 <1>  -0.1600 
 20 O       -8.4680     1.1180    -0.4510 O.2   1 <1>  -0.5700 
 21 O       -9.9140     2.6540     0.2370 O.3   1 <1>  -0.4300 
 22 C      -11.0420     1.8240     0.0730 C.3   1 <1>   0.1200 
 23 C      -12.2770     2.6200     0.4830 C.3   1 <1>  -0.2400 
 24 H        1.8320    -0.2770    -1.9500 H     1 <1>   0.1500 
 25 H       -0.0830     4.0020     0.3470 H     1 <1>   0.3700 
 26 H        2.1260     3.0190     1.6980 H     1 <1>   0.1500 
 27 H        3.9250    -0.0490    -0.6520 H     1 <1>   0.1500 
 28 H        4.0600     1.6060     1.1630 H     1 <1>   0.1500 
 29 H       -2.4160     4.2860     0.1700 H     1 <1>   0.0800 
 30 H       -2.8340     3.8610     1.8270 H     1 <1>   0.0800 
 31 H       -3.9360     1.8050     1.0070 H     1 <1>   0.0800 
 32 H       -3.5810     2.2470    -0.6370 H     1 <1>   0.0800 
 33 H       -5.1910     3.9230     1.1880 H     1 <1>   0.4500 
 34 H       -6.2230     1.7590     0.9380 H     1 <1>   0.0800 
 35 H       -6.1520     1.9550    -0.7910 H     1 <1>   0.0800 
 36 H       -4.9770     3.9610    -1.7590 H     1 <1>   0.0800 
 37 H       -4.2370     5.1240    -0.6850 H     1 <1>   0.0800 
 38 H       -7.7150     3.6600     1.1450 H     1 <1>   0.0800 
 39 H       -6.3710     5.9590    -1.5870 H     1 <1>   0.0800 
 40 H       -6.4220     5.8270     0.1410 H     1 <1>   0.0800 
 41 H       -8.5040     4.9370    -0.7790 H     1 <1>   0.0800 
 42 H       -7.6300     3.9090    -1.8760 H     1 <1>   0.0800 
 43 H      -10.9210     0.9530     0.6950 H     1 <1>   0.0800 
 44 H      -11.1010     1.5250    -0.9610 H     1 <1>   0.0800 
 45 H      -12.2030     2.9190     1.5130 H     1 <1>   0.0800 
 46 H      -13.1550     2.0100     0.3670 H     1 <1>   0.0800 
 47 H      -12.3830     3.4910    -0.1400 H     1 <1>   0.0800 
@<TRIPOS>BOND
  1   1   2  1   
  2   2   3  ar  
  3   2   4  ar  
  4   3   5  1   
  5   3   6  ar  
  6   4   7  ar  
  7   4  24  1   
  8   5   8  am  
  9   5  25  1   
 10   6   9  ar  
 11   6  26  1   
 12   7   9  ar  
 13   7  27  1   
 14   8  10  2   
 15   8  11  1   
 16   9  28  1   
 17  11  12  1   
 18  11  29  1   
 19  11  30  1   
 20  12  13  1   
 21  12  31  1   
 22  12  32  1   
 23  13  14  1   
 24  13  15  1   
 25  13  33  1   
 26  14  16  1   
 27  14  34  1   
 28  14  35  1   
 29  15  17  1   
 30  15  36  1   
 31  15  37  1   
 32  16  18  1   
 33  16  19  1   
 34  16  38  1   
 35  17  19  1   
 36  17  39  1   
 37  17  40  1   
 38  18  20  2   
 39  18  21  1   
 40  19  41  1   
 41  19  42  1   
 42  21  22  1   
 43  22  23  1   
 44  22  43  1   
 45  22  44  1   
 46  23  45  1   
 47  23  46  1   
 48  23  47  1   
@<TRIPOS>SUBSTRUCTURE
  1 ****  12 GROUP 4 **** **** 0

# MOE 2024.06 (io_trps.svl 2023.06)
