@<TRIPOS>MOLECULE
NONAME
50 52 1 0 0 
SMALL
USER_CHARGES


@<TRIPOS>ATOM
  1 S       -0.0470    -0.3530    -0.9030 S.o2  1 <1>   1.4470 
  2 O       -0.2400    -1.5480    -0.1170 O.2   1 <1>  -0.6500 
  3 O        0.6090    -0.4280    -2.1890 O.2   1 <1>  -0.6500 
  4 N        0.9540     0.5670     0.0830 N.am  1 <1>  -0.9140 
  5 C       -1.5760     0.6190    -1.0070 C.ar  1 <1>  -0.0090 
  6 C        2.3700     0.4340    -0.1860 C.3   1 <1>   0.2760 
  7 C       -2.7020     0.2710    -0.2730 C.ar  1 <1>  -0.1500 
  8 C       -1.6470     1.7500    -1.8180 C.ar  1 <1>  -0.1500 
  9 C        2.8880    -0.9500     0.2100 C.3   1 <1>  -0.1600 
 10 C        3.1020     1.4890     0.6350 C.3   1 <1>  -0.1600 
 11 C       -3.8800     1.0120    -0.3320 C.ar  1 <1>   0.0280 
 12 C       -2.8020     2.5050    -1.8960 C.ar  1 <1>  -0.1500 
 13 C        4.3990    -1.0860    -0.0110 C.3   1 <1>   0.5030 
 14 C        4.6220     1.4340     0.4310 C.3   1 <1>   0.5030 
 15 C       -3.9170     2.1420    -1.1580 C.ar  1 <1>   0.0830 
 16 C       -5.0580     0.6800     0.4070 C.2   1 <1>  -0.1780 
 17 N        5.1310     0.0580     0.5560 N.4   1 <1>  -0.9060 
 18 C        4.9160    -2.3140     0.7370 C.3   1 <1>  -0.2400 
 19 C        4.7500    -1.2510    -1.4930 C.3   1 <1>  -0.2400 
 20 C        5.0460     2.0280    -0.9150 C.3   1 <1>  -0.2400 
 21 C        5.3140     2.2290     1.5370 C.3   1 <1>  -0.2400 
 22 O       -5.0400     2.8920    -1.2500 O.3   1 <1>  -0.2320 
 23 C       -6.1530     1.4600     0.2820 C.2   1 <1>  -0.1360 
 24 C       -6.1570     2.6060    -0.5720 C.2   1 <1>   0.7060 
 25 O       -7.1220     3.3290    -0.7100 O.2   1 <1>  -0.5700 
 26 H        0.7540     0.2110     1.0160 H     1 <1>   0.4200 
 27 H        2.5470     0.6220    -1.2330 H     1 <1>   0.0800 
 28 H       -2.6720    -0.6000     0.3600 H     1 <1>   0.1500 
 29 H       -0.7850     2.0390    -2.3970 H     1 <1>   0.1500 
 30 H        2.3980    -1.7120    -0.3710 H     1 <1>   0.0800 
 31 H        2.6550    -1.1350     1.2440 H     1 <1>   0.0800 
 32 H        2.8730     1.3480     1.6770 H     1 <1>   0.0800 
 33 H        2.7440     2.4650     0.3570 H     1 <1>   0.0800 
 34 H       -2.8470     3.3750    -2.5270 H     1 <1>   0.1500 
 35 H       -5.0340    -0.1880     1.0430 H     1 <1>   0.1500 
 36 H        6.0810     0.0390     0.1810 H     1 <1>   0.4500 
 37 H        5.2200    -0.1260     1.5570 H     1 <1>   0.4500 
 38 H        4.7200    -2.2440     1.7920 H     1 <1>   0.0800 
 39 H        5.9720    -2.4500     0.5820 H     1 <1>   0.0800 
 40 H        4.4180    -3.1980     0.3750 H     1 <1>   0.0800 
 41 H        4.3000    -0.5000    -2.1100 H     1 <1>   0.0800 
 42 H        4.3730    -2.1950    -1.8490 H     1 <1>   0.0800 
 43 H        5.8140    -1.2490    -1.6480 H     1 <1>   0.0800 
 44 H        4.5070     1.6090    -1.7410 H     1 <1>   0.0800 
 45 H        6.1010     1.9040    -1.0820 H     1 <1>   0.0800 
 46 H        4.8400     3.0850    -0.9240 H     1 <1>   0.0800 
 47 H        5.0740     1.8390     2.5110 H     1 <1>   0.0800 
 48 H        4.9870     3.2540     1.5110 H     1 <1>   0.0800 
 49 H        6.3820     2.2260     1.4100 H     1 <1>   0.0800 
 50 H       -7.0690     1.2670     0.8070 H     1 <1>   0.1500 
@<TRIPOS>BOND
  1   1   2  2   
  2   1   3  2   
  3   1   4  am  
  4   1   5  1   
  5   4   6  1   
  6   4  26  1   
  7   5   7  ar  
  8   5   8  ar  
  9   6   9  1   
 10   6  10  1   
 11   6  27  1   
 12   7  11  ar  
 13   7  28  1   
 14   8  12  ar  
 15   8  29  1   
 16   9  13  1   
 17   9  30  1   
 18   9  31  1   
 19  10  14  1   
 20  10  32  1   
 21  10  33  1   
 22  11  15  ar  
 23  11  16  1   
 24  12  15  ar  
 25  12  34  1   
 26  13  17  1   
 27  13  18  1   
 28  13  19  1   
 29  14  17  1   
 30  14  20  1   
 31  14  21  1   
 32  15  22  1   
 33  16  23  2   
 34  16  35  1   
 35  17  36  1   
 36  17  37  1   
 37  18  38  1   
 38  18  39  1   
 39  18  40  1   
 40  19  41  1   
 41  19  42  1   
 42  19  43  1   
 43  20  44  1   
 44  20  45  1   
 45  20  46  1   
 46  21  47  1   
 47  21  48  1   
 48  21  49  1   
 49  22  24  1   
 50  23  24  1   
 51  23  50  1   
 52  24  25  2   
@<TRIPOS>SUBSTRUCTURE
  1 ****   4 GROUP 4 **** **** 0

# MOE 2024.06 (io_trps.svl 2023.06)
