@<TRIPOS>MOLECULE
NONAME
56 58 1 0 0 
SMALL
USER_CHARGES


@<TRIPOS>ATOM
  1 O       -0.3250    -0.9080    -0.6170 O.3   1 <1>  -0.3630 
  2 C       -1.5330    -1.5110    -0.7290 C.ar  1 <1>   0.0830 
  3 C        0.3940    -0.9090     0.5960 C.3   1 <1>   0.1200 
  4 C       -2.1060    -1.5230    -1.9890 C.ar  1 <1>  -0.1500 
  5 C       -2.2070    -2.1040     0.3330 C.ar  1 <1>  -0.1500 
  6 C        1.7230    -0.1890     0.3650 C.3   1 <1>  -0.1600 
  7 C       -3.3390    -2.1130    -2.1970 C.ar  1 <1>  -0.1500 
  8 C       -3.4420    -2.6940     0.1270 C.ar  1 <1>  -0.1500 
  9 C        2.5650    -0.1500     1.6470 C.3   1 <1>  -0.1600 
 10 C       -4.0190    -2.6960    -1.1370 C.ar  1 <1>  -0.1430 
 11 C        3.8940     0.5700     1.4090 C.3   1 <1>  -0.2400 
 12 C       -5.3820    -3.3200    -1.3600 C.3   1 <1>   0.4860 
 13 N       -6.4150    -2.4250    -0.7770 N.4   1 <1>  -0.9590 
 14 C       -7.7660    -3.0450    -0.7990 C.3   1 <1>   0.4860 
 15 C       -6.4480    -1.0770    -1.4200 C.3   1 <1>   0.3430 
 16 C       -8.7740    -2.1160    -0.1430 C.ar  1 <1>  -0.1430 
 17 C       -7.2810    -0.1120    -0.5720 C.3   1 <1>  -0.0170 
 18 C       -8.5610    -0.7480    -0.0450 C.ar  1 <1>  -0.1430 
 19 C       -9.9430    -2.6560     0.3640 C.ar  1 <1>  -0.1500 
 20 C       -9.5180     0.0550     0.5550 C.ar  1 <1>  -0.1500 
 21 C      -10.9080    -1.8680     0.9660 C.ar  1 <1>   0.0830 
 22 C      -10.6980    -0.4820     1.0670 C.ar  1 <1>   0.0830 
 23 O      -11.9910    -2.5750     1.4040 O.3   1 <1>  -0.3630 
 24 O      -11.6320     0.3180     1.6600 O.3   1 <1>  -0.3620 
 25 C      -13.1250    -1.9840     1.9970 C.3   1 <1>   0.0400 
 26 C      -11.4840     1.7170     1.7770 C.3   1 <1>   0.0400 
 27 H        0.5620    -1.9300     0.8910 H     1 <1>   0.0800 
 28 H       -0.1910    -0.3950     1.3380 H     1 <1>   0.0800 
 29 H       -1.5710    -1.0670    -2.8050 H     1 <1>   0.1500 
 30 H       -1.7830    -2.1160     1.3200 H     1 <1>   0.1500 
 31 H        1.5240     0.8160     0.0360 H     1 <1>   0.0800 
 32 H        2.2690    -0.7030    -0.4070 H     1 <1>   0.0800 
 33 H       -3.7510    -2.1100    -3.1920 H     1 <1>   0.1500 
 34 H       -3.9400    -3.1520     0.9650 H     1 <1>   0.1500 
 35 H        2.7630    -1.1550     1.9810 H     1 <1>   0.0800 
 36 H        2.0200     0.3600     2.4230 H     1 <1>   0.0800 
 37 H        4.4660     0.0650     0.6510 H     1 <1>   0.0800 
 38 H        4.4710     0.5880     2.3170 H     1 <1>   0.0800 
 39 H        3.7220     1.5840     1.0940 H     1 <1>   0.0800 
 40 H       -5.4110    -4.2860    -0.8820 H     1 <1>   0.0800 
 41 H       -5.5550    -3.4550    -2.4160 H     1 <1>   0.0800 
 42 H       -6.1740    -2.2730     0.2090 H     1 <1>   0.4500 
 43 H       -7.7520    -3.9830    -0.2680 H     1 <1>   0.0800 
 44 H       -8.0720    -3.2320    -1.8160 H     1 <1>   0.0800 
 45 H       -6.8850    -1.1560    -2.4030 H     1 <1>   0.0800 
 46 H       -5.4500    -0.6810    -1.5230 H     1 <1>   0.0800 
 47 H       -7.5210     0.7530    -1.1650 H     1 <1>   0.0800 
 48 H       -6.6880     0.2230     0.2610 H     1 <1>   0.0800 
 49 H      -10.1360    -3.7130     0.3000 H     1 <1>   0.1500 
 50 H       -9.3260     1.1090     0.6200 H     1 <1>   0.1500 
 51 H      -13.8350    -2.7620     2.2140 H     1 <1>   0.0800 
 52 H      -13.5540    -1.2800     1.3060 H     1 <1>   0.0800 
 53 H      -12.8290    -1.4960     2.9090 H     1 <1>   0.0800 
 54 H      -12.3570     2.1030     2.2710 H     1 <1>   0.0800 
 55 H      -11.4050     2.1450     0.7940 H     1 <1>   0.0800 
 56 H      -10.6100     1.9290     2.3670 H     1 <1>   0.0800 
@<TRIPOS>BOND
  1   1   2  1   
  2   1   3  1   
  3   2   4  ar  
  4   2   5  ar  
  5   3   6  1   
  6   3  27  1   
  7   3  28  1   
  8   4   7  ar  
  9   4  29  1   
 10   5   8  ar  
 11   5  30  1   
 12   6   9  1   
 13   6  31  1   
 14   6  32  1   
 15   7  10  ar  
 16   7  33  1   
 17   8  10  ar  
 18   8  34  1   
 19   9  11  1   
 20   9  35  1   
 21   9  36  1   
 22  10  12  1   
 23  11  37  1   
 24  11  38  1   
 25  11  39  1   
 26  12  13  1   
 27  12  40  1   
 28  12  41  1   
 29  13  14  1   
 30  13  15  1   
 31  13  42  1   
 32  14  16  1   
 33  14  43  1   
 34  14  44  1   
 35  15  17  1   
 36  15  45  1   
 37  15  46  1   
 38  16  18  ar  
 39  16  19  ar  
 40  17  18  1   
 41  17  47  1   
 42  17  48  1   
 43  18  20  ar  
 44  19  21  ar  
 45  19  49  1   
 46  20  22  ar  
 47  20  50  1   
 48  21  22  ar  
 49  21  23  1   
 50  22  24  1   
 51  23  25  1   
 52  24  26  1   
 53  25  51  1   
 54  25  52  1   
 55  25  53  1   
 56  26  54  1   
 57  26  55  1   
 58  26  56  1   
@<TRIPOS>SUBSTRUCTURE
  1 ****  13 GROUP 4 **** **** 0

# MOE 2024.06 (io_trps.svl 2023.06)
