@<TRIPOS>MOLECULE
NONAME
50 53 1 0 0 
SMALL
USER_CHARGES


@<TRIPOS>ATOM
  1 N       -0.1960     1.7360     0.8500 N.ar  1 <1>  -0.6200 
  2 C       -0.5830     1.0380    -0.2090 C.ar  1 <1>   0.4100 
  3 C        1.1080     1.9460     0.9470 C.ar  1 <1>   0.1600 
  4 N       -1.9370     0.8120    -0.3220 N.pl3 1 <1>  -0.8380 
  5 C        0.2880     0.5440    -1.1740 C.ar  1 <1>  -0.1500 
  6 C        2.0520     1.4960     0.0410 C.ar  1 <1>  -0.1500 
  7 C       -2.7370     2.0520    -0.5610 C.3   1 <1>   0.2090 
  8 C       -2.4920    -0.0670     0.7530 C.3   1 <1>   0.2090 
  9 C        1.6390     0.7710    -1.0590 C.ar  1 <1>  -0.1500 
 10 C       -4.2320     1.7380    -0.7620 C.3   1 <1>   0.3430 
 11 C       -3.9910    -0.3600     0.5370 C.3   1 <1>   0.3430 
 12 N       -4.7940     0.8990     0.3570 N.4   1 <1>  -0.9590 
 13 C       -6.2320     0.6300     0.1520 C.3   1 <1>   0.4810 
 14 C       -7.0240     1.8970     0.4300 C.2   1 <1>  -0.2540 
 15 C       -6.5230     3.0730     1.0670 C.2   1 <1>  -0.2880 
 16 C       -8.6390     1.7020    -0.1280 C.3   1 <1>   0.1160 
 17 C       -7.7030     4.3030     1.2120 C.3   1 <1>  -0.0220 
 18 C      -10.0630     2.6630    -0.2010 C.3   1 <1>   0.0000 
 19 C       -8.6350     2.9040     0.3560 C.3   1 <1>   0.0000 
 20 C       -9.2840     3.9900     0.5640 C.3   1 <1>   0.0000 
 21 C      -11.2650     2.1140     0.6130 C.3   1 <1>  -0.2400 
 22 C      -10.5400     2.9420    -1.6500 C.3   1 <1>  -0.2400 
 23 H        1.4450     2.5110     1.8000 H     1 <1>   0.1500 
 24 H       -0.1110    -0.0110    -2.0010 H     1 <1>   0.1500 
 25 H        3.0940     1.7100     0.1930 H     1 <1>   0.1500 
 26 H       -2.3570     2.5520    -1.4360 H     1 <1>   0.0800 
 27 H       -2.6190     2.7230     0.2740 H     1 <1>   0.0800 
 28 H       -2.3510     0.4040     1.7110 H     1 <1>   0.0800 
 29 H       -1.9450    -0.9950     0.7630 H     1 <1>   0.0800 
 30 H        2.3420     0.4030    -1.7870 H     1 <1>   0.1500 
 31 H       -4.3420     1.2150    -1.6970 H     1 <1>   0.0800 
 32 H       -4.7780     2.6640    -0.8370 H     1 <1>   0.0800 
 33 H       -4.3620    -0.9160     1.3810 H     1 <1>   0.0800 
 34 H       -4.0870    -0.9790    -0.3390 H     1 <1>   0.0800 
 35 H       -4.7320     1.4530     1.2190 H     1 <1>   0.4500 
 36 H       -6.5690    -0.1460     0.8200 H     1 <1>   0.0800 
 37 H       -6.4030     0.3060    -0.8620 H     1 <1>   0.0800 
 38 H       -5.5490     3.3020     1.4640 H     1 <1>   0.1500 
 39 H       -8.9840     0.8630     0.4570 H     1 <1>   0.0000 
 40 H       -7.3200     5.1950     0.7430 H     1 <1>   0.0800 
 41 H       -7.8140     4.5430     2.2570 H     1 <1>   0.0800 
 42 H       -8.1070     3.3240    -0.5980 H     1 <1>   0.0000 
 43 H       -8.7530     2.5300     1.4530 H     1 <1>   0.0000 
 44 H       -9.3750     4.7510    -0.1960 H     1 <1>   0.0000 
 45 H      -10.9870     1.9130     1.6320 H     1 <1>   0.0800 
 46 H      -11.6290     1.2030     0.1730 H     1 <1>   0.0800 
 47 H      -12.0640     2.8340     0.6210 H     1 <1>   0.0800 
 48 H       -9.7390     3.3240    -2.2570 H     1 <1>   0.0800 
 49 H      -11.3340     3.6670    -1.6450 H     1 <1>   0.0800 
 50 H      -10.9050     2.0370    -2.1020 H     1 <1>   0.0800 
@<TRIPOS>BOND
  1   1   2  ar  
  2   1   3  ar  
  3   2   4  1   
  4   2   5  ar  
  5   3   6  ar  
  6   3  23  1   
  7   4   7  1   
  8   4   8  1   
  9   5   9  ar  
 10   5  24  1   
 11   6   9  ar  
 12   6  25  1   
 13   7  10  1   
 14   7  26  1   
 15   7  27  1   
 16   8  11  1   
 17   8  28  1   
 18   8  29  1   
 19   9  30  1   
 20  10  12  1   
 21  10  31  1   
 22  10  32  1   
 23  11  12  1   
 24  11  33  1   
 25  11  34  1   
 26  12  13  1   
 27  12  35  1   
 28  13  14  1   
 29  13  36  1   
 30  13  37  1   
 31  14  15  2   
 32  14  16  1   
 33  15  17  1   
 34  15  38  1   
 35  16  18  1   
 36  16  19  1   
 37  16  39  1   
 38  17  20  1   
 39  17  40  1   
 40  17  41  1   
 41  18  20  1   
 42  18  21  1   
 43  18  22  1   
 44  19  20  1   
 45  19  42  1   
 46  19  43  1   
 47  20  44  1   
 48  21  45  1   
 49  21  46  1   
 50  21  47  1   
 51  22  48  1   
 52  22  49  1   
 53  22  50  1   
@<TRIPOS>SUBSTRUCTURE
  1 ****  12 GROUP 4 **** **** 0

# MOE 2024.06 (io_trps.svl 2023.06)
