@<TRIPOS>MOLECULE
NONAME
37 37 1 0 0 
SMALL
USER_CHARGES


@<TRIPOS>ATOM
  1 O        6.4430    -3.7300    -0.1260 O.2   1 <1>  -0.5700 
  2 C        5.2720    -3.8680     0.1120 C.2   1 <1>   0.5690 
  3 N        4.4000    -2.8720    -0.1930 N.am  1 <1>  -0.5470 
  4 C        4.8010    -5.1650     0.7280 C.3   1 <1>  -0.1790 
  5 C        3.0230    -2.7490     0.0130 C.ar  1 <1>   0.1170 
  6 C        2.4400    -3.0030     1.2480 C.ar  1 <1>  -0.1500 
  7 C        2.2080    -2.3370    -1.0320 C.ar  1 <1>  -0.1500 
  8 C        1.0770    -2.8600     1.4330 C.ar  1 <1>  -0.1500 
  9 C        0.8440    -2.1910    -0.8550 C.ar  1 <1>  -0.1500 
 10 C        0.2680    -2.4550     0.3800 C.ar  1 <1>  -0.1430 
 11 C       -1.2250    -2.3010     0.5760 C.3   1 <1>   0.4860 
 12 N       -1.8380    -3.5960     0.2220 N.4   1 <1>  -0.9060 
 13 C       -3.3170    -3.6110     0.3330 C.3   1 <1>   0.3430 
 14 C       -3.8680    -4.9830    -0.0870 C.3   1 <1>  -0.0800 
 15 C       -3.4870    -5.3590    -1.5290 C.3   1 <1>  -0.2400 
 16 C       -5.3950    -4.9860     0.0510 C.3   1 <1>  -0.2400 
 17 H        4.8590    -2.1070    -0.6890 H     1 <1>   0.3700 
 18 H        3.8480    -5.4480     0.3230 H     1 <1>   0.0800 
 19 H        4.7280    -5.0540     1.7920 H     1 <1>   0.0800 
 20 H        5.5120    -5.9410     0.5110 H     1 <1>   0.0800 
 21 H        3.0630    -3.3000     2.0740 H     1 <1>   0.1500 
 22 H        2.6500    -2.1300    -1.9920 H     1 <1>   0.1500 
 23 H        0.6640    -3.0610     2.4070 H     1 <1>   0.1500 
 24 H        0.2470    -1.8630    -1.6900 H     1 <1>   0.1500 
 25 H       -1.6000    -1.5170    -0.0630 H     1 <1>   0.0800 
 26 H       -1.4380    -2.0480     1.6020 H     1 <1>   0.0800 
 27 H       -1.4260    -4.3250     0.8160 H     1 <1>   0.4500 
 28 H       -1.5620    -3.8310    -0.7380 H     1 <1>   0.4500 
 29 H       -3.7410    -2.8510    -0.3040 H     1 <1>   0.0800 
 30 H       -3.6130    -3.4040     1.3490 H     1 <1>   0.0800 
 31 H       -3.4810    -5.7330     0.5840 H     1 <1>   0.0800 
 32 H       -3.8210    -4.6080    -2.2250 H     1 <1>   0.0800 
 33 H       -3.9540    -6.2910    -1.8000 H     1 <1>   0.0800 
 34 H       -2.4260    -5.4920    -1.6400 H     1 <1>   0.0800 
 35 H       -5.8460    -4.2650    -0.6090 H     1 <1>   0.0800 
 36 H       -5.6890    -4.7580     1.0620 H     1 <1>   0.0800 
 37 H       -5.7900    -5.9580    -0.1940 H     1 <1>   0.0800 
@<TRIPOS>BOND
  1   1   2  2   
  2   2   3  am  
  3   2   4  1   
  4   3   5  1   
  5   3  17  1   
  6   4  18  1   
  7   4  19  1   
  8   4  20  1   
  9   5   6  ar  
 10   5   7  ar  
 11   6   8  ar  
 12   6  21  1   
 13   7   9  ar  
 14   7  22  1   
 15   8  10  ar  
 16   8  23  1   
 17   9  10  ar  
 18   9  24  1   
 19  10  11  1   
 20  11  12  1   
 21  11  25  1   
 22  11  26  1   
 23  12  13  1   
 24  12  27  1   
 25  12  28  1   
 26  13  14  1   
 27  13  29  1   
 28  13  30  1   
 29  14  15  1   
 30  14  16  1   
 31  14  31  1   
 32  15  32  1   
 33  15  33  1   
 34  15  34  1   
 35  16  35  1   
 36  16  36  1   
 37  16  37  1   
@<TRIPOS>SUBSTRUCTURE
  1 ****  10 GROUP 4 **** **** 0

# MOE 2024.06 (io_trps.svl 2023.06)
