@<TRIPOS>MOLECULE
NONAME
49 50 1 0 0 
SMALL
USER_CHARGES


@<TRIPOS>ATOM
  1 S        0.7320     0.8830    -1.8680 S.o2  1 <1>   1.3330 
  2 O        0.5780    -0.3360    -1.1170 O.2   1 <1>  -0.6500 
  3 O        1.9790     1.1710    -2.5380 O.2   1 <1>  -0.6500 
  4 N        0.4470     2.2090    -0.7940 N.am  1 <1>  -0.6930 
  5 C       -0.6010     1.0510    -3.0340 C.3   1 <1>  -0.1350 
  6 C       -0.5290     2.1350     0.1900 C.ar  1 <1>   0.1990 
  7 C        1.5740     3.1710    -0.5750 C.3   1 <1>   0.2570 
  8 C       -1.7350     2.8120     0.0210 C.ar  1 <1>  -0.1500 
  9 C       -0.3170     1.3980     1.3530 C.ar  1 <1>  -0.1500 
 10 C        2.7370     2.6150     0.2530 C.2   1 <1>   0.5690 
 11 C       -2.7200     2.7530     0.9920 C.ar  1 <1>  -0.1500 
 12 C       -1.2920     1.3290     2.3330 C.ar  1 <1>  -0.1500 
 13 O        2.8210     2.9430     1.4130 O.2   1 <1>  -0.5700 
 14 N        3.6480     1.7940    -0.3510 N.am  1 <1>  -0.5470 
 15 C       -2.4780     2.0090     2.1320 C.ar  1 <1>   0.1900 
 16 C        4.7760     1.1840     0.2190 C.ar  1 <1>   0.1170 
 17 F       -3.4050     1.9490     3.0530 F     1 <1>  -0.1900 
 18 C        5.9310     1.9270     0.4910 C.ar  1 <1>  -0.1430 
 19 C        4.7530    -0.1900     0.4890 C.ar  1 <1>  -0.1430 
 20 C        7.0410     1.2960     1.0260 C.ar  1 <1>  -0.1500 
 21 C        6.0310     3.4240     0.2080 C.3   1 <1>  -0.0170 
 22 C        5.8810    -0.7950     1.0250 C.ar  1 <1>  -0.1500 
 23 C        3.4780    -0.9900     0.1870 C.3   1 <1>  -0.0170 
 24 C        7.0190    -0.0580     1.2930 C.ar  1 <1>  -0.1500 
 25 C        6.3520     3.6830    -1.2670 C.3   1 <1>  -0.2400 
 26 C        3.4850    -2.4640     0.6090 C.3   1 <1>  -0.2400 
 27 H       -0.5290     0.2880    -3.7840 H     1 <1>   0.0800 
 28 H       -0.5600     2.0100    -3.5110 H     1 <1>   0.0800 
 29 H       -1.5440     0.9510    -2.5330 H     1 <1>   0.0800 
 30 H        1.1920     4.0360    -0.0620 H     1 <1>   0.0800 
 31 H        1.9520     3.5030    -1.5250 H     1 <1>   0.0800 
 32 H       -1.8950     3.3880    -0.8720 H     1 <1>   0.1500 
 33 H        0.6160     0.8780     1.4860 H     1 <1>   0.1500 
 34 H       -3.6560     3.2700     0.8760 H     1 <1>   0.1500 
 35 H       -1.1360     0.7630     3.2340 H     1 <1>   0.1500 
 36 H        3.3950     1.4540    -1.2880 H     1 <1>   0.3700 
 37 H        7.9340     1.8560     1.2380 H     1 <1>   0.1500 
 38 H        6.8060     3.8560     0.8170 H     1 <1>   0.0800 
 39 H        5.1170     3.9190     0.4790 H     1 <1>   0.0800 
 40 H        5.9020    -1.8450     1.2450 H     1 <1>   0.1500 
 41 H        3.2890    -0.9460    -0.8710 H     1 <1>   0.0800 
 42 H        2.6530    -0.5120     0.6850 H     1 <1>   0.0800 
 43 H        7.8860    -0.5390     1.7100 H     1 <1>   0.1500 
 44 H        7.2810     3.2090    -1.5290 H     1 <1>   0.0800 
 45 H        6.4370     4.7390    -1.4470 H     1 <1>   0.0800 
 46 H        5.5750     3.2840    -1.8930 H     1 <1>   0.0800 
 47 H        4.2500    -3.0040     0.0810 H     1 <1>   0.0800 
 48 H        2.5330    -2.9080     0.3750 H     1 <1>   0.0800 
 49 H        3.6490    -2.5490     1.6680 H     1 <1>   0.0800 
@<TRIPOS>BOND
  1   1   2  2   
  2   1   3  2   
  3   1   4  am  
  4   1   5  1   
  5   4   6  1   
  6   4   7  1   
  7   5  27  1   
  8   5  28  1   
  9   5  29  1   
 10   6   8  ar  
 11   6   9  ar  
 12   7  10  1   
 13   7  30  1   
 14   7  31  1   
 15   8  11  ar  
 16   8  32  1   
 17   9  12  ar  
 18   9  33  1   
 19  10  13  2   
 20  10  14  am  
 21  11  15  ar  
 22  11  34  1   
 23  12  15  ar  
 24  12  35  1   
 25  14  16  1   
 26  14  36  1   
 27  15  17  1   
 28  16  18  ar  
 29  16  19  ar  
 30  18  20  ar  
 31  18  21  1   
 32  19  22  ar  
 33  19  23  1   
 34  20  24  ar  
 35  20  37  1   
 36  21  25  1   
 37  21  38  1   
 38  21  39  1   
 39  22  24  ar  
 40  22  40  1   
 41  23  26  1   
 42  23  41  1   
 43  23  42  1   
 44  24  43  1   
 45  25  44  1   
 46  25  45  1   
 47  25  46  1   
 48  26  47  1   
 49  26  48  1   
 50  26  49  1   
@<TRIPOS>SUBSTRUCTURE
  1 ****  10 GROUP 4 **** **** 0

# MOE 2024.06 (io_trps.svl 2023.06)
