@<TRIPOS>MOLECULE
NONAME
48 50 1 0 0 
SMALL
USER_CHARGES


@<TRIPOS>ATOM
  1 CL       0.0970    -4.1440     2.2370 Cl    1 <1>  -0.1770 
  2 C       -0.6050    -3.2810     0.8880 C.ar  1 <1>   0.1770 
  3 C        0.2120    -2.5750     0.0040 C.ar  1 <1>   0.0530 
  4 C       -1.9780    -3.3260     0.7430 C.ar  1 <1>  -0.1500 
  5 C        1.6480    -2.5250     0.1230 C.2   1 <1>   0.1330 
  6 C       -0.4220    -1.8920    -1.0310 C.ar  1 <1>  -0.1500 
  7 C       -2.5850    -2.6510    -0.3030 C.ar  1 <1>  -0.1440 
  8 N        2.3400    -1.4320     0.2990 N.2   1 <1>  -0.3380 
  9 N        2.4700    -3.5920     0.0380 N.pl3 1 <1>   0.0480 
 10 C       -1.7960    -1.9300    -1.1860 C.ar  1 <1>  -0.1500 
 11 C       -4.0930    -2.6860    -0.4780 C.3   1 <1>  -0.0960 
 12 N        3.6290    -1.7630     0.3460 N.2   1 <1>  -0.3380 
 13 C        3.6670    -3.0370     0.1890 C.2   1 <1>   0.2430 
 14 C        2.1500    -5.0140    -0.2060 C.3   1 <1>   0.0160 
 15 S        5.1890    -3.9870     0.1660 S.3   1 <1>  -0.2860 
 16 C        6.4840    -2.6870     0.4880 C.3   1 <1>   0.1310 
 17 C        7.8920    -3.2630     0.4490 C.2   1 <1>   0.5690 
 18 O        8.7760    -2.6220     0.9620 O.2   1 <1>  -0.5700 
 19 N        8.1080    -4.4610    -0.1650 N.am  1 <1>  -0.7300 
 20 C        9.3770    -5.2020    -0.3240 C.3   1 <1>   0.2200 
 21 C        9.9530    -5.6010     1.0400 C.3   1 <1>  -0.1600 
 22 C       10.3870    -4.3960    -1.1510 C.3   1 <1>  -0.1600 
 23 C       11.2690    -6.3760     0.8760 C.3   1 <1>  -0.1600 
 24 C       11.7030    -5.1700    -1.3170 C.3   1 <1>  -0.1600 
 25 C       12.2830    -5.5740     0.0460 C.3   1 <1>  -0.1600 
 26 H       -2.5640    -3.8840     1.4510 H     1 <1>   0.1500 
 27 H        0.1770    -1.3200    -1.7200 H     1 <1>   0.1500 
 28 H       -2.2530    -1.3910    -1.9980 H     1 <1>   0.1500 
 29 H       -4.5280    -1.7920    -0.0670 H     1 <1>   0.0800 
 30 H       -4.5150    -3.5380     0.0230 H     1 <1>   0.0800 
 31 H       -4.3460    -2.7460    -1.5210 H     1 <1>   0.0800 
 32 H        1.1530    -5.1050    -0.5960 H     1 <1>   0.0800 
 33 H        2.2240    -5.5570     0.7190 H     1 <1>   0.0800 
 34 H        2.8450    -5.4220    -0.9170 H     1 <1>   0.0800 
 35 H        6.2790    -2.2690     1.4560 H     1 <1>   0.0800 
 36 H        6.3720    -1.9300    -0.2640 H     1 <1>   0.0800 
 37 H        7.2880    -4.9480    -0.5300 H     1 <1>   0.3700 
 38 H        9.1600    -6.1080    -0.8660 H     1 <1>   0.0800 
 39 H        9.2410    -6.2100     1.5690 H     1 <1>   0.0800 
 40 H       10.1440    -4.7180     1.6240 H     1 <1>   0.0800 
 41 H       10.5970    -3.4640    -0.6570 H     1 <1>   0.0800 
 42 H        9.9710    -4.1820    -2.1190 H     1 <1>   0.0800 
 43 H       11.0740    -7.3160     0.3890 H     1 <1>   0.0800 
 44 H       11.6850    -6.5870     1.8460 H     1 <1>   0.0800 
 45 H       12.4150    -4.5590    -1.8440 H     1 <1>   0.0800 
 46 H       11.5270    -6.0540    -1.9060 H     1 <1>   0.0800 
 47 H       13.1740    -6.1600    -0.1000 H     1 <1>   0.0800 
 48 H       12.5590    -4.6860     0.5890 H     1 <1>   0.0800 
@<TRIPOS>BOND
  1   1   2  1   
  2   2   3  ar  
  3   2   4  ar  
  4   3   5  1   
  5   3   6  ar  
  6   4   7  ar  
  7   4  26  1   
  8   5   8  2   
  9   5   9  1   
 10   6  10  ar  
 11   6  27  1   
 12   7  10  ar  
 13   7  11  1   
 14   8  12  1   
 15   9  13  1   
 16   9  14  1   
 17  10  28  1   
 18  11  29  1   
 19  11  30  1   
 20  11  31  1   
 21  12  13  2   
 22  13  15  1   
 23  14  32  1   
 24  14  33  1   
 25  14  34  1   
 26  15  16  1   
 27  16  17  1   
 28  16  35  1   
 29  16  36  1   
 30  17  18  2   
 31  17  19  am  
 32  19  20  1   
 33  19  37  1   
 34  20  21  1   
 35  20  22  1   
 36  20  38  1   
 37  21  23  1   
 38  21  39  1   
 39  21  40  1   
 40  22  24  1   
 41  22  41  1   
 42  22  42  1   
 43  23  25  1   
 44  23  43  1   
 45  23  44  1   
 46  24  25  1   
 47  24  45  1   
 48  24  46  1   
 49  25  47  1   
 50  25  48  1   
@<TRIPOS>SUBSTRUCTURE
  1 ****  13 GROUP 4 **** **** 0

# MOE 2024.06 (io_trps.svl 2023.06)
