@<TRIPOS>MOLECULE
NONAME
44 46 1 0 0 
SMALL
USER_CHARGES


@<TRIPOS>ATOM
  1 F        1.4690    -0.0530    -1.6130 F     1 <1>  -0.1900 
  2 C        1.7990    -1.2230    -1.1400 C.ar  1 <1>   0.1900 
  3 C        2.4710    -2.1090    -1.9590 C.ar  1 <1>  -0.1500 
  4 C        1.4640    -1.5340     0.1640 C.ar  1 <1>  -0.1500 
  5 C        2.8210    -3.3490    -1.4520 C.ar  1 <1>  -0.1500 
  6 C        1.8200    -2.7760     0.6630 C.ar  1 <1>  -0.1500 
  7 C        2.5020    -3.6850    -0.1390 C.ar  1 <1>  -0.1430 
  8 C        2.9040    -5.0370     0.4250 C.3   1 <1>   0.4870 
  9 N        4.3840    -5.1050     0.5170 N.4   1 <1>  -0.9590 
 10 C        4.9280    -6.4350     0.9490 C.3   1 <1>   0.3430 
 11 C        5.0190    -3.9870     1.2910 C.3   1 <1>   0.3430 
 12 C        6.4780    -6.4460     0.9010 C.3   1 <1>   0.1100 
 13 C        6.5550    -4.0050     1.1000 C.3   1 <1>   0.1100 
 14 N        7.0060    -5.1900     0.3260 N.3   1 <1>  -0.8100 
 15 C        8.4770    -5.2090     0.0710 C.3   1 <1>   0.1710 
 16 C        9.0320    -3.9730    -0.6590 C.2   1 <1>   0.5690 
 17 O        8.3910    -3.4760    -1.5580 O.2   1 <1>  -0.5700 
 18 N       10.2300    -3.4620    -0.2590 N.am  1 <1>  -0.5790 
 19 C       10.8880    -2.2860    -0.8470 C.3   1 <1>   0.0490 
 20 C       12.3790    -2.2760    -0.9120 C.3   1 <1>  -0.2000 
 21 C       11.6620    -1.3890     0.0610 C.3   1 <1>  -0.2000 
 22 H        2.7110    -1.8280    -2.9700 H     1 <1>   0.1500 
 23 H        0.9350    -0.8160     0.7660 H     1 <1>   0.1500 
 24 H        3.3420    -4.0400    -2.0940 H     1 <1>   0.1500 
 25 H        1.5560    -3.0200     1.6790 H     1 <1>   0.1500 
 26 H        2.5370    -5.8160    -0.2230 H     1 <1>   0.0800 
 27 H        2.4670    -5.1690     1.4010 H     1 <1>   0.0800 
 28 H        4.7820    -4.9660    -0.4260 H     1 <1>   0.4500 
 29 H        4.5570    -7.2090     0.2980 H     1 <1>   0.0800 
 30 H        4.6020    -6.6630     1.9510 H     1 <1>   0.0800 
 31 H        4.7850    -4.0810     2.3380 H     1 <1>   0.0800 
 32 H        4.6420    -3.0350     0.9520 H     1 <1>   0.0800 
 33 H        6.8000    -7.2810     0.3020 H     1 <1>   0.0800 
 34 H        6.8690    -6.5870     1.8950 H     1 <1>   0.0800 
 35 H        7.0370    -3.9820     2.0630 H     1 <1>   0.0800 
 36 H        6.8360    -3.1060     0.5760 H     1 <1>   0.0800 
 37 H        8.7080    -6.0630    -0.5400 H     1 <1>   0.0800 
 38 H        8.9960    -5.3230     1.0060 H     1 <1>   0.0800 
 39 H       10.7630    -3.9080     0.4860 H     1 <1>   0.3700 
 40 H       10.3340    -1.8450    -1.6620 H     1 <1>   0.1000 
 41 H       12.8540    -1.8170    -1.7620 H     1 <1>   0.1000 
 42 H       12.9260    -3.1250    -0.5430 H     1 <1>   0.1000 
 43 H       11.7090    -1.6180     1.1100 H     1 <1>   0.1000 
 44 H       11.6510    -0.3300    -0.1310 H     1 <1>   0.1000 
@<TRIPOS>BOND
  1   1   2  1   
  2   2   3  ar  
  3   2   4  ar  
  4   3   5  ar  
  5   3  22  1   
  6   4   6  ar  
  7   4  23  1   
  8   5   7  ar  
  9   5  24  1   
 10   6   7  ar  
 11   6  25  1   
 12   7   8  1   
 13   8   9  1   
 14   8  26  1   
 15   8  27  1   
 16   9  10  1   
 17   9  11  1   
 18   9  28  1   
 19  10  12  1   
 20  10  29  1   
 21  10  30  1   
 22  11  13  1   
 23  11  31  1   
 24  11  32  1   
 25  12  14  1   
 26  12  33  1   
 27  12  34  1   
 28  13  14  1   
 29  13  35  1   
 30  13  36  1   
 31  14  15  1   
 32  15  16  1   
 33  15  37  1   
 34  15  38  1   
 35  16  17  2   
 36  16  18  am  
 37  18  19  1   
 38  18  39  1   
 39  19  20  1   
 40  19  21  1   
 41  19  40  1   
 42  20  21  1   
 43  20  41  1   
 44  20  42  1   
 45  21  43  1   
 46  21  44  1   
@<TRIPOS>SUBSTRUCTURE
  1 ****  13 GROUP 4 **** **** 0

# MOE 2024.06 (io_trps.svl 2023.06)
