@<TRIPOS>MOLECULE
NONAME
55 56 1 0 0 
SMALL
USER_CHARGES


@<TRIPOS>ATOM
  1 O        2.1720    -1.5050     1.9400 O.2   1 <1>  -0.5700 
  2 C        2.1810    -1.7110     0.7480 C.2   1 <1>   0.5690 
  3 N        1.1230    -2.3100     0.1110 N.am  1 <1>  -0.6600 
  4 C        3.4270    -1.2660    -0.0160 C.3   1 <1>  -0.0190 
  5 C        1.0140    -2.5400    -1.3560 C.3   1 <1>   0.1400 
  6 C       -0.0730    -2.7360     0.8920 C.3   1 <1>   0.1400 
  7 C        4.6340    -1.3430     0.9430 C.3   1 <1>   0.3430 
  8 C        3.2410     0.1450    -0.6250 C.3   1 <1>  -0.1600 
  9 C        1.4960    -3.9500    -1.6910 C.3   1 <1>  -0.2400 
 10 C       -1.0970    -1.6030     0.9190 C.3   1 <1>  -0.2400 
 11 N        5.7690    -0.4590     0.5180 N.4   1 <1>  -0.9590 
 12 C        3.8860     1.2200     0.2620 C.3   1 <1>  -0.1600 
 13 C        5.3920     0.9970     0.4740 C.3   1 <1>   0.3430 
 14 C        6.4030    -0.9130    -0.7510 C.3   1 <1>   0.4860 
 15 C        7.7270    -0.1930    -0.9080 C.ar  1 <1>  -0.1440 
 16 C        8.7690    -0.4680    -0.0350 C.ar  1 <1>  -0.1500 
 17 C        7.9120     0.7460    -1.9110 C.ar  1 <1>  -0.1500 
 18 C        9.9840     0.1880    -0.1300 C.ar  1 <1>   0.0820 
 19 C        9.1220     1.4080    -2.0270 C.ar  1 <1>  -0.1500 
 20 O       10.8910    -0.1920     0.8140 O.3   1 <1>  -0.3630 
 21 C       10.1590     1.1440    -1.1450 C.ar  1 <1>   0.0820 
 22 C       12.2360     0.2270     0.8040 C.3   1 <1>   0.1200 
 23 O       11.2990     1.8440    -1.3180 O.3   1 <1>  -0.5330 
 24 C       12.9660    -0.5020     1.9270 C.3   1 <1>  -0.2400 
 25 H        3.5980    -1.9700    -0.8070 H     1 <1>   0.0800 
 26 H        1.5910    -1.8130    -1.8980 H     1 <1>   0.0800 
 27 H       -0.0130    -2.4280    -1.6640 H     1 <1>   0.0800 
 28 H        0.2150    -2.9830     1.9010 H     1 <1>   0.0800 
 29 H       -0.5080    -3.6170     0.4520 H     1 <1>   0.0800 
 30 H        4.9610    -2.3670     1.0310 H     1 <1>   0.0800 
 31 H        4.3170    -1.0240     1.9230 H     1 <1>   0.0800 
 32 H        2.1920     0.3610    -0.7490 H     1 <1>   0.0800 
 33 H        3.6910     0.1800    -1.6020 H     1 <1>   0.0800 
 34 H        2.5170    -4.0890    -1.3890 H     1 <1>   0.0800 
 35 H        1.4280    -4.1120    -2.7520 H     1 <1>   0.0800 
 36 H        0.8800    -4.6830    -1.2010 H     1 <1>   0.0800 
 37 H       -0.6700    -0.7320     1.3820 H     1 <1>   0.0800 
 38 H       -1.9530    -1.9060     1.4940 H     1 <1>   0.0800 
 39 H       -1.4250    -1.3590    -0.0750 H     1 <1>   0.0800 
 40 H        6.5110    -0.5360     1.2260 H     1 <1>   0.4500 
 41 H        3.3960     1.2280     1.2210 H     1 <1>   0.0800 
 42 H        3.7350     2.1930    -0.1720 H     1 <1>   0.0800 
 43 H        5.9370     1.4860    -0.3170 H     1 <1>   0.0800 
 44 H        5.6800     1.4720     1.3990 H     1 <1>   0.0800 
 45 H        5.7610    -0.6990    -1.5890 H     1 <1>   0.0800 
 46 H        6.5820    -1.9750    -0.7160 H     1 <1>   0.0800 
 47 H        8.6660    -1.2050     0.7420 H     1 <1>   0.1500 
 48 H        7.1260     0.9730    -2.6120 H     1 <1>   0.1500 
 49 H        9.2520     2.1340    -2.8100 H     1 <1>   0.1500 
 50 H       12.2630     1.2920     0.9610 H     1 <1>   0.0800 
 51 H       12.6640    -0.0200    -0.1530 H     1 <1>   0.0800 
 52 H       11.2690     2.4540    -2.0770 H     1 <1>   0.4500 
 53 H       12.5220    -0.2590     2.8760 H     1 <1>   0.0800 
 54 H       13.9970    -0.2000     1.9440 H     1 <1>   0.0800 
 55 H       12.9220    -1.5640     1.7690 H     1 <1>   0.0800 
@<TRIPOS>BOND
  1   1   2  2   
  2   2   3  am  
  3   2   4  1   
  4   3   5  1   
  5   3   6  1   
  6   4   7  1   
  7   4   8  1   
  8   4  25  1   
  9   5   9  1   
 10   5  26  1   
 11   5  27  1   
 12   6  10  1   
 13   6  28  1   
 14   6  29  1   
 15   7  11  1   
 16   7  30  1   
 17   7  31  1   
 18   8  12  1   
 19   8  32  1   
 20   8  33  1   
 21   9  34  1   
 22   9  35  1   
 23   9  36  1   
 24  10  37  1   
 25  10  38  1   
 26  10  39  1   
 27  11  13  1   
 28  11  14  1   
 29  11  40  1   
 30  12  13  1   
 31  12  41  1   
 32  12  42  1   
 33  13  43  1   
 34  13  44  1   
 35  14  15  1   
 36  14  45  1   
 37  14  46  1   
 38  15  16  ar  
 39  15  17  ar  
 40  16  18  ar  
 41  16  47  1   
 42  17  19  ar  
 43  17  48  1   
 44  18  20  1   
 45  18  21  ar  
 46  19  21  ar  
 47  19  49  1   
 48  20  22  1   
 49  21  23  1   
 50  22  24  1   
 51  22  50  1   
 52  22  51  1   
 53  23  52  1   
 54  24  53  1   
 55  24  54  1   
 56  24  55  1   
@<TRIPOS>SUBSTRUCTURE
  1 ****  11 GROUP 4 **** **** 0

# MOE 2024.06 (io_trps.svl 2023.06)
