@<TRIPOS>MOLECULE
NONAME
40 42 1 0 0 
SMALL
USER_CHARGES


@<TRIPOS>ATOM
  1 CL      -2.1250    -0.2870    -2.5210 Cl    1 <1>  -0.1770 
  2 C       -3.1020     0.7540    -1.5180 C.ar  1 <1>   0.1770 
  3 C       -4.2590     1.3040    -2.0350 C.ar  1 <1>  -0.1500 
  4 C       -2.7040     1.0140    -0.2200 C.ar  1 <1>  -0.1500 
  5 C       -5.0320     2.1280    -1.2360 C.ar  1 <1>  -0.1500 
  6 C       -3.4820     1.8390     0.5750 C.ar  1 <1>  -0.1500 
  7 C       -4.6510     2.4010     0.0740 C.ar  1 <1>  -0.1430 
  8 C       -5.5030     3.3160     0.9530 C.3   1 <1>   0.4820 
  9 O       -6.8080     2.7610     1.0240 O.3   1 <1>  -0.3570 
 10 C       -5.5210     4.7390     0.4210 C.2   1 <1>  -0.0730 
 11 C       -7.8780     3.2970     0.4430 C.2   1 <1>  -0.0610 
 12 C       -4.2560     5.3760     0.5280 C.1   1 <1>   0.4920 
 13 C       -6.6450     5.2910    -0.0960 C.2   1 <1>   0.1000 
 14 C       -7.8930     4.5440    -0.1070 C.2   1 <1>   0.0140 
 15 C       -9.0810     2.3680     0.4690 C.3   1 <1>  -0.0220 
 16 N       -3.2400     5.8760     0.6650 N.1   1 <1>  -0.5570 
 17 N       -6.6200     6.5710    -0.6340 N.pl3 1 <1>  -0.9000 
 18 C       -9.1220     5.0850    -0.6530 C.2   1 <1>   0.4950 
 19 C      -10.1070     2.7220    -0.6250 C.3   1 <1>   0.0000 
 20 O       -9.2570     6.1830    -1.1390 O.2   1 <1>  -0.5700 
 21 C      -10.3850     4.2370    -0.5840 C.3   1 <1>  -0.0990 
 22 C       -9.5670     2.3200    -2.0110 C.3   1 <1>  -0.2400 
 23 C      -11.4140     1.9530    -0.3760 C.3   1 <1>  -0.2400 
 24 H       -4.5470     1.0880    -3.0480 H     1 <1>   0.1500 
 25 H       -1.7980     0.5750     0.1570 H     1 <1>   0.1500 
 26 H       -5.9350     2.5570    -1.6380 H     1 <1>   0.1500 
 27 H       -3.1650     2.0400     1.5850 H     1 <1>   0.1500 
 28 H       -5.1210     3.3160     1.9590 H     1 <1>   0.0800 
 29 H       -9.5340     2.4340     1.4430 H     1 <1>   0.0800 
 30 H       -8.7520     1.3520     0.3340 H     1 <1>   0.0800 
 31 H       -5.9500     7.2770    -0.3090 H     1 <1>   0.4000 
 32 H       -7.5360     6.9620    -0.9270 H     1 <1>   0.4000 
 33 H      -11.0310     4.5090    -1.4000 H     1 <1>   0.0800 
 34 H      -10.8930     4.4900     0.3280 H     1 <1>   0.0800 
 35 H       -8.6430     2.8210    -2.2380 H     1 <1>   0.0800 
 36 H      -10.2780     2.5700    -2.7790 H     1 <1>   0.0800 
 37 H       -9.3880     1.2600    -2.0530 H     1 <1>   0.0800 
 38 H      -11.8320     2.2070     0.5820 H     1 <1>   0.0800 
 39 H      -11.2380     0.8910    -0.3960 H     1 <1>   0.0800 
 40 H      -12.1410     2.1880    -1.1340 H     1 <1>   0.0800 
@<TRIPOS>BOND
  1   1   2  1   
  2   2   3  ar  
  3   2   4  ar  
  4   3   5  ar  
  5   3  24  1   
  6   4   6  ar  
  7   4  25  1   
  8   5   7  ar  
  9   5  26  1   
 10   6   7  ar  
 11   6  27  1   
 12   7   8  1   
 13   8   9  1   
 14   8  10  1   
 15   8  28  1   
 16   9  11  1   
 17  10  12  1   
 18  10  13  2   
 19  11  14  2   
 20  11  15  1   
 21  12  16  3   
 22  13  14  1   
 23  13  17  1   
 24  14  18  1   
 25  15  19  1   
 26  15  29  1   
 27  15  30  1   
 28  17  31  1   
 29  17  32  1   
 30  18  20  2   
 31  18  21  1   
 32  19  21  1   
 33  19  22  1   
 34  19  23  1   
 35  21  33  1   
 36  21  34  1   
 37  22  35  1   
 38  22  36  1   
 39  22  37  1   
 40  23  38  1   
 41  23  39  1   
 42  23  40  1   
@<TRIPOS>SUBSTRUCTURE
  1 ****   9 GROUP 4 **** **** 0

# MOE 2024.06 (io_trps.svl 2023.06)
