@<TRIPOS>MOLECULE
NONAME
50 52 1 0 0 
SMALL
USER_CHARGES


@<TRIPOS>ATOM
  1 F       -0.4710    -0.5240    -0.3150 F     1 <1>  -0.1900 
  2 C       -1.6450    -1.1020    -0.2690 C.ar  1 <1>   0.1900 
  3 C       -2.0180    -1.9390    -1.3030 C.ar  1 <1>  -0.1500 
  4 C       -2.4680    -0.8530     0.8130 C.ar  1 <1>  -0.1500 
  5 C       -3.2600    -2.5450    -1.2460 C.ar  1 <1>  -0.1500 
  6 C       -3.7080    -1.4670     0.8570 C.ar  1 <1>  -0.1500 
  7 C       -4.1140    -2.3170    -0.1710 C.ar  1 <1>   0.1000 
  8 N       -5.3550    -2.9420    -0.1450 N.pl3 1 <1>  -0.8380 
  9 C       -6.5420    -2.0650    -0.3570 C.3   1 <1>   0.2090 
 10 C       -5.5410    -4.0070     0.8820 C.3   1 <1>   0.2090 
 11 C       -7.8060    -2.9100    -0.6280 C.3   1 <1>   0.3430 
 12 C       -6.8170    -4.8270     0.5940 C.3   1 <1>   0.3430 
 13 N       -8.0490    -3.9620     0.4340 N.4   1 <1>  -0.9590 
 14 C       -9.2280    -4.8260     0.1210 C.3   1 <1>   0.3430 
 15 C      -10.5560    -4.0750     0.2550 C.3   1 <1>  -0.0990 
 16 C      -11.6990    -5.0230    -0.0420 C.2   1 <1>   0.5690 
 17 O      -11.4260    -6.0900    -0.5310 O.2   1 <1>  -0.5700 
 18 N      -12.9680    -4.6100     0.2500 N.am  1 <1>  -0.5470 
 19 C      -14.2020    -5.2680     0.1080 C.ar  1 <1>   0.1170 
 20 C      -15.3630    -4.5020     0.0950 C.ar  1 <1>  -0.1500 
 21 C      -14.3270    -6.6490    -0.0030 C.ar  1 <1>  -0.1500 
 22 C      -16.6070    -5.0940    -0.0310 C.ar  1 <1>  -0.1500 
 23 C      -15.5700    -7.2420    -0.1300 C.ar  1 <1>  -0.1500 
 24 C      -16.7180    -6.4690    -0.1460 C.ar  1 <1>  -0.1430 
 25 C      -18.0810    -7.1230    -0.2850 C.3   1 <1>  -0.0970 
 26 H       -1.3490    -2.1070    -2.1280 H     1 <1>   0.1500 
 27 H       -2.1390    -0.1950     1.5970 H     1 <1>   0.1500 
 28 H       -3.5770    -3.2010    -2.0360 H     1 <1>   0.1500 
 29 H       -4.3600    -1.2860     1.6890 H     1 <1>   0.1500 
 30 H       -6.3570    -1.4200    -1.2000 H     1 <1>   0.0800 
 31 H       -6.6930    -1.4430     0.5080 H     1 <1>   0.0800 
 32 H       -5.6010    -3.5640     1.8600 H     1 <1>   0.0800 
 33 H       -4.6850    -4.6620     0.8670 H     1 <1>   0.0800 
 34 H       -7.6840    -3.3900    -1.5850 H     1 <1>   0.0800 
 35 H       -8.6550    -2.2510    -0.6970 H     1 <1>   0.0800 
 36 H       -6.9650    -5.5340     1.3930 H     1 <1>   0.0800 
 37 H       -6.6520    -5.3860    -0.3130 H     1 <1>   0.0800 
 38 H       -8.2030    -3.4860     1.3320 H     1 <1>   0.4500 
 39 H       -9.2490    -5.6690     0.7940 H     1 <1>   0.0800 
 40 H       -9.1410    -5.2190    -0.8810 H     1 <1>   0.0800 
 41 H      -10.6070    -3.2650    -0.4480 H     1 <1>   0.0800 
 42 H      -10.6680    -3.7010     1.2550 H     1 <1>   0.0800 
 43 H      -13.0640    -3.6570     0.5940 H     1 <1>   0.3700 
 44 H      -15.3030    -3.4330     0.1800 H     1 <1>   0.1500 
 45 H      -13.4570    -7.2780     0.0120 H     1 <1>   0.1500 
 46 H      -17.4910    -4.4800    -0.0390 H     1 <1>   0.1500 
 47 H      -15.6380    -8.3130    -0.2160 H     1 <1>   0.1500 
 48 H      -18.7730    -6.4540    -0.7640 H     1 <1>   0.0800 
 49 H      -18.4610    -7.3800     0.6870 H     1 <1>   0.0800 
 50 H      -18.0090    -8.0170    -0.8780 H     1 <1>   0.0800 
@<TRIPOS>BOND
  1   1   2  1   
  2   2   3  ar  
  3   2   4  ar  
  4   3   5  ar  
  5   3  26  1   
  6   4   6  ar  
  7   4  27  1   
  8   5   7  ar  
  9   5  28  1   
 10   6   7  ar  
 11   6  29  1   
 12   7   8  1   
 13   8   9  1   
 14   8  10  1   
 15   9  11  1   
 16   9  30  1   
 17   9  31  1   
 18  10  12  1   
 19  10  32  1   
 20  10  33  1   
 21  11  13  1   
 22  11  34  1   
 23  11  35  1   
 24  12  13  1   
 25  12  36  1   
 26  12  37  1   
 27  13  14  1   
 28  13  38  1   
 29  14  15  1   
 30  14  39  1   
 31  14  40  1   
 32  15  16  1   
 33  15  41  1   
 34  15  42  1   
 35  16  17  2   
 36  16  18  am  
 37  18  19  1   
 38  18  43  1   
 39  19  20  ar  
 40  19  21  ar  
 41  20  22  ar  
 42  20  44  1   
 43  21  23  ar  
 44  21  45  1   
 45  22  24  ar  
 46  22  46  1   
 47  23  24  ar  
 48  23  47  1   
 49  24  25  1   
 50  25  48  1   
 51  25  49  1   
 52  25  50  1   
@<TRIPOS>SUBSTRUCTURE
  1 ****  14 GROUP 4 **** **** 0

# MOE 2024.06 (io_trps.svl 2023.06)
