@<TRIPOS>MOLECULE
NONAME
54 56 1 0 0 
SMALL
USER_CHARGES


@<TRIPOS>ATOM
  1 S        0.3070     0.0330     0.3260 S.o2  1 <1>   1.4470 
  2 O        0.6400    -0.3610     1.6740 O.2   1 <1>  -0.6500 
  3 O        1.2720    -0.1800    -0.7330 O.2   1 <1>  -0.6500 
  4 N        0.0270     1.7410     0.3570 N.am  1 <1>  -0.6930 
  5 C       -1.3090    -0.6190    -0.1730 C.ar  1 <1>  -0.0090 
  6 C       -0.8560     2.2820     1.2810 C.ar  1 <1>   0.1990 
  7 C        1.1010     2.6230    -0.1960 C.3   1 <1>   0.2570 
  8 C       -1.6300    -0.8050    -1.5120 C.ar  1 <1>  -0.1500 
  9 C       -2.2840    -0.9120     0.7740 C.ar  1 <1>  -0.1500 
 10 C       -2.2000     2.4160     0.9580 C.ar  1 <1>  -0.1500 
 11 C       -0.4250     2.6910     2.5360 C.ar  1 <1>  -0.1500 
 12 C        2.4280     2.5820     0.5710 C.2   1 <1>   0.5690 
 13 C       -2.8770    -1.2710    -1.8930 C.ar  1 <1>  -0.1500 
 14 C       -3.5320    -1.3770     0.3990 C.ar  1 <1>  -0.1500 
 15 C       -3.1040     2.9400     1.8660 C.ar  1 <1>  -0.1430 
 16 C       -1.3190     3.2220     3.4470 C.ar  1 <1>  -0.1500 
 17 O        2.7370     3.5320     1.2500 O.2   1 <1>  -0.5700 
 18 N        3.2390     1.4960     0.4550 N.am  1 <1>  -0.7300 
 19 C       -3.8350    -1.5600    -0.9380 C.ar  1 <1>  -0.1430 
 20 C       -2.6570     3.3450     3.1130 C.ar  1 <1>  -0.1500 
 21 C       -4.5710     3.0710     1.5000 C.3   1 <1>  -0.0970 
 22 C        4.4990     1.2740     1.2160 C.3   1 <1>   0.1400 
 23 C       -5.2040    -2.0700    -1.3530 C.3   1 <1>  -0.0970 
 24 C        5.7300     1.4690     0.3220 C.3   1 <1>   0.2000 
 25 O        6.8850     1.2050     1.0600 O.3   1 <1>  -0.5600 
 26 C        5.9000     2.8850    -0.2160 C.3   1 <1>  -0.1600 
 27 C        7.9110     2.1030     0.7640 C.3   1 <1>   0.1200 
 28 C        7.4030     2.9990    -0.3570 C.3   1 <1>  -0.1600 
 29 H        0.7480     3.6390    -0.1920 H     1 <1>   0.0800 
 30 H        1.2880     2.3520    -1.2190 H     1 <1>   0.0800 
 31 H       -0.8960    -0.5840    -2.2680 H     1 <1>   0.1500 
 32 H       -2.0640    -0.7690     1.8190 H     1 <1>   0.1500 
 33 H       -2.5340     2.1030    -0.0150 H     1 <1>   0.1500 
 34 H        0.6130     2.5880     2.8010 H     1 <1>   0.1500 
 35 H       -3.0970    -1.4060    -2.9380 H     1 <1>   0.1500 
 36 H       -4.2660    -1.5940     1.1570 H     1 <1>   0.1500 
 37 H       -0.9740     3.5360     4.4170 H     1 <1>   0.1500 
 38 H        2.9080     0.6890    -0.0950 H     1 <1>   0.3700 
 39 H       -3.3470     3.7590     3.8280 H     1 <1>   0.1500 
 40 H       -4.8340     2.3650     0.7320 H     1 <1>   0.0800 
 41 H       -4.7690     4.0650     1.1410 H     1 <1>   0.0800 
 42 H       -5.1890     2.8820     2.3590 H     1 <1>   0.0800 
 43 H        4.4970     0.2730     1.6080 H     1 <1>   0.0800 
 44 H        4.5480     1.9640     2.0420 H     1 <1>   0.0800 
 45 H       -5.8640    -1.2400    -1.5300 H     1 <1>   0.0800 
 46 H       -5.6250    -2.6900    -0.5820 H     1 <1>   0.0800 
 47 H       -5.1300    -2.6530    -2.2530 H     1 <1>   0.0800 
 48 H        5.7130     0.7620    -0.4890 H     1 <1>   0.0800 
 49 H        5.5360     3.5960     0.5060 H     1 <1>   0.0800 
 50 H        5.3790     3.0270    -1.1460 H     1 <1>   0.0800 
 51 H        8.7900     1.5510     0.4800 H     1 <1>   0.0800 
 52 H        8.1070     2.6750     1.6550 H     1 <1>   0.0800 
 53 H        7.7540     4.0110    -0.2570 H     1 <1>   0.0800 
 54 H        7.7230     2.6010    -1.3040 H     1 <1>   0.0800 
@<TRIPOS>BOND
  1   1   2  2   
  2   1   3  2   
  3   1   4  am  
  4   1   5  1   
  5   4   6  1   
  6   4   7  1   
  7   5   8  ar  
  8   5   9  ar  
  9   6  10  ar  
 10   6  11  ar  
 11   7  12  1   
 12   7  29  1   
 13   7  30  1   
 14   8  13  ar  
 15   8  31  1   
 16   9  14  ar  
 17   9  32  1   
 18  10  15  ar  
 19  10  33  1   
 20  11  16  ar  
 21  11  34  1   
 22  12  17  2   
 23  12  18  am  
 24  13  19  ar  
 25  13  35  1   
 26  14  19  ar  
 27  14  36  1   
 28  15  20  ar  
 29  15  21  1   
 30  16  20  ar  
 31  16  37  1   
 32  18  22  1   
 33  18  38  1   
 34  19  23  1   
 35  20  39  1   
 36  21  40  1   
 37  21  41  1   
 38  21  42  1   
 39  22  24  1   
 40  22  43  1   
 41  22  44  1   
 42  23  45  1   
 43  23  46  1   
 44  23  47  1   
 45  24  25  1   
 46  24  26  1   
 47  24  48  1   
 48  25  27  1   
 49  26  28  1   
 50  26  49  1   
 51  26  50  1   
 52  27  28  1   
 53  27  51  1   
 54  27  52  1   
 55  28  53  1   
 56  28  54  1   
@<TRIPOS>SUBSTRUCTURE
  1 ****   4 GROUP 4 **** **** 0

# MOE 2024.06 (io_trps.svl 2023.06)
