@<TRIPOS>MOLECULE
NONAME
27 26 1 0 0 
SMALL
USER_CHARGES


@<TRIPOS>ATOM
  1 O        0.1490     0.8090    -1.3300 O.2   1 <1>  -0.5700 
  2 C        0.2030     1.3350    -0.2450 C.2   1 <1>   0.6590 
  3 O        1.3220     1.3740     0.4670 O.3   1 <1>  -0.4300 
  4 C       -1.0290     2.0150     0.3770 C.3   1 <1>   0.2610 
  5 C        2.5240     0.8280    -0.0210 C.3   1 <1>   0.1200 
  6 O       -2.2070     1.3760    -0.0220 O.3   1 <1>  -0.6800 
  7 C       -1.1550     3.4850    -0.0220 C.3   1 <1>  -0.0990 
  8 C        3.6240     1.1310     0.9900 C.3   1 <1>  -0.2400 
  9 C        0.0600     4.2440     0.4440 C.2   1 <1>   0.6590 
 10 O        0.1220     4.7070     1.5520 O.2   1 <1>  -0.5700 
 11 O        1.0530     4.3410    -0.4270 O.3   1 <1>  -0.4300 
 12 C        2.2650     4.9720    -0.0890 C.3   1 <1>   0.1200 
 13 C        3.2280     4.8020    -1.2590 C.3   1 <1>  -0.2400 
 14 H       -0.9700     1.9350     1.4480 H     1 <1>   0.0800 
 15 H        2.7420     1.2800    -0.9750 H     1 <1>   0.0800 
 16 H        2.3900    -0.2330    -0.1460 H     1 <1>   0.0800 
 17 H       -2.0590     0.9650    -0.9020 H     1 <1>   0.4000 
 18 H       -2.0230     3.9120     0.4440 H     1 <1>   0.0800 
 19 H       -1.2410     3.5780    -1.0890 H     1 <1>   0.0800 
 20 H        3.7370     2.1930     1.1100 H     1 <1>   0.0800 
 21 H        4.5570     0.7250     0.6430 H     1 <1>   0.0800 
 22 H        3.3880     0.6840     1.9390 H     1 <1>   0.0800 
 23 H        2.6560     4.5080     0.8020 H     1 <1>   0.0800 
 24 H        2.0650     6.0130     0.1040 H     1 <1>   0.0800 
 25 H        3.4060     3.7580    -1.4450 H     1 <1>   0.0800 
 26 H        4.1660     5.2740    -1.0290 H     1 <1>   0.0800 
 27 H        2.8210     5.2610    -2.1430 H     1 <1>   0.0800 
@<TRIPOS>BOND
  1   1   2  2   
  2   2   3  1   
  3   2   4  1   
  4   3   5  1   
  5   4   6  1   
  6   4   7  1   
  7   4  14  1   
  8   5   8  1   
  9   5  15  1   
 10   5  16  1   
 11   6  17  1   
 12   7   9  1   
 13   7  18  1   
 14   7  19  1   
 15   8  20  1   
 16   8  21  1   
 17   8  22  1   
 18   9  10  2   
 19   9  11  1   
 20  11  12  1   
 21  12  13  1   
 22  12  23  1   
 23  12  24  1   
 24  13  25  1   
 25  13  26  1   
 26  13  27  1   
@<TRIPOS>SUBSTRUCTURE
  1 ****   3 GROUP 4 **** **** 0

# MOE 2024.06 (io_trps.svl 2023.06)
