@<TRIPOS>MOLECULE
NONAME
33 33 1 0 0 
SMALL
USER_CHARGES


@<TRIPOS>ATOM
  1 O        0.3890    -1.4140     0.7660 O.co2 1 <1>  -0.9000 
  2 C       -0.0500    -2.0430    -0.2130 C.2   1 <1>   0.9790 
  3 O        0.6630    -2.1500    -1.2250 O.co2 1 <1>  -0.9000 
  4 C       -1.3760    -2.6120    -0.1740 C.ar  1 <1>  -0.1790 
  5 C       -1.6960    -3.9460     0.1420 C.ar  1 <1>   0.0820 
  6 C       -2.4350    -1.7530    -0.4770 C.ar  1 <1>  -0.1500 
  7 O       -0.8210    -4.9340     0.4870 O.3   1 <1>  -0.3630 
  8 C       -3.0180    -4.3580     0.1230 C.ar  1 <1>  -0.1500 
  9 C       -3.7570    -2.1570    -0.4600 C.ar  1 <1>   0.1170 
 10 C        0.5650    -4.7250     0.6570 C.3   1 <1>   0.0400 
 11 C       -4.0610    -3.4960    -0.1820 C.ar  1 <1>   0.1000 
 12 N       -4.8340    -1.2930    -0.7350 N.am  1 <1>  -0.5470 
 13 N       -5.3920    -3.9490    -0.2010 N.pl3 1 <1>  -0.8380 
 14 C       -5.0880     0.0120    -0.4680 C.2   1 <1>   0.5690 
 15 C       -6.1030    -3.8800     1.1010 C.3   1 <1>   0.1290 
 16 C       -5.6780    -5.1740    -0.9920 C.3   1 <1>   0.1290 
 17 O       -6.1610     0.4870    -0.7450 O.2   1 <1>  -0.5700 
 18 C       -4.0700     0.8980     0.2110 C.3   1 <1>  -0.1790 
 19 H       -2.1830    -0.7440    -0.7380 H     1 <1>   0.1500 
 20 H       -3.2350    -5.3790     0.3610 H     1 <1>   0.1500 
 21 H        0.7190    -3.9510     1.3890 H     1 <1>   0.0800 
 22 H        0.9970    -4.4520    -0.2890 H     1 <1>   0.0800 
 23 H        1.0020    -5.6430     1.0030 H     1 <1>   0.0800 
 24 H       -5.6640    -1.8290    -0.9980 H     1 <1>   0.3700 
 25 H       -5.7950    -2.9990     1.6380 H     1 <1>   0.0800 
 26 H       -5.8720    -4.7470     1.6940 H     1 <1>   0.0800 
 27 H       -7.1650    -3.8300     0.9350 H     1 <1>   0.0800 
 28 H       -5.0210    -5.2180    -1.8440 H     1 <1>   0.0800 
 29 H       -6.6960    -5.1510    -1.3410 H     1 <1>   0.0800 
 30 H       -5.5280    -6.0520    -0.3880 H     1 <1>   0.0800 
 31 H       -3.5690     0.3600     0.9940 H     1 <1>   0.0800 
 32 H       -4.5620     1.7500     0.6400 H     1 <1>   0.0800 
 33 H       -3.3520     1.2400    -0.5100 H     1 <1>   0.0800 
@<TRIPOS>BOND
  1   1   2  ar  
  2   2   3  ar  
  3   2   4  1   
  4   4   5  ar  
  5   4   6  ar  
  6   5   7  1   
  7   5   8  ar  
  8   6   9  ar  
  9   6  19  1   
 10   7  10  1   
 11   8  11  ar  
 12   8  20  1   
 13   9  11  ar  
 14   9  12  1   
 15  10  21  1   
 16  10  22  1   
 17  10  23  1   
 18  11  13  1   
 19  12  14  am  
 20  12  24  1   
 21  13  15  1   
 22  13  16  1   
 23  14  17  2   
 24  14  18  1   
 25  15  25  1   
 26  15  26  1   
 27  15  27  1   
 28  16  28  1   
 29  16  29  1   
 30  16  30  1   
 31  18  31  1   
 32  18  32  1   
 33  18  33  1   
@<TRIPOS>SUBSTRUCTURE
  1 ****   9 GROUP 4 **** **** 0

# MOE 2024.06 (io_trps.svl 2023.06)
