@<TRIPOS>MOLECULE
NONAME
34 34 1 0 0 
SMALL
USER_CHARGES


@<TRIPOS>ATOM
  1 O        0.5730     0.0960    -0.1750 O.2   1 <1>  -0.5700 
  2 C        1.5440     0.7720     0.0760 C.2   1 <1>   0.6900 
  3 N        1.5910     2.0760    -0.2910 N.am  1 <1>  -0.5390 
  4 N        2.6010     0.2510     0.7210 N.am  1 <1>  -0.7300 
  5 C        2.6480     2.9210    -0.0180 C.2   1 <1>  -0.0290 
  6 C        3.9050     0.9370     0.8550 C.3   1 <1>   0.3580 
  7 C        3.7980     2.4390     0.5380 C.2   1 <1>  -0.1240 
  8 C        2.3600     4.3710    -0.3790 C.3   1 <1>  -0.1020 
  9 C        4.9080     0.2380    -0.0830 C.3   1 <1>  -0.1600 
 10 C        4.9870     3.1630     0.8860 C.2   1 <1>   0.7060 
 11 C        5.1090    -1.2570     0.2240 C.3   1 <1>  -0.1600 
 12 O        5.7920     2.7590     1.7050 O.2   1 <1>  -0.5700 
 13 O        5.2490     4.3170     0.2660 O.3   1 <1>  -0.4300 
 14 C        6.1950    -1.8580    -0.6720 C.3   1 <1>  -0.2400 
 15 C        6.4120     5.0640     0.5470 C.3   1 <1>   0.1200 
 16 C        6.3870     6.3190    -0.3190 C.3   1 <1>  -0.2400 
 17 H        0.7390     2.4040    -0.7410 H     1 <1>   0.3700 
 18 H        2.5710    -0.7460     0.9160 H     1 <1>   0.3700 
 19 H        4.2320     0.8180     1.8750 H     1 <1>   0.0800 
 20 H        1.3210     4.5970    -0.2190 H     1 <1>   0.0800 
 21 H        2.5950     4.5430    -1.4140 H     1 <1>   0.0800 
 22 H        2.9270     5.0530     0.2260 H     1 <1>   0.0800 
 23 H        5.8620     0.7260     0.0040 H     1 <1>   0.0800 
 24 H        4.5770     0.3600    -1.1000 H     1 <1>   0.0800 
 25 H        4.1920    -1.7980     0.0610 H     1 <1>   0.0800 
 26 H        5.3940    -1.3810     1.2550 H     1 <1>   0.0800 
 27 H        5.9250    -1.7610    -1.7090 H     1 <1>   0.0800 
 28 H        6.3200    -2.9030    -0.4490 H     1 <1>   0.0800 
 29 H        7.1360    -1.3610    -0.5100 H     1 <1>   0.0800 
 30 H        7.2720     4.4550     0.3220 H     1 <1>   0.0800 
 31 H        6.4120     5.3160     1.5940 H     1 <1>   0.0800 
 32 H        6.3760     6.0510    -1.3600 H     1 <1>   0.0800 
 33 H        7.2660     6.9090    -0.1270 H     1 <1>   0.0800 
 34 H        5.5200     6.9120    -0.0890 H     1 <1>   0.0800 
@<TRIPOS>BOND
  1   1   2  2   
  2   2   3  am  
  3   2   4  am  
  4   3   5  1   
  5   3  17  1   
  6   4   6  1   
  7   4  18  1   
  8   5   7  2   
  9   5   8  1   
 10   6   7  1   
 11   6   9  1   
 12   6  19  1   
 13   7  10  1   
 14   8  20  1   
 15   8  21  1   
 16   8  22  1   
 17   9  11  1   
 18   9  23  1   
 19   9  24  1   
 20  10  12  2   
 21  10  13  1   
 22  11  14  1   
 23  11  25  1   
 24  11  26  1   
 25  13  15  1   
 26  14  27  1   
 27  14  28  1   
 28  14  29  1   
 29  15  16  1   
 30  15  30  1   
 31  15  31  1   
 32  16  32  1   
 33  16  33  1   
 34  16  34  1   
@<TRIPOS>SUBSTRUCTURE
  1 ****   7 GROUP 4 **** **** 0

# MOE 2024.06 (io_trps.svl 2023.06)
