@<TRIPOS>MOLECULE
NONAME
47 48 1 0 0 
SMALL
USER_CHARGES


@<TRIPOS>ATOM
  1 S        0.0520     0.1940     0.3550 S.o2  1 <1>   1.3330 
  2 O        0.2820    -0.2160     1.7210 O.2   1 <1>  -0.6500 
  3 O       -1.0620     1.0590     0.0400 O.2   1 <1>  -0.6500 
  4 N        1.4690     0.9280    -0.2150 N.am  1 <1>  -0.8490 
  5 C       -0.0900    -1.2520    -0.6740 C.3   1 <1>  -0.1350 
  6 C        2.6850     0.2710     0.2980 C.3   1 <1>   0.1960 
  7 C        1.4880     2.3580     0.1120 C.3   1 <1>   0.1960 
  8 C        3.9360     0.8530    -0.3780 C.3   1 <1>  -0.0190 
  9 C        2.7000     3.0410    -0.5340 C.3   1 <1>  -0.1600 
 10 C        5.1960     0.1430     0.0960 C.2   1 <1>   0.5690 
 11 C        4.0180     2.3690    -0.1250 C.3   1 <1>  -0.1600 
 12 O        5.2140    -0.3860     1.1800 O.2   1 <1>  -0.5700 
 13 N        6.2770     0.1310    -0.7280 N.am  1 <1>  -0.7300 
 14 C        7.5760    -0.5180    -0.4200 C.3   1 <1>   0.1400 
 15 C        8.6820     0.5370    -0.3340 C.3   1 <1>  -0.0220 
 16 C       10.0750    -0.0400    -0.0810 C.2   1 <1>  -0.2760 
 17 C       10.3670    -1.3400     0.0590 C.2   1 <1>  -0.2880 
 18 C       11.1470     1.0440     0.0130 C.3   1 <1>  -0.0220 
 19 C       11.7570    -1.8860     0.3410 C.3   1 <1>  -0.0220 
 20 C       12.5670     0.4680    -0.0850 C.3   1 <1>  -0.1600 
 21 C       12.7170    -0.7790     0.7940 C.3   1 <1>  -0.1600 
 22 H       -0.9890    -1.7830    -0.4330 H     1 <1>   0.0800 
 23 H        0.7460    -1.9050    -0.5220 H     1 <1>   0.0800 
 24 H       -0.1260    -0.9640    -1.7060 H     1 <1>   0.0800 
 25 H        2.6440    -0.7860     0.1000 H     1 <1>   0.0800 
 26 H        2.7520     0.4030     1.3670 H     1 <1>   0.0800 
 27 H        1.5140     2.4870     1.1830 H     1 <1>   0.0800 
 28 H        0.5930     2.8310    -0.2590 H     1 <1>   0.0800 
 29 H        3.8410     0.6780    -1.4340 H     1 <1>   0.0800 
 30 H        2.7170     4.0770    -0.2450 H     1 <1>   0.0800 
 31 H        2.5850     3.0010    -1.6030 H     1 <1>   0.0800 
 32 H        4.8350     2.7960    -0.6790 H     1 <1>   0.0800 
 33 H        4.1970     2.5430     0.9230 H     1 <1>   0.0800 
 34 H        6.2260     0.5980    -1.6340 H     1 <1>   0.3700 
 35 H        7.8070    -1.2270    -1.1960 H     1 <1>   0.0800 
 36 H        7.5120    -1.0470     0.5160 H     1 <1>   0.0800 
 37 H        8.4410     1.2150     0.4660 H     1 <1>   0.0800 
 38 H        8.7040     1.0900    -1.2560 H     1 <1>   0.0800 
 39 H        9.6400    -2.1300    -0.0140 H     1 <1>   0.1500 
 40 H       11.0330     1.5600     0.9510 H     1 <1>   0.0800 
 41 H       11.0170     1.7620    -0.7780 H     1 <1>   0.0800 
 42 H       12.1340    -2.3520    -0.5530 H     1 <1>   0.0800 
 43 H       11.7010    -2.6370     1.1100 H     1 <1>   0.0800 
 44 H       13.2800     1.2160     0.2110 H     1 <1>   0.0800 
 45 H       12.7680     0.2010    -1.1080 H     1 <1>   0.0800 
 46 H       13.7300    -1.1400     0.7550 H     1 <1>   0.0800 
 47 H       12.4950    -0.5170     1.8140 H     1 <1>   0.0800 
@<TRIPOS>BOND
  1   1   2  2   
  2   1   3  2   
  3   1   4  am  
  4   1   5  1   
  5   4   6  1   
  6   4   7  1   
  7   5  22  1   
  8   5  23  1   
  9   5  24  1   
 10   6   8  1   
 11   6  25  1   
 12   6  26  1   
 13   7   9  1   
 14   7  27  1   
 15   7  28  1   
 16   8  10  1   
 17   8  11  1   
 18   8  29  1   
 19   9  11  1   
 20   9  30  1   
 21   9  31  1   
 22  10  12  2   
 23  10  13  am  
 24  11  32  1   
 25  11  33  1   
 26  13  14  1   
 27  13  34  1   
 28  14  15  1   
 29  14  35  1   
 30  14  36  1   
 31  15  16  1   
 32  15  37  1   
 33  15  38  1   
 34  16  17  2   
 35  16  18  1   
 36  17  19  1   
 37  17  39  1   
 38  18  20  1   
 39  18  40  1   
 40  18  41  1   
 41  19  21  1   
 42  19  42  1   
 43  19  43  1   
 44  20  21  1   
 45  20  44  1   
 46  20  45  1   
 47  21  46  1   
 48  21  47  1   
@<TRIPOS>SUBSTRUCTURE
  1 ****  10 GROUP 4 **** **** 0

# MOE 2024.06 (io_trps.svl 2023.06)
