@<TRIPOS>MOLECULE
NONAME
40 41 1 0 0 
SMALL
USER_CHARGES


@<TRIPOS>ATOM
  1 O        0.2150    -0.3230     0.9790 O.3   1 <1>  -0.3630 
  2 C       -0.7810    -0.8670     0.2240 C.ar  1 <1>   0.0830 
  3 C        1.5310    -0.8200     0.9190 C.3   1 <1>   0.1200 
  4 C       -0.8740    -2.2160    -0.1640 C.ar  1 <1>   0.0820 
  5 C       -1.7670     0.0250    -0.1670 C.ar  1 <1>  -0.1500 
  6 C        2.4790     0.2740     1.4040 C.3   1 <1>  -0.1600 
  7 O        0.0680    -3.1140     0.2500 O.3   1 <1>  -0.3630 
  8 C       -1.9490    -2.6140    -0.9580 C.ar  1 <1>  -0.1500 
  9 C       -2.8310    -0.3860    -0.9480 C.ar  1 <1>  -0.1500 
 10 C        3.9300    -0.2110     1.3430 C.3   1 <1>   0.1200 
 11 C       -0.1330    -4.5060     0.1430 C.3   1 <1>   0.0400 
 12 C       -2.9190    -1.7060    -1.3460 C.ar  1 <1>  -0.1500 
 13 O        4.7920     0.8110     1.7970 O.3   1 <1>  -0.3630 
 14 C        5.1730     1.8560     1.0170 C.ar  1 <1>   0.0830 
 15 C        4.8070     2.0160    -0.3160 C.ar  1 <1>  -0.1500 
 16 C        5.9810     2.8110     1.6140 C.ar  1 <1>  -0.1500 
 17 C        5.2470     3.1170    -1.0310 C.ar  1 <1>  -0.1500 
 18 C        6.4200     3.9100     0.8980 C.ar  1 <1>  -0.1500 
 19 C        6.0530     4.0700    -0.4290 C.ar  1 <1>  -0.1430 
 20 C        6.5350     5.2750    -1.2160 C.3   1 <1>  -0.0970 
 21 H        1.7470    -1.0900    -0.1010 H     1 <1>   0.0800 
 22 H        1.5920    -1.6870     1.5540 H     1 <1>   0.0800 
 23 H       -1.6920     1.0510     0.1460 H     1 <1>   0.1500 
 24 H        2.2350     0.5260     2.4210 H     1 <1>   0.0800 
 25 H        2.3540     1.1430     0.7840 H     1 <1>   0.0800 
 26 H       -2.0530    -3.6290    -1.2890 H     1 <1>   0.1500 
 27 H       -3.5870     0.3210    -1.2440 H     1 <1>   0.1500 
 28 H        4.2250    -0.5100     0.3530 H     1 <1>   0.0800 
 29 H        4.0630    -1.0490     2.0050 H     1 <1>   0.0800 
 30 H        0.6790    -5.0010     0.6450 H     1 <1>   0.0800 
 31 H       -0.1380    -4.7800    -0.8970 H     1 <1>   0.0800 
 32 H       -1.0650    -4.7620     0.6160 H     1 <1>   0.0800 
 33 H       -3.7440    -2.0280    -1.9580 H     1 <1>   0.1500 
 34 H        4.1830     1.3010    -0.8150 H     1 <1>   0.1500 
 35 H        6.2640     2.6850     2.6430 H     1 <1>   0.1500 
 36 H        4.9580     3.2290    -2.0610 H     1 <1>   0.1500 
 37 H        7.0470     4.6390     1.3780 H     1 <1>   0.1500 
 38 H        7.4760     5.0500    -1.6860 H     1 <1>   0.0800 
 39 H        6.6650     6.1210    -0.5660 H     1 <1>   0.0800 
 40 H        5.8210     5.5380    -1.9760 H     1 <1>   0.0800 
@<TRIPOS>BOND
  1   1   2  1   
  2   1   3  1   
  3   2   4  ar  
  4   2   5  ar  
  5   3   6  1   
  6   3  21  1   
  7   3  22  1   
  8   4   7  1   
  9   4   8  ar  
 10   5   9  ar  
 11   5  23  1   
 12   6  10  1   
 13   6  24  1   
 14   6  25  1   
 15   7  11  1   
 16   8  12  ar  
 17   8  26  1   
 18   9  12  ar  
 19   9  27  1   
 20  10  13  1   
 21  10  28  1   
 22  10  29  1   
 23  11  30  1   
 24  11  31  1   
 25  11  32  1   
 26  12  33  1   
 27  13  14  1   
 28  14  15  ar  
 29  14  16  ar  
 30  15  17  ar  
 31  15  34  1   
 32  16  18  ar  
 33  16  35  1   
 34  17  19  ar  
 35  17  36  1   
 36  18  19  ar  
 37  18  37  1   
 38  19  20  1   
 39  20  38  1   
 40  20  39  1   
 41  20  40  1   
@<TRIPOS>SUBSTRUCTURE
  1 ****   6 GROUP 4 **** **** 0

# MOE 2024.06 (io_trps.svl 2023.06)
