@<TRIPOS>MOLECULE
NONAME
52 54 1 0 0 
SMALL
USER_CHARGES


@<TRIPOS>ATOM
  1 O       -1.1770    -1.2690     2.7370 O.2   1 <1>  -0.5700 
  2 C       -1.6120    -2.1710     2.0590 C.2   1 <1>   0.6900 
  3 N       -0.9180    -2.6430     0.9970 N.am  1 <1>  -0.5390 
  4 N       -2.8020    -2.7280     2.3360 N.am  1 <1>  -0.7300 
  5 C       -1.3290    -3.6730     0.1740 C.2   1 <1>  -0.0290 
  6 C       -3.4660    -3.7190     1.4670 C.3   1 <1>   0.5020 
  7 C       -2.5530    -4.2420     0.3510 C.2   1 <1>  -0.1240 
  8 C       -0.3020    -4.0690    -0.8950 C.3   1 <1>   0.2480 
  9 C       -4.7150    -3.0570     0.8920 C.ar  1 <1>  -0.1430 
 10 C       -3.1330    -5.3030    -0.4160 C.2   1 <1>   0.7060 
 11 N        1.0820    -3.8790    -0.4110 N.3   1 <1>  -0.8100 
 12 C       -4.6070    -1.9530     0.0560 C.ar  1 <1>  -0.1500 
 13 C       -5.9770    -3.5530     1.1920 C.ar  1 <1>  -0.1500 
 14 O       -2.7200    -5.6480    -1.5060 O.2   1 <1>  -0.5700 
 15 O       -4.1810    -5.9600     0.0960 O.3   1 <1>  -0.4300 
 16 C        2.0430    -3.9700    -1.5270 C.3   1 <1>   0.1100 
 17 C        1.4370    -4.8810     0.6180 C.3   1 <1>   0.1100 
 18 C       -5.7390    -1.3610    -0.4730 C.ar  1 <1>  -0.1500 
 19 C       -7.1120    -2.9620     0.6640 C.ar  1 <1>  -0.1500 
 20 C       -4.8400    -6.9770    -0.6260 C.3   1 <1>   0.1200 
 21 C        3.4920    -3.8380    -1.0220 C.3   1 <1>   0.1200 
 22 C        2.9030    -4.7220     1.0610 C.3   1 <1>   0.1200 
 23 C       -6.9970    -1.8580    -0.1760 C.ar  1 <1>   0.0830 
 24 C       -6.0210    -7.4570     0.2100 C.3   1 <1>  -0.2400 
 25 O        3.7590    -4.8010    -0.0430 O.3   1 <1>  -0.5600 
 26 O       -8.0540    -1.2210    -0.7370 O.3   1 <1>  -0.3630 
 27 C       -9.3770    -1.6470    -0.5020 C.3   1 <1>   0.0400 
 28 H        0.0330    -2.2830     0.8760 H     1 <1>   0.3700 
 29 H       -3.3970    -2.2250     2.9900 H     1 <1>   0.3700 
 30 H       -3.7540    -4.5460     2.0940 H     1 <1>   0.0800 
 31 H       -0.4630    -3.4380    -1.7520 H     1 <1>   0.0800 
 32 H       -0.4310    -5.0910    -1.2050 H     1 <1>   0.0800 
 33 H       -3.6380    -1.5490    -0.1860 H     1 <1>   0.1500 
 34 H       -6.0840    -4.4090     1.8360 H     1 <1>   0.1500 
 35 H        1.8470    -3.1840    -2.2350 H     1 <1>   0.0800 
 36 H        1.9360    -4.9150    -2.0330 H     1 <1>   0.0800 
 37 H        1.2970    -5.8760     0.2310 H     1 <1>   0.0800 
 38 H        0.8000    -4.7630     1.4770 H     1 <1>   0.0800 
 39 H       -5.6540    -0.5070    -1.1200 H     1 <1>   0.1500 
 40 H       -8.0710    -3.3720     0.9150 H     1 <1>   0.1500 
 41 H       -4.1410    -7.7760    -0.8070 H     1 <1>   0.0800 
 42 H       -5.1740    -6.5680    -1.5650 H     1 <1>   0.0800 
 43 H        3.6560    -2.8620    -0.5990 H     1 <1>   0.0800 
 44 H        4.1850    -3.9900    -1.8300 H     1 <1>   0.0800 
 45 H        3.1740    -5.5070     1.7440 H     1 <1>   0.0800 
 46 H        3.0500    -3.7720     1.5450 H     1 <1>   0.0800 
 47 H       -5.6780    -7.8460     1.1520 H     1 <1>   0.0800 
 48 H       -6.5400    -8.2390    -0.3140 H     1 <1>   0.0800 
 49 H       -6.7080    -6.6470     0.3800 H     1 <1>   0.0800 
 50 H      -10.0380    -0.9970    -1.0440 H     1 <1>   0.0800 
 51 H       -9.5820    -1.5810     0.5520 H     1 <1>   0.0800 
 52 H       -9.4860    -2.6570    -0.8550 H     1 <1>   0.0800 
@<TRIPOS>BOND
  1   1   2  2   
  2   2   3  am  
  3   2   4  am  
  4   3   5  1   
  5   3  28  1   
  6   4   6  1   
  7   4  29  1   
  8   5   7  2   
  9   5   8  1   
 10   6   7  1   
 11   6   9  1   
 12   6  30  1   
 13   7  10  1   
 14   8  11  1   
 15   8  31  1   
 16   8  32  1   
 17   9  12  ar  
 18   9  13  ar  
 19  10  14  2   
 20  10  15  1   
 21  11  16  1   
 22  11  17  1   
 23  12  18  ar  
 24  12  33  1   
 25  13  19  ar  
 26  13  34  1   
 27  15  20  1   
 28  16  21  1   
 29  16  35  1   
 30  16  36  1   
 31  17  22  1   
 32  17  37  1   
 33  17  38  1   
 34  18  23  ar  
 35  18  39  1   
 36  19  23  ar  
 37  19  40  1   
 38  20  24  1   
 39  20  41  1   
 40  20  42  1   
 41  21  25  1   
 42  21  43  1   
 43  21  44  1   
 44  22  25  1   
 45  22  45  1   
 46  22  46  1   
 47  23  26  1   
 48  24  47  1   
 49  24  48  1   
 50  24  49  1   
 51  26  27  1   
 52  27  50  1   
 53  27  51  1   
 54  27  52  1   
@<TRIPOS>SUBSTRUCTURE
  1 ****   7 GROUP 4 **** **** 0

# MOE 2024.06 (io_trps.svl 2023.06)
