@<TRIPOS>MOLECULE
NONAME
38 38 1 0 0 
SMALL
USER_CHARGES


@<TRIPOS>ATOM
  1 I        0.1700     0.2060    -0.4710 I     1 <1>  -0.0810 
  2 C       -1.7680     1.0650    -0.2650 C.ar  1 <1>   0.0810 
  3 C       -1.8680     2.4020     0.0710 C.ar  1 <1>  -0.1500 
  4 C       -2.8750     0.2630    -0.4740 C.ar  1 <1>  -0.1500 
  5 C       -3.1320     2.9510     0.2020 C.ar  1 <1>  -0.1500 
  6 C       -4.1340     0.8240    -0.3400 C.ar  1 <1>  -0.1500 
  7 C       -4.2650     2.1720    -0.0010 C.ar  1 <1>   0.0830 
  8 O       -5.4610     2.7970     0.1500 O.3   1 <1>  -0.3630 
  9 C       -6.6760     2.1040    -0.0320 C.3   1 <1>   0.1200 
 10 C       -7.8190     3.0860     0.2090 C.3   1 <1>   0.1200 
 11 O       -9.0330     2.4170     0.0320 O.3   1 <1>  -0.5600 
 12 C      -10.1550     3.2110     0.2230 C.3   1 <1>   0.1200 
 13 C      -11.3820     2.3250    -0.0070 C.3   1 <1>   0.3430 
 14 N      -12.6590     3.0860     0.1630 N.4   1 <1>  -0.9060 
 15 C      -13.8570     2.2710    -0.0790 C.3   1 <1>   0.4230 
 16 C      -15.0340     3.2260    -0.2220 C.3   1 <1>  -0.2400 
 17 C      -14.0700     1.3210     1.0960 C.3   1 <1>  -0.2400 
 18 H       -0.9870     2.9990     0.2260 H     1 <1>   0.1500 
 19 H       -2.7570    -0.7740    -0.7340 H     1 <1>   0.1500 
 20 H       -3.2490     3.9880     0.4620 H     1 <1>   0.1500 
 21 H       -4.9920     0.2000    -0.5020 H     1 <1>   0.1500 
 22 H       -6.7160     1.2980     0.6800 H     1 <1>   0.0800 
 23 H       -6.7060     1.7310    -1.0400 H     1 <1>   0.0800 
 24 H       -7.7600     3.8960    -0.4990 H     1 <1>   0.0800 
 25 H       -7.7710     3.4620     1.2170 H     1 <1>   0.0800 
 26 H      -10.1230     4.0200    -0.4870 H     1 <1>   0.0800 
 27 H      -10.1350     3.5890     1.2320 H     1 <1>   0.0800 
 28 H      -11.3480     1.5070     0.6940 H     1 <1>   0.0800 
 29 H      -11.3310     1.9210    -1.0050 H     1 <1>   0.0800 
 30 H      -12.6780     3.8790    -0.4880 H     1 <1>   0.4500 
 31 H      -12.7220     3.4690     1.1130 H     1 <1>   0.4500 
 32 H      -13.7450     1.7060    -0.9930 H     1 <1>   0.0800 
 33 H      -15.1800     3.8070     0.6730 H     1 <1>   0.0800 
 34 H      -15.9340     2.6630    -0.4000 H     1 <1>   0.0800 
 35 H      -14.8940     3.8840    -1.0600 H     1 <1>   0.0800 
 36 H      -14.1650     1.8590     2.0230 H     1 <1>   0.0800 
 37 H      -13.2690     0.6090     1.1730 H     1 <1>   0.0800 
 38 H      -14.9780     0.7630     0.9440 H     1 <1>   0.0800 
@<TRIPOS>BOND
  1   1   2  1   
  2   2   3  ar  
  3   2   4  ar  
  4   3   5  ar  
  5   3  18  1   
  6   4   6  ar  
  7   4  19  1   
  8   5   7  ar  
  9   5  20  1   
 10   6   7  ar  
 11   6  21  1   
 12   7   8  1   
 13   8   9  1   
 14   9  10  1   
 15   9  22  1   
 16   9  23  1   
 17  10  11  1   
 18  10  24  1   
 19  10  25  1   
 20  11  12  1   
 21  12  13  1   
 22  12  26  1   
 23  12  27  1   
 24  13  14  1   
 25  13  28  1   
 26  13  29  1   
 27  14  15  1   
 28  14  30  1   
 29  14  31  1   
 30  15  16  1   
 31  15  17  1   
 32  15  32  1   
 33  16  33  1   
 34  16  34  1   
 35  16  35  1   
 36  17  36  1   
 37  17  37  1   
 38  17  38  1   
@<TRIPOS>SUBSTRUCTURE
  1 ****   9 GROUP 4 **** **** 0

# MOE 2024.06 (io_trps.svl 2023.06)
