@<TRIPOS>MOLECULE
NONAME
53 54 1 0 0 
SMALL
USER_CHARGES


@<TRIPOS>ATOM
  1 O        4.5160    -3.1970     2.3490 O.2   1 <1>  -0.5700 
  2 C        4.7400    -3.2680     1.1580 C.2   1 <1>   0.7800 
  3 O        5.8550    -3.8470     0.7190 O.3   1 <1>  -0.4300 
  4 N        3.8560    -2.7970     0.2230 N.am  1 <1>  -0.6600 
  5 C        6.8150    -4.3450     1.6240 C.3   1 <1>   0.1200 
  6 C        3.9980    -3.0480    -1.2410 C.3   1 <1>   0.1400 
  7 C        2.5650    -2.1650     0.6200 C.3   1 <1>   0.1400 
  8 C        7.9640    -4.9410     0.8170 C.3   1 <1>  -0.2400 
  9 C        2.8110    -3.8870    -1.7540 C.3   1 <1>   0.3430 
 10 C        1.3830    -3.0110     0.1160 C.3   1 <1>   0.3430 
 11 N        1.4820    -3.2960    -1.3610 N.4   1 <1>  -0.9590 
 12 C        0.3220    -4.0770    -1.9020 C.3   1 <1>   0.3430 
 13 C       -0.8750    -3.1510    -2.2270 C.3   1 <1>   0.2000 
 14 O       -0.3980    -1.8590    -2.4770 O.3   1 <1>  -0.6800 
 15 C       -1.9230    -3.0980    -1.1050 C.3   1 <1>   0.1200 
 16 O       -2.7770    -1.9970    -1.3290 O.3   1 <1>  -0.3630 
 17 C       -3.6960    -1.6270    -0.4020 C.ar  1 <1>   0.0820 
 18 C       -4.0570    -2.4170     0.6860 C.ar  1 <1>  -0.1500 
 19 C       -4.2870    -0.3860    -0.5720 C.ar  1 <1>  -0.1500 
 20 C       -4.9940    -1.9600     1.5980 C.ar  1 <1>  -0.1440 
 21 C       -5.2220     0.0790     0.3360 C.ar  1 <1>  -0.1440 
 22 C       -5.5700    -0.7120     1.4190 C.ar  1 <1>  -0.1500 
 23 C       -5.3960    -2.8120     2.7890 C.3   1 <1>  -0.0970 
 24 C       -5.8700     1.4400     0.1530 C.3   1 <1>  -0.0970 
 25 H        6.3480    -5.0940     2.2420 H     1 <1>   0.0800 
 26 H        7.1580    -3.5310     2.2410 H     1 <1>   0.0800 
 27 H        4.9160    -3.5690    -1.4550 H     1 <1>   0.0800 
 28 H        4.0320    -2.1060    -1.7610 H     1 <1>   0.0800 
 29 H        2.5100    -1.1740     0.2030 H     1 <1>   0.0800 
 30 H        2.5010    -2.0690     1.6910 H     1 <1>   0.0800 
 31 H        7.6080    -5.7470     0.2010 H     1 <1>   0.0800 
 32 H        8.7120    -5.3270     1.4850 H     1 <1>   0.0800 
 33 H        8.4150    -4.1850     0.2000 H     1 <1>   0.0800 
 34 H        2.8990    -4.8800    -1.3460 H     1 <1>   0.0800 
 35 H        2.8750    -3.9630    -2.8270 H     1 <1>   0.0800 
 36 H        0.4690    -2.4820     0.3270 H     1 <1>   0.0800 
 37 H        1.3700    -3.9380     0.6660 H     1 <1>   0.0800 
 38 H        1.3750    -2.3780    -1.8380 H     1 <1>   0.4500 
 39 H        0.0260    -4.8560    -1.2200 H     1 <1>   0.0800 
 40 H        0.6180    -4.5510    -2.8240 H     1 <1>   0.0800 
 41 H       -1.3600    -3.5010    -3.1230 H     1 <1>   0.0800 
 42 H       -1.1740    -1.2500    -2.5220 H     1 <1>   0.4000 
 43 H       -1.4590    -2.9680    -0.1450 H     1 <1>   0.0800 
 44 H       -2.5190    -3.9940    -1.1010 H     1 <1>   0.0800 
 45 H       -3.6280    -3.3870     0.8380 H     1 <1>   0.1500 
 46 H       -4.0100     0.2130    -1.4200 H     1 <1>   0.1500 
 47 H       -6.2970    -0.3540     2.1260 H     1 <1>   0.1500 
 48 H       -5.2260    -3.8540     2.5880 H     1 <1>   0.0800 
 49 H       -6.4410    -2.6780     3.0060 H     1 <1>   0.0800 
 50 H       -4.8240    -2.5240     3.6520 H     1 <1>   0.0800 
 51 H       -5.3020     2.0440    -0.5310 H     1 <1>   0.0800 
 52 H       -5.9250     1.9540     1.0950 H     1 <1>   0.0800 
 53 H       -6.8650     1.3190    -0.2360 H     1 <1>   0.0800 
@<TRIPOS>BOND
  1   1   2  2   
  2   2   3  1   
  3   2   4  am  
  4   3   5  1   
  5   4   6  1   
  6   4   7  1   
  7   5   8  1   
  8   5  25  1   
  9   5  26  1   
 10   6   9  1   
 11   6  27  1   
 12   6  28  1   
 13   7  10  1   
 14   7  29  1   
 15   7  30  1   
 16   8  31  1   
 17   8  32  1   
 18   8  33  1   
 19   9  11  1   
 20   9  34  1   
 21   9  35  1   
 22  10  11  1   
 23  10  36  1   
 24  10  37  1   
 25  11  12  1   
 26  11  38  1   
 27  12  13  1   
 28  12  39  1   
 29  12  40  1   
 30  13  14  1   
 31  13  15  1   
 32  13  41  1   
 33  14  42  1   
 34  15  16  1   
 35  15  43  1   
 36  15  44  1   
 37  16  17  1   
 38  17  18  ar  
 39  17  19  ar  
 40  18  20  ar  
 41  18  45  1   
 42  19  21  ar  
 43  19  46  1   
 44  20  22  ar  
 45  20  23  1   
 46  21  22  ar  
 47  21  24  1   
 48  22  47  1   
 49  23  48  1   
 50  23  49  1   
 51  23  50  1   
 52  24  51  1   
 53  24  52  1   
 54  24  53  1   
@<TRIPOS>SUBSTRUCTURE
  1 ****  10 GROUP 4 **** **** 0

# MOE 2024.06 (io_trps.svl 2023.06)
