@<TRIPOS>MOLECULE
NONAME
53 55 1 0 0 
SMALL
USER_CHARGES


@<TRIPOS>ATOM
  1 BR       0.3650     0.2890    -1.3880 Br    1 <1>  -0.1110 
  2 C        2.0310    -0.6160    -1.0810 C.ar  1 <1>   0.1110 
  3 C        2.3400    -1.0310     0.2000 C.ar  1 <1>  -0.1500 
  4 C        2.8820    -0.8320    -2.1480 C.ar  1 <1>  -0.1500 
  5 C        3.5430    -1.6800     0.4130 C.ar  1 <1>  -0.1500 
  6 C        4.0810    -1.4830    -1.9160 C.ar  1 <1>  -0.1500 
  7 C        4.4400    -1.9120    -0.6350 C.ar  1 <1>   0.0860 
  8 C        5.7040    -2.5850    -0.4100 C.2   1 <1>   0.5440 
  9 O        5.9320    -3.6170    -1.0120 O.2   1 <1>  -0.5700 
 10 N        6.6550    -2.0880     0.4610 N.am  1 <1>  -0.6600 
 11 C        7.8830    -2.8620     0.7960 C.3   1 <1>   0.1400 
 12 C        6.6320    -0.7010     1.0060 C.3   1 <1>   0.1400 
 13 C        9.1200    -2.1100     0.2970 C.3   1 <1>  -0.1600 
 14 C        7.8640     0.0650     0.5160 C.3   1 <1>  -0.1600 
 15 C        9.1730    -0.6760     0.8530 C.3   1 <1>  -0.0190 
 16 C       10.4110     0.0620     0.3420 C.2   1 <1>   0.5690 
 17 O       10.3700     0.6570    -0.7080 O.2   1 <1>  -0.5700 
 18 N       11.5460     0.0140     1.0880 N.am  1 <1>  -0.7300 
 19 C       12.8150     0.6840     0.7190 C.3   1 <1>   0.1400 
 20 C       13.7070    -0.2800    -0.0610 C.3   1 <1>  -0.0170 
 21 C       15.0120     0.4030    -0.4360 C.ar  1 <1>  -0.1430 
 22 C       16.1510     0.2220     0.3340 C.ar  1 <1>  -0.1500 
 23 C       15.0680     1.2210    -1.5530 C.ar  1 <1>  -0.1500 
 24 C       17.3320     0.8550    -0.0120 C.ar  1 <1>  -0.1500 
 25 C       16.2480     1.8550    -1.9020 C.ar  1 <1>  -0.1500 
 26 C       17.3910     1.6740    -1.1280 C.ar  1 <1>   0.0830 
 27 O       18.5860     2.2570    -1.3960 O.3   1 <1>  -0.3630 
 28 C       18.7500     3.1070    -2.5090 C.3   1 <1>   0.0400 
 29 H        1.6510    -0.8530     1.0070 H     1 <1>   0.1500 
 30 H        2.6090    -0.5020    -3.1340 H     1 <1>   0.1500 
 31 H        3.8020    -2.0200     1.4010 H     1 <1>   0.1500 
 32 H        4.7590    -1.6710    -2.7310 H     1 <1>   0.1500 
 33 H        7.8540    -3.8420     0.3490 H     1 <1>   0.0800 
 34 H        7.9340    -2.9900     1.8630 H     1 <1>   0.0800 
 35 H        6.6300    -0.7480     2.0810 H     1 <1>   0.0800 
 36 H        5.7480    -0.1750     0.6920 H     1 <1>   0.0800 
 37 H        9.0970    -2.0810    -0.7790 H     1 <1>   0.0800 
 38 H       10.0030    -2.6490     0.5890 H     1 <1>   0.0800 
 39 H        7.8770     1.0430     0.9630 H     1 <1>   0.0800 
 40 H        7.7840     0.1970    -0.5500 H     1 <1>   0.0800 
 41 H        9.2480    -0.7340     1.9240 H     1 <1>   0.0800 
 42 H       11.5640    -0.5290     1.9520 H     1 <1>   0.3700 
 43 H       13.3200     1.0180     1.6100 H     1 <1>   0.0800 
 44 H       12.6030     1.5480     0.1100 H     1 <1>   0.0800 
 45 H       13.1980    -0.5900    -0.9570 H     1 <1>   0.0800 
 46 H       13.9100    -1.1530     0.5330 H     1 <1>   0.0800 
 47 H       16.1270    -0.4090     1.2040 H     1 <1>   0.1500 
 48 H       14.1890     1.3670    -2.1570 H     1 <1>   0.1500 
 49 H       18.2170     0.7180     0.5810 H     1 <1>   0.1500 
 50 H       16.2570     2.4810    -2.7730 H     1 <1>   0.1500 
 51 H       19.7700     3.4480    -2.5220 H     1 <1>   0.0800 
 52 H       18.0850     3.9460    -2.4080 H     1 <1>   0.0800 
 53 H       18.5380     2.5520    -3.4060 H     1 <1>   0.0800 
@<TRIPOS>BOND
  1   1   2  1   
  2   2   3  ar  
  3   2   4  ar  
  4   3   5  ar  
  5   3  29  1   
  6   4   6  ar  
  7   4  30  1   
  8   5   7  ar  
  9   5  31  1   
 10   6   7  ar  
 11   6  32  1   
 12   7   8  1   
 13   8   9  2   
 14   8  10  am  
 15  10  11  1   
 16  10  12  1   
 17  11  13  1   
 18  11  33  1   
 19  11  34  1   
 20  12  14  1   
 21  12  35  1   
 22  12  36  1   
 23  13  15  1   
 24  13  37  1   
 25  13  38  1   
 26  14  15  1   
 27  14  39  1   
 28  14  40  1   
 29  15  16  1   
 30  15  41  1   
 31  16  17  2   
 32  16  18  am  
 33  18  19  1   
 34  18  42  1   
 35  19  20  1   
 36  19  43  1   
 37  19  44  1   
 38  20  21  1   
 39  20  45  1   
 40  20  46  1   
 41  21  22  ar  
 42  21  23  ar  
 43  22  24  ar  
 44  22  47  1   
 45  23  25  ar  
 46  23  48  1   
 47  24  26  ar  
 48  24  49  1   
 49  25  26  ar  
 50  25  50  1   
 51  26  27  1   
 52  27  28  1   
 53  28  51  1   
 54  28  52  1   
 55  28  53  1   
@<TRIPOS>SUBSTRUCTURE
  1 ****  16 GROUP 4 **** **** 0

# MOE 2024.06 (io_trps.svl 2023.06)
