@<TRIPOS>MOLECULE
NONAME
34 35 1 0 0 
SMALL
USER_CHARGES


@<TRIPOS>ATOM
  1 S       -0.2280    -0.7310    -0.4730 S.3   1 <1>  -0.0800 
  2 C       -1.5200     0.4230    -0.2960 C.ar  1 <1>   0.3480 
  3 C        1.0150     0.5160    -0.1780 C.2   1 <1>  -0.0450 
  4 N       -2.8190     0.0740    -0.3310 N.ar  1 <1>  -0.1260 
  5 C       -1.0520     1.7010    -0.0950 C.ar  1 <1>   0.0000 
  6 C        0.3880     1.7140     0.0310 C.2   1 <1>   0.0830 
  7 C        2.3810     0.1100    -0.1700 C.2   1 <1>   0.8050 
  8 C       -3.7530     1.0400    -0.1530 C.ar  1 <1>   0.2110 
  9 C       -2.0150     2.7410     0.0000 C.ar  1 <1>   0.1000 
 10 N        1.0420     2.8620     0.4010 N.pl3 1 <1>  -0.8830 
 11 O        2.7390    -1.0320    -0.4050 O.2   1 <1>  -0.5700 
 12 O        3.3160     1.0270     0.1160 O.3   1 <1>  -0.4300 
 13 C       -3.3680     2.3460     0.0140 C.ar  1 <1>  -0.1500 
 14 N       -1.7170     4.0710     0.0220 N.pl3 1 <1>  -0.8380 
 15 C        4.6870     0.6940     0.1380 C.3   1 <1>   0.1200 
 16 C       -2.4670     5.0710     0.8370 C.3   1 <1>   0.1290 
 17 C       -0.8450     4.6960    -1.0200 C.3   1 <1>   0.1290 
 18 C        5.4720     1.9530     0.4950 C.3   1 <1>  -0.2400 
 19 H       -3.0690    -0.9100    -0.4740 H     1 <1>   0.4570 
 20 H       -4.7950     0.7620    -0.1540 H     1 <1>   0.1500 
 21 H        0.4760     3.6740     0.6970 H     1 <1>   0.4000 
 22 H        2.0400     2.8820     0.6510 H     1 <1>   0.4000 
 23 H       -4.1200     3.1060     0.1310 H     1 <1>   0.1500 
 24 H        4.9670     0.3280    -0.8360 H     1 <1>   0.0800 
 25 H        4.8420    -0.0780     0.8730 H     1 <1>   0.0800 
 26 H       -2.9990     4.5830     1.6350 H     1 <1>   0.0800 
 27 H       -3.1690     5.6020     0.2160 H     1 <1>   0.0800 
 28 H       -1.7800     5.7770     1.2710 H     1 <1>   0.0800 
 29 H       -0.4030     3.9420    -1.6480 H     1 <1>   0.0800 
 30 H       -0.0600     5.2670    -0.5550 H     1 <1>   0.0800 
 31 H       -1.4310     5.3530    -1.6410 H     1 <1>   0.0800 
 32 H        5.3010     2.7180    -0.2410 H     1 <1>   0.0800 
 33 H        6.5230     1.7290     0.5160 H     1 <1>   0.0800 
 34 H        5.1800     2.3110     1.4650 H     1 <1>   0.0800 
@<TRIPOS>BOND
  1   1   2  1   
  2   1   3  1   
  3   2   4  ar  
  4   2   5  ar  
  5   3   6  2   
  6   3   7  1   
  7   4   8  ar  
  8   4  19  1   
  9   5   6  1   
 10   5   9  ar  
 11   6  10  1   
 12   7  11  2   
 13   7  12  1   
 14   8  13  ar  
 15   8  20  1   
 16   9  13  ar  
 17   9  14  1   
 18  10  21  1   
 19  10  22  1   
 20  12  15  1   
 21  13  23  1   
 22  14  16  1   
 23  14  17  1   
 24  15  18  1   
 25  15  24  1   
 26  15  25  1   
 27  16  26  1   
 28  16  27  1   
 29  16  28  1   
 30  17  29  1   
 31  17  30  1   
 32  17  31  1   
 33  18  32  1   
 34  18  33  1   
 35  18  34  1   
@<TRIPOS>SUBSTRUCTURE
  1 ****   6 GROUP 4 **** **** 0

# MOE 2024.06 (io_trps.svl 2023.06)
