@<TRIPOS>MOLECULE
NONAME
39 39 1 0 0 
SMALL
USER_CHARGES


@<TRIPOS>ATOM
  1 O      -10.8610     4.8890    -0.7050 O.3   1 <1>  -0.3630 
  2 C      -10.0070     4.0660    -0.0320 C.ar  1 <1>   0.0830 
  3 C      -12.2300     4.6010    -0.8900 C.3   1 <1>   0.0400 
  4 C      -10.2420     2.7360     0.3640 C.ar  1 <1>   0.0830 
  5 C       -8.7890     4.6560     0.2630 C.ar  1 <1>  -0.1500 
  6 O      -11.4270     2.1280     0.0660 O.3   1 <1>  -0.3630 
  7 C       -9.2400     2.0550     1.0530 C.ar  1 <1>  -0.1500 
  8 C       -7.7950     3.9670     0.9370 C.ar  1 <1>  -0.1430 
  9 C      -11.7130     0.7940     0.4290 C.3   1 <1>   0.0400 
 10 C       -8.0290     2.6620     1.3360 C.ar  1 <1>  -0.1500 
 11 C       -6.4710     4.6380     1.2100 C.3   1 <1>   0.4860 
 12 N       -5.6580     4.4430    -0.0040 N.4   1 <1>  -0.9060 
 13 C       -4.3470     5.0990    -0.1180 C.3   1 <1>   0.5030 
 14 C       -3.5900     4.3910    -1.2730 C.3   1 <1>   0.1200 
 15 C       -4.5660     6.5790    -0.4250 C.3   1 <1>  -0.2400 
 16 C       -3.5670     4.9300     1.1910 C.3   1 <1>  -0.2400 
 17 O       -3.8180     3.0080    -1.2210 O.3   1 <1>  -0.6800 
 18 H      -12.7020     5.4690    -1.3120 H     1 <1>   0.0800 
 19 H      -12.6710     4.3710     0.0640 H     1 <1>   0.0800 
 20 H      -12.3220     3.7710    -1.5660 H     1 <1>   0.0800 
 21 H       -8.6440     5.6760    -0.0500 H     1 <1>   0.1500 
 22 H       -9.3800     1.0420     1.3800 H     1 <1>   0.1500 
 23 H      -12.7020     0.5580     0.0800 H     1 <1>   0.0800 
 24 H      -11.6750     0.7060     1.5010 H     1 <1>   0.0800 
 25 H      -10.9980     0.1420    -0.0400 H     1 <1>   0.0800 
 26 H       -7.2790     2.1020     1.8690 H     1 <1>   0.1500 
 27 H       -5.9920     4.1910     2.0660 H     1 <1>   0.0800 
 28 H       -6.6250     5.6880     1.3980 H     1 <1>   0.0800 
 29 H       -6.2320     4.6730    -0.8180 H     1 <1>   0.4500 
 30 H       -5.4450     3.4400    -0.1240 H     1 <1>   0.4500 
 31 H       -2.5300     4.5700    -1.2040 H     1 <1>   0.0800 
 32 H       -3.9360     4.7470    -2.2290 H     1 <1>   0.0800 
 33 H       -3.6160     7.0680    -0.5550 H     1 <1>   0.0800 
 34 H       -5.1290     6.7070    -1.3320 H     1 <1>   0.0800 
 35 H       -5.0780     7.0740     0.3810 H     1 <1>   0.0800 
 36 H       -4.0250     5.4630     2.0050 H     1 <1>   0.0800 
 37 H       -3.4720     3.8900     1.4490 H     1 <1>   0.0800 
 38 H       -2.5730     5.3270     1.0740 H     1 <1>   0.0800 
 39 H       -3.2750     2.5350    -1.8910 H     1 <1>   0.4000 
@<TRIPOS>BOND
  1   1   2  1   
  2   1   3  1   
  3   2   4  ar  
  4   2   5  ar  
  5   3  18  1   
  6   3  19  1   
  7   3  20  1   
  8   4   6  1   
  9   4   7  ar  
 10   5   8  ar  
 11   5  21  1   
 12   6   9  1   
 13   7  10  ar  
 14   7  22  1   
 15   8  10  ar  
 16   8  11  1   
 17   9  23  1   
 18   9  24  1   
 19   9  25  1   
 20  10  26  1   
 21  11  12  1   
 22  11  27  1   
 23  11  28  1   
 24  12  13  1   
 25  12  29  1   
 26  12  30  1   
 27  13  14  1   
 28  13  15  1   
 29  13  16  1   
 30  14  17  1   
 31  14  31  1   
 32  14  32  1   
 33  15  33  1   
 34  15  34  1   
 35  15  35  1   
 36  16  36  1   
 37  16  37  1   
 38  16  38  1   
 39  17  39  1   
@<TRIPOS>SUBSTRUCTURE
  1 ****   8 GROUP 4 **** **** 0

# MOE 2024.06 (io_trps.svl 2023.06)
