@<TRIPOS>MOLECULE
NONAME
38 38 1 0 0 
SMALL
USER_CHARGES


@<TRIPOS>ATOM
  1 O        0.8840     3.0020     1.5430 O.2   1 <1>  -0.5700 
  2 C        0.3950     2.7090     0.4810 C.2   1 <1>   0.5690 
  3 N        1.0160     1.8850    -0.3990 N.am  1 <1>  -0.7300 
  4 C       -0.9570     3.2810     0.1040 C.3   1 <1>  -0.0990 
  5 C        2.3110     1.2020    -0.1450 C.3   1 <1>   0.1400 
  6 C       -2.0900     2.2600     0.3170 C.3   1 <1>  -0.1600 
  7 C        3.4720     2.1920    -0.2420 C.3   1 <1>   0.1200 
  8 C       -3.4620     2.7480    -0.1850 C.3   1 <1>  -0.0800 
  9 O        4.6660     1.4740    -0.2210 O.3   1 <1>  -0.5600 
 10 C       -3.9660     3.9760     0.5990 C.3   1 <1>  -0.1600 
 11 C       -4.4830     1.6000    -0.0890 C.3   1 <1>  -0.1600 
 12 C        5.8020     2.2780    -0.2110 C.3   1 <1>   0.0400 
 13 C       -5.3630     4.4110     0.1360 C.3   1 <1>  -0.1600 
 14 C       -5.8770     2.0370    -0.5590 C.3   1 <1>  -0.1600 
 15 C       -6.3670     3.2560     0.2300 C.3   1 <1>  -0.1600 
 16 H        0.5620     1.6620    -1.2860 H     1 <1>   0.3700 
 17 H       -0.9280     3.5930    -0.9230 H     1 <1>   0.0800 
 18 H       -1.1260     4.1510     0.7110 H     1 <1>   0.0800 
 19 H        2.4450     0.4170    -0.8680 H     1 <1>   0.0800 
 20 H        2.2970     0.7720     0.8420 H     1 <1>   0.0800 
 21 H       -2.1520     2.0200     1.3650 H     1 <1>   0.0800 
 22 H       -1.8350     1.3540    -0.2050 H     1 <1>   0.0800 
 23 H        3.4520     2.8660     0.5980 H     1 <1>   0.0800 
 24 H        3.4220     2.7410    -1.1660 H     1 <1>   0.0800 
 25 H       -3.3690     3.0220    -1.2230 H     1 <1>   0.0800 
 26 H       -3.2940     4.8050     0.4670 H     1 <1>   0.0800 
 27 H       -4.0000     3.7420     1.6490 H     1 <1>   0.0800 
 28 H       -4.5490     1.2630     0.9320 H     1 <1>   0.0800 
 29 H       -4.1560     0.7700    -0.6900 H     1 <1>   0.0800 
 30 H        6.6650     1.6360    -0.2010 H     1 <1>   0.0800 
 31 H        5.7950     2.8910     0.6740 H     1 <1>   0.0800 
 32 H        5.8130     2.8890    -1.0970 H     1 <1>   0.0800 
 33 H       -5.3100     4.7530    -0.8840 H     1 <1>   0.0800 
 34 H       -5.7030     5.2330     0.7420 H     1 <1>   0.0800 
 35 H       -6.5710     1.2240    -0.4330 H     1 <1>   0.0800 
 36 H       -5.8410     2.2810    -1.6070 H     1 <1>   0.0800 
 37 H       -7.3220     3.5750    -0.1530 H     1 <1>   0.0800 
 38 H       -6.5000     2.9830     1.2630 H     1 <1>   0.0800 
@<TRIPOS>BOND
  1   1   2  2   
  2   2   3  am  
  3   2   4  1   
  4   3   5  1   
  5   3  16  1   
  6   4   6  1   
  7   4  17  1   
  8   4  18  1   
  9   5   7  1   
 10   5  19  1   
 11   5  20  1   
 12   6   8  1   
 13   6  21  1   
 14   6  22  1   
 15   7   9  1   
 16   7  23  1   
 17   7  24  1   
 18   8  10  1   
 19   8  11  1   
 20   8  25  1   
 21   9  12  1   
 22  10  13  1   
 23  10  26  1   
 24  10  27  1   
 25  11  14  1   
 26  11  28  1   
 27  11  29  1   
 28  12  30  1   
 29  12  31  1   
 30  12  32  1   
 31  13  15  1   
 32  13  33  1   
 33  13  34  1   
 34  14  15  1   
 35  14  35  1   
 36  14  36  1   
 37  15  37  1   
 38  15  38  1   
@<TRIPOS>SUBSTRUCTURE
  1 ****   4 GROUP 4 **** **** 0

# MOE 2024.06 (io_trps.svl 2023.06)
