@<TRIPOS>MOLECULE
NONAME
40 42 1 0 0 
SMALL
USER_CHARGES


@<TRIPOS>ATOM
  1 O      -13.9270     2.1600    -0.6470 O.3   1 <1>  -0.5600 
  2 C      -13.3280     2.7850     0.4550 C.3   1 <1>   0.1200 
  3 C      -14.0630     0.7700    -0.5160 C.3   1 <1>   0.1200 
  4 C      -11.9030     2.2330     0.6980 C.3   1 <1>   0.3430 
  5 C      -12.6990     0.0950    -0.2340 C.3   1 <1>   0.3430 
  6 N      -11.5810     1.1000    -0.2410 N.4   1 <1>  -0.9590 
  7 C      -10.2470     0.4610     0.0030 C.3   1 <1>   0.3430 
  8 C       -9.0770     1.4050    -0.2840 C.3   1 <1>   0.1200 
  9 O       -7.8980     0.7020     0.0140 O.3   1 <1>  -0.3630 
 10 C       -6.6800     1.2860    -0.1070 C.ar  1 <1>   0.0820 
 11 C       -5.5880     0.5290     0.2940 C.ar  1 <1>  -0.1500 
 12 C       -6.4830     2.5770    -0.6020 C.ar  1 <1>  -0.1500 
 13 C       -4.3190     1.0660     0.2020 C.ar  1 <1>  -0.1440 
 14 C       -5.2040     3.1040    -0.6900 C.ar  1 <1>  -0.1500 
 15 C       -4.1300     2.3350    -0.2830 C.ar  1 <1>  -0.1440 
 16 C       -3.0100     0.4210     0.5810 C.3   1 <1>  -0.0170 
 17 C       -2.6680     2.7060    -0.2910 C.3   1 <1>  -0.0170 
 18 C       -1.9580     1.3660    -0.0270 C.3   1 <1>  -0.1600 
 19 H      -13.9510     2.6310     1.3200 H     1 <1>   0.0800 
 20 H      -13.2880     3.8410     0.2540 H     1 <1>   0.0800 
 21 H      -14.4790     0.3940    -1.4350 H     1 <1>   0.0800 
 22 H      -14.7620     0.5640     0.2760 H     1 <1>   0.0800 
 23 H      -11.8280     1.9000     1.7200 H     1 <1>   0.0800 
 24 H      -11.1950     3.0340     0.5670 H     1 <1>   0.0800 
 25 H      -12.5220    -0.6630    -0.9800 H     1 <1>   0.0800 
 26 H      -12.7450    -0.3970     0.7240 H     1 <1>   0.0800 
 27 H      -11.6110     1.5120    -1.1870 H     1 <1>   0.4500 
 28 H      -10.1430    -0.4010    -0.6350 H     1 <1>   0.0800 
 29 H      -10.1860     0.1330     1.0270 H     1 <1>   0.0800 
 30 H       -9.1080     2.2750     0.3470 H     1 <1>   0.0800 
 31 H       -9.0490     1.6800    -1.3240 H     1 <1>   0.0800 
 32 H       -5.7340    -0.4660     0.6740 H     1 <1>   0.1500 
 33 H       -7.3010     3.1890    -0.9260 H     1 <1>   0.1500 
 34 H       -5.0430     4.0980    -1.0700 H     1 <1>   0.1500 
 35 H       -2.9270    -0.5730     0.1790 H     1 <1>   0.0800 
 36 H       -2.9220     0.3930     1.6520 H     1 <1>   0.0800 
 37 H       -2.4710     3.4040     0.5030 H     1 <1>   0.0800 
 38 H       -2.3720     3.1300    -1.2350 H     1 <1>   0.0800 
 39 H       -1.6300     0.9580    -0.9670 H     1 <1>   0.0800 
 40 H       -1.1070     1.4850     0.6200 H     1 <1>   0.0800 
@<TRIPOS>BOND
  1   1   2  1   
  2   1   3  1   
  3   2   4  1   
  4   2  19  1   
  5   2  20  1   
  6   3   5  1   
  7   3  21  1   
  8   3  22  1   
  9   4   6  1   
 10   4  23  1   
 11   4  24  1   
 12   5   6  1   
 13   5  25  1   
 14   5  26  1   
 15   6   7  1   
 16   6  27  1   
 17   7   8  1   
 18   7  28  1   
 19   7  29  1   
 20   8   9  1   
 21   8  30  1   
 22   8  31  1   
 23   9  10  1   
 24  10  11  ar  
 25  10  12  ar  
 26  11  13  ar  
 27  11  32  1   
 28  12  14  ar  
 29  12  33  1   
 30  13  15  ar  
 31  13  16  1   
 32  14  15  ar  
 33  14  34  1   
 34  15  17  1   
 35  16  18  1   
 36  16  35  1   
 37  16  36  1   
 38  17  18  1   
 39  17  37  1   
 40  17  38  1   
 41  18  39  1   
 42  18  40  1   
@<TRIPOS>SUBSTRUCTURE
  1 ****   9 GROUP 4 **** **** 0

# MOE 2024.06 (io_trps.svl 2023.06)
