@<TRIPOS>MOLECULE
NONAME
35 36 1 0 0 
SMALL
USER_CHARGES


@<TRIPOS>ATOM
  1 CL      -0.2150     0.9860     1.4540 Cl    1 <1>  -0.1770 
  2 C        0.3360     2.4770     0.7180 C.ar  1 <1>   0.1770 
  3 C        1.7220     2.7480     0.6450 C.ar  1 <1>   0.3100 
  4 C       -0.6120     3.3340     0.2330 C.ar  1 <1>  -0.1500 
  5 N        2.6200     1.8430     1.1150 N.ar  1 <1>  -0.6200 
  6 C        2.1210     3.9710     0.0640 C.ar  1 <1>   0.0000 
  7 C       -0.2090     4.5280    -0.3670 C.ar  1 <1>  -0.1500 
  8 C        3.8860     2.1120     1.0410 C.ar  1 <1>   0.1660 
  9 C        3.5080     4.2350     0.0350 C.ar  1 <1>   0.1010 
 10 C        1.1220     4.8280    -0.4540 C.ar  1 <1>  -0.1500 
 11 C        4.4030     3.3120     0.5100 C.ar  1 <1>  -0.1440 
 12 C        4.8020     1.0270     1.5830 C.3   1 <1>  -0.0960 
 13 S        4.0840     5.8020    -0.6440 S.3   1 <1>  -0.3310 
 14 C        5.9150     3.5710     0.4720 C.3   1 <1>  -0.0170 
 15 C        3.3960     7.0890     0.5230 C.3   1 <1>  -0.0360 
 16 C        6.5130     3.1200    -0.8660 C.3   1 <1>  -0.1600 
 17 C        2.7570     8.2620    -0.1960 C.2   1 <1>   0.9060 
 18 C        8.0270     3.3490    -0.9120 C.3   1 <1>  -0.2400 
 19 O        3.4200     9.2920    -0.3600 O.co2 1 <1>  -0.9000 
 20 O        1.5720     8.1770    -0.5400 O.co2 1 <1>  -0.9000 
 21 H       -1.6580     3.0970     0.3060 H     1 <1>   0.1500 
 22 H       -0.9450     5.2110    -0.7590 H     1 <1>   0.1500 
 23 H        1.4090     5.7490    -0.9320 H     1 <1>   0.1500 
 24 H        4.2380     0.1390     1.8070 H     1 <1>   0.0800 
 25 H        5.2710     1.3650     2.4880 H     1 <1>   0.0800 
 26 H        5.5520     0.7710     0.8590 H     1 <1>   0.0800 
 27 H        6.4080     3.0660     1.2810 H     1 <1>   0.0800 
 28 H        6.1170     4.6170     0.6170 H     1 <1>   0.0800 
 29 H        4.2130     7.4410     1.1210 H     1 <1>   0.0800 
 30 H        2.6640     6.6120     1.1440 H     1 <1>   0.0800 
 31 H        6.0470     3.6730    -1.6640 H     1 <1>   0.0800 
 32 H        6.3040     2.0770    -1.0260 H     1 <1>   0.0800 
 33 H        8.2500     4.3950    -0.7840 H     1 <1>   0.0800 
 34 H        8.4180     3.0320    -1.8630 H     1 <1>   0.0800 
 35 H        8.5190     2.7900    -0.1350 H     1 <1>   0.0800 
@<TRIPOS>BOND
  1   1   2  1   
  2   2   3  ar  
  3   2   4  ar  
  4   3   5  ar  
  5   3   6  ar  
  6   4   7  ar  
  7   4  21  1   
  8   5   8  ar  
  9   6   9  ar  
 10   6  10  ar  
 11   7  10  ar  
 12   7  22  1   
 13   8  11  ar  
 14   8  12  1   
 15   9  11  ar  
 16   9  13  1   
 17  10  23  1   
 18  11  14  1   
 19  12  24  1   
 20  12  25  1   
 21  12  26  1   
 22  13  15  1   
 23  14  16  1   
 24  14  27  1   
 25  14  28  1   
 26  15  17  1   
 27  15  29  1   
 28  15  30  1   
 29  16  18  1   
 30  16  31  1   
 31  16  32  1   
 32  17  19  ar  
 33  17  20  ar  
 34  18  33  1   
 35  18  34  1   
 36  18  35  1   
@<TRIPOS>SUBSTRUCTURE
  1 ****   9 GROUP 4 **** **** 0

# MOE 2024.06 (io_trps.svl 2023.06)
