@<TRIPOS>MOLECULE
NONAME
43 44 1 0 0 
SMALL
USER_CHARGES


@<TRIPOS>ATOM
  1 CL      -0.0030     0.0760    -1.6080 Cl    1 <1>  -0.1770 
  2 C       -1.4400     0.8480    -0.9910 C.ar  1 <1>   0.1770 
  3 C       -1.3810     2.0940    -0.3890 C.ar  1 <1>  -0.0090 
  4 C       -2.6320     0.1600    -1.1220 C.ar  1 <1>  -0.1500 
  5 S        0.2030     2.9570    -0.2370 S.o2  1 <1>   1.4470 
  6 C       -2.5730     2.6210     0.0990 C.ar  1 <1>  -0.1500 
  7 C       -3.8020     0.7170    -0.6420 C.ar  1 <1>  -0.1500 
  8 O        0.9600     2.3360     0.8280 O.2   1 <1>  -0.6500 
  9 O        0.8130     3.1240    -1.5390 O.2   1 <1>  -0.6500 
 10 N       -0.2250     4.5160     0.2840 N.am  1 <1>  -0.8490 
 11 C       -3.8010     1.9690    -0.0240 C.ar  1 <1>   0.0860 
 12 C        0.8480     5.1620     1.0450 C.3   1 <1>   0.1960 
 13 C       -0.6720     5.3720    -0.8220 C.3   1 <1>   0.1960 
 14 C       -5.0190     2.5840     0.4760 C.2   1 <1>   0.5440 
 15 C        0.3490     6.4800     1.6490 C.3   1 <1>  -0.1600 
 16 C       -1.2450     6.6830    -0.2750 C.3   1 <1>  -0.1600 
 17 O       -4.9730     3.3870     1.3860 O.2   1 <1>  -0.5700 
 18 N       -6.2310     2.2880    -0.0820 N.am  1 <1>  -0.7300 
 19 C       -0.2080     7.4230     0.5760 C.3   1 <1>  -0.1600 
 20 C       -7.5220     2.8450     0.3370 C.3   1 <1>   0.2200 
 21 C       -8.4790     1.6860     0.5890 C.3   1 <1>  -0.2400 
 22 C       -8.0310     3.7540    -0.7750 C.3   1 <1>  -0.2400 
 23 H       -2.6360    -0.8080    -1.5940 H     1 <1>   0.1500 
 24 H       -2.5650     3.5750     0.6010 H     1 <1>   0.1500 
 25 H       -4.7220     0.1690    -0.7390 H     1 <1>   0.1500 
 26 H        1.6960     5.3410     0.4030 H     1 <1>   0.0800 
 27 H        1.1660     4.5220     1.8510 H     1 <1>   0.0800 
 28 H       -1.4330     4.8670    -1.3930 H     1 <1>   0.0800 
 29 H        0.1550     5.5830    -1.4820 H     1 <1>   0.0800 
 30 H        1.1570     6.9610     2.1710 H     1 <1>   0.0800 
 31 H       -0.4190     6.2570     2.3690 H     1 <1>   0.0800 
 32 H       -2.1150     6.4620     0.3180 H     1 <1>   0.0800 
 33 H       -1.5540     7.3080    -1.0940 H     1 <1>   0.0800 
 34 H       -6.2730     1.7070    -0.9170 H     1 <1>   0.3700 
 35 H        0.5970     7.7620    -0.0540 H     1 <1>   0.0800 
 36 H       -0.6580     8.2840     1.0400 H     1 <1>   0.0800 
 37 H       -7.4020     3.4160     1.2440 H     1 <1>   0.0800 
 38 H       -8.6230     1.1030    -0.3020 H     1 <1>   0.0800 
 39 H       -9.4330     2.0660     0.9080 H     1 <1>   0.0800 
 40 H       -8.0920     1.0560     1.3710 H     1 <1>   0.0800 
 41 H       -8.1690     3.2060    -1.6900 H     1 <1>   0.0800 
 42 H       -7.3320     4.5550    -0.9390 H     1 <1>   0.0800 
 43 H       -8.9730     4.1860    -0.4890 H     1 <1>   0.0800 
@<TRIPOS>BOND
  1   1   2  1   
  2   2   3  ar  
  3   2   4  ar  
  4   3   5  1   
  5   3   6  ar  
  6   4   7  ar  
  7   4  23  1   
  8   5   8  2   
  9   5   9  2   
 10   5  10  am  
 11   6  11  ar  
 12   6  24  1   
 13   7  11  ar  
 14   7  25  1   
 15  10  12  1   
 16  10  13  1   
 17  11  14  1   
 18  12  15  1   
 19  12  26  1   
 20  12  27  1   
 21  13  16  1   
 22  13  28  1   
 23  13  29  1   
 24  14  17  2   
 25  14  18  am  
 26  15  19  1   
 27  15  30  1   
 28  15  31  1   
 29  16  19  1   
 30  16  32  1   
 31  16  33  1   
 32  18  20  1   
 33  18  34  1   
 34  19  35  1   
 35  19  36  1   
 36  20  21  1   
 37  20  22  1   
 38  20  37  1   
 39  21  38  1   
 40  21  39  1   
 41  21  40  1   
 42  22  41  1   
 43  22  42  1   
 44  22  43  1   
@<TRIPOS>SUBSTRUCTURE
  1 ****   6 GROUP 4 **** **** 0

# MOE 2024.06 (io_trps.svl 2023.06)
