@<TRIPOS>MOLECULE
NONAME
45 46 1 0 0 
SMALL
USER_CHARGES


@<TRIPOS>ATOM
  1 O       -0.2910     1.7070    -2.2680 O.2   1 <1>  -0.5700 
  2 C       -0.3230     2.2410    -1.1760 C.2   1 <1>   0.5440 
  3 N       -1.4320     2.0640    -0.3960 N.am  1 <1>  -0.7300 
  4 C        0.7990     3.0310    -0.7010 C.ar  1 <1>   0.0860 
  5 C       -2.6420     1.3130    -0.7910 C.3   1 <1>   0.1400 
  6 C        2.0960     2.7810    -1.1550 C.ar  1 <1>  -0.1500 
  7 C        0.6390     4.0670     0.2220 C.ar  1 <1>  -0.1500 
  8 C       -3.8760     2.0640    -0.2940 C.3   1 <1>  -0.1600 
  9 C        3.1810     3.5120    -0.7060 C.ar  1 <1>  -0.1500 
 10 C        1.7180     4.8010     0.6770 C.ar  1 <1>  -0.1500 
 11 C       -5.1670     1.3480    -0.7080 C.3   1 <1>  -0.0170 
 12 C        2.9980     4.5320     0.2220 C.ar  1 <1>   0.0830 
 13 C       -6.3780     2.1030    -0.1870 C.ar  1 <1>  -0.1430 
 14 O        3.9940     5.2980     0.7250 O.3   1 <1>  -0.3630 
 15 C       -6.9420     1.7680     1.0340 C.ar  1 <1>  -0.1500 
 16 C       -6.9270     3.1390    -0.9270 C.ar  1 <1>  -0.1500 
 17 C        5.3440     5.1890     0.3290 C.3   1 <1>   0.2000 
 18 C       -8.0440     2.4590     1.5100 C.ar  1 <1>  -0.1500 
 19 C       -8.0280     3.8310    -0.4530 C.ar  1 <1>  -0.1500 
 20 C        6.1870     5.8130     1.4380 C.3   1 <1>  -0.2400 
 21 C        5.5330     5.9350    -0.9930 C.3   1 <1>  -0.2400 
 22 C       -8.5870     3.4910     0.7660 C.ar  1 <1>  -0.1500 
 23 H       -1.4150     2.3950     0.5680 H     1 <1>   0.3700 
 24 H       -2.6020     0.3270    -0.3600 H     1 <1>   0.0800 
 25 H       -2.6770     1.2160    -1.8640 H     1 <1>   0.0800 
 26 H        2.2470     1.9960    -1.8760 H     1 <1>   0.1500 
 27 H       -0.3440     4.3100     0.5840 H     1 <1>   0.1500 
 28 H       -3.8780     3.0560    -0.7100 H     1 <1>   0.0800 
 29 H       -3.8460     2.1390     0.7780 H     1 <1>   0.0800 
 30 H        4.1540     3.2740    -1.0900 H     1 <1>   0.1500 
 31 H        1.5790     5.5950     1.3890 H     1 <1>   0.1500 
 32 H       -5.1720     0.3450    -0.3180 H     1 <1>   0.0800 
 33 H       -5.2200     1.2830    -1.7810 H     1 <1>   0.0800 
 34 H       -6.5270     0.9680     1.6210 H     1 <1>   0.1500 
 35 H       -6.4980     3.4110    -1.8760 H     1 <1>   0.1500 
 36 H        5.5980     4.1470     0.2370 H     1 <1>   0.0800 
 37 H       -8.4780     2.1930     2.4580 H     1 <1>   0.1500 
 38 H       -8.4500     4.6330    -1.0330 H     1 <1>   0.1500 
 39 H        5.9260     6.8480     1.5710 H     1 <1>   0.0800 
 40 H        7.2310     5.7500     1.1880 H     1 <1>   0.0800 
 41 H        6.0260     5.2840     2.3600 H     1 <1>   0.0800 
 42 H        5.2590     6.9690    -0.8790 H     1 <1>   0.0800 
 43 H        4.9320     5.4960    -1.7680 H     1 <1>   0.0800 
 44 H        6.5630     5.8850    -1.2980 H     1 <1>   0.0800 
 45 H       -9.4430     4.0280     1.1340 H     1 <1>   0.1500 
@<TRIPOS>BOND
  1   1   2  2   
  2   2   3  am  
  3   2   4  1   
  4   3   5  1   
  5   3  23  1   
  6   4   6  ar  
  7   4   7  ar  
  8   5   8  1   
  9   5  24  1   
 10   5  25  1   
 11   6   9  ar  
 12   6  26  1   
 13   7  10  ar  
 14   7  27  1   
 15   8  11  1   
 16   8  28  1   
 17   8  29  1   
 18   9  12  ar  
 19   9  30  1   
 20  10  12  ar  
 21  10  31  1   
 22  11  13  1   
 23  11  32  1   
 24  11  33  1   
 25  12  14  1   
 26  13  15  ar  
 27  13  16  ar  
 28  14  17  1   
 29  15  18  ar  
 30  15  34  1   
 31  16  19  ar  
 32  16  35  1   
 33  17  20  1   
 34  17  21  1   
 35  17  36  1   
 36  18  22  ar  
 37  18  37  1   
 38  19  22  ar  
 39  19  38  1   
 40  20  39  1   
 41  20  40  1   
 42  20  41  1   
 43  21  42  1   
 44  21  43  1   
 45  21  44  1   
 46  22  45  1   
@<TRIPOS>SUBSTRUCTURE
  1 ****   3 GROUP 4 **** **** 0

# MOE 2024.06 (io_trps.svl 2023.06)
