@<TRIPOS>MOLECULE
NONAME
35 35 1 0 0 
SMALL
USER_CHARGES


@<TRIPOS>ATOM
  1 CL       1.7690     0.6640    -0.2980 Cl    1 <1>  -0.1770 
  2 C        0.0890     1.1080    -0.4950 C.ar  1 <1>   0.1770 
  3 C       -0.3860     2.3150     0.0000 C.ar  1 <1>  -0.1440 
  4 C       -0.7420     0.2210    -1.1550 C.ar  1 <1>  -0.1500 
  5 C       -1.7260     2.6250    -0.1880 C.ar  1 <1>  -0.1500 
  6 C        0.5220     3.2890     0.7310 C.3   1 <1>   0.2140 
  7 C       -2.0780     0.5400    -1.3310 C.ar  1 <1>  -0.1500 
  8 C       -2.5660     1.7430    -0.8480 C.ar  1 <1>  -0.1500 
  9 S        1.2930     4.3690    -0.5110 S.3   1 <1>  -0.4600 
 10 C        2.5510     5.2930     0.4470 C.3   1 <1>   0.1310 
 11 C        3.6100     4.3710     1.0380 C.2   1 <1>   0.5690 
 12 O        4.1570     4.7030     2.0620 O.2   1 <1>  -0.5700 
 13 N        3.8990     3.2020     0.4100 N.am  1 <1>  -0.7300 
 14 C        4.8950     2.2030     0.8540 C.3   1 <1>   0.1400 
 15 C        5.6560     1.6280    -0.3520 C.3   1 <1>  -0.0800 
 16 C        6.6140     0.5230     0.1120 C.3   1 <1>  -0.2400 
 17 C        6.4470     2.7110    -1.1030 C.3   1 <1>  -0.2400 
 18 H       -0.3460    -0.7060    -1.5260 H     1 <1>   0.1500 
 19 H       -2.1210     3.5590     0.1750 H     1 <1>   0.1500 
 20 H        1.3020     2.7820     1.2700 H     1 <1>   0.0800 
 21 H       -0.0320     3.9180     1.4040 H     1 <1>   0.0800 
 22 H       -2.7340    -0.1420    -1.8440 H     1 <1>   0.1500 
 23 H       -3.6030     1.9940    -0.9890 H     1 <1>   0.1500 
 24 H        2.0380     5.8220     1.2280 H     1 <1>   0.0800 
 25 H        3.0090     5.9940    -0.2250 H     1 <1>   0.0800 
 26 H        3.3470     2.9440    -0.4140 H     1 <1>   0.3700 
 27 H        4.3810     1.4110     1.3700 H     1 <1>   0.0800 
 28 H        5.5860     2.6610     1.5420 H     1 <1>   0.0800 
 29 H        4.9410     1.1860    -1.0250 H     1 <1>   0.0800 
 30 H        7.3490     0.9180     0.7910 H     1 <1>   0.0800 
 31 H        7.1230     0.0920    -0.7320 H     1 <1>   0.0800 
 32 H        6.0680    -0.2590     0.6110 H     1 <1>   0.0800 
 33 H        7.1500     3.1900    -0.4440 H     1 <1>   0.0800 
 34 H        5.7840     3.4600    -1.4960 H     1 <1>   0.0800 
 35 H        6.9860     2.2770    -1.9260 H     1 <1>   0.0800 
@<TRIPOS>BOND
  1   1   2  1   
  2   2   3  ar  
  3   2   4  ar  
  4   3   5  ar  
  5   3   6  1   
  6   4   7  ar  
  7   4  18  1   
  8   5   8  ar  
  9   5  19  1   
 10   6   9  1   
 11   6  20  1   
 12   6  21  1   
 13   7   8  ar  
 14   7  22  1   
 15   8  23  1   
 16   9  10  1   
 17  10  11  1   
 18  10  24  1   
 19  10  25  1   
 20  11  12  2   
 21  11  13  am  
 22  13  14  1   
 23  13  26  1   
 24  14  15  1   
 25  14  27  1   
 26  14  28  1   
 27  15  16  1   
 28  15  17  1   
 29  15  29  1   
 30  16  30  1   
 31  16  31  1   
 32  16  32  1   
 33  17  33  1   
 34  17  34  1   
 35  17  35  1   
@<TRIPOS>SUBSTRUCTURE
  1 ****   1 GROUP 4 **** **** 0

# MOE 2024.06 (io_trps.svl 2023.06)
