@<TRIPOS>MOLECULE
NONAME
48 49 1 0 0 
SMALL
USER_CHARGES


@<TRIPOS>ATOM
  1 O       -7.1600     7.8800    -0.0590 O.2   1 <1>  -0.5750 
  2 C       -6.3650     7.1130     0.4110 C.2   1 <1>   0.6550 
  3 O       -6.4800     6.7300     1.6800 O.3   1 <1>  -0.4360 
  4 C       -5.2370     6.5480    -0.4680 C.3   1 <1>   0.4090 
  5 C       -5.4830     6.1260     2.4750 C.3   1 <1>   0.0310 
  6 N       -5.3920     5.0930    -0.8370 N.pl3 1 <1>  -0.7680 
  7 C       -4.5760     4.0650    -0.6240 C.cat 1 <1>   1.0690 
  8 C       -6.5050     4.6060    -1.5160 C.ar  1 <1>   0.3020 
  9 N       -3.3920     4.1690    -0.0600 N.pl3 1 <1>  -0.8400 
 10 N       -5.1050     2.9170    -1.0650 N.pl3 1 <1>  -0.7680 
 11 C       -6.3210     3.2420    -1.6660 C.ar  1 <1>   0.3020 
 12 C       -7.6440     5.2240    -2.0240 C.ar  1 <1>  -0.1170 
 13 C       -4.5430     1.5340    -1.0510 C.3   1 <1>   0.3480 
 14 C       -7.2630     2.4660    -2.3350 C.ar  1 <1>  -0.1170 
 15 C       -8.5840     4.4520    -2.6770 C.ar  1 <1>  -0.1580 
 16 C       -5.3470     0.5940    -0.1120 C.3   1 <1>   0.3370 
 17 C       -8.3950     3.0800    -2.8340 C.ar  1 <1>  -0.1580 
 18 N       -4.8570    -0.8350    -0.0800 N.4   1 <1>  -0.9610 
 19 C       -6.0190    -1.7680    -0.1400 C.3   1 <1>   0.3370 
 20 C       -4.0390    -1.1520     1.1310 C.3   1 <1>   0.3370 
 21 C       -5.5530    -3.1200    -0.6660 C.3   1 <1>  -0.2470 
 22 C       -2.7390    -0.3580     1.1260 C.3   1 <1>  -0.2470 
 23 H       -4.3010     6.7110     0.0320 H     1 <1>   0.0720 
 24 H       -5.2150     7.1250    -1.3770 H     1 <1>   0.0720 
 25 H       -5.8630     6.0510     3.4790 H     1 <1>   0.0720 
 26 H       -4.6040     6.7460     2.4720 H     1 <1>   0.0720 
 27 H       -5.2730     5.1420     2.0970 H     1 <1>   0.0720 
 28 H       -2.7450     3.3920     0.0300 H     1 <1>   0.4440 
 29 H       -2.9880     5.0670     0.1950 H     1 <1>   0.4440 
 30 H       -7.8010     6.2830    -1.9190 H     1 <1>   0.1420 
 31 H       -3.5150     1.5650    -0.7430 H     1 <1>   0.0720 
 32 H       -4.5780     1.1440    -2.0550 H     1 <1>   0.0720 
 33 H       -7.1230     1.4110    -2.4750 H     1 <1>   0.1420 
 34 H       -9.4760     4.9120    -3.0750 H     1 <1>   0.1420 
 35 H       -6.3710     0.6010    -0.4440 H     1 <1>   0.0720 
 36 H       -5.3290     0.9950     0.8880 H     1 <1>   0.0720 
 37 H       -9.1440     2.5050    -3.3560 H     1 <1>   0.1420 
 38 H       -4.2850    -1.0570    -0.9070 H     1 <1>   0.4440 
 39 H       -6.7670    -1.3800    -0.8120 H     1 <1>   0.0720 
 40 H       -6.4650    -1.8790     0.8360 H     1 <1>   0.0720 
 41 H       -3.7980    -2.2030     1.1390 H     1 <1>   0.0720 
 42 H       -4.6000    -0.9350     2.0270 H     1 <1>   0.0720 
 43 H       -5.1040    -3.0220    -1.6390 H     1 <1>   0.0720 
 44 H       -6.4060    -3.7690    -0.7620 H     1 <1>   0.0720 
 45 H       -4.8620    -3.5930     0.0070 H     1 <1>   0.0720 
 46 H       -2.2030    -0.4990     0.2040 H     1 <1>   0.0720 
 47 H       -2.1150    -0.7200     1.9250 H     1 <1>   0.0720 
 48 H       -2.9140     0.6850     1.3100 H     1 <1>   0.0720 
@<TRIPOS>BOND
  1   1   2  2   
  2   2   3  1   
  3   2   4  1   
  4   3   5  1   
  5   4   6  1   
  6   4  23  1   
  7   4  24  1   
  8   5  25  1   
  9   5  26  1   
 10   5  27  1   
 11   6   7  ar  
 12   6   8  1   
 13   7   9  ar  
 14   7  10  ar  
 15   8  11  ar  
 16   8  12  ar  
 17   9  28  1   
 18   9  29  1   
 19  10  11  1   
 20  10  13  1   
 21  11  14  ar  
 22  12  15  ar  
 23  12  30  1   
 24  13  16  1   
 25  13  31  1   
 26  13  32  1   
 27  14  17  ar  
 28  14  33  1   
 29  15  17  ar  
 30  15  34  1   
 31  16  18  1   
 32  16  35  1   
 33  16  36  1   
 34  17  37  1   
 35  18  19  1   
 36  18  20  1   
 37  18  38  1   
 38  19  21  1   
 39  19  39  1   
 40  19  40  1   
 41  20  22  1   
 42  20  41  1   
 43  20  42  1   
 44  21  43  1   
 45  21  44  1   
 46  21  45  1   
 47  22  46  1   
 48  22  47  1   
 49  22  48  1   
@<TRIPOS>SUBSTRUCTURE
  1 ****  10 GROUP 4 **** **** 0

# MOE 2024.06 (io_trps.svl 2023.06)
