@<TRIPOS>MOLECULE
NONAME
51 52 1 0 0 
SMALL
USER_CHARGES


@<TRIPOS>ATOM
  1 O       -2.1990    -0.3860     1.0300 O.3   1 <1>  -0.5600 
  2 C       -2.0370     1.0040     0.9330 C.3   1 <1>   0.1200 
  3 C       -2.6630    -0.9930    -0.1450 C.3   1 <1>   0.1200 
  4 C       -3.3490     1.6960     0.4930 C.3   1 <1>   0.3430 
  5 C       -4.0390    -0.4220    -0.5610 C.3   1 <1>   0.3430 
  6 N       -4.4680     0.7040     0.3410 N.4   1 <1>  -0.9590 
  7 C       -5.7500     1.3500    -0.0500 C.3   1 <1>   0.3430 
  8 C       -6.9240     0.3910     0.1620 C.3   1 <1>  -0.1600 
  9 C       -8.2520     1.0990    -0.1440 C.3   1 <1>  -0.1600 
 10 C       -9.4540     0.1770     0.0680 C.3   1 <1>   0.1200 
 11 O      -10.6090     0.9130    -0.2480 O.3   1 <1>  -0.3630 
 12 C      -11.8450     0.3610    -0.1580 C.ar  1 <1>   0.0820 
 13 C      -12.0870    -0.9450     0.2510 C.ar  1 <1>  -0.1500 
 14 C      -12.9170     1.1660    -0.4980 C.ar  1 <1>  -0.1500 
 15 C      -13.3850    -1.4220     0.3120 C.ar  1 <1>  -0.1500 
 16 C      -14.2120     0.6840    -0.4340 C.ar  1 <1>  -0.1500 
 17 C      -14.4740    -0.6230    -0.0270 C.ar  1 <1>  -0.1430 
 18 C      -15.9010    -1.2070     0.0600 C.3   1 <1>   0.1430 
 19 C      -16.0180    -2.4200    -0.8750 C.3   1 <1>  -0.2400 
 20 C      -16.9930    -0.2020    -0.3470 C.3   1 <1>  -0.2400 
 21 C      -16.1910    -1.6450     1.5030 C.3   1 <1>  -0.2400 
 22 H       -1.2440     1.2110     0.2340 H     1 <1>   0.0800 
 23 H       -1.7330     1.3660     1.9000 H     1 <1>   0.0800 
 24 H       -2.7400    -2.0510     0.0400 H     1 <1>   0.0800 
 25 H       -1.9340    -0.8410    -0.9230 H     1 <1>   0.0800 
 26 H       -3.1790     2.2040    -0.4410 H     1 <1>   0.0800 
 27 H       -3.6130     2.4420     1.2250 H     1 <1>   0.0800 
 28 H       -4.7660    -1.2160    -0.5290 H     1 <1>   0.0800 
 29 H       -3.9790    -0.0780    -1.5800 H     1 <1>   0.0800 
 30 H       -4.5680     0.2770     1.2750 H     1 <1>   0.4500 
 31 H       -5.7100     1.6600    -1.0820 H     1 <1>   0.0800 
 32 H       -5.9090     2.2280     0.5570 H     1 <1>   0.0800 
 33 H       -6.9360     0.0550     1.1850 H     1 <1>   0.0800 
 34 H       -6.8310    -0.4610    -0.4870 H     1 <1>   0.0800 
 35 H       -8.2570     1.4350    -1.1680 H     1 <1>   0.0800 
 36 H       -8.3640     1.9560     0.4980 H     1 <1>   0.0800 
 37 H       -9.5260    -0.1380     1.0950 H     1 <1>   0.0800 
 38 H       -9.4100    -0.6770    -0.5860 H     1 <1>   0.0800 
 39 H      -11.2880    -1.6040     0.5240 H     1 <1>   0.1500 
 40 H      -12.7300     2.1760    -0.8130 H     1 <1>   0.1500 
 41 H      -13.5400    -2.4360     0.6310 H     1 <1>   0.1500 
 42 H      -15.0020     1.3550    -0.7100 H     1 <1>   0.1500 
 43 H      -15.7820    -2.1300    -1.8840 H     1 <1>   0.0800 
 44 H      -17.0170    -2.8190    -0.8580 H     1 <1>   0.0800 
 45 H      -15.3420    -3.2020    -0.5830 H     1 <1>   0.0800 
 46 H      -16.8520     0.1170    -1.3640 H     1 <1>   0.0800 
 47 H      -16.9720     0.6590     0.2970 H     1 <1>   0.0800 
 48 H      -17.9680    -0.6500    -0.2720 H     1 <1>   0.0800 
 49 H      -15.5160    -2.4190     1.8170 H     1 <1>   0.0800 
 50 H      -17.1940    -2.0200     1.5930 H     1 <1>   0.0800 
 51 H      -16.0760    -0.8080     2.1700 H     1 <1>   0.0800 
@<TRIPOS>BOND
  1   1   2  1   
  2   1   3  1   
  3   2   4  1   
  4   2  22  1   
  5   2  23  1   
  6   3   5  1   
  7   3  24  1   
  8   3  25  1   
  9   4   6  1   
 10   4  26  1   
 11   4  27  1   
 12   5   6  1   
 13   5  28  1   
 14   5  29  1   
 15   6   7  1   
 16   6  30  1   
 17   7   8  1   
 18   7  31  1   
 19   7  32  1   
 20   8   9  1   
 21   8  33  1   
 22   8  34  1   
 23   9  10  1   
 24   9  35  1   
 25   9  36  1   
 26  10  11  1   
 27  10  37  1   
 28  10  38  1   
 29  11  12  1   
 30  12  13  ar  
 31  12  14  ar  
 32  13  15  ar  
 33  13  39  1   
 34  14  16  ar  
 35  14  40  1   
 36  15  17  ar  
 37  15  41  1   
 38  16  17  ar  
 39  16  42  1   
 40  17  18  1   
 41  18  19  1   
 42  18  20  1   
 43  18  21  1   
 44  19  43  1   
 45  19  44  1   
 46  19  45  1   
 47  20  46  1   
 48  20  47  1   
 49  20  48  1   
 50  21  49  1   
 51  21  50  1   
 52  21  51  1   
@<TRIPOS>SUBSTRUCTURE
  1 ****  10 GROUP 4 **** **** 0

# MOE 2024.06 (io_trps.svl 2023.06)
