@<TRIPOS>MOLECULE
NONAME
46 49 1 0 0 
SMALL
USER_CHARGES


@<TRIPOS>ATOM
  1 S       -0.1400    -2.0140     0.3740 S.3   1 <1>  -0.2860 
  2 C       -1.6640    -1.0660     0.3780 C.2   1 <1>   0.2420 
  3 C        0.9660    -1.0070     1.4810 C.3   1 <1>   0.1310 
  4 N       -1.8040     0.0530     0.9890 N.2   1 <1>  -0.3380 
  5 N       -2.7580    -1.4670    -0.2640 N.pl3 1 <1>   0.0480 
  6 C        2.3550    -1.6170     1.5860 C.2   1 <1>   0.5690 
  7 N       -3.0600     0.4400     0.7500 N.2   1 <1>  -0.3380 
  8 C       -3.6280    -0.4750     0.0120 C.2   1 <1>   0.1870 
  9 C       -2.9300    -2.6600    -1.1190 C.3   1 <1>   0.0160 
 10 O        3.0100    -1.3900     2.5740 O.2   1 <1>  -0.5700 
 11 N        2.8280    -2.3870     0.5730 N.am  1 <1>  -0.7300 
 12 C       -4.9860    -0.4370    -0.4660 C.2   1 <1>  -0.0010 
 13 C        4.1390    -3.0520     0.5330 C.3   1 <1>   0.2200 
 14 C       -5.9610    -1.4560    -0.2860 C.ar  1 <1>   0.0000 
 15 C       -5.5940     0.5500    -1.1820 C.2   1 <1>  -0.3020 
 16 C        4.8310    -2.6910    -0.7750 C.3   1 <1>  -0.1600 
 17 C        3.9190    -4.5550     0.4090 C.3   1 <1>  -0.1600 
 18 C       -7.1130    -1.0370    -0.9430 C.ar  1 <1>  -0.1520 
 19 C       -5.9660    -2.6810     0.3910 C.ar  1 <1>  -0.1500 
 20 N       -6.8750     0.2010    -1.4790 N.pl3 1 <1>   0.0330 
 21 C        4.2310    -3.6200    -1.8370 C.3   1 <1>  -0.1600 
 22 C        3.6400    -4.8140    -1.0760 C.3   1 <1>  -0.1600 
 23 C       -8.2590    -1.8350    -0.9710 C.ar  1 <1>  -0.1500 
 24 C       -7.0950    -3.4670     0.3660 C.ar  1 <1>  -0.1500 
 25 C       -8.2410    -3.0460    -0.3190 C.ar  1 <1>  -0.1500 
 26 H        0.4990    -0.9690     2.4470 H     1 <1>   0.0800 
 27 H        1.0230    -0.0180     1.0660 H     1 <1>   0.0800 
 28 H       -2.0620    -2.7840    -1.7410 H     1 <1>   0.0800 
 29 H       -3.7960    -2.5420    -1.7440 H     1 <1>   0.0800 
 30 H       -3.0520    -3.5290    -0.4970 H     1 <1>   0.0800 
 31 H        2.2200    -2.5970    -0.2200 H     1 <1>   0.3700 
 32 H        4.7280    -2.7910     1.3970 H     1 <1>   0.0800 
 33 H       -5.1660     1.4880    -1.4910 H     1 <1>   0.1500 
 34 H        5.8800    -2.9080    -0.6740 H     1 <1>   0.0800 
 35 H        4.7200    -1.6490    -1.0200 H     1 <1>   0.0800 
 36 H        3.1300    -4.9040     1.0510 H     1 <1>   0.0800 
 37 H        4.8320    -5.0540     0.6850 H     1 <1>   0.0800 
 38 H       -5.0900    -2.9900     0.9310 H     1 <1>   0.1500 
 39 H       -7.5580     0.7620    -1.9980 H     1 <1>   0.2700 
 40 H        4.9840    -3.9350    -2.5390 H     1 <1>   0.0800 
 41 H        3.4490    -3.1080    -2.3730 H     1 <1>   0.0800 
 42 H        2.5780    -4.8630    -1.2450 H     1 <1>   0.0800 
 43 H        4.0840    -5.7430    -1.3930 H     1 <1>   0.0800 
 44 H       -9.1380    -1.5000    -1.4930 H     1 <1>   0.1500 
 45 H       -7.1110    -4.4120     0.8800 H     1 <1>   0.1500 
 46 H       -9.1110    -3.6790    -0.3240 H     1 <1>   0.1500 
@<TRIPOS>BOND
  1   1   2  1   
  2   1   3  1   
  3   2   4  2   
  4   2   5  1   
  5   3   6  1   
  6   3  26  1   
  7   3  27  1   
  8   4   7  1   
  9   5   8  1   
 10   5   9  1   
 11   6  10  2   
 12   6  11  am  
 13   7   8  2   
 14   8  12  1   
 15   9  28  1   
 16   9  29  1   
 17   9  30  1   
 18  11  13  1   
 19  11  31  1   
 20  12  14  1   
 21  12  15  2   
 22  13  16  1   
 23  13  17  1   
 24  13  32  1   
 25  14  18  ar  
 26  14  19  ar  
 27  15  20  1   
 28  15  33  1   
 29  16  21  1   
 30  16  34  1   
 31  16  35  1   
 32  17  22  1   
 33  17  36  1   
 34  17  37  1   
 35  18  20  1   
 36  18  23  ar  
 37  19  24  ar  
 38  19  38  1   
 39  20  39  1   
 40  21  22  1   
 41  21  40  1   
 42  21  41  1   
 43  22  42  1   
 44  22  43  1   
 45  23  25  ar  
 46  23  44  1   
 47  24  25  ar  
 48  24  45  1   
 49  25  46  1   
@<TRIPOS>SUBSTRUCTURE
  1 ****   2 GROUP 4 **** **** 0

# MOE 2024.06 (io_trps.svl 2023.06)
