@<TRIPOS>MOLECULE
NONAME
35 36 1 0 0 
SMALL
USER_CHARGES


@<TRIPOS>ATOM
  1 O       -0.3120     0.3550    -0.8030 O.2   1 <1>  -0.5700 
  2 C       -0.9370     1.2270    -0.2320 C.2   1 <1>   0.6340 
  3 O       -0.2550     2.2000     0.3860 O.3   1 <1>  -0.4300 
  4 C       -2.3840     1.2720    -0.1860 C.ar  1 <1>   0.0860 
  5 C        1.1580     2.2300     0.3910 C.3   1 <1>   0.0400 
  6 C       -3.1550     0.2640    -0.7720 C.ar  1 <1>  -0.1500 
  7 C       -3.0780     2.3130     0.4380 C.ar  1 <1>  -0.1500 
  8 C       -4.5350     0.2880    -0.7450 C.ar  1 <1>   0.1000 
  9 C       -4.4600     2.3470     0.4740 C.ar  1 <1>  -0.1500 
 10 N       -5.2740    -0.7170    -1.3540 N.pl3 1 <1>  -0.9000 
 11 C       -5.2140     1.3430    -0.1150 C.ar  1 <1>   0.1000 
 12 N       -6.6160     1.3650    -0.0860 N.pl3 1 <1>  -0.8380 
 13 C       -7.3290     2.6310    -0.3920 C.3   1 <1>   0.2090 
 14 C       -7.2640     0.5460     0.9710 C.3   1 <1>   0.2090 
 15 C       -8.7540     2.3060    -0.8500 C.3   1 <1>  -0.1600 
 16 C       -8.6910     0.1960     0.5360 C.3   1 <1>  -0.1600 
 17 C       -9.5030     1.4530     0.1860 C.3   1 <1>  -0.1600 
 18 H        1.4790     3.0940     0.9440 H     1 <1>   0.0800 
 19 H        1.5080     2.2880    -0.6250 H     1 <1>   0.0800 
 20 H        1.5240     1.3320     0.8580 H     1 <1>   0.0800 
 21 H       -2.6620    -0.5590    -1.2560 H     1 <1>   0.1500 
 22 H       -2.5270     3.1110     0.9060 H     1 <1>   0.1500 
 23 H       -4.9600     3.1580     0.9690 H     1 <1>   0.1500 
 24 H       -6.2610    -0.4230    -1.2920 H     1 <1>   0.4000 
 25 H       -5.0280    -0.8550    -2.3360 H     1 <1>   0.4000 
 26 H       -6.8050     3.1600    -1.1690 H     1 <1>   0.0800 
 27 H       -7.3580     3.2490     0.4890 H     1 <1>   0.0800 
 28 H       -7.2830     1.1030     1.8920 H     1 <1>   0.0800 
 29 H       -6.6960    -0.3560     1.1310 H     1 <1>   0.0800 
 30 H       -8.7000     1.7760    -1.7850 H     1 <1>   0.0800 
 31 H       -9.2900     3.2220    -1.0220 H     1 <1>   0.0800 
 32 H       -9.1800    -0.3440     1.3260 H     1 <1>   0.0800 
 33 H       -8.6380    -0.4520    -0.3210 H     1 <1>   0.0800 
 34 H      -10.4660     1.1690    -0.2020 H     1 <1>   0.0800 
 35 H       -9.6610     2.0340     1.0790 H     1 <1>   0.0800 
@<TRIPOS>BOND
  1   1   2  2   
  2   2   3  1   
  3   2   4  1   
  4   3   5  1   
  5   4   6  ar  
  6   4   7  ar  
  7   5  18  1   
  8   5  19  1   
  9   5  20  1   
 10   6   8  ar  
 11   6  21  1   
 12   7   9  ar  
 13   7  22  1   
 14   8  10  1   
 15   8  11  ar  
 16   9  11  ar  
 17   9  23  1   
 18  10  24  1   
 19  10  25  1   
 20  11  12  1   
 21  12  13  1   
 22  12  14  1   
 23  13  15  1   
 24  13  26  1   
 25  13  27  1   
 26  14  16  1   
 27  14  28  1   
 28  14  29  1   
 29  15  17  1   
 30  15  30  1   
 31  15  31  1   
 32  16  17  1   
 33  16  32  1   
 34  16  33  1   
 35  17  34  1   
 36  17  35  1   
@<TRIPOS>SUBSTRUCTURE
  1 ****  11 GROUP 4 **** **** 0

# MOE 2024.06 (io_trps.svl 2023.06)
