@<TRIPOS>MOLECULE
NONAME
56 56 1 0 0 
SMALL
USER_CHARGES


@<TRIPOS>ATOM
  1 O       -4.2610    -1.6530     0.2830 O.3   1 <1>  -0.5600 
  2 C       -5.3940    -0.9630     0.7210 C.3   1 <1>   0.2000 
  3 C       -3.8160    -2.6800     1.1200 C.3   1 <1>   0.1200 
  4 C       -6.7230    -1.7500     0.5340 C.3   1 <1>  -0.0800 
  5 C       -5.4280     0.3890     0.0030 C.3   1 <1>  -0.1600 
  6 C       -2.5120    -3.2450     0.5410 C.3   1 <1>   0.2000 
  7 C       -7.0990    -2.1800    -0.9250 C.3   1 <1>  -0.0800 
  8 C       -7.8180    -0.8670     1.1840 C.3   1 <1>  -0.1600 
  9 C       -6.5690     1.2640     0.5520 C.3   1 <1>  -0.0800 
 10 O       -2.6560    -3.3570    -0.8410 O.3   1 <1>  -0.6800 
 11 C       -2.1460    -4.6280     1.1140 C.3   1 <1>   0.3430 
 12 C       -8.4330    -2.9470    -0.9740 C.3   1 <1>  -0.2400 
 13 C       -6.0410    -3.0620    -1.6070 C.3   1 <1>  -0.2400 
 14 C       -7.9170     0.5210     0.5270 C.3   1 <1>  -0.1600 
 15 C       -6.6650     2.5760    -0.2330 C.3   1 <1>  -0.2400 
 16 N       -1.3000    -5.3650     0.1260 N.4   1 <1>  -0.9060 
 17 C       -1.3050    -6.8240     0.1510 C.3   1 <1>   0.5030 
 18 C       -0.8300    -7.3140     1.5180 C.3   1 <1>  -0.2400 
 19 C       -2.7100    -7.3350    -0.1630 C.3   1 <1>  -0.2400 
 20 C       -0.3330    -7.2750    -0.9340 C.3   1 <1>  -0.2400 
 21 H       -5.2550    -0.7630     1.7710 H     1 <1>   0.0800 
 22 H       -4.5730    -3.4430     1.1600 H     1 <1>   0.0800 
 23 H       -3.6510    -2.2840     2.1080 H     1 <1>   0.0800 
 24 H       -6.6650    -2.6420     1.1290 H     1 <1>   0.0800 
 25 H       -5.5570     0.2360    -1.0530 H     1 <1>   0.0800 
 26 H       -4.4910     0.8950     0.1590 H     1 <1>   0.0800 
 27 H       -1.7150    -2.5460     0.7280 H     1 <1>   0.0800 
 28 H       -7.2140    -1.3020    -1.5370 H     1 <1>   0.0800 
 29 H       -7.5800    -0.7300     2.2250 H     1 <1>   0.0800 
 30 H       -8.7770    -1.3500     1.1630 H     1 <1>   0.0800 
 31 H       -6.3420     1.5050     1.5770 H     1 <1>   0.0800 
 32 H       -3.2180    -2.5890    -1.1200 H     1 <1>   0.4000 
 33 H       -3.0600    -5.1700     1.2840 H     1 <1>   0.0800 
 34 H       -1.6370    -4.5250     2.0580 H     1 <1>   0.0800 
 35 H       -8.4170    -3.7830    -0.2980 H     1 <1>   0.0800 
 36 H       -8.6220    -3.3170    -1.9670 H     1 <1>   0.0800 
 37 H       -9.2590    -2.3080    -0.7220 H     1 <1>   0.0800 
 38 H       -5.7730    -3.8920    -0.9810 H     1 <1>   0.0800 
 39 H       -5.1660    -2.4860    -1.8380 H     1 <1>   0.0800 
 40 H       -6.4120    -3.4450    -2.5410 H     1 <1>   0.0800 
 41 H       -8.6540     1.1060     1.0500 H     1 <1>   0.0800 
 42 H       -8.2570     0.4170    -0.4890 H     1 <1>   0.0800 
 43 H       -6.8900     2.3840    -1.2680 H     1 <1>   0.0800 
 44 H       -5.7340     3.1120    -0.1790 H     1 <1>   0.0800 
 45 H       -7.4390     3.2000     0.1760 H     1 <1>   0.0800 
 46 H       -0.3370    -5.0250     0.1540 H     1 <1>   0.4500 
 47 H       -1.6690    -5.0480    -0.7880 H     1 <1>   0.4500 
 48 H       -1.5210    -7.0440     2.2960 H     1 <1>   0.0800 
 49 H        0.1430    -6.9210     1.7530 H     1 <1>   0.0800 
 50 H       -0.7580    -8.3870     1.5120 H     1 <1>   0.0800 
 51 H       -2.6930    -8.4070    -0.2540 H     1 <1>   0.0800 
 52 H       -3.0670    -6.9330    -1.0950 H     1 <1>   0.0800 
 53 H       -3.4070    -7.0940     0.6180 H     1 <1>   0.0800 
 54 H       -0.2970    -8.3500    -0.9700 H     1 <1>   0.0800 
 55 H        0.6630    -6.9220    -0.7360 H     1 <1>   0.0800 
 56 H       -0.6460    -6.9260    -1.9030 H     1 <1>   0.0800 
@<TRIPOS>BOND
  1   1   2  1   
  2   1   3  1   
  3   2   4  1   
  4   2   5  1   
  5   2  21  1   
  6   3   6  1   
  7   3  22  1   
  8   3  23  1   
  9   4   7  1   
 10   4   8  1   
 11   4  24  1   
 12   5   9  1   
 13   5  25  1   
 14   5  26  1   
 15   6  10  1   
 16   6  11  1   
 17   6  27  1   
 18   7  12  1   
 19   7  13  1   
 20   7  28  1   
 21   8  14  1   
 22   8  29  1   
 23   8  30  1   
 24   9  14  1   
 25   9  15  1   
 26   9  31  1   
 27  10  32  1   
 28  11  16  1   
 29  11  33  1   
 30  11  34  1   
 31  12  35  1   
 32  12  36  1   
 33  12  37  1   
 34  13  38  1   
 35  13  39  1   
 36  13  40  1   
 37  14  41  1   
 38  14  42  1   
 39  15  43  1   
 40  15  44  1   
 41  15  45  1   
 42  16  17  1   
 43  16  46  1   
 44  16  47  1   
 45  17  18  1   
 46  17  19  1   
 47  17  20  1   
 48  18  48  1   
 49  18  49  1   
 50  18  50  1   
 51  19  51  1   
 52  19  52  1   
 53  19  53  1   
 54  20  54  1   
 55  20  55  1   
 56  20  56  1   
@<TRIPOS>SUBSTRUCTURE
  1 ****   3 GROUP 4 **** **** 0

# MOE 2024.06 (io_trps.svl 2023.06)
