@<TRIPOS>MOLECULE
NONAME
51 53 1 0 0 
SMALL
USER_CHARGES


@<TRIPOS>ATOM
  1 O       -0.1630    -1.3050     0.7410 O.3   1 <1>  -0.3630 
  2 C       -1.2080    -1.4740    -0.1290 C.ar  1 <1>   0.0830 
  3 C       -0.1450    -0.2300     1.6540 C.3   1 <1>   0.1200 
  4 C       -1.1480    -2.5340    -1.0530 C.ar  1 <1>   0.1000 
  5 C       -2.3180    -0.6320    -0.1240 C.ar  1 <1>  -0.1500 
  6 C        1.1590    -0.2990     2.4430 C.3   1 <1>  -0.2400 
  7 N       -0.0830    -3.4420    -1.1430 N.pl3 1 <1>  -0.8380 
  8 C       -2.2020    -2.7100    -1.9380 C.ar  1 <1>  -0.1500 
  9 C       -3.3570    -0.8290    -1.0180 C.ar  1 <1>  -0.1500 
 10 C        1.1980    -2.9250    -1.7130 C.3   1 <1>   0.2090 
 11 C        0.0290    -4.4550    -0.0530 C.3   1 <1>   0.2090 
 12 C       -3.2980    -1.8690    -1.9260 C.ar  1 <1>  -0.1500 
 13 C        2.2410    -2.5960    -0.6250 C.3   1 <1>   0.3430 
 14 C        1.0990    -4.0800     0.9940 C.3   1 <1>   0.3430 
 15 N        2.4220    -3.7130     0.3760 N.4   1 <1>  -0.9590 
 16 C        3.4240    -3.3550     1.4120 C.3   1 <1>   0.4860 
 17 C        4.7700    -3.1590     0.7410 C.ar  1 <1>  -0.1430 
 18 C        5.2640    -1.8790     0.5310 C.ar  1 <1>  -0.1500 
 19 C        5.5170    -4.2550     0.3280 C.ar  1 <1>  -0.1500 
 20 C        6.4830    -1.7000    -0.0960 C.ar  1 <1>  -0.1500 
 21 C        6.7380    -4.0740    -0.2980 C.ar  1 <1>  -0.1500 
 22 C        7.2270    -2.7900    -0.5160 C.ar  1 <1>   0.0830 
 23 O        8.4090    -2.5230    -1.1220 O.3   1 <1>  -0.3620 
 24 C        9.2880    -3.5540    -1.5150 C.3   1 <1>   0.0400 
 25 H       -0.9930    -0.3230     2.3110 H     1 <1>   0.0800 
 26 H       -0.2040     0.6920     1.0990 H     1 <1>   0.0800 
 27 H       -2.4070     0.1870     0.5640 H     1 <1>   0.1500 
 28 H        1.2150    -1.2220     2.9910 H     1 <1>   0.0800 
 29 H        1.1910     0.5130     3.1480 H     1 <1>   0.0800 
 30 H        2.0010    -0.2040     1.7820 H     1 <1>   0.0800 
 31 H       -2.1560    -3.5190    -2.6440 H     1 <1>   0.1500 
 32 H       -4.2110    -0.1740    -1.0070 H     1 <1>   0.1500 
 33 H        0.9980    -2.0350    -2.2870 H     1 <1>   0.0800 
 34 H        1.6000    -3.6590    -2.3880 H     1 <1>   0.0800 
 35 H        0.2680    -5.4100    -0.4890 H     1 <1>   0.0800 
 36 H       -0.9240    -4.5550     0.4380 H     1 <1>   0.0800 
 37 H       -4.1040    -2.0240    -2.6230 H     1 <1>   0.1500 
 38 H        1.9210    -1.7040    -0.1150 H     1 <1>   0.0800 
 39 H        3.1800    -2.3770    -1.1050 H     1 <1>   0.0800 
 40 H        1.2250    -4.9080     1.6710 H     1 <1>   0.0800 
 41 H        0.7250    -3.2460     1.5640 H     1 <1>   0.0800 
 42 H        2.7820    -4.5210    -0.1440 H     1 <1>   0.4500 
 43 H        3.5030    -4.1440     2.1420 H     1 <1>   0.0800 
 44 H        3.1300    -2.4500     1.9170 H     1 <1>   0.0800 
 45 H        4.7140    -1.0100     0.8520 H     1 <1>   0.1500 
 46 H        5.1650    -5.2590     0.4910 H     1 <1>   0.1500 
 47 H        6.8750    -0.7110    -0.2630 H     1 <1>   0.1500 
 48 H        7.2970    -4.9370    -0.6090 H     1 <1>   0.1500 
 49 H       10.1650    -3.0990    -1.9410 H     1 <1>   0.0800 
 50 H        8.8020    -4.1680    -2.2510 H     1 <1>   0.0800 
 51 H        9.5610    -4.1300    -0.6480 H     1 <1>   0.0800 
@<TRIPOS>BOND
  1   1   2  1   
  2   1   3  1   
  3   2   4  ar  
  4   2   5  ar  
  5   3   6  1   
  6   3  25  1   
  7   3  26  1   
  8   4   7  1   
  9   4   8  ar  
 10   5   9  ar  
 11   5  27  1   
 12   6  28  1   
 13   6  29  1   
 14   6  30  1   
 15   7  10  1   
 16   7  11  1   
 17   8  12  ar  
 18   8  31  1   
 19   9  12  ar  
 20   9  32  1   
 21  10  13  1   
 22  10  33  1   
 23  10  34  1   
 24  11  14  1   
 25  11  35  1   
 26  11  36  1   
 27  12  37  1   
 28  13  15  1   
 29  13  38  1   
 30  13  39  1   
 31  14  15  1   
 32  14  40  1   
 33  14  41  1   
 34  15  16  1   
 35  15  42  1   
 36  16  17  1   
 37  16  43  1   
 38  16  44  1   
 39  17  18  ar  
 40  17  19  ar  
 41  18  20  ar  
 42  18  45  1   
 43  19  21  ar  
 44  19  46  1   
 45  20  22  ar  
 46  20  47  1   
 47  21  22  ar  
 48  21  48  1   
 49  22  23  1   
 50  23  24  1   
 51  24  49  1   
 52  24  50  1   
 53  24  51  1   
@<TRIPOS>SUBSTRUCTURE
  1 ****  13 GROUP 4 **** **** 0

# MOE 2024.06 (io_trps.svl 2023.06)
