@<TRIPOS>MOLECULE
NONAME
30 31 1 0 0 
SMALL
USER_CHARGES


@<TRIPOS>ATOM
  1 BR      -0.3690     0.1400     1.8330 Br    1 <1>  -0.1100 
  2 C       -1.8200     1.0010     0.8660 C.2   1 <1>   0.1240 
  3 C       -3.1000     0.3680     0.9700 C.2   1 <1>   0.5650 
  4 C       -1.5900     2.1360     0.1450 C.2   1 <1>  -0.0380 
  5 O       -3.2890    -0.6510     1.6220 O.2   1 <1>  -0.5700 
  6 N       -4.1460     1.0040     0.2610 N.pl3 1 <1>   0.5610 
  7 N       -2.6510     2.7090    -0.5240 N.pl3 1 <1>  -0.5840 
  8 C       -0.2600     2.8580    -0.0070 C.3   1 <1>  -0.1020 
  9 N       -5.4630     0.7100     0.1230 N.2   1 <1>  -0.7070 
 10 C       -3.9130     2.1380    -0.4580 C.2   1 <1>   0.2700 
 11 C       -5.8540     1.6690    -0.6370 C.2   1 <1>   0.5710 
 12 N       -4.9670     2.5840    -1.0370 N.2   1 <1>  -0.5650 
 13 S       -7.5560     1.8070    -1.1690 S.3   1 <1>  -0.2850 
 14 C       -8.3520     0.3380    -0.3670 C.3   1 <1>   0.1310 
 15 C       -9.8470     0.3530    -0.6120 C.2   1 <1>   0.6590 
 16 O      -10.3810    -0.4660    -1.3160 O.2   1 <1>  -0.5700 
 17 O      -10.5320     1.3060     0.0070 O.3   1 <1>  -0.4300 
 18 C      -11.9250     1.4340    -0.1530 C.3   1 <1>   0.1200 
 19 C      -12.3880     2.6260     0.6780 C.3   1 <1>  -0.2400 
 20 H       -2.5610     3.5650    -1.0880 H     1 <1>   0.4000 
 21 H       -0.3450     3.8640     0.3630 H     1 <1>   0.0800 
 22 H        0.0190     2.8950    -1.0450 H     1 <1>   0.0800 
 23 H        0.5300     2.3700     0.5320 H     1 <1>   0.0800 
 24 H       -8.1430     0.3920     0.6850 H     1 <1>   0.0800 
 25 H       -7.9040    -0.5400    -0.7920 H     1 <1>   0.0800 
 26 H      -12.3930     0.5230     0.1790 H     1 <1>   0.0800 
 27 H      -12.1340     1.5870    -1.1990 H     1 <1>   0.0800 
 28 H      -12.1650     2.4620     1.7170 H     1 <1>   0.0800 
 29 H      -13.4500     2.7520     0.5710 H     1 <1>   0.0800 
 30 H      -11.9000     3.5230     0.3410 H     1 <1>   0.0800 
@<TRIPOS>BOND
  1   1   2  1   
  2   2   3  1   
  3   2   4  2   
  4   3   5  2   
  5   3   6  1   
  6   4   7  1   
  7   4   8  1   
  8   6   9  1   
  9   6  10  1   
 10   7  10  1   
 11   7  20  1   
 12   8  21  1   
 13   8  22  1   
 14   8  23  1   
 15   9  11  2   
 16  10  12  2   
 17  11  12  1   
 18  11  13  1   
 19  13  14  1   
 20  14  15  1   
 21  14  24  1   
 22  14  25  1   
 23  15  16  2   
 24  15  17  1   
 25  17  18  1   
 26  18  19  1   
 27  18  26  1   
 28  18  27  1   
 29  19  28  1   
 30  19  29  1   
 31  19  30  1   
@<TRIPOS>SUBSTRUCTURE
  1 ****   9 GROUP 4 **** **** 0

# MOE 2024.06 (io_trps.svl 2023.06)
