@<TRIPOS>MOLECULE
NONAME
43 45 1 0 0 
SMALL
USER_CHARGES


@<TRIPOS>ATOM
  1 S        0.6060    -0.5700     1.2840 S.3   1 <1>  -0.0800 
  2 C        0.7930     1.0250     0.5700 C.2   1 <1>   0.1040 
  3 C       -1.1230    -0.5380     1.0370 C.2   1 <1>  -0.1400 
  4 N        2.1060     1.4660     0.5410 N.am  1 <1>  -0.4940 
  5 C       -0.4170     1.5100     0.1370 C.2   1 <1>  -0.0860 
  6 C       -1.4970     0.5930     0.4250 C.2   1 <1>  -0.1810 
  7 C       -1.9860    -1.6910     1.4970 C.3   1 <1>   0.0200 
  8 C        2.6830     2.6840     0.7760 C.2   1 <1>   0.5690 
  9 C       -0.6620     2.7380    -0.5690 C.2   1 <1>   0.7160 
 10 C       -2.9620     0.8510     0.0900 C.3   1 <1>   0.0210 
 11 C       -3.4610    -1.2500     1.4780 C.3   1 <1>  -0.1600 
 12 O        2.0660     3.6460     1.1620 O.2   1 <1>  -0.5700 
 13 C        4.1840     2.8250     0.5750 C.3   1 <1>   0.0440 
 14 O       -1.1510     2.7580    -1.6810 O.2   1 <1>  -0.5700 
 15 N       -0.3840     3.9380    -0.0290 N.am  1 <1>  -0.8000 
 16 C       -3.8000    -0.4390     0.2110 C.3   1 <1>  -0.1600 
 17 C        4.8780     1.4800     0.3530 C.ar  1 <1>  -0.1440 
 18 C        4.9710     0.8900    -0.9060 C.ar  1 <1>  -0.1440 
 19 C        5.4080     0.8250     1.4550 C.ar  1 <1>  -0.1500 
 20 C        5.5930    -0.3420    -1.0350 C.ar  1 <1>  -0.1500 
 21 C        4.4090     1.5540    -2.1580 C.3   1 <1>  -0.0970 
 22 C        6.0260    -0.4040     1.3170 C.ar  1 <1>  -0.1500 
 23 C        6.1190    -0.9890     0.0690 C.ar  1 <1>  -0.1500 
 24 H        2.8010     0.7180     0.4430 H     1 <1>   0.3700 
 25 H       -1.7060    -1.9900     2.4920 H     1 <1>   0.0800 
 26 H       -1.8380    -2.5230     0.8320 H     1 <1>   0.0800 
 27 H       -3.0560     1.2260    -0.9140 H     1 <1>   0.0800 
 28 H       -3.3420     1.5970     0.7640 H     1 <1>   0.0800 
 29 H       -3.6500    -0.6360     2.3410 H     1 <1>   0.0800 
 30 H       -4.0950    -2.1170     1.5420 H     1 <1>   0.0800 
 31 H        4.5930     3.3040     1.4450 H     1 <1>   0.0800 
 32 H        4.3590     3.4840    -0.2540 H     1 <1>   0.0800 
 33 H       -0.4780     4.7600    -0.6190 H     1 <1>   0.3700 
 34 H        0.3410     3.9960     0.6980 H     1 <1>   0.3700 
 35 H       -3.6100    -1.0540    -0.6530 H     1 <1>   0.0800 
 36 H       -4.8450    -0.1840     0.2080 H     1 <1>   0.0800 
 37 H        5.3420     1.2660     2.4360 H     1 <1>   0.1500 
 38 H        5.6760    -0.8110    -2.0000 H     1 <1>   0.1500 
 39 H        4.9560     2.4540    -2.3740 H     1 <1>   0.0800 
 40 H        3.3700     1.7970    -2.0260 H     1 <1>   0.0800 
 41 H        4.4890     0.9020    -3.0090 H     1 <1>   0.0800 
 42 H        6.4340    -0.9040     2.1780 H     1 <1>   0.1500 
 43 H        6.6000    -1.9440    -0.0440 H     1 <1>   0.1500 
@<TRIPOS>BOND
  1   1   2  1   
  2   1   3  1   
  3   2   4  1   
  4   2   5  2   
  5   3   6  2   
  6   3   7  1   
  7   4   8  am  
  8   4  24  1   
  9   5   6  1   
 10   5   9  1   
 11   6  10  1   
 12   7  11  1   
 13   7  25  1   
 14   7  26  1   
 15   8  12  2   
 16   8  13  1   
 17   9  14  2   
 18   9  15  am  
 19  10  16  1   
 20  10  27  1   
 21  10  28  1   
 22  11  16  1   
 23  11  29  1   
 24  11  30  1   
 25  13  17  1   
 26  13  31  1   
 27  13  32  1   
 28  15  33  1   
 29  15  34  1   
 30  16  35  1   
 31  16  36  1   
 32  17  18  ar  
 33  17  19  ar  
 34  18  20  ar  
 35  18  21  1   
 36  19  22  ar  
 37  19  37  1   
 38  20  23  ar  
 39  20  38  1   
 40  21  39  1   
 41  21  40  1   
 42  21  41  1   
 43  22  23  ar  
 44  22  42  1   
 45  23  43  1   
@<TRIPOS>SUBSTRUCTURE
  1 ****   2 GROUP 4 **** **** 0

# MOE 2024.06 (io_trps.svl 2023.06)
