@<TRIPOS>MOLECULE
NONAME
41 42 1 0 0 
SMALL
USER_CHARGES


@<TRIPOS>ATOM
  1 O       -6.4080     0.4560    -0.7870 O.3   1 <1>  -0.5600 
  2 C       -5.9110    -0.5660     0.0220 C.3   1 <1>   0.1200 
  3 C       -6.1500     1.7540    -0.3210 C.3   1 <1>   0.1200 
  4 C       -4.3700    -0.4920     0.1250 C.3   1 <1>   0.1100 
  5 C       -4.7850     1.8870     0.3980 C.3   1 <1>   0.1100 
  6 N       -3.8220     0.8730    -0.0790 N.3   1 <1>  -0.8100 
  7 C       -2.4620     1.0250     0.4400 C.3   1 <1>   0.1100 
  8 C       -1.7280     2.0850    -0.3910 C.3   1 <1>   0.3430 
  9 N       -0.2880     2.1790    -0.0170 N.4   1 <1>  -0.9060 
 10 C        0.4550     3.1670    -0.8240 C.3   1 <1>   0.4860 
 11 C        1.8770     3.1440    -0.3170 C.ar  1 <1>  -0.1440 
 12 C        2.7710     2.2030    -0.8060 C.ar  1 <1>  -0.1500 
 13 C        2.3000     4.0510     0.6440 C.ar  1 <1>  -0.1500 
 14 C        4.0730     2.1550    -0.3390 C.ar  1 <1>   0.0820 
 15 C        3.6020     4.0090     1.1130 C.ar  1 <1>  -0.1500 
 16 O        4.8700     1.1980    -0.8710 O.3   1 <1>  -0.3620 
 17 C        4.4890     3.0650     0.6280 C.ar  1 <1>  -0.1500 
 18 C        6.2340     1.1000    -0.5220 C.3   1 <1>   0.0400 
 19 H       -6.2130    -1.5060    -0.4030 H     1 <1>   0.0800 
 20 H       -6.3610    -0.4730     0.9950 H     1 <1>   0.0800 
 21 H       -6.9490     2.0380     0.3410 H     1 <1>   0.0800 
 22 H       -6.1760     2.4030    -1.1770 H     1 <1>   0.0800 
 23 H       -3.9480    -1.1460    -0.6190 H     1 <1>   0.0800 
 24 H       -4.0810    -0.8700     1.0910 H     1 <1>   0.0800 
 25 H       -4.9390     1.7670     1.4570 H     1 <1>   0.0800 
 26 H       -4.4060     2.8800     0.2320 H     1 <1>   0.0800 
 27 H       -1.9440     0.0860     0.3340 H     1 <1>   0.0800 
 28 H       -2.4940     1.2940     1.4820 H     1 <1>   0.0800 
 29 H       -2.2090     3.0380    -0.2440 H     1 <1>   0.0800 
 30 H       -1.8160     1.8160    -1.4310 H     1 <1>   0.0800 
 31 H        0.1790     1.2720    -0.1370 H     1 <1>   0.4500 
 32 H       -0.1720     2.4290     0.9720 H     1 <1>   0.4500 
 33 H        0.0350     4.1520    -0.7030 H     1 <1>   0.0800 
 34 H        0.4310     2.9000    -1.8690 H     1 <1>   0.0800 
 35 H        2.4850     1.4910    -1.5610 H     1 <1>   0.1500 
 36 H        1.6340     4.8010     1.0370 H     1 <1>   0.1500 
 37 H        3.9300     4.7150     1.8580 H     1 <1>   0.1500 
 38 H        5.4930     3.0540     1.0100 H     1 <1>   0.1500 
 39 H        6.6670     0.2930    -1.0850 H     1 <1>   0.0800 
 40 H        6.3140     0.8940     0.5300 H     1 <1>   0.0800 
 41 H        6.7270     2.0230    -0.7730 H     1 <1>   0.0800 
@<TRIPOS>BOND
  1   1   2  1   
  2   1   3  1   
  3   2   4  1   
  4   2  19  1   
  5   2  20  1   
  6   3   5  1   
  7   3  21  1   
  8   3  22  1   
  9   4   6  1   
 10   4  23  1   
 11   4  24  1   
 12   5   6  1   
 13   5  25  1   
 14   5  26  1   
 15   6   7  1   
 16   7   8  1   
 17   7  27  1   
 18   7  28  1   
 19   8   9  1   
 20   8  29  1   
 21   8  30  1   
 22   9  10  1   
 23   9  31  1   
 24   9  32  1   
 25  10  11  1   
 26  10  33  1   
 27  10  34  1   
 28  11  12  ar  
 29  11  13  ar  
 30  12  14  ar  
 31  12  35  1   
 32  13  15  ar  
 33  13  36  1   
 34  14  16  1   
 35  14  17  ar  
 36  15  17  ar  
 37  15  37  1   
 38  16  18  1   
 39  17  38  1   
 40  18  39  1   
 41  18  40  1   
 42  18  41  1   
@<TRIPOS>SUBSTRUCTURE
  1 ****   9 GROUP 4 **** **** 0

# MOE 2024.06 (io_trps.svl 2023.06)
