@<TRIPOS>MOLECULE
NONAME
34 34 1 0 0 
SMALL
USER_CHARGES


@<TRIPOS>ATOM
  1 P        0.4050     0.0880    -0.3420 P.3   1 <1>   1.2420 
  2 O        0.1430    -0.8520    -1.4310 O.2   1 <1>  -0.7000 
  3 O        0.6190    -0.6270     1.0810 O.3   1 <1>  -0.5510 
  4 O       -0.8480     1.0500    -0.0640 O.3   1 <1>  -0.5510 
  5 C        1.7650     1.2170    -0.5700 C.3   1 <1>  -0.0160 
  6 C        1.5280    -1.6620     1.2130 C.3   1 <1>   0.1200 
  7 C       -2.0700     0.4910     0.2550 C.3   1 <1>   0.1200 
  8 C        3.1260     0.5600    -0.7620 C.ar  1 <1>  -0.1440 
  9 C        1.4490    -2.1670     2.6490 C.3   1 <1>  -0.2400 
 10 C       -3.0670     1.6280     0.4470 C.3   1 <1>  -0.2400 
 11 C        4.1160     0.7080     0.1960 C.ar  1 <1>  -0.1500 
 12 C        3.3790    -0.2070    -1.8880 C.ar  1 <1>  -0.1500 
 13 C        5.3660     0.1000     0.0700 C.ar  1 <1>  -0.1790 
 14 C        4.6110    -0.8150    -2.0440 C.ar  1 <1>  -0.1500 
 15 C        6.3920     0.2510     1.0960 C.2   1 <1>   0.9790 
 16 C        5.5870    -0.6620    -1.0780 C.ar  1 <1>  -0.1500 
 17 O        6.1540     0.8910     2.1370 O.co2 1 <1>  -0.9000 
 18 O        7.5150    -0.2650     0.9560 O.co2 1 <1>  -0.9000 
 19 H        1.8220     1.8820     0.2690 H     1 <1>   0.0800 
 20 H        1.5820     1.8310    -1.4300 H     1 <1>   0.0800 
 21 H        2.5180    -1.2990     0.9990 H     1 <1>   0.0800 
 22 H        1.2690    -2.4420     0.5160 H     1 <1>   0.0800 
 23 H       -1.9630    -0.0840     1.1600 H     1 <1>   0.0800 
 24 H       -2.3740    -0.1550    -0.5530 H     1 <1>   0.0800 
 25 H        1.7090    -1.3770     3.3300 H     1 <1>   0.0800 
 26 H        2.1440    -2.9750     2.7850 H     1 <1>   0.0800 
 27 H        0.4580    -2.5220     2.8650 H     1 <1>   0.0800 
 28 H       -2.7440     2.2700     1.2470 H     1 <1>   0.0800 
 29 H       -4.0320     1.2260     0.6970 H     1 <1>   0.0800 
 30 H       -3.1570     2.1980    -0.4600 H     1 <1>   0.0800 
 31 H        3.9380     1.3000     1.0800 H     1 <1>   0.1500 
 32 H        2.6230    -0.3390    -2.6430 H     1 <1>   0.1500 
 33 H        4.8120    -1.4100    -2.9170 H     1 <1>   0.1500 
 34 H        6.5470    -1.1370    -1.1990 H     1 <1>   0.1500 
@<TRIPOS>BOND
  1   1   2  2   
  2   1   3  1   
  3   1   4  1   
  4   1   5  1   
  5   3   6  1   
  6   4   7  1   
  7   5   8  1   
  8   5  19  1   
  9   5  20  1   
 10   6   9  1   
 11   6  21  1   
 12   6  22  1   
 13   7  10  1   
 14   7  23  1   
 15   7  24  1   
 16   8  11  ar  
 17   8  12  ar  
 18   9  25  1   
 19   9  26  1   
 20   9  27  1   
 21  10  28  1   
 22  10  29  1   
 23  10  30  1   
 24  11  13  ar  
 25  11  31  1   
 26  12  14  ar  
 27  12  32  1   
 28  13  15  1   
 29  13  16  ar  
 30  14  16  ar  
 31  14  33  1   
 32  15  17  ar  
 33  15  18  ar  
 34  16  34  1   
@<TRIPOS>SUBSTRUCTURE
  1 ****   8 GROUP 4 **** **** 0

# MOE 2024.06 (io_trps.svl 2023.06)
