@<TRIPOS>MOLECULE
NONAME
48 50 1 0 0 
SMALL
USER_CHARGES


@<TRIPOS>ATOM
  1 N      -11.0570    -0.4170     1.1610 N.ar  1 <1>  -0.6200 
  2 C      -10.4890    -0.6690    -0.0130 C.ar  1 <1>   0.1660 
  3 C      -12.1390     0.3450     1.1210 C.ar  1 <1>   0.1600 
  4 C      -10.9590    -0.1780    -1.2220 C.ar  1 <1>  -0.1500 
  5 C       -9.2430    -1.5550    -0.0010 C.3   1 <1>   0.2540 
  6 C      -12.6840     0.8790    -0.0340 C.ar  1 <1>  -0.1500 
  7 C      -12.0840     0.6170    -1.2460 C.ar  1 <1>  -0.1500 
  8 N       -7.9770    -0.7730    -0.0080 N.3   1 <1>  -0.8100 
  9 C       -7.9230     0.1590     1.1520 C.3   1 <1>   0.1100 
 10 C       -6.7960    -1.6640    -0.0100 C.3   1 <1>   0.1100 
 11 C       -6.5560     0.8680     1.2980 C.3   1 <1>   0.3430 
 12 C       -5.4660    -0.8700    -0.0620 C.3   1 <1>   0.3430 
 13 N       -5.6910     0.6060     0.0990 N.4   1 <1>  -0.9590 
 14 C       -4.4320     1.3940     0.0450 C.3   1 <1>   0.3430 
 15 C       -4.7370     2.8810    -0.1280 C.3   1 <1>  -0.1600 
 16 C       -3.4500     3.6900    -0.3280 C.3   1 <1>  -0.0170 
 17 C       -3.7900     5.1630    -0.4630 C.ar  1 <1>  -0.1430 
 18 C       -4.0820     5.7030    -1.7060 C.ar  1 <1>  -0.1500 
 19 C       -3.8170     5.9810     0.6570 C.ar  1 <1>  -0.1500 
 20 C       -4.4000     7.0450    -1.8280 C.ar  1 <1>  -0.1500 
 21 C       -4.1360     7.3220     0.5350 C.ar  1 <1>  -0.1500 
 22 C       -4.4280     7.8550    -0.7070 C.ar  1 <1>  -0.1500 
 23 H      -12.6200     0.5550     2.0610 H     1 <1>   0.1500 
 24 H      -10.4480    -0.4150    -2.1380 H     1 <1>   0.1500 
 25 H       -9.2700    -2.1900    -0.8690 H     1 <1>   0.0800 
 26 H       -9.2800    -2.1870     0.8690 H     1 <1>   0.0800 
 27 H      -13.5670     1.4900     0.0190 H     1 <1>   0.1500 
 28 H      -12.4770     1.0140    -2.1670 H     1 <1>   0.1500 
 29 H       -8.1470    -0.3690     2.0640 H     1 <1>   0.0800 
 30 H       -8.6800     0.9160     1.0330 H     1 <1>   0.0800 
 31 H       -6.8410    -2.3220    -0.8620 H     1 <1>   0.0800 
 32 H       -6.8040    -2.2790     0.8750 H     1 <1>   0.0800 
 33 H       -6.0660     0.5130     2.1890 H     1 <1>   0.0800 
 34 H       -6.7290     1.9250     1.4170 H     1 <1>   0.0800 
 35 H       -4.9890    -1.0600    -1.0090 H     1 <1>   0.0800 
 36 H       -4.8110    -1.2320     0.7130 H     1 <1>   0.0800 
 37 H       -6.3010     0.8530    -0.6980 H     1 <1>   0.4500 
 38 H       -3.8400     1.0620    -0.7940 H     1 <1>   0.0800 
 39 H       -3.8590     1.2380     0.9450 H     1 <1>   0.0800 
 40 H       -5.2410     3.2630     0.7410 H     1 <1>   0.0800 
 41 H       -5.3700     3.0270    -0.9860 H     1 <1>   0.0800 
 42 H       -2.9330     3.3620    -1.2140 H     1 <1>   0.0800 
 43 H       -2.7860     3.5540     0.5090 H     1 <1>   0.0800 
 44 H       -4.0620     5.0880    -2.5880 H     1 <1>   0.1500 
 45 H       -3.5900     5.5830     1.6300 H     1 <1>   0.1500 
 46 H       -4.6250     7.4600    -2.7950 H     1 <1>   0.1500 
 47 H       -4.1540     7.9540     1.4070 H     1 <1>   0.1500 
 48 H       -4.6760     8.8980    -0.8020 H     1 <1>   0.1500 
@<TRIPOS>BOND
  1   1   2  ar  
  2   1   3  ar  
  3   2   4  ar  
  4   2   5  1   
  5   3   6  ar  
  6   3  23  1   
  7   4   7  ar  
  8   4  24  1   
  9   5   8  1   
 10   5  25  1   
 11   5  26  1   
 12   6   7  ar  
 13   6  27  1   
 14   7  28  1   
 15   8   9  1   
 16   8  10  1   
 17   9  11  1   
 18   9  29  1   
 19   9  30  1   
 20  10  12  1   
 21  10  31  1   
 22  10  32  1   
 23  11  13  1   
 24  11  33  1   
 25  11  34  1   
 26  12  13  1   
 27  12  35  1   
 28  12  36  1   
 29  13  14  1   
 30  13  37  1   
 31  14  15  1   
 32  14  38  1   
 33  14  39  1   
 34  15  16  1   
 35  15  40  1   
 36  15  41  1   
 37  16  17  1   
 38  16  42  1   
 39  16  43  1   
 40  17  18  ar  
 41  17  19  ar  
 42  18  20  ar  
 43  18  44  1   
 44  19  21  ar  
 45  19  45  1   
 46  20  22  ar  
 47  20  46  1   
 48  21  22  ar  
 49  21  47  1   
 50  22  48  1   
@<TRIPOS>SUBSTRUCTURE
  1 ****  11 GROUP 4 **** **** 0

# MOE 2024.06 (io_trps.svl 2023.06)
