@<TRIPOS>MOLECULE
NONAME
34 35 1 0 0 
SMALL
USER_CHARGES


@<TRIPOS>ATOM
  1 F       -1.8480     1.0380     1.8050 F     1 <1>  -0.3400 
  2 C       -1.1980     1.2020     0.6560 C.3   1 <1>   1.0200 
  3 F       -0.3880     0.1560     0.5390 F     1 <1>  -0.3400 
  4 F       -0.3860     2.2410     0.8530 F     1 <1>  -0.3400 
  5 C       -2.1610     1.4700    -0.5770 C.3   1 <1>   0.5800 
  6 O       -1.4970     1.5810    -1.8150 O.3   1 <1>  -0.6800 
  7 N       -3.2590     0.4830    -0.7510 N.am  1 <1>  -0.2980 
  8 C       -2.9470     2.7820    -0.3910 C.3   1 <1>  -0.0990 
  9 N       -4.4980     1.0820    -0.6360 N.2   1 <1>  -0.5120 
 10 C       -3.0420    -0.8650    -1.0160 C.2   1 <1>   0.7800 
 11 C       -4.3880     2.3340    -0.4540 C.2   1 <1>   0.3030 
 12 O       -3.9310    -1.6950    -0.9940 O.2   1 <1>  -0.5700 
 13 O       -1.7960    -1.2580    -1.2980 O.3   1 <1>  -0.4300 
 14 C       -5.4780     3.2760    -0.3060 C.ar  1 <1>   0.0860 
 15 C       -1.4560    -2.6040    -1.5510 C.3   1 <1>   0.1200 
 16 C       -5.2780     4.6490    -0.1200 C.ar  1 <1>  -0.1500 
 17 C       -6.8030     2.8330    -0.3440 C.ar  1 <1>  -0.1500 
 18 C       -1.1900    -3.3040    -0.2190 C.3   1 <1>  -0.2400 
 19 C       -6.3390     5.5240     0.0210 C.ar  1 <1>  -0.1500 
 20 C       -7.8680     3.7030    -0.2030 C.ar  1 <1>  -0.1500 
 21 C       -7.6380     5.0530    -0.0200 C.ar  1 <1>  -0.1500 
 22 H       -0.6810     2.1080    -1.7230 H     1 <1>   0.4000 
 23 H       -2.7380     3.4920    -1.1700 H     1 <1>   0.0800 
 24 H       -2.7610     3.2300     0.5680 H     1 <1>   0.0800 
 25 H       -0.5680    -2.6050    -2.1580 H     1 <1>   0.0800 
 26 H       -2.2540    -3.0800    -2.0980 H     1 <1>   0.0800 
 27 H       -4.2840     5.0540    -0.0840 H     1 <1>   0.1500 
 28 H       -7.0000     1.7830    -0.4860 H     1 <1>   0.1500 
 29 H       -0.4010    -2.8030     0.3130 H     1 <1>   0.0800 
 30 H       -0.8910    -4.3210    -0.3990 H     1 <1>   0.0800 
 31 H       -2.0820    -3.3150     0.3810 H     1 <1>   0.0800 
 32 H       -6.1580     6.5760     0.1630 H     1 <1>   0.1500 
 33 H       -8.8770     3.3270    -0.2370 H     1 <1>   0.1500 
 34 H       -8.4660     5.7330     0.0890 H     1 <1>   0.1500 
@<TRIPOS>BOND
  1   1   2  1   
  2   2   3  1   
  3   2   4  1   
  4   2   5  1   
  5   5   6  1   
  6   5   7  1   
  7   5   8  1   
  8   6  22  1   
  9   7   9  1   
 10   7  10  am  
 11   8  11  1   
 12   8  23  1   
 13   8  24  1   
 14   9  11  2   
 15  10  12  2   
 16  10  13  1   
 17  11  14  1   
 18  13  15  1   
 19  14  16  ar  
 20  14  17  ar  
 21  15  18  1   
 22  15  25  1   
 23  15  26  1   
 24  16  19  ar  
 25  16  27  1   
 26  17  20  ar  
 27  17  28  1   
 28  18  29  1   
 29  18  30  1   
 30  18  31  1   
 31  19  21  ar  
 32  19  32  1   
 33  20  21  ar  
 34  20  33  1   
 35  21  34  1   
@<TRIPOS>SUBSTRUCTURE
  1 ****   7 GROUP 4 **** **** 0

# MOE 2024.06 (io_trps.svl 2023.06)
