@<TRIPOS>MOLECULE
NONAME
55 57 1 0 0 
SMALL
USER_CHARGES


@<TRIPOS>ATOM
  1 S       -0.1370    -0.1700    -0.9660 S.o2  1 <1>   1.5760 
  2 O        0.3690     1.0130    -0.3060 O.2   1 <1>  -0.6500 
  3 O       -0.2340    -0.2190    -2.4080 O.2   1 <1>  -0.6500 
  4 N       -1.6600    -0.5340    -0.3360 N.am  1 <1>  -0.8490 
  5 N        0.7510    -1.4960    -0.4210 N.am  1 <1>  -0.8490 
  6 C       -2.5610     0.6220    -0.5070 C.3   1 <1>   0.1960 
  7 C       -2.2380    -1.7090    -0.9990 C.3   1 <1>   0.1960 
  8 C        2.0530    -1.5560    -1.0870 C.3   1 <1>   0.1960 
  9 C        0.9060    -1.4740     1.0360 C.3   1 <1>   0.1960 
 10 C       -3.8610     0.5830     0.3230 C.3   1 <1>   0.1960 
 11 C       -3.0730    -2.5380    -0.0240 C.3   1 <1>  -0.1600 
 12 C        2.7950    -2.8360    -0.6880 C.3   1 <1>  -0.1600 
 13 C        1.5980    -2.7560     1.5130 C.3   1 <1>  -0.1600 
 14 N       -4.6560    -0.6550     0.2040 N.am  1 <1>  -0.8490 
 15 C       -3.9790    -1.7440     0.9150 C.3   1 <1>   0.1960 
 16 C        2.9590    -2.9400     0.8330 C.3   1 <1>  -0.1600 
 17 S       -6.2070    -0.3980     0.8210 S.o2  1 <1>   1.5760 
 18 O       -6.1080    -0.3770     2.2640 O.2   1 <1>  -0.6500 
 19 O       -6.8140     0.7060     0.1120 O.2   1 <1>  -0.6500 
 20 N       -6.9740    -1.8200     0.3350 N.am  1 <1>  -0.8490 
 21 C       -8.2670    -1.9640     1.0050 C.3   1 <1>   0.1960 
 22 C       -7.1280    -1.8740    -1.1220 C.3   1 <1>   0.1960 
 23 C       -8.8930    -3.3210     0.6630 C.3   1 <1>  -0.1600 
 24 C       -7.7030    -3.2300    -1.5420 C.3   1 <1>  -0.1600 
 25 C       -9.0440    -3.5040    -0.8520 C.3   1 <1>  -0.1600 
 26 H       -2.8120     0.7390    -1.5480 H     1 <1>   0.0800 
 27 H       -2.0420     1.5190    -0.2130 H     1 <1>   0.0800 
 28 H       -1.4620    -2.3490    -1.3870 H     1 <1>   0.0800 
 29 H       -2.8440    -1.4090    -1.8380 H     1 <1>   0.0800 
 30 H        2.6400    -0.6900    -0.8240 H     1 <1>   0.0800 
 31 H        1.9140    -1.5550    -2.1560 H     1 <1>   0.0800 
 32 H       -0.0610    -1.4050     1.5050 H     1 <1>   0.0800 
 33 H        1.4840    -0.6140     1.3340 H     1 <1>   0.0800 
 34 H       -4.4560     1.4170    -0.0080 H     1 <1>   0.0800 
 35 H       -3.6220     0.7660     1.3580 H     1 <1>   0.0800 
 36 H       -2.4090    -3.1360     0.5720 H     1 <1>   0.0800 
 37 H       -3.6810    -3.2170    -0.5930 H     1 <1>   0.0800 
 38 H        3.7610    -2.8500    -1.1590 H     1 <1>   0.0800 
 39 H        2.2400    -3.6830    -1.0530 H     1 <1>   0.0800 
 40 H        0.9610    -3.5940     1.2900 H     1 <1>   0.0800 
 41 H        1.7280    -2.7150     2.5800 H     1 <1>   0.0800 
 42 H       -3.4030    -1.3570     1.7400 H     1 <1>   0.0800 
 43 H       -4.6960    -2.4330     1.3310 H     1 <1>   0.0800 
 44 H        3.6340    -2.1730     1.1720 H     1 <1>   0.0800 
 45 H        3.3770    -3.8960     1.0950 H     1 <1>   0.0800 
 46 H       -8.9270    -1.1660     0.7060 H     1 <1>   0.0800 
 47 H       -8.1300    -1.9060     2.0730 H     1 <1>   0.0800 
 48 H       -6.1690    -1.7400    -1.5950 H     1 <1>   0.0800 
 49 H       -7.7780    -1.0810    -1.4550 H     1 <1>   0.0800 
 50 H       -9.8560    -3.3990     1.1360 H     1 <1>   0.0800 
 51 H       -8.2660    -4.0990     1.0630 H     1 <1>   0.0800 
 52 H       -6.9960    -3.9990    -1.2840 H     1 <1>   0.0800 
 53 H       -7.8350    -3.2470    -2.6090 H     1 <1>   0.0800 
 54 H       -9.7840    -2.8140    -1.2220 H     1 <1>   0.0800 
 55 H       -9.3760    -4.5030    -1.0720 H     1 <1>   0.0800 
@<TRIPOS>BOND
  1   1   2  2   
  2   1   3  2   
  3   1   4  am  
  4   1   5  am  
  5   4   6  1   
  6   4   7  1   
  7   5   8  1   
  8   5   9  1   
  9   6  10  1   
 10   6  26  1   
 11   6  27  1   
 12   7  11  1   
 13   7  28  1   
 14   7  29  1   
 15   8  12  1   
 16   8  30  1   
 17   8  31  1   
 18   9  13  1   
 19   9  32  1   
 20   9  33  1   
 21  10  14  1   
 22  10  34  1   
 23  10  35  1   
 24  11  15  1   
 25  11  36  1   
 26  11  37  1   
 27  12  16  1   
 28  12  38  1   
 29  12  39  1   
 30  13  16  1   
 31  13  40  1   
 32  13  41  1   
 33  14  15  1   
 34  14  17  am  
 35  15  42  1   
 36  15  43  1   
 37  16  44  1   
 38  16  45  1   
 39  17  18  2   
 40  17  19  2   
 41  17  20  am  
 42  20  21  1   
 43  20  22  1   
 44  21  23  1   
 45  21  46  1   
 46  21  47  1   
 47  22  24  1   
 48  22  48  1   
 49  22  49  1   
 50  23  25  1   
 51  23  50  1   
 52  23  51  1   
 53  24  25  1   
 54  24  52  1   
 55  24  53  1   
 56  25  54  1   
 57  25  55  1   
@<TRIPOS>SUBSTRUCTURE
  1 ****  11 GROUP 4 **** **** 0

# MOE 2024.06 (io_trps.svl 2023.06)
