@<TRIPOS>MOLECULE
NONAME
49 51 1 0 0 
SMALL
USER_CHARGES


@<TRIPOS>ATOM
  1 O       -0.2130     0.3890     2.0020 O.2   1 <1>  -0.5700 
  2 C       -0.0910     1.5230     1.5730 C.2   1 <1>   0.5440 
  3 N       -1.2190     2.2060     1.1950 N.am  1 <1>  -0.5470 
  4 C        1.2340     2.1230     1.4810 C.ar  1 <1>   0.0860 
  5 C       -2.5950     1.9180     1.2200 C.ar  1 <1>   0.1170 
  6 C        1.5500     3.2720     0.7260 C.ar  1 <1>   0.0830 
  7 C        2.2860     1.5310     2.1920 C.ar  1 <1>  -0.1500 
  8 C       -3.4280     2.6600     0.3660 C.ar  1 <1>   0.1000 
  9 C       -3.1570     0.9650     2.0600 C.ar  1 <1>  -0.1500 
 10 O        0.5710     3.8820     0.0080 O.3   1 <1>  -0.3630 
 11 C        2.8500     3.7710     0.7120 C.ar  1 <1>  -0.1500 
 12 C        3.5720     2.0290     2.1750 C.ar  1 <1>  -0.1500 
 13 N       -2.8850     3.6260    -0.5010 N.pl3 1 <1>  -0.8380 
 14 C       -4.7950     2.4140     0.3760 C.ar  1 <1>  -0.1500 
 15 C       -4.5220     0.7350     2.0590 C.ar  1 <1>  -0.1500 
 16 C        0.7560     5.1150    -0.6550 C.3   1 <1>   0.0400 
 17 C        3.8620     3.1640     1.4280 C.ar  1 <1>   0.0830 
 18 C       -2.3590     3.1500    -1.8090 C.3   1 <1>   0.2090 
 19 C       -3.3370     5.0400    -0.4120 C.3   1 <1>   0.2090 
 20 C       -5.3420     1.4610     1.2160 C.ar  1 <1>  -0.1500 
 21 O        5.0910     3.7220     1.3530 O.3   1 <1>  -0.3630 
 22 C       -3.3210     3.5170    -2.9420 C.3   1 <1>  -0.1600 
 23 C       -4.2500     5.4150    -1.5860 C.3   1 <1>  -0.1600 
 24 C        6.1980     3.1780     2.0370 C.3   1 <1>   0.0400 
 25 C       -3.6530     5.0140    -2.9410 C.3   1 <1>  -0.1600 
 26 H       -1.0400     3.0560     0.6470 H     1 <1>   0.3700 
 27 H        2.0850     0.6500     2.7790 H     1 <1>   0.1500 
 28 H       -2.5290     0.4000     2.7220 H     1 <1>   0.1500 
 29 H        3.1170     4.6410     0.1450 H     1 <1>   0.1500 
 30 H        4.3310     1.5260     2.7450 H     1 <1>   0.1500 
 31 H       -5.4310     2.9700    -0.2840 H     1 <1>   0.1500 
 32 H       -4.9390    -0.0090     2.7150 H     1 <1>   0.1500 
 33 H       -0.1850     5.4130    -1.0790 H     1 <1>   0.0800 
 34 H        1.4830     4.9850    -1.4380 H     1 <1>   0.0800 
 35 H        1.0840     5.8500     0.0580 H     1 <1>   0.0800 
 36 H       -2.2250     2.0810    -1.7770 H     1 <1>   0.0800 
 37 H       -1.3990     3.6000    -1.9850 H     1 <1>   0.0800 
 38 H       -2.4690     5.6760    -0.4140 H     1 <1>   0.0800 
 39 H       -3.8570     5.1930     0.5190 H     1 <1>   0.0800 
 40 H       -6.4030     1.2830     1.2110 H     1 <1>   0.1500 
 41 H       -4.2230     2.9420    -2.8250 H     1 <1>   0.0800 
 42 H       -2.8780     3.2430    -3.8820 H     1 <1>   0.0800 
 43 H       -4.4260     6.4760    -1.5680 H     1 <1>   0.0800 
 44 H       -5.2000     4.9310    -1.4560 H     1 <1>   0.0800 
 45 H        7.0560     3.7880     1.8220 H     1 <1>   0.0800 
 46 H        6.3660     2.1750     1.6870 H     1 <1>   0.0800 
 47 H        5.9960     3.1900     3.0930 H     1 <1>   0.0800 
 48 H       -4.3550     5.2320    -3.7270 H     1 <1>   0.0800 
 49 H       -2.7570     5.5820    -3.1230 H     1 <1>   0.0800 
@<TRIPOS>BOND
  1   1   2  2   
  2   2   3  am  
  3   2   4  1   
  4   3   5  1   
  5   3  26  1   
  6   4   6  ar  
  7   4   7  ar  
  8   5   8  ar  
  9   5   9  ar  
 10   6  10  1   
 11   6  11  ar  
 12   7  12  ar  
 13   7  27  1   
 14   8  13  1   
 15   8  14  ar  
 16   9  15  ar  
 17   9  28  1   
 18  10  16  1   
 19  11  17  ar  
 20  11  29  1   
 21  12  17  ar  
 22  12  30  1   
 23  13  18  1   
 24  13  19  1   
 25  14  20  ar  
 26  14  31  1   
 27  15  20  ar  
 28  15  32  1   
 29  16  33  1   
 30  16  34  1   
 31  16  35  1   
 32  17  21  1   
 33  18  22  1   
 34  18  36  1   
 35  18  37  1   
 36  19  23  1   
 37  19  38  1   
 38  19  39  1   
 39  20  40  1   
 40  21  24  1   
 41  22  25  1   
 42  22  41  1   
 43  22  42  1   
 44  23  25  1   
 45  23  43  1   
 46  23  44  1   
 47  24  45  1   
 48  24  46  1   
 49  24  47  1   
 50  25  48  1   
 51  25  49  1   
@<TRIPOS>SUBSTRUCTURE
  1 ****   3 GROUP 4 **** **** 0

# MOE 2024.06 (io_trps.svl 2023.06)
