@<TRIPOS>MOLECULE
NONAME
40 42 1 0 0 
SMALL
USER_CHARGES


@<TRIPOS>ATOM
  1 O       -7.9310    -0.6380     0.6710 O.3   1 <1>  -0.3630 
  2 C       -6.8300     0.1390     0.4580 C.ar  1 <1>   0.0830 
  3 C       -7.8870    -2.0450     0.5830 C.3   1 <1>   0.0400 
  4 C       -6.9850     1.5230     0.5200 C.ar  1 <1>   0.0830 
  5 C       -5.5780    -0.3940     0.1870 C.ar  1 <1>  -0.1500 
  6 O       -8.2230     2.0180     0.7980 O.3   1 <1>  -0.3630 
  7 C       -5.8820     2.3400     0.3000 C.ar  1 <1>  -0.1500 
  8 C       -4.4620     0.4170    -0.0310 C.ar  1 <1>   0.0860 
  9 C       -8.4890     3.4010     0.8670 C.3   1 <1>   0.0400 
 10 C       -4.6310     1.8060     0.0120 C.ar  1 <1>  -0.1440 
 11 C       -3.1410    -0.1320    -0.2990 C.2   1 <1>   0.3030 
 12 C       -3.3800     2.6760    -0.2270 C.3   1 <1>   0.1440 
 13 N       -2.1870     0.5180    -0.8140 N.2   1 <1>  -0.6960 
 14 C       -2.8640    -1.5820     0.0550 C.3   1 <1>  -0.1790 
 15 C       -2.3850     1.9290    -1.1580 C.3   1 <1>   0.0860 
 16 C       -3.6220     4.0780    -0.8190 C.3   1 <1>  -0.1600 
 17 C       -2.7020     3.0080     1.1100 C.3   1 <1>  -0.1600 
 18 C       -2.3950     4.9030    -0.4250 C.3   1 <1>  -0.1600 
 19 C       -1.8830     4.2850     0.8800 C.3   1 <1>  -0.1600 
 20 H       -8.8770    -2.4190     0.7700 H     1 <1>   0.0800 
 21 H       -7.2080    -2.4200     1.3280 H     1 <1>   0.0800 
 22 H       -7.5730    -2.3230    -0.4070 H     1 <1>   0.0800 
 23 H       -5.4580    -1.4560     0.1370 H     1 <1>   0.1500 
 24 H       -6.0060     3.3990     0.3670 H     1 <1>   0.1500 
 25 H       -9.5340     3.5270     1.0870 H     1 <1>   0.0800 
 26 H       -8.2600     3.8480    -0.0840 H     1 <1>   0.0800 
 27 H       -7.8950     3.8320     1.6530 H     1 <1>   0.0800 
 28 H       -3.3850    -2.2320    -0.6220 H     1 <1>   0.0800 
 29 H       -3.1730    -1.7810     1.0650 H     1 <1>   0.0800 
 30 H       -1.8110    -1.7860    -0.0230 H     1 <1>   0.0800 
 31 H       -1.4270     2.4140    -1.1220 H     1 <1>   0.0800 
 32 H       -2.7320     1.9740    -2.1760 H     1 <1>   0.0800 
 33 H       -4.4700     4.5540    -0.3700 H     1 <1>   0.0800 
 34 H       -3.7710     4.0540    -1.8840 H     1 <1>   0.0800 
 35 H       -2.0890     2.1960     1.4610 H     1 <1>   0.0800 
 36 H       -3.4580     3.2080     1.8490 H     1 <1>   0.0800 
 37 H       -2.6450     5.9430    -0.3010 H     1 <1>   0.0800 
 38 H       -1.6380     4.8190    -1.1860 H     1 <1>   0.0800 
 39 H       -0.8370     4.0450     0.7870 H     1 <1>   0.0800 
 40 H       -2.0090     4.9640     1.7070 H     1 <1>   0.0800 
@<TRIPOS>BOND
  1   1   2  1   
  2   1   3  1   
  3   2   4  ar  
  4   2   5  ar  
  5   3  20  1   
  6   3  21  1   
  7   3  22  1   
  8   4   6  1   
  9   4   7  ar  
 10   5   8  ar  
 11   5  23  1   
 12   6   9  1   
 13   7  10  ar  
 14   7  24  1   
 15   8  10  ar  
 16   8  11  1   
 17   9  25  1   
 18   9  26  1   
 19   9  27  1   
 20  10  12  1   
 21  11  13  2   
 22  11  14  1   
 23  12  15  1   
 24  12  16  1   
 25  12  17  1   
 26  13  15  1   
 27  14  28  1   
 28  14  29  1   
 29  14  30  1   
 30  15  31  1   
 31  15  32  1   
 32  16  18  1   
 33  16  33  1   
 34  16  34  1   
 35  17  19  1   
 36  17  35  1   
 37  17  36  1   
 38  18  19  1   
 39  18  37  1   
 40  18  38  1   
 41  19  39  1   
 42  19  40  1   
@<TRIPOS>SUBSTRUCTURE
  1 ****  10 GROUP 4 **** **** 0

# MOE 2024.06 (io_trps.svl 2023.06)
