@<TRIPOS>MOLECULE
NONAME
32 33 1 0 0 
SMALL
USER_CHARGES


@<TRIPOS>ATOM
  1 BR      -0.1850     0.0310     1.6880 Br    1 <1>  -0.1110 
  2 C       -1.6610    -0.8740     0.8470 C.ar  1 <1>   0.1110 
  3 C       -2.9190    -0.3130     0.9320 C.ar  1 <1>  -0.1500 
  4 C       -1.4180    -2.0610     0.1830 C.ar  1 <1>  -0.1500 
  5 C       -3.9940    -0.9540     0.3290 C.ar  1 <1>   0.1170 
  6 C       -2.4870    -2.7050    -0.4170 C.ar  1 <1>  -0.1500 
  7 N       -5.2670    -0.3730     0.4360 N.am  1 <1>  -0.5470 
  8 C       -3.7580    -2.1550    -0.3410 C.ar  1 <1>  -0.1500 
  9 C       -6.3940    -0.5260    -0.3280 C.2   1 <1>   0.5690 
 10 O       -6.4410    -1.2280    -1.3090 O.2   1 <1>  -0.5700 
 11 C       -7.6420     0.2520     0.0910 C.3   1 <1>  -0.0190 
 12 C       -8.8240    -0.6940     0.3830 C.3   1 <1>  -0.1600 
 13 C       -8.0360     1.2950    -0.9730 C.3   1 <1>  -0.1600 
 14 C      -10.0810     0.0850     0.7960 C.3   1 <1>  -0.1600 
 15 C       -9.2930     2.0750    -0.5610 C.3   1 <1>  -0.1600 
 16 C      -10.4610     1.1250    -0.2660 C.3   1 <1>  -0.1600 
 17 H       -3.0520     0.6130     1.4580 H     1 <1>   0.1500 
 18 H       -0.4240    -2.4680     0.1370 H     1 <1>   0.1500 
 19 H       -2.3340    -3.6310    -0.9420 H     1 <1>   0.1500 
 20 H       -5.3560     0.3070     1.1870 H     1 <1>   0.3700 
 21 H       -4.5730    -2.6760    -0.8090 H     1 <1>   0.1500 
 22 H       -7.4200     0.7810     1.0000 H     1 <1>   0.0800 
 23 H       -8.5530    -1.3820     1.1660 H     1 <1>   0.0800 
 24 H       -9.0410    -1.2730    -0.4990 H     1 <1>   0.0800 
 25 H       -8.2210     0.7930    -1.9080 H     1 <1>   0.0800 
 26 H       -7.2210     1.9810    -1.1270 H     1 <1>   0.0800 
 27 H       -9.9050     0.5810     1.7350 H     1 <1>   0.0800 
 28 H      -10.8990    -0.6010     0.9350 H     1 <1>   0.0800 
 29 H       -9.5710     2.7510    -1.3520 H     1 <1>   0.0800 
 30 H       -9.0800     2.6630     0.3150 H     1 <1>   0.0800 
 31 H      -11.3110     1.6930     0.0730 H     1 <1>   0.0800 
 32 H      -10.7440     0.6190    -1.1730 H     1 <1>   0.0800 
@<TRIPOS>BOND
  1   1   2  1   
  2   2   3  ar  
  3   2   4  ar  
  4   3   5  ar  
  5   3  17  1   
  6   4   6  ar  
  7   4  18  1   
  8   5   7  1   
  9   5   8  ar  
 10   6   8  ar  
 11   6  19  1   
 12   7   9  am  
 13   7  20  1   
 14   8  21  1   
 15   9  10  2   
 16   9  11  1   
 17  11  12  1   
 18  11  13  1   
 19  11  22  1   
 20  12  14  1   
 21  12  23  1   
 22  12  24  1   
 23  13  15  1   
 24  13  25  1   
 25  13  26  1   
 26  14  16  1   
 27  14  27  1   
 28  14  28  1   
 29  15  16  1   
 30  15  29  1   
 31  15  30  1   
 32  16  31  1   
 33  16  32  1   
@<TRIPOS>SUBSTRUCTURE
  1 ****   7 GROUP 4 **** **** 0

# MOE 2024.06 (io_trps.svl 2023.06)
