@<TRIPOS>MOLECULE
NONAME
47 50 1 0 0 
SMALL
USER_CHARGES


@<TRIPOS>ATOM
  1 S       -0.1200     0.3830    -0.9410 S.o2  1 <1>   1.4470 
  2 O        0.2370     0.5660    -2.3320 O.2   1 <1>  -0.6500 
  3 O       -0.3620     1.5430    -0.1110 O.2   1 <1>  -0.6500 
  4 N        1.1620    -0.4700    -0.2300 N.am  1 <1>  -0.8490 
  5 C       -1.5100    -0.7730    -0.7900 C.ar  1 <1>  -0.0090 
  6 C        1.6410    -1.5720    -1.0610 C.3   1 <1>   0.1960 
  7 C        2.2490     0.4330     0.1710 C.3   1 <1>   0.1960 
  8 C       -1.7900    -1.4100     0.3930 C.ar  1 <1>  -0.1500 
  9 C       -2.3380    -1.0420    -1.8940 C.ar  1 <1>  -0.1500 
 10 C        2.5310    -2.5060    -0.2260 C.3   1 <1>  -0.1600 
 11 C        3.5330    -0.3230     0.5560 C.3   1 <1>  -0.1600 
 12 C       -2.8570    -2.3190     0.5310 C.ar  1 <1>   0.0000 
 13 C       -3.3840    -1.9170    -1.7970 C.ar  1 <1>  -0.1500 
 14 C        3.2460    -1.7860     0.9390 C.3   1 <1>  -0.0190 
 15 C       -3.6720    -2.5800    -0.5890 C.ar  1 <1>   0.0000 
 16 C       -3.1390    -2.9790     1.7440 C.ar  1 <1>  -0.1500 
 17 C        4.4870    -2.5390     1.4090 C.2   1 <1>   0.5690 
 18 C       -4.7390    -3.4920    -0.4550 C.ar  1 <1>  -0.1500 
 19 C       -4.1810    -3.8600     1.8460 C.ar  1 <1>  -0.1500 
 20 O        4.4580    -3.0890     2.4840 O.2   1 <1>  -0.5700 
 21 N        5.5820    -2.5710     0.6030 N.am  1 <1>  -0.5790 
 22 C       -4.9900    -4.1190     0.7340 C.ar  1 <1>  -0.1500 
 23 C        6.8490    -3.2480     0.9090 C.3   1 <1>   0.0490 
 24 C        8.1140    -2.6160     0.4340 C.3   1 <1>  -0.2000 
 25 C        7.6040    -3.8650    -0.2200 C.3   1 <1>  -0.2000 
 26 H        2.1970    -1.1750    -1.8950 H     1 <1>   0.0800 
 27 H        0.8110    -2.1370    -1.4540 H     1 <1>   0.0800 
 28 H        1.9130     1.0100     1.0180 H     1 <1>   0.0800 
 29 H        2.4690     1.1240    -0.6280 H     1 <1>   0.0800 
 30 H       -1.1770    -1.2170     1.2560 H     1 <1>   0.1500 
 31 H       -2.1320    -0.5420    -2.8260 H     1 <1>   0.1500 
 32 H        3.2450    -2.9640    -0.8850 H     1 <1>   0.0800 
 33 H        1.9250    -3.2970     0.1810 H     1 <1>   0.0800 
 34 H        4.0090     0.1870     1.3760 H     1 <1>   0.0800 
 35 H        4.2110    -0.2890    -0.2780 H     1 <1>   0.0800 
 36 H       -4.0100    -2.1140    -2.6500 H     1 <1>   0.1500 
 37 H        2.5620    -1.7610     1.7720 H     1 <1>   0.0800 
 38 H       -2.5150    -2.7760     2.5950 H     1 <1>   0.1500 
 39 H       -5.3580    -3.6870    -1.3120 H     1 <1>   0.1500 
 40 H       -4.3910    -4.3610     2.7750 H     1 <1>   0.1500 
 41 H        5.5590    -2.0900    -0.2940 H     1 <1>   0.3700 
 42 H       -5.8050    -4.8150     0.8320 H     1 <1>   0.1500 
 43 H        6.8470    -3.7480     1.8660 H     1 <1>   0.1000 
 44 H        8.9890    -2.6880     1.0560 H     1 <1>   0.1000 
 45 H        8.0630    -1.6850    -0.1030 H     1 <1>   0.1000 
 46 H        7.1990    -3.8090    -1.2150 H     1 <1>   0.1000 
 47 H        8.1340    -4.7840    -0.0410 H     1 <1>   0.1000 
@<TRIPOS>BOND
  1   1   2  2   
  2   1   3  2   
  3   1   4  am  
  4   1   5  1   
  5   4   6  1   
  6   4   7  1   
  7   5   8  ar  
  8   5   9  ar  
  9   6  10  1   
 10   6  26  1   
 11   6  27  1   
 12   7  11  1   
 13   7  28  1   
 14   7  29  1   
 15   8  12  ar  
 16   8  30  1   
 17   9  13  ar  
 18   9  31  1   
 19  10  14  1   
 20  10  32  1   
 21  10  33  1   
 22  11  14  1   
 23  11  34  1   
 24  11  35  1   
 25  12  15  ar  
 26  12  16  ar  
 27  13  15  ar  
 28  13  36  1   
 29  14  17  1   
 30  14  37  1   
 31  15  18  ar  
 32  16  19  ar  
 33  16  38  1   
 34  17  20  2   
 35  17  21  am  
 36  18  22  ar  
 37  18  39  1   
 38  19  22  ar  
 39  19  40  1   
 40  21  23  1   
 41  21  41  1   
 42  22  42  1   
 43  23  24  1   
 44  23  25  1   
 45  23  43  1   
 46  24  25  1   
 47  24  44  1   
 48  24  45  1   
 49  25  46  1   
 50  25  47  1   
@<TRIPOS>SUBSTRUCTURE
  1 ****   4 GROUP 4 **** **** 0

# MOE 2024.06 (io_trps.svl 2023.06)
