@<TRIPOS>MOLECULE
NONAME
43 44 1 0 0 
SMALL
USER_CHARGES


@<TRIPOS>ATOM
  1 S       -0.7380     0.6250     2.3510 S.3   1 <1>  -0.0800 
  2 C        0.1860     1.4620     1.1260 C.2   1 <1>   0.1040 
  3 C       -2.2440     0.8680     1.4860 C.2   1 <1>  -0.1400 
  4 N        1.5620     1.5940     1.2590 N.am  1 <1>  -0.4940 
  5 C       -0.6340     1.9120     0.1260 C.2   1 <1>  -0.0860 
  6 C       -2.0250     1.5280     0.3250 C.2   1 <1>  -0.1810 
  7 C       -3.4450     0.2870     2.2120 C.3   1 <1>  -0.0600 
  8 C        2.4520     1.2620     2.2510 C.2   1 <1>   0.5690 
  9 C       -0.1050     2.6900    -0.9670 C.2   1 <1>   0.8060 
 10 C       -3.0600     1.8660    -0.7580 C.3   1 <1>   0.0210 
 11 O        2.1370     0.7750     3.3090 O.2   1 <1>  -0.5700 
 12 C        3.9300     1.5080     1.9990 C.3   1 <1>   0.1310 
 13 O        1.0580     2.6140    -1.3260 O.2   1 <1>  -0.5700 
 14 O       -0.8960     3.5670    -1.5990 O.3   1 <1>  -0.4300 
 15 C       -4.3680     1.0700    -0.7380 C.3   1 <1>  -0.2400 
 16 S        4.1880     2.9270     0.8250 S.3   1 <1>  -0.3310 
 17 C       -0.4140     4.3950    -2.6410 C.3   1 <1>   0.0400 
 18 C        5.9550     2.9930     0.6030 C.ar  1 <1>   0.7220 
 19 N        6.3740     3.9490    -0.2060 N.ar  1 <1>  -0.6200 
 20 N        6.6540     2.0840     1.2660 N.ar  1 <1>  -0.6200 
 21 C        7.6740     3.9980    -0.3740 C.ar  1 <1>   0.1670 
 22 C        7.9520     2.1610     1.0760 C.ar  1 <1>   0.1600 
 23 C        8.5180     3.1100     0.2560 C.ar  1 <1>  -0.1500 
 24 C        8.2070     5.0750    -1.2950 C.3   1 <1>  -0.0970 
 25 H        2.0090     2.0490     0.4520 H     1 <1>   0.3700 
 26 H       -3.2770     0.3110     3.2740 H     1 <1>   0.0800 
 27 H       -3.5950    -0.7340     1.9130 H     1 <1>   0.0800 
 28 H       -4.3320     0.8540     2.0170 H     1 <1>   0.0800 
 29 H       -2.6100     1.6720    -1.7150 H     1 <1>   0.0800 
 30 H       -3.2890     2.9170    -0.7120 H     1 <1>   0.0800 
 31 H        4.3810     0.6390     1.5600 H     1 <1>   0.0800 
 32 H        4.4300     1.7580     2.9170 H     1 <1>   0.0800 
 33 H       -4.1690     0.0210    -0.6150 H     1 <1>   0.0800 
 34 H       -4.8880     1.2100    -1.6690 H     1 <1>   0.0800 
 35 H       -5.0120     1.4160     0.0480 H     1 <1>   0.0800 
 36 H       -1.2240     5.0100    -2.9900 H     1 <1>   0.0800 
 37 H       -0.0480     3.7740    -3.4400 H     1 <1>   0.0800 
 38 H        0.3800     5.0120    -2.2570 H     1 <1>   0.0800 
 39 H        8.5800     1.4510     1.5870 H     1 <1>   0.1500 
 40 H        9.5810     3.1520     0.1170 H     1 <1>   0.1500 
 41 H        7.7790     4.9560    -2.2730 H     1 <1>   0.0800 
 42 H        9.2770     5.0250    -1.3740 H     1 <1>   0.0800 
 43 H        7.9310     6.0420    -0.9140 H     1 <1>   0.0800 
@<TRIPOS>BOND
  1   1   2  1   
  2   1   3  1   
  3   2   4  1   
  4   2   5  2   
  5   3   6  2   
  6   3   7  1   
  7   4   8  am  
  8   4  25  1   
  9   5   6  1   
 10   5   9  1   
 11   6  10  1   
 12   7  26  1   
 13   7  27  1   
 14   7  28  1   
 15   8  11  2   
 16   8  12  1   
 17   9  13  2   
 18   9  14  1   
 19  10  15  1   
 20  10  29  1   
 21  10  30  1   
 22  12  16  1   
 23  12  31  1   
 24  12  32  1   
 25  14  17  1   
 26  15  33  1   
 27  15  34  1   
 28  15  35  1   
 29  16  18  1   
 30  17  36  1   
 31  17  37  1   
 32  17  38  1   
 33  18  19  ar  
 34  18  20  ar  
 35  19  21  ar  
 36  20  22  ar  
 37  21  23  ar  
 38  21  24  1   
 39  22  23  ar  
 40  22  39  1   
 41  23  40  1   
 42  24  41  1   
 43  24  42  1   
 44  24  43  1   
@<TRIPOS>SUBSTRUCTURE
  1 ****   4 GROUP 4 **** **** 0

# MOE 2024.06 (io_trps.svl 2023.06)
