@<TRIPOS>MOLECULE
NONAME
53 54 1 0 0 
SMALL
USER_CHARGES


@<TRIPOS>ATOM
  1 S       -0.0320    -0.3340     0.0860 S.3   1 <1>  -0.0800 
  2 C        1.0020     1.0520    -0.1930 C.2   1 <1>   0.1040 
  3 C       -1.4790     0.6470     0.0180 C.2   1 <1>  -0.1400 
  4 N        2.3810     0.8800    -0.2280 N.am  1 <1>  -0.4940 
  5 C        0.2570     2.1950    -0.3400 C.2   1 <1>  -0.0860 
  6 C       -1.1650     1.9440    -0.1680 C.2   1 <1>  -0.1810 
  7 C       -2.7900    -0.1060     0.1600 C.3   1 <1>   0.0200 
  8 C        3.1650    -0.2520    -0.2200 C.2   1 <1>   0.5690 
  9 C        0.8320     3.4820    -0.6580 C.2   1 <1>   0.8060 
 10 C       -2.2030     3.0710    -0.1830 C.3   1 <1>   0.0210 
 11 C       -3.8960     0.5620    -0.6650 C.3   1 <1>  -0.1600 
 12 O        2.7460    -1.3810    -0.2940 O.2   1 <1>  -0.5700 
 13 C        4.6900    -0.1170    -0.1130 C.3   1 <1>   0.4040 
 14 O        0.2100     4.4250    -1.1040 O.2   1 <1>  -0.5700 
 15 O        2.1560     3.6390    -0.4640 O.3   1 <1>  -0.4300 
 16 C       -3.4590     2.7640     0.6470 C.3   1 <1>  -0.1600 
 17 C       -4.4790     1.8330    -0.0290 C.3   1 <1>  -0.1600 
 18 N        5.3260    -1.4090     0.3400 N.4   1 <1>  -0.9060 
 19 C        2.8130     4.8770    -0.6720 C.3   1 <1>   0.1200 
 20 C        6.7550    -1.6000     0.1200 C.3   1 <1>   0.5030 
 21 C        2.6920     5.7170     0.5970 C.3   1 <1>  -0.2400 
 22 C        7.5340    -0.5000     0.8380 C.3   1 <1>  -0.2400 
 23 C        7.0460    -1.5930    -1.3800 C.3   1 <1>  -0.2400 
 24 C        7.1030    -2.9610     0.7110 C.3   1 <1>  -0.2400 
 25 H        2.8710     1.7790    -0.2730 H     1 <1>   0.3700 
 26 H       -3.0690    -0.1810     1.1970 H     1 <1>   0.0800 
 27 H       -2.6500    -1.1040    -0.2170 H     1 <1>   0.0800 
 28 H       -2.4660     3.3200    -1.1960 H     1 <1>   0.0800 
 29 H       -1.7660     3.9450     0.2660 H     1 <1>   0.0800 
 30 H       -4.6970    -0.1420    -0.8120 H     1 <1>   0.0800 
 31 H       -3.5010     0.7980    -1.6380 H     1 <1>   0.0800 
 32 H        4.9320     0.6730     0.5760 H     1 <1>   0.0800 
 33 H        5.0620     0.1490    -1.0860 H     1 <1>   0.0800 
 34 H       -3.9570     3.6930     0.8650 H     1 <1>   0.0800 
 35 H       -3.1560     2.3460     1.5920 H     1 <1>   0.0800 
 36 H       -5.2070     1.5470     0.7100 H     1 <1>   0.0800 
 37 H       -5.0030     2.3820    -0.7930 H     1 <1>   0.0800 
 38 H        4.8060    -2.1590    -0.1430 H     1 <1>   0.4500 
 39 H        5.1150    -1.5630     1.3310 H     1 <1>   0.4500 
 40 H        2.3820     5.3810    -1.5220 H     1 <1>   0.0800 
 41 H        3.8480     4.6700    -0.8840 H     1 <1>   0.0800 
 42 H        1.6610     5.9480     0.7970 H     1 <1>   0.0800 
 43 H        3.2220     6.6440     0.4670 H     1 <1>   0.0800 
 44 H        3.1160     5.1980     1.4380 H     1 <1>   0.0800 
 45 H        8.5900    -0.6860     0.7450 H     1 <1>   0.0800 
 46 H        7.2990    -0.4810     1.8880 H     1 <1>   0.0800 
 47 H        7.3420     0.4680     0.4110 H     1 <1>   0.0800 
 48 H        6.8700    -0.6270    -1.8180 H     1 <1>   0.0800 
 49 H        6.4540    -2.3310    -1.8930 H     1 <1>   0.0800 
 50 H        8.0810    -1.8330    -1.5480 H     1 <1>   0.0800 
 51 H        6.9020    -2.9910     1.7680 H     1 <1>   0.0800 
 52 H        8.1520    -3.1630     0.5750 H     1 <1>   0.0800 
 53 H        6.5540    -3.7480     0.2240 H     1 <1>   0.0800 
@<TRIPOS>BOND
  1   1   2  1   
  2   1   3  1   
  3   2   4  1   
  4   2   5  2   
  5   3   6  2   
  6   3   7  1   
  7   4   8  am  
  8   4  25  1   
  9   5   6  1   
 10   5   9  1   
 11   6  10  1   
 12   7  11  1   
 13   7  26  1   
 14   7  27  1   
 15   8  12  2   
 16   8  13  1   
 17   9  14  2   
 18   9  15  1   
 19  10  16  1   
 20  10  28  1   
 21  10  29  1   
 22  11  17  1   
 23  11  30  1   
 24  11  31  1   
 25  13  18  1   
 26  13  32  1   
 27  13  33  1   
 28  15  19  1   
 29  16  17  1   
 30  16  34  1   
 31  16  35  1   
 32  17  36  1   
 33  17  37  1   
 34  18  20  1   
 35  18  38  1   
 36  18  39  1   
 37  19  21  1   
 38  19  40  1   
 39  19  41  1   
 40  20  22  1   
 41  20  23  1   
 42  20  24  1   
 43  21  42  1   
 44  21  43  1   
 45  21  44  1   
 46  22  45  1   
 47  22  46  1   
 48  22  47  1   
 49  23  48  1   
 50  23  49  1   
 51  23  50  1   
 52  24  51  1   
 53  24  52  1   
 54  24  53  1   
@<TRIPOS>SUBSTRUCTURE
  1 ****   2 GROUP 4 **** **** 0

# MOE 2024.06 (io_trps.svl 2023.06)
