@<TRIPOS>MOLECULE
NONAME
58 61 1 0 0 
SMALL
USER_CHARGES


@<TRIPOS>ATOM
  1 O       -1.6480    -2.0330     1.3620 O.2   1 <1>  -0.5700 
  2 C       -2.5040    -2.7260     0.8440 C.2   1 <1>   0.5440 
  3 N       -2.1740    -4.0070     0.4620 N.am  1 <1>  -0.6600 
  4 C       -3.8330    -2.1890     0.6350 C.ar  1 <1>   0.0860 
  5 C       -0.8190    -4.5640     0.6700 C.3   1 <1>   0.1400 
  6 C       -2.9340    -4.8200    -0.5140 C.3   1 <1>   0.1400 
  7 C       -4.0190    -0.9480     0.0270 C.ar  1 <1>  -0.1500 
  8 C       -4.9780    -2.8800     1.0330 C.ar  1 <1>  -0.1500 
  9 C       -0.8240    -5.8990    -0.0660 C.3   1 <1>  -0.1600 
 10 C       -1.8950    -5.7430    -1.1410 C.3   1 <1>  -0.1600 
 11 C       -5.2810    -0.4310    -0.1910 C.ar  1 <1>  -0.1500 
 12 C       -6.2420    -2.3670     0.8160 C.ar  1 <1>  -0.1500 
 13 C       -6.4170    -1.1360     0.1950 C.ar  1 <1>   0.1170 
 14 N       -7.7160    -0.6590     0.0070 N.am  1 <1>  -0.5470 
 15 C       -8.2410     0.2510    -0.8770 C.2   1 <1>   0.5690 
 16 O       -7.5650     0.7820    -1.7270 O.2   1 <1>  -0.5700 
 17 C       -9.7520     0.5770    -0.7510 C.3   1 <1>   0.2040 
 18 C      -10.4650    -0.6960    -0.2200 C.ar  1 <1>  -0.1430 
 19 C       -9.9190     1.7840     0.2050 C.3   1 <1>  -0.1600 
 20 C      -10.3980     0.9690    -2.1060 C.3   1 <1>  -0.1600 
 21 C      -10.4660    -1.8400    -1.0140 C.ar  1 <1>  -0.1500 
 22 C      -11.0740    -0.7750     1.0310 C.ar  1 <1>  -0.1500 
 23 C       -9.4600     3.0930    -0.4420 C.3   1 <1>   0.1200 
 24 C       -9.9990     2.3690    -2.5970 C.3   1 <1>   0.1200 
 25 C      -11.0550    -3.0130    -0.5810 C.ar  1 <1>  -0.1500 
 26 C      -11.6650    -1.9480     1.4690 C.ar  1 <1>  -0.1500 
 27 O      -10.2220     3.2990    -1.5850 O.3   1 <1>  -0.5600 
 28 C      -11.6580    -3.0790     0.6610 C.ar  1 <1>   0.0830 
 29 O      -12.2100    -4.2660     1.0140 O.3   1 <1>  -0.3620 
 30 C      -12.9220    -4.4150     2.2220 C.3   1 <1>   0.0400 
 31 H       -0.6150    -4.6840     1.7200 H     1 <1>   0.0800 
 32 H       -0.0940    -3.8940     0.2380 H     1 <1>   0.0800 
 33 H       -3.4090    -4.2000    -1.2560 H     1 <1>   0.0800 
 34 H       -3.6760    -5.3980     0.0100 H     1 <1>   0.0800 
 35 H       -3.1500    -0.3870    -0.2740 H     1 <1>   0.1500 
 36 H       -4.8640    -3.8310     1.5240 H     1 <1>   0.1500 
 37 H       -1.1060    -6.6760     0.6240 H     1 <1>   0.0800 
 38 H        0.1430    -6.1300    -0.4780 H     1 <1>   0.0800 
 39 H       -1.4760    -5.2590    -2.0060 H     1 <1>   0.0800 
 40 H       -2.3220    -6.6850    -1.4370 H     1 <1>   0.0800 
 41 H       -5.3810     0.5300    -0.6620 H     1 <1>   0.1500 
 42 H       -7.1030    -2.9280     1.1320 H     1 <1>   0.1500 
 43 H       -8.4340    -1.1460     0.5480 H     1 <1>   0.3700 
 44 H       -9.3600     1.6220     1.1100 H     1 <1>   0.0800 
 45 H      -10.9550     1.9110     0.4630 H     1 <1>   0.0800 
 46 H      -11.4690     0.9500    -2.0050 H     1 <1>   0.0800 
 47 H      -10.1320     0.2590    -2.8660 H     1 <1>   0.0800 
 48 H      -10.0000    -1.8360    -1.9850 H     1 <1>   0.1500 
 49 H      -11.1060     0.0660     1.7000 H     1 <1>   0.1500 
 50 H       -8.4170     3.0730    -0.7120 H     1 <1>   0.0800 
 51 H       -9.6340     3.9230     0.2200 H     1 <1>   0.0800 
 52 H      -10.6030     2.6550    -3.4410 H     1 <1>   0.0800 
 53 H       -8.9640     2.4190    -2.8880 H     1 <1>   0.0800 
 54 H      -11.0520    -3.8880    -1.2050 H     1 <1>   0.1500 
 55 H      -12.1250    -1.9620     2.4380 H     1 <1>   0.1500 
 56 H      -13.2940    -5.4220     2.2680 H     1 <1>   0.0800 
 57 H      -13.7440    -3.7210     2.2310 H     1 <1>   0.0800 
 58 H      -12.2540    -4.2340     3.0460 H     1 <1>   0.0800 
@<TRIPOS>BOND
  1   1   2  2   
  2   2   3  am  
  3   2   4  1   
  4   3   5  1   
  5   3   6  1   
  6   4   7  ar  
  7   4   8  ar  
  8   5   9  1   
  9   5  31  1   
 10   5  32  1   
 11   6  10  1   
 12   6  33  1   
 13   6  34  1   
 14   7  11  ar  
 15   7  35  1   
 16   8  12  ar  
 17   8  36  1   
 18   9  10  1   
 19   9  37  1   
 20   9  38  1   
 21  10  39  1   
 22  10  40  1   
 23  11  13  ar  
 24  11  41  1   
 25  12  13  ar  
 26  12  42  1   
 27  13  14  1   
 28  14  15  am  
 29  14  43  1   
 30  15  16  2   
 31  15  17  1   
 32  17  18  1   
 33  17  19  1   
 34  17  20  1   
 35  18  21  ar  
 36  18  22  ar  
 37  19  23  1   
 38  19  44  1   
 39  19  45  1   
 40  20  24  1   
 41  20  46  1   
 42  20  47  1   
 43  21  25  ar  
 44  21  48  1   
 45  22  26  ar  
 46  22  49  1   
 47  23  27  1   
 48  23  50  1   
 49  23  51  1   
 50  24  27  1   
 51  24  52  1   
 52  24  53  1   
 53  25  28  ar  
 54  25  54  1   
 55  26  28  ar  
 56  26  55  1   
 57  28  29  1   
 58  29  30  1   
 59  30  56  1   
 60  30  57  1   
 61  30  58  1   
@<TRIPOS>SUBSTRUCTURE
  1 ****  13 GROUP 4 **** **** 0

# MOE 2024.06 (io_trps.svl 2023.06)
