@<TRIPOS>MOLECULE
NONAME
29 28 1 0 0 
SMALL
USER_CHARGES


@<TRIPOS>ATOM
  1 P       -1.7980     1.5730     0.6440 P.3   1 <1>   0.5020 
  2 O       -2.2270     1.9560     2.0180 O.2   1 <1>  -0.5240 
  3 O       -2.5240     0.2690    -0.0780 O.3   1 <1>  -0.3540 
  4 C       -0.4810     2.4680    -0.3430 C.3   1 <1>   0.2010 
  5 C       -3.4980    -0.3320     0.7450 C.3   1 <1>   0.1560 
  6 C       -1.1160     2.9980    -1.6380 C.3   1 <1>  -0.2090 
  7 C        0.6490     1.4770    -0.6610 C.3   1 <1>  -0.2090 
  8 C        0.0470     3.6310     0.5130 C.3   1 <1>  -0.2090 
  9 C       -4.1030    -1.5180    -0.0120 C.3   1 <1>  -0.1260 
 10 C       -5.1790    -2.2320     0.8220 C.3   1 <1>  -0.1260 
 11 C       -5.7810    -3.4180     0.0560 C.3   1 <1>  -0.2090 
 12 H       -4.2500     0.4040     0.9800 H     1 <1>   0.1170 
 13 H       -3.0220    -0.6550     1.6580 H     1 <1>   0.1170 
 14 H       -0.3900     3.5230    -2.2320 H     1 <1>   0.1170 
 15 H       -1.5130     2.1870    -2.2250 H     1 <1>   0.1170 
 16 H       -1.9230     3.6750    -1.4140 H     1 <1>   0.1170 
 17 H        0.2750     0.6470    -1.2360 H     1 <1>   0.1170 
 18 H        1.0780     1.0890     0.2470 H     1 <1>   0.1170 
 19 H        1.4300     1.9560    -1.2260 H     1 <1>   0.1170 
 20 H       -0.7520     4.3080     0.7640 H     1 <1>   0.1170 
 21 H        0.8100     4.1810    -0.0080 H     1 <1>   0.1170 
 22 H        0.4620     3.2610     1.4360 H     1 <1>   0.1170 
 23 H       -3.3170    -2.2130    -0.2560 H     1 <1>   0.1170 
 24 H       -4.5380    -1.1590    -0.9300 H     1 <1>   0.1170 
 25 H       -5.9670    -1.5400     1.0730 H     1 <1>   0.1170 
 26 H       -4.7500    -2.5900     1.7440 H     1 <1>   0.1170 
 27 H       -6.2440    -3.0900    -0.8590 H     1 <1>   0.1170 
 28 H       -6.5310    -3.9050     0.6560 H     1 <1>   0.1170 
 29 H       -5.0220    -4.1440    -0.1850 H     1 <1>   0.1170 
@<TRIPOS>BOND
  1   1   2  2   
  2   1   3  1   
  3   1   4  1   
  4   3   5  1   
  5   4   6  1   
  6   4   7  1   
  7   4   8  1   
  8   5   9  1   
  9   5  12  1   
 10   5  13  1   
 11   6  14  1   
 12   6  15  1   
 13   6  16  1   
 14   7  17  1   
 15   7  18  1   
 16   7  19  1   
 17   8  20  1   
 18   8  21  1   
 19   8  22  1   
 20   9  10  1   
 21   9  23  1   
 22   9  24  1   
 23  10  11  1   
 24  10  25  1   
 25  10  26  1   
 26  11  27  1   
 27  11  28  1   
 28  11  29  1   
@<TRIPOS>SUBSTRUCTURE
  1 ****   3 GROUP 4 **** **** 0

# MOE 2024.06 (io_trps.svl 2023.06)
