@<TRIPOS>MOLECULE
NONAME
52 55 1 0 0 
SMALL
USER_CHARGES


@<TRIPOS>ATOM
  1 O       -2.6780    -1.2320     0.1930 O.3   1 <1>  -0.3630 
  2 C       -3.2630    -0.0090     0.1240 C.ar  1 <1>   0.0830 
  3 C       -3.1310    -2.2150    -0.7250 C.3   1 <1>   0.2000 
  4 C       -4.4580     0.1820    -0.5740 C.ar  1 <1>   0.0830 
  5 C       -2.6550     1.0600     0.7580 C.ar  1 <1>  -0.1500 
  6 C       -4.6640    -2.1560    -0.8310 C.3   1 <1>   0.1200 
  7 C       -2.6490    -3.5940    -0.2580 C.3   1 <1>   0.1200 
  8 O       -5.0860    -0.8530    -1.1860 O.3   1 <1>  -0.3630 
  9 C       -5.0220     1.4440    -0.6460 C.ar  1 <1>  -0.1500 
 10 C       -3.2260     2.3210     0.6890 C.ar  1 <1>  -0.1500 
 11 O       -1.2520    -3.6230    -0.2220 O.3   1 <1>  -0.5600 
 12 C       -4.4060     2.5130    -0.0130 C.ar  1 <1>  -0.1500 
 13 C       -0.7020    -4.7390     0.4040 C.3   1 <1>   0.1200 
 14 C        0.8200    -4.5440     0.4690 C.3   1 <1>   0.2000 
 15 O        1.2650    -4.1330    -0.7870 O.3   1 <1>  -0.6800 
 16 C        1.5820    -5.8200     0.8810 C.3   1 <1>   0.3430 
 17 N        2.9950    -5.7570     0.3970 N.4   1 <1>  -0.9590 
 18 C        3.6060    -7.0960     0.1780 C.3   1 <1>   0.4860 
 19 C        3.8750    -4.8800     1.2180 C.3   1 <1>   0.3430 
 20 C        5.0290    -6.9660    -0.3420 C.ar  1 <1>  -0.1430 
 21 C        5.1500    -4.5540     0.4390 C.3   1 <1>  -0.0170 
 22 C        5.7580    -5.7880    -0.2110 C.ar  1 <1>  -0.1430 
 23 C        5.6150    -8.0660    -0.9540 C.ar  1 <1>  -0.1500 
 24 C        7.0570    -5.7240    -0.6900 C.ar  1 <1>  -0.1500 
 25 C        6.9110    -7.9960    -1.4300 C.ar  1 <1>  -0.1500 
 26 C        7.6330    -6.8250    -1.2980 C.ar  1 <1>  -0.1500 
 27 H       -2.7020    -1.9920    -1.6860 H     1 <1>   0.0800 
 28 H       -1.7390     0.9020     1.2980 H     1 <1>   0.1500 
 29 H       -5.1170    -2.4050     0.1120 H     1 <1>   0.0800 
 30 H       -5.0220    -2.8320    -1.5860 H     1 <1>   0.0800 
 31 H       -2.9850    -4.3570    -0.9390 H     1 <1>   0.0800 
 32 H       -3.0350    -3.7940     0.7280 H     1 <1>   0.0800 
 33 H       -5.9370     1.5830    -1.1910 H     1 <1>   0.1500 
 34 H       -2.7510     3.1520     1.1810 H     1 <1>   0.1500 
 35 H       -4.8460     3.4940    -0.0680 H     1 <1>   0.1500 
 36 H       -0.9550    -5.6140    -0.1710 H     1 <1>   0.0800 
 37 H       -1.1120    -4.8240     1.3960 H     1 <1>   0.0800 
 38 H        1.0340    -3.7500     1.1640 H     1 <1>   0.0800 
 39 H        0.5900    -3.4980    -1.1330 H     1 <1>   0.4000 
 40 H        1.0880    -6.6610     0.4250 H     1 <1>   0.0800 
 41 H        1.5460    -5.9520     1.9500 H     1 <1>   0.0800 
 42 H        2.9180    -5.2980    -0.5310 H     1 <1>   0.4500 
 43 H        3.0190    -7.6510    -0.5350 H     1 <1>   0.0800 
 44 H        3.6240    -7.6450     1.1050 H     1 <1>   0.0800 
 45 H        4.1350    -5.3830     2.1350 H     1 <1>   0.0800 
 46 H        3.3670    -3.9610     1.4610 H     1 <1>   0.0800 
 47 H        5.8620    -4.1060     1.1080 H     1 <1>   0.0800 
 48 H        4.9220    -3.8320    -0.3250 H     1 <1>   0.0800 
 49 H        5.0730    -8.9890    -1.0690 H     1 <1>   0.1500 
 50 H        7.6310    -4.8180    -0.5980 H     1 <1>   0.1500 
 51 H        7.3620    -8.8510    -1.9050 H     1 <1>   0.1500 
 52 H        8.6420    -6.7700    -1.6680 H     1 <1>   0.1500 
@<TRIPOS>BOND
  1   1   2  1   
  2   1   3  1   
  3   2   4  ar  
  4   2   5  ar  
  5   3   6  1   
  6   3   7  1   
  7   3  27  1   
  8   4   8  1   
  9   4   9  ar  
 10   5  10  ar  
 11   5  28  1   
 12   6   8  1   
 13   6  29  1   
 14   6  30  1   
 15   7  11  1   
 16   7  31  1   
 17   7  32  1   
 18   9  12  ar  
 19   9  33  1   
 20  10  12  ar  
 21  10  34  1   
 22  11  13  1   
 23  12  35  1   
 24  13  14  1   
 25  13  36  1   
 26  13  37  1   
 27  14  15  1   
 28  14  16  1   
 29  14  38  1   
 30  15  39  1   
 31  16  17  1   
 32  16  40  1   
 33  16  41  1   
 34  17  18  1   
 35  17  19  1   
 36  17  42  1   
 37  18  20  1   
 38  18  43  1   
 39  18  44  1   
 40  19  21  1   
 41  19  45  1   
 42  19  46  1   
 43  20  22  ar  
 44  20  23  ar  
 45  21  22  1   
 46  21  47  1   
 47  21  48  1   
 48  22  24  ar  
 49  23  25  ar  
 50  23  49  1   
 51  24  26  ar  
 52  24  50  1   
 53  25  26  ar  
 54  25  51  1   
 55  26  52  1   
@<TRIPOS>SUBSTRUCTURE
  1 ****  15 GROUP 4 **** **** 0

# MOE 2024.06 (io_trps.svl 2023.06)
