@<TRIPOS>MOLECULE
NONAME
46 49 1 0 0 
SMALL
USER_CHARGES


@<TRIPOS>ATOM
  1 F       -0.5080     1.8620    -1.1530 F     1 <1>  -0.1900 
  2 C       -0.7150     2.3310     0.0490 C.ar  1 <1>   0.1900 
  3 C       -1.9080     2.0330     0.6990 C.ar  1 <1>  -0.1440 
  4 C        0.2760     3.1190     0.6140 C.ar  1 <1>  -0.1500 
  5 C       -2.1050     2.5610     1.9680 C.ar  1 <1>  -0.1500 
  6 C       -2.9780     1.1620     0.0590 C.3   1 <1>   0.2540 
  7 C        0.0710     3.6400     1.8820 C.ar  1 <1>  -0.1500 
  8 C       -1.1170     3.3510     2.5300 C.ar  1 <1>   0.1900 
  9 N       -4.1550     1.9790    -0.2920 N.3   1 <1>  -0.8100 
 10 F       -1.3170     3.8460     3.7220 F     1 <1>  -0.1900 
 11 C       -3.8430     2.9790    -1.3480 C.3   1 <1>   0.1100 
 12 C       -5.3000     1.1330    -0.7040 C.3   1 <1>   0.1100 
 13 C       -5.0790     3.8220    -1.7500 C.3   1 <1>   0.3430 
 14 C       -6.5570     1.9720    -1.0420 C.3   1 <1>   0.3430 
 15 N       -6.2720     3.4430    -0.9300 N.4   1 <1>  -0.9590 
 16 C       -7.4590     4.3110    -1.1240 C.3   1 <1>   0.4860 
 17 C       -8.4950     3.9410    -0.0810 C.ar  1 <1>  -0.1430 
 18 C       -9.5980     3.1730    -0.4440 C.ar  1 <1>  -0.1500 
 19 C       -8.3360     4.3540     1.2440 C.ar  1 <1>  -0.1500 
 20 C      -10.5000     2.8260     0.5400 C.ar  1 <1>   0.0830 
 21 C       -9.2600     3.9970     2.2170 C.ar  1 <1>  -0.1500 
 22 O      -11.6080     2.0910     0.4200 O.3   1 <1>  -0.3630 
 23 C      -10.3370     3.2250     1.8330 C.ar  1 <1>   0.0830 
 24 C      -12.2000     2.0280     1.7180 C.3   1 <1>   0.4000 
 25 O      -11.3370     2.7600     2.5870 O.3   1 <1>  -0.3620 
 26 H        1.1830     3.3170     0.0720 H     1 <1>   0.1500 
 27 H       -3.0110     2.3670     2.5150 H     1 <1>   0.1500 
 28 H       -3.2670     0.4060     0.7710 H     1 <1>   0.0800 
 29 H       -2.5990     0.6600    -0.8160 H     1 <1>   0.0800 
 30 H        0.8120     4.2570     2.3600 H     1 <1>   0.1500 
 31 H       -3.4530     2.4840    -2.2210 H     1 <1>   0.0800 
 32 H       -3.0800     3.6510    -0.9940 H     1 <1>   0.0800 
 33 H       -5.5470     0.4500     0.0920 H     1 <1>   0.0800 
 34 H       -5.0280     0.5420    -1.5630 H     1 <1>   0.0800 
 35 H       -5.2860     3.6700    -2.7970 H     1 <1>   0.0800 
 36 H       -4.8480     4.8650    -1.6080 H     1 <1>   0.0800 
 37 H       -7.3450     1.6990    -0.3590 H     1 <1>   0.0800 
 38 H       -6.8890     1.7310    -2.0380 H     1 <1>   0.0800 
 39 H       -5.9510     3.5390     0.0460 H     1 <1>   0.4500 
 40 H       -7.8650     4.1740    -2.1130 H     1 <1>   0.0800 
 41 H       -7.1860     5.3470    -1.0040 H     1 <1>   0.0800 
 42 H       -9.7720     2.8410    -1.4520 H     1 <1>   0.1500 
 43 H       -7.4930     4.9590     1.5360 H     1 <1>   0.1500 
 44 H       -9.1560     4.3050     3.2430 H     1 <1>   0.1500 
 45 H      -12.2560     1.0040     2.0420 H     1 <1>   0.0800 
 46 H      -13.1700     2.4930     1.6960 H     1 <1>   0.0800 
@<TRIPOS>BOND
  1   1   2  1   
  2   2   3  ar  
  3   2   4  ar  
  4   3   5  ar  
  5   3   6  1   
  6   4   7  ar  
  7   4  26  1   
  8   5   8  ar  
  9   5  27  1   
 10   6   9  1   
 11   6  28  1   
 12   6  29  1   
 13   7   8  ar  
 14   7  30  1   
 15   8  10  1   
 16   9  11  1   
 17   9  12  1   
 18  11  13  1   
 19  11  31  1   
 20  11  32  1   
 21  12  14  1   
 22  12  33  1   
 23  12  34  1   
 24  13  15  1   
 25  13  35  1   
 26  13  36  1   
 27  14  15  1   
 28  14  37  1   
 29  14  38  1   
 30  15  16  1   
 31  15  39  1   
 32  16  17  1   
 33  16  40  1   
 34  16  41  1   
 35  17  18  ar  
 36  17  19  ar  
 37  18  20  ar  
 38  18  42  1   
 39  19  21  ar  
 40  19  43  1   
 41  20  22  1   
 42  20  23  ar  
 43  21  23  ar  
 44  21  44  1   
 45  22  24  1   
 46  23  25  1   
 47  24  25  1   
 48  24  45  1   
 49  24  46  1   
@<TRIPOS>SUBSTRUCTURE
  1 ****  15 GROUP 4 **** **** 0

# MOE 2024.06 (io_trps.svl 2023.06)
