@<TRIPOS>MOLECULE
NONAME
45 47 1 0 0 
SMALL
USER_CHARGES


@<TRIPOS>ATOM
  1 S        0.4110     0.2060    -0.0500 S.3   1 <1>  -0.3320 
  2 C        1.2040     1.7900     0.2020 C.ar  1 <1>   0.7220 
  3 C       -1.3030     0.3780     0.6270 C.3   1 <1>   0.0700 
  4 N        0.4870     2.7310     0.8260 N.ar  1 <1>  -0.3100 
  5 N        2.4290     1.8710    -0.2540 N.ar  1 <1>  -0.6200 
  6 C       -2.1830     1.0380    -0.4380 C.3   1 <1>  -0.1600 
  7 N        1.0190     3.9060     1.0350 N.ar  1 <1>  -0.3100 
  8 C        2.9550     3.0590    -0.0220 C.ar  1 <1>   0.3930 
  9 C       -3.6260     1.1920     0.0580 C.3   1 <1>  -0.1600 
 10 C        2.2730     4.0990     0.6140 C.ar  1 <1>   0.3100 
 11 O        4.1950     3.2320    -0.4890 O.3   1 <1>  -0.3620 
 12 C       -4.5070     1.8480    -1.0090 C.3   1 <1>  -0.2400 
 13 C        2.8890     5.3890     0.8060 C.ar  1 <1>   0.0000 
 14 C        5.2810     3.3460     0.3940 C.3   1 <1>   0.6490 
 15 C        4.2330     5.4810     1.1960 C.ar  1 <1>   0.1000 
 16 C        2.1710     6.5710     0.6180 C.ar  1 <1>  -0.1500 
 17 N        5.0030     4.3490     1.4330 N.pl3 1 <1>  -0.8690 
 18 C        6.5040     3.8120    -0.4160 C.3   1 <1>  -0.1600 
 19 C        5.5110     2.0040     1.0830 C.3   1 <1>  -0.2400 
 20 C        4.8100     6.7310     1.3860 C.ar  1 <1>  -0.1500 
 21 C        2.7570     7.8080     0.8040 C.ar  1 <1>  -0.1500 
 22 C        6.9090     2.8980    -1.5890 C.3   1 <1>  -0.2400 
 23 C        4.0840     7.8880     1.1900 C.ar  1 <1>  -0.1500 
 24 H       -1.2510     0.9590     1.5310 H     1 <1>   0.0800 
 25 H       -1.6470    -0.6150     0.8530 H     1 <1>   0.0800 
 26 H       -2.1700     0.4350    -1.3290 H     1 <1>   0.0800 
 27 H       -1.7850     2.0080    -0.6810 H     1 <1>   0.0800 
 28 H       -3.6390     1.7980     0.9480 H     1 <1>   0.0800 
 29 H       -4.0300     0.2240     0.3040 H     1 <1>   0.0800 
 30 H       -4.1340     2.8260    -1.2550 H     1 <1>   0.0800 
 31 H       -5.5140     1.9480    -0.6440 H     1 <1>   0.0800 
 32 H       -4.5250     1.2490    -1.9030 H     1 <1>   0.0800 
 33 H        1.1370     6.5170     0.3220 H     1 <1>   0.1500 
 34 H        5.8540     4.5230     1.9670 H     1 <1>   0.4000 
 35 H        7.3450     3.9030     0.2480 H     1 <1>   0.0800 
 36 H        6.2910     4.7920    -0.8070 H     1 <1>   0.0800 
 37 H        4.6900     1.7770     1.7390 H     1 <1>   0.0800 
 38 H        6.4150     2.0330     1.6610 H     1 <1>   0.0800 
 39 H        5.5950     1.2220     0.3520 H     1 <1>   0.0800 
 40 H        5.8380     6.7980     1.6900 H     1 <1>   0.1500 
 41 H        2.1850     8.7070     0.6520 H     1 <1>   0.1500 
 42 H        7.2080     1.9270    -1.2380 H     1 <1>   0.0800 
 43 H        7.7360     3.3330    -2.1230 H     1 <1>   0.0800 
 44 H        6.0890     2.7800    -2.2770 H     1 <1>   0.0800 
 45 H        4.5430     8.8500     1.3380 H     1 <1>   0.1500 
@<TRIPOS>BOND
  1   1   2  1   
  2   1   3  1   
  3   2   4  ar  
  4   2   5  ar  
  5   3   6  1   
  6   3  24  1   
  7   3  25  1   
  8   4   7  ar  
  9   5   8  ar  
 10   6   9  1   
 11   6  26  1   
 12   6  27  1   
 13   7  10  ar  
 14   8  10  ar  
 15   8  11  1   
 16   9  12  1   
 17   9  28  1   
 18   9  29  1   
 19  10  13  1   
 20  11  14  1   
 21  12  30  1   
 22  12  31  1   
 23  12  32  1   
 24  13  15  ar  
 25  13  16  ar  
 26  14  17  1   
 27  14  18  1   
 28  14  19  1   
 29  15  17  1   
 30  15  20  ar  
 31  16  21  ar  
 32  16  33  1   
 33  17  34  1   
 34  18  22  1   
 35  18  35  1   
 36  18  36  1   
 37  19  37  1   
 38  19  38  1   
 39  19  39  1   
 40  20  23  ar  
 41  20  40  1   
 42  21  23  ar  
 43  21  41  1   
 44  22  42  1   
 45  22  43  1   
 46  22  44  1   
 47  23  45  1   
@<TRIPOS>SUBSTRUCTURE
  1 ****  10 GROUP 4 **** **** 0

# MOE 2024.06 (io_trps.svl 2023.06)
