@<TRIPOS>MOLECULE
NONAME
36 37 1 0 0 
SMALL
USER_CHARGES


@<TRIPOS>ATOM
  1 S        0.5800     0.3020     0.5600 S.3   1 <1>  -0.3310 
  2 C       -1.0560     1.0210     0.4270 C.ar  1 <1>   0.1020 
  3 C        1.3080     0.5850    -1.1270 C.3   1 <1>   0.1310 
  4 C       -1.2360     2.4070     0.2540 C.ar  1 <1>   0.0000 
  5 C       -2.1350     0.1950     0.4730 C.ar  1 <1>  -0.1500 
  6 C        2.6840    -0.0570    -1.2620 C.2   1 <1>   0.6590 
  7 C       -2.5670     2.8420     0.0690 C.ar  1 <1>   0.3100 
  8 C       -0.2050     3.3730     0.2670 C.ar  1 <1>  -0.1500 
  9 C       -3.4140     0.7380     0.3060 C.ar  1 <1>   0.1660 
 10 O        2.8240    -1.0300    -1.9530 O.2   1 <1>  -0.5700 
 11 O        3.7400     0.4860    -0.6610 O.3   1 <1>  -0.4300 
 12 N       -3.6330     2.0000     0.1010 N.ar  1 <1>  -0.6200 
 13 C       -2.8000     4.2070    -0.1510 C.ar  1 <1>  -0.1500 
 14 C       -0.4630     4.7020     0.0560 C.ar  1 <1>  -0.1430 
 15 C       -4.6230    -0.1710     0.3530 C.3   1 <1>  -0.0970 
 16 C        3.7040     1.5150     0.3010 C.3   1 <1>   0.1200 
 17 C       -1.7800     5.1200    -0.1630 C.ar  1 <1>  -0.1500 
 18 C        0.6440     5.7410     0.0620 C.3   1 <1>  -0.0970 
 19 C        5.1440     1.8810     0.6440 C.3   1 <1>  -0.2400 
 20 H        1.3570     1.6420    -1.3020 H     1 <1>   0.0800 
 21 H        0.6300     0.1380    -1.8310 H     1 <1>   0.0800 
 22 H       -2.0120    -0.8610     0.6250 H     1 <1>   0.1500 
 23 H        0.8000     3.0510     0.4610 H     1 <1>   0.1500 
 24 H       -3.8180     4.5150    -0.3080 H     1 <1>   0.1500 
 25 H       -4.3440    -1.1810     0.5890 H     1 <1>   0.0800 
 26 H       -5.1160    -0.1590    -0.6020 H     1 <1>   0.0800 
 27 H       -5.3090     0.1840     1.1000 H     1 <1>   0.0800 
 28 H        3.1910     1.1510     1.1750 H     1 <1>   0.0800 
 29 H        3.1890     2.3640    -0.1110 H     1 <1>   0.0800 
 30 H       -1.9830     6.1630    -0.3340 H     1 <1>   0.1500 
 31 H        1.6000     5.2870     0.2470 H     1 <1>   0.0800 
 32 H        0.4570     6.4690     0.8320 H     1 <1>   0.0800 
 33 H        0.6800     6.2430    -0.8880 H     1 <1>   0.0800 
 34 H        5.6570     1.0250     1.0440 H     1 <1>   0.0800 
 35 H        5.1560     2.6630     1.3820 H     1 <1>   0.0800 
 36 H        5.6590     2.2280    -0.2340 H     1 <1>   0.0800 
@<TRIPOS>BOND
  1   1   2  1   
  2   1   3  1   
  3   2   4  ar  
  4   2   5  ar  
  5   3   6  1   
  6   3  20  1   
  7   3  21  1   
  8   4   7  ar  
  9   4   8  ar  
 10   5   9  ar  
 11   5  22  1   
 12   6  10  2   
 13   6  11  1   
 14   7  12  ar  
 15   7  13  ar  
 16   8  14  ar  
 17   8  23  1   
 18   9  12  ar  
 19   9  15  1   
 20  11  16  1   
 21  13  17  ar  
 22  13  24  1   
 23  14  17  ar  
 24  14  18  1   
 25  15  25  1   
 26  15  26  1   
 27  15  27  1   
 28  16  19  1   
 29  16  28  1   
 30  16  29  1   
 31  17  30  1   
 32  18  31  1   
 33  18  32  1   
 34  18  33  1   
 35  19  34  1   
 36  19  35  1   
 37  19  36  1   
@<TRIPOS>SUBSTRUCTURE
  1 ****   4 GROUP 4 **** **** 0

# MOE 2024.06 (io_trps.svl 2023.06)
