@<TRIPOS>MOLECULE
NONAME
41 43 1 0 0 
SMALL
USER_CHARGES


@<TRIPOS>ATOM
  1 S       -1.1090     1.4570     2.6570 S.3   1 <1>  -0.0800 
  2 C       -2.6060     1.1790     1.7850 C.2   1 <1>  -0.1100 
  3 C       -0.3110     1.9940     1.1910 C.2   1 <1>  -0.1100 
  4 C       -2.4700     1.4790     0.4770 C.2   1 <1>  -0.1810 
  5 C       -1.1550     1.9470     0.1440 C.2   1 <1>  -0.1500 
  6 C       -3.5690     1.3470    -0.5810 C.3   1 <1>   0.3770 
  7 C       -4.4520     2.5950    -0.5310 C.2   1 <1>  -0.1240 
  8 C       -4.3310     0.0350    -0.3290 C.2   1 <1>  -0.1240 
  9 C       -5.7090     2.5050    -0.0340 C.2   1 <1>  -0.0380 
 10 C       -3.8920     3.8080    -1.0280 C.2   1 <1>   0.4950 
 11 C       -5.6200     0.0950     0.1150 C.2   1 <1>  -0.0380 
 12 C       -3.5380    -1.1400    -0.5610 C.2   1 <1>   0.7060 
 13 N       -6.2560     1.3000     0.3280 N.pl3 1 <1>  -0.6000 
 14 C       -6.6000     3.7280     0.1190 C.3   1 <1>  -0.0220 
 15 O       -2.8290     3.8890    -1.5960 O.2   1 <1>  -0.5700 
 16 C       -4.7090     5.0850    -0.9040 C.3   1 <1>  -0.0990 
 17 C       -6.5110    -1.0990     0.4230 C.3   1 <1>  -0.1020 
 18 O       -3.7920    -2.2380    -0.1020 O.2   1 <1>  -0.5700 
 19 O       -2.4420    -1.0270    -1.3220 O.3   1 <1>  -0.4300 
 20 C       -5.7580     5.0080     0.2190 C.3   1 <1>  -0.1600 
 21 C       -1.5640    -2.1090    -1.5300 C.3   1 <1>   0.1200 
 22 C       -0.3950    -1.6080    -2.3700 C.3   1 <1>  -0.2400 
 23 H       -3.4460     0.8120     2.3480 H     1 <1>   0.1500 
 24 H        0.7180     2.2950     1.2680 H     1 <1>   0.1500 
 25 H       -0.9060     2.2310    -0.8640 H     1 <1>   0.1500 
 26 H       -3.1260     1.3070    -1.5610 H     1 <1>   0.0800 
 27 H       -7.2090     1.2820     0.7090 H     1 <1>   0.4000 
 28 H       -7.1960     3.6360     1.0110 H     1 <1>   0.0800 
 29 H       -7.2640     3.7860    -0.7250 H     1 <1>   0.0800 
 30 H       -5.1970     5.2600    -1.8460 H     1 <1>   0.0800 
 31 H       -4.0420     5.9070    -0.7180 H     1 <1>   0.0800 
 32 H       -7.5220    -0.8990     0.1170 H     1 <1>   0.0800 
 33 H       -6.5000    -1.2980     1.4790 H     1 <1>   0.0800 
 34 H       -6.1960    -1.9830    -0.0980 H     1 <1>   0.0800 
 35 H       -5.2460     5.0090     1.1670 H     1 <1>   0.0800 
 36 H       -6.3970     5.8740     0.1870 H     1 <1>   0.0800 
 37 H       -2.1010    -2.8940    -2.0360 H     1 <1>   0.0800 
 38 H       -1.2250    -2.4620    -0.5700 H     1 <1>   0.0800 
 39 H       -0.7480    -1.2480    -3.3200 H     1 <1>   0.0800 
 40 H        0.2990    -2.4110    -2.5430 H     1 <1>   0.0800 
 41 H        0.1190    -0.8170    -1.8530 H     1 <1>   0.0800 
@<TRIPOS>BOND
  1   1   2  1   
  2   1   3  1   
  3   2   4  2   
  4   2  23  1   
  5   3   5  2   
  6   3  24  1   
  7   4   5  1   
  8   4   6  1   
  9   5  25  1   
 10   6   7  1   
 11   6   8  1   
 12   6  26  1   
 13   7   9  2   
 14   7  10  1   
 15   8  11  2   
 16   8  12  1   
 17   9  13  1   
 18   9  14  1   
 19  10  15  2   
 20  10  16  1   
 21  11  13  1   
 22  11  17  1   
 23  12  18  2   
 24  12  19  1   
 25  13  27  1   
 26  14  20  1   
 27  14  28  1   
 28  14  29  1   
 29  16  20  1   
 30  16  30  1   
 31  16  31  1   
 32  17  32  1   
 33  17  33  1   
 34  17  34  1   
 35  19  21  1   
 36  20  35  1   
 37  20  36  1   
 38  21  22  1   
 39  21  37  1   
 40  21  38  1   
 41  22  39  1   
 42  22  40  1   
 43  22  41  1   
@<TRIPOS>SUBSTRUCTURE
  1 ****   6 GROUP 4 **** **** 0

# MOE 2024.06 (io_trps.svl 2023.06)
