@<TRIPOS>MOLECULE
NONAME
46 48 1 0 0 
SMALL
USER_CHARGES


@<TRIPOS>ATOM
  1 F        0.4390     1.4660     0.1410 F     1 <1>  -0.3400 
  2 C        1.4340     1.1810    -0.6920 C.3   1 <1>   1.1640 
  3 F        1.3530    -0.1240    -0.9280 F     1 <1>  -0.3400 
  4 F        1.1470     1.7860    -1.8360 F     1 <1>  -0.3400 
  5 C        2.8090     1.5970    -0.1470 C.ar  1 <1>  -0.1440 
  6 C        3.9620     0.9430    -0.5680 C.ar  1 <1>  -0.1500 
  7 C        2.9350     2.6400     0.7660 C.ar  1 <1>  -0.1500 
  8 C        5.2180     1.3000    -0.0960 C.ar  1 <1>   0.1000 
  9 C        4.1800     3.0100     1.2440 C.ar  1 <1>  -0.1500 
 10 N        6.3400     0.6050    -0.5390 N.pl3 1 <1>  -0.8380 
 11 C        5.3130     2.3450     0.8170 C.ar  1 <1>  -0.1500 
 12 C        7.5750     1.3360    -0.9620 C.3   1 <1>   0.2090 
 13 C        6.5070    -0.8210    -0.1310 C.3   1 <1>   0.2090 
 14 C        8.7370     1.1100     0.0280 C.3   1 <1>   0.3430 
 15 C        7.6860    -0.9900     0.8510 C.3   1 <1>   0.3430 
 16 N        8.9550    -0.3500     0.3500 N.4   1 <1>  -0.9590 
 17 C       10.0930    -0.5480     1.2850 C.3   1 <1>   0.4860 
 18 C       11.3580    -0.0560     0.6070 C.ar  1 <1>  -0.1430 
 19 C       11.9930    -0.7940    -0.3900 C.ar  1 <1>  -0.1430 
 20 C       11.8800     1.1710     0.9940 C.ar  1 <1>  -0.1500 
 21 C       13.1270    -0.2740    -0.9970 C.ar  1 <1>  -0.1500 
 22 C       11.5040    -2.1640    -0.8460 C.3   1 <1>  -0.0970 
 23 C       13.0130     1.6760     0.3840 C.ar  1 <1>  -0.1500 
 24 C       13.6340     0.9540    -0.6150 C.ar  1 <1>  -0.1500 
 25 H        3.8990     0.1430    -1.2840 H     1 <1>   0.1500 
 26 H        2.0640     3.1740     1.1110 H     1 <1>   0.1500 
 27 H        4.2620     3.8190     1.9500 H     1 <1>   0.1500 
 28 H        6.2700     2.6400     1.1990 H     1 <1>   0.1500 
 29 H        7.3660     2.3900    -1.0390 H     1 <1>   0.0800 
 30 H        7.8640     0.9950    -1.9410 H     1 <1>   0.0800 
 31 H        6.6720    -1.4220    -1.0080 H     1 <1>   0.0800 
 32 H        5.6040    -1.1710     0.3400 H     1 <1>   0.0800 
 33 H        8.5160     1.6480     0.9340 H     1 <1>   0.0800 
 34 H        9.6360     1.5310    -0.3930 H     1 <1>   0.0800 
 35 H        7.8470    -2.0410     1.0250 H     1 <1>   0.0800 
 36 H        7.4030    -0.5400     1.7890 H     1 <1>   0.0800 
 37 H        9.2280    -0.8000    -0.5320 H     1 <1>   0.4500 
 38 H       10.2010    -1.5920     1.5290 H     1 <1>   0.0800 
 39 H        9.9280     0.0000     2.1980 H     1 <1>   0.0800 
 40 H       11.4170     1.7500     1.7750 H     1 <1>   0.1500 
 41 H       13.6330    -0.8230    -1.7730 H     1 <1>   0.1500 
 42 H       10.6660    -2.0640    -1.5110 H     1 <1>   0.0800 
 43 H       11.2290    -2.7760    -0.0060 H     1 <1>   0.0800 
 44 H       12.2850    -2.6830    -1.3750 H     1 <1>   0.0800 
 45 H       13.4170     2.6280     0.6870 H     1 <1>   0.1500 
 46 H       14.5170     1.3440    -1.0930 H     1 <1>   0.1500 
@<TRIPOS>BOND
  1   1   2  1   
  2   2   3  1   
  3   2   4  1   
  4   2   5  1   
  5   5   6  ar  
  6   5   7  ar  
  7   6   8  ar  
  8   6  25  1   
  9   7   9  ar  
 10   7  26  1   
 11   8  10  1   
 12   8  11  ar  
 13   9  11  ar  
 14   9  27  1   
 15  10  12  1   
 16  10  13  1   
 17  11  28  1   
 18  12  14  1   
 19  12  29  1   
 20  12  30  1   
 21  13  15  1   
 22  13  31  1   
 23  13  32  1   
 24  14  16  1   
 25  14  33  1   
 26  14  34  1   
 27  15  16  1   
 28  15  35  1   
 29  15  36  1   
 30  16  17  1   
 31  16  37  1   
 32  17  18  1   
 33  17  38  1   
 34  17  39  1   
 35  18  19  ar  
 36  18  20  ar  
 37  19  21  ar  
 38  19  22  1   
 39  20  23  ar  
 40  20  40  1   
 41  21  24  ar  
 42  21  41  1   
 43  22  42  1   
 44  22  43  1   
 45  22  44  1   
 46  23  24  ar  
 47  23  45  1   
 48  24  46  1   
@<TRIPOS>SUBSTRUCTURE
  1 ****  10 GROUP 4 **** **** 0

# MOE 2024.06 (io_trps.svl 2023.06)
