@<TRIPOS>MOLECULE
NONAME
38 39 1 0 0 
SMALL
USER_CHARGES


@<TRIPOS>ATOM
  1 CL      -0.5830    -2.8620    -1.6210 Cl    1 <1>  -0.1770 
  2 C        1.0570    -2.5870    -1.0700 C.ar  1 <1>   0.1770 
  3 C        1.6200    -3.4000    -0.0850 C.ar  1 <1>   0.0830 
  4 C        1.7730    -1.5550    -1.6430 C.ar  1 <1>  -0.1500 
  5 O        0.9150    -4.4150     0.4740 O.3   1 <1>  -0.3630 
  6 C        2.9360    -3.1850     0.3190 C.ar  1 <1>  -0.1440 
  7 C        3.0720    -1.3480    -1.2230 C.ar  1 <1>   0.1770 
  8 C       -0.1470    -4.0740     1.3490 C.3   1 <1>   0.1200 
  9 C        3.6570    -2.1480    -0.2560 C.ar  1 <1>  -0.1500 
 10 C        3.5900    -4.0650     1.3750 C.3   1 <1>  -0.0960 
 11 CL       3.9990    -0.0490    -1.9300 Cl    1 <1>  -0.1770 
 12 C       -1.4370    -4.8160     0.9510 C.3   1 <1>   0.3430 
 13 N       -1.1700    -6.2010     0.4450 N.4   1 <1>  -0.9590 
 14 C       -0.9780    -6.1990    -1.0370 C.3   1 <1>   0.3430 
 15 C       -2.2230    -7.1690     0.8660 C.3   1 <1>   0.3430 
 16 C       -0.5560    -7.5920    -1.5040 C.3   1 <1>  -0.1600 
 17 C       -1.8240    -8.5820     0.4370 C.3   1 <1>  -0.1600 
 18 C       -1.5620    -8.6670    -1.0720 C.3   1 <1>  -0.1600 
 19 H        1.3370    -0.9290    -2.3990 H     1 <1>   0.1500 
 20 H       -0.3070    -3.0090     1.3340 H     1 <1>   0.0800 
 21 H        0.1530    -4.3570     2.3420 H     1 <1>   0.0800 
 22 H        4.6740    -1.9510     0.0350 H     1 <1>   0.1500 
 23 H        3.0860    -3.9470     2.3180 H     1 <1>   0.0800 
 24 H        4.6250    -3.8050     1.5090 H     1 <1>   0.0800 
 25 H        3.5370    -5.0970     1.0790 H     1 <1>   0.0800 
 26 H       -1.9540    -4.2480     0.1960 H     1 <1>   0.0800 
 27 H       -2.0800    -4.8570     1.8150 H     1 <1>   0.0800 
 28 H       -0.2690    -6.5040     0.8420 H     1 <1>   0.4500 
 29 H       -0.2170    -5.4860    -1.3120 H     1 <1>   0.0800 
 30 H       -1.8970    -5.9170    -1.5250 H     1 <1>   0.0800 
 31 H       -3.1630    -6.9070     0.4070 H     1 <1>   0.0800 
 32 H       -2.3460    -7.1410     1.9370 H     1 <1>   0.0800 
 33 H        0.4190    -7.8190    -1.1080 H     1 <1>   0.0800 
 34 H       -0.4720    -7.5920    -2.5770 H     1 <1>   0.0800 
 35 H       -2.6130    -9.2650     0.7000 H     1 <1>   0.0800 
 36 H       -0.9440    -8.8850     0.9790 H     1 <1>   0.0800 
 37 H       -1.1850    -9.6440    -1.3250 H     1 <1>   0.0800 
 38 H       -2.4880    -8.5260    -1.6060 H     1 <1>   0.0800 
@<TRIPOS>BOND
  1   1   2  1   
  2   2   3  ar  
  3   2   4  ar  
  4   3   5  1   
  5   3   6  ar  
  6   4   7  ar  
  7   4  19  1   
  8   5   8  1   
  9   6   9  ar  
 10   6  10  1   
 11   7   9  ar  
 12   7  11  1   
 13   8  12  1   
 14   8  20  1   
 15   8  21  1   
 16   9  22  1   
 17  10  23  1   
 18  10  24  1   
 19  10  25  1   
 20  12  13  1   
 21  12  26  1   
 22  12  27  1   
 23  13  14  1   
 24  13  15  1   
 25  13  28  1   
 26  14  16  1   
 27  14  29  1   
 28  14  30  1   
 29  15  17  1   
 30  15  31  1   
 31  15  32  1   
 32  16  18  1   
 33  16  33  1   
 34  16  34  1   
 35  17  18  1   
 36  17  35  1   
 37  17  36  1   
 38  18  37  1   
 39  18  38  1   
@<TRIPOS>SUBSTRUCTURE
  1 ****   5 GROUP 4 **** **** 0

# MOE 2024.06 (io_trps.svl 2023.06)
