@<TRIPOS>MOLECULE
NONAME
38 40 1 0 0 
SMALL
USER_CHARGES


@<TRIPOS>ATOM
  1 CL      -1.6770     0.2500     2.4050 Cl    1 <1>  -0.1770 
  2 C       -2.5470     0.9780     1.0770 C.ar  1 <1>   0.1770 
  3 C       -2.0150     2.0460     0.3760 C.ar  1 <1>   0.1770 
  4 C       -3.7870     0.4650     0.7410 C.ar  1 <1>  -0.1500 
  5 CL      -0.4520     2.7050     0.7940 Cl    1 <1>  -0.1770 
  6 C       -2.7210     2.6110    -0.6710 C.ar  1 <1>  -0.1500 
  7 C       -4.5090     1.0330    -0.3040 C.ar  1 <1>  -0.1440 
  8 C       -3.9660     2.1020    -1.0090 C.ar  1 <1>  -0.1500 
  9 C       -5.8810     0.4930    -0.6720 C.3   1 <1>   0.4870 
 10 N       -6.8600     0.9060     0.3680 N.4   1 <1>  -0.9590 
 11 C       -8.2160     0.2810     0.1100 C.3   1 <1>   0.3430 
 12 C       -6.9520     2.4170     0.4780 C.3   1 <1>   0.3430 
 13 C       -9.2920     0.7640     1.1050 C.3   1 <1>   0.2090 
 14 C       -8.0410     2.8860     1.4650 C.3   1 <1>   0.2090 
 15 N       -9.3390     2.2540     1.1010 N.pl3 1 <1>  -0.8380 
 16 C      -10.1630     2.9190     0.2230 C.ar  1 <1>   0.7200 
 17 N      -10.6020     2.2290    -0.8280 N.ar  1 <1>  -0.6200 
 18 N      -10.3970     4.1980     0.4850 N.ar  1 <1>  -0.6200 
 19 C      -11.3940     2.8800    -1.6480 C.ar  1 <1>   0.1600 
 20 C      -11.1910     4.8230    -0.3510 C.ar  1 <1>   0.1600 
 21 C      -11.7280     4.1980    -1.4500 C.ar  1 <1>  -0.1500 
 22 H       -4.1630    -0.3720     1.3030 H     1 <1>   0.1500 
 23 H       -2.2940     3.4380    -1.2120 H     1 <1>   0.1500 
 24 H       -4.4990     2.5510    -1.8320 H     1 <1>   0.1500 
 25 H       -5.8360    -0.5820    -0.7350 H     1 <1>   0.0800 
 26 H       -6.1800     0.8770    -1.6350 H     1 <1>   0.0800 
 27 H       -6.5180     0.5620     1.2730 H     1 <1>   0.4500 
 28 H       -8.1460    -0.7930     0.1630 H     1 <1>   0.0800 
 29 H       -8.5520     0.5420    -0.8810 H     1 <1>   0.0800 
 30 H       -7.1860     2.8320    -0.4890 H     1 <1>   0.0800 
 31 H       -6.0030     2.8220     0.7880 H     1 <1>   0.0800 
 32 H       -9.0680     0.4130     2.0970 H     1 <1>   0.0800 
 33 H      -10.2530     0.3600     0.8310 H     1 <1>   0.0800 
 34 H       -8.1150     3.9600     1.4310 H     1 <1>   0.0800 
 35 H       -7.7770     2.6140     2.4710 H     1 <1>   0.0800 
 36 H      -11.7900     2.3520    -2.5010 H     1 <1>   0.1500 
 37 H      -11.4200     5.8570    -0.1550 H     1 <1>   0.1500 
 38 H      -12.3800     4.7190    -2.1260 H     1 <1>   0.1500 
@<TRIPOS>BOND
  1   1   2  1   
  2   2   3  ar  
  3   2   4  ar  
  4   3   5  1   
  5   3   6  ar  
  6   4   7  ar  
  7   4  22  1   
  8   6   8  ar  
  9   6  23  1   
 10   7   8  ar  
 11   7   9  1   
 12   8  24  1   
 13   9  10  1   
 14   9  25  1   
 15   9  26  1   
 16  10  11  1   
 17  10  12  1   
 18  10  27  1   
 19  11  13  1   
 20  11  28  1   
 21  11  29  1   
 22  12  14  1   
 23  12  30  1   
 24  12  31  1   
 25  13  15  1   
 26  13  32  1   
 27  13  33  1   
 28  14  15  1   
 29  14  34  1   
 30  14  35  1   
 31  15  16  1   
 32  16  17  ar  
 33  16  18  ar  
 34  17  19  ar  
 35  18  20  ar  
 36  19  21  ar  
 37  19  36  1   
 38  20  21  ar  
 39  20  37  1   
 40  21  38  1   
@<TRIPOS>SUBSTRUCTURE
  1 ****  12 GROUP 4 **** **** 0

# MOE 2024.06 (io_trps.svl 2023.06)
