@<TRIPOS>MOLECULE
22962
44 45 1 0 0 
SMALL
USER_CHARGES


@<TRIPOS>ATOM
  1 S        0.1530    -0.7100     0.5770 S.3   1 <1>  -0.0800 
  2 C        0.2900     1.0390     0.4450 C.2   1 <1>   0.1040 
  3 C        1.8920    -0.9260     0.4970 C.2   1 <1>  -0.1400 
  4 N       -0.8470     1.8350     0.4470 N.am  1 <1>  -0.4940 
  5 C        1.6060     1.4050     0.3490 C.2   1 <1>  -0.0860 
  6 C        2.4930     0.2700     0.3800 C.2   1 <1>  -0.1500 
  7 C        2.3940    -2.3570     0.5700 C.3   1 <1>   0.0200 
  8 C       -2.1890     1.5540     0.5140 C.2   1 <1>   0.5690 
  9 C        2.1100     2.7440     0.2280 C.2   1 <1>   0.8060 
 10 C        3.9210    -2.4380     0.4940 C.3   1 <1>  -0.2400 
 11 O       -2.6430     0.4390     0.5830 O.2   1 <1>  -0.5700 
 12 C       -3.1490     2.7460     0.4890 C.3   1 <1>  -0.0190 
 13 O        3.2920     3.0040     0.1010 O.2   1 <1>  -0.5700 
 14 O        1.2260     3.7560     0.2550 O.3   1 <1>  -0.4300 
 15 C       -4.0910     2.7460     1.7090 C.3   1 <1>  -0.1600 
 16 C       -3.9610     2.7790    -0.8200 C.3   1 <1>  -0.1600 
 17 C        1.6070     5.1090     0.1020 C.3   1 <1>   0.1200 
 18 C       -5.0570     3.9380     1.6760 C.3   1 <1>  -0.1600 
 19 C       -4.9280     3.9710    -0.8560 C.3   1 <1>  -0.1600 
 20 C        1.6490     5.4410    -1.3890 C.3   1 <1>  -0.2400 
 21 C       -5.8560     3.9670     0.3660 C.3   1 <1>  -0.1600 
 22 H       -0.6410     2.8330     0.3790 H     1 <1>   0.3700 
 23 H        3.5580     0.4180     0.3110 H     1 <1>   0.1500 
 24 H        1.9650    -2.9190    -0.2420 H     1 <1>   0.0800 
 25 H        2.0590    -2.7980     1.4930 H     1 <1>   0.0800 
 26 H        4.2700    -2.0190    -0.4330 H     1 <1>   0.0800 
 27 H        4.2390    -3.4640     0.5490 H     1 <1>   0.0800 
 28 H        4.3640    -1.8960     1.3110 H     1 <1>   0.0800 
 29 H       -2.5650     3.6480     0.5330 H     1 <1>   0.0800 
 30 H       -3.5110     2.7760     2.6150 H     1 <1>   0.0800 
 31 H       -4.6600     1.8310     1.7170 H     1 <1>   0.0800 
 32 H       -4.5220     1.8640    -0.9090 H     1 <1>   0.0800 
 33 H       -3.2920     2.8340    -1.6620 H     1 <1>   0.0800 
 34 H        2.5630     5.2730     0.5720 H     1 <1>   0.0800 
 35 H        0.8690     5.7150     0.5980 H     1 <1>   0.0800 
 36 H       -4.5010     4.8550     1.7750 H     1 <1>   0.0800 
 37 H       -5.7370     3.8730     2.5090 H     1 <1>   0.0800 
 38 H       -5.5190     3.9270    -1.7540 H     1 <1>   0.0800 
 39 H       -4.3670     4.8890    -0.8740 H     1 <1>   0.0800 
 40 H        2.3990     4.8490    -1.8830 H     1 <1>   0.0800 
 41 H        1.9000     6.4780    -1.5200 H     1 <1>   0.0800 
 42 H        0.6900     5.2620    -1.8410 H     1 <1>   0.0800 
 43 H       -6.4850     4.8410     0.3450 H     1 <1>   0.0800 
 44 H       -6.4960     3.1010     0.3230 H     1 <1>   0.0800 
@<TRIPOS>BOND
  1   1   2  1   
  2   1   3  1   
  3   2   4  1   
  4   2   5  2   
  5   3   6  2   
  6   3   7  1   
  7   4   8  am  
  8   4  22  1   
  9   5   6  1   
 10   5   9  1   
 11   6  23  1   
 12   7  10  1   
 13   7  24  1   
 14   7  25  1   
 15   8  11  2   
 16   8  12  1   
 17   9  13  2   
 18   9  14  1   
 19  10  26  1   
 20  10  27  1   
 21  10  28  1   
 22  12  15  1   
 23  12  16  1   
 24  12  29  1   
 25  14  17  1   
 26  15  18  1   
 27  15  30  1   
 28  15  31  1   
 29  16  19  1   
 30  16  32  1   
 31  16  33  1   
 32  17  20  1   
 33  17  34  1   
 34  17  35  1   
 35  18  21  1   
 36  18  36  1   
 37  18  37  1   
 38  19  21  1   
 39  19  38  1   
 40  19  39  1   
 41  20  40  1   
 42  20  41  1   
 43  20  42  1   
 44  21  43  1   
 45  21  44  1   
@<TRIPOS>SUBSTRUCTURE
  1 ****   4 GROUP 4 **** **** 0

# MOE 2024.06 (io_trps.svl 2023.06)
