@<TRIPOS>MOLECULE
NONAME
36 37 1 0 0 
SMALL
USER_CHARGES


@<TRIPOS>ATOM
  1 CL       1.2870     0.9420     2.3770 Cl    1 <1>  -0.1770 
  2 C        0.4860     2.1560     1.3990 C.ar  1 <1>   0.1770 
  3 C        1.2120     2.9020     0.4780 C.ar  1 <1>   0.0820 
  4 C       -0.8700     2.3430     1.5740 C.ar  1 <1>  -0.1500 
  5 O        2.5500     2.6570     0.3640 O.3   1 <1>  -0.3630 
  6 C        0.5430     3.8580    -0.2810 C.ar  1 <1>  -0.1500 
  7 C       -1.5460     3.2950     0.8200 C.ar  1 <1>   0.1170 
  8 C        3.3590     3.3660    -0.5480 C.3   1 <1>   0.0400 
  9 C       -0.8260     4.0540    -0.1120 C.ar  1 <1>   0.0820 
 10 N       -2.9280     3.5410     0.9450 N.am  1 <1>  -0.5470 
 11 O       -1.5330     4.9790    -0.8290 O.3   1 <1>  -0.3630 
 12 C       -3.9220     2.9880     1.7060 C.2   1 <1>   0.5690 
 13 C       -0.9190     5.7890    -1.8080 C.3   1 <1>   0.0400 
 14 O       -3.7380     2.0860     2.4850 O.2   1 <1>  -0.5700 
 15 C       -5.3410     3.5260     1.5810 C.3   1 <1>   0.1310 
 16 S       -5.5030     4.7890     0.2240 S.3   1 <1>  -0.2860 
 17 C       -7.2260     5.2370     0.3130 C.2   1 <1>   0.4340 
 18 S       -7.7940     6.4110    -0.8120 S.3   1 <1>  -0.0800 
 19 N       -8.1070     4.7950     1.1160 N.2   1 <1>  -0.3380 
 20 C       -9.3410     6.2130    -0.0560 C.2   1 <1>   0.1980 
 21 N       -9.3340     5.3660     0.8960 N.2   1 <1>  -0.3380 
 22 C      -10.4970     7.0340    -0.5810 C.3   1 <1>  -0.0600 
 23 H       -1.3810     1.7410     2.3000 H     1 <1>   0.1500 
 24 H        1.0850     4.4420    -0.9950 H     1 <1>   0.1500 
 25 H        4.3650     2.9980    -0.4540 H     1 <1>   0.0800 
 26 H        3.3300     4.4130    -0.3010 H     1 <1>   0.0800 
 27 H        2.9990     3.1910    -1.5460 H     1 <1>   0.0800 
 28 H       -3.2360     4.2850     0.3120 H     1 <1>   0.3700 
 29 H       -1.6730     6.4250    -2.2360 H     1 <1>   0.0800 
 30 H       -0.4990     5.1590    -2.5720 H     1 <1>   0.0800 
 31 H       -0.1600     6.3900    -1.3400 H     1 <1>   0.0800 
 32 H       -5.6370     4.0020     2.4970 H     1 <1>   0.0800 
 33 H       -6.0200     2.7260     1.3540 H     1 <1>   0.0800 
 34 H      -10.6690     6.8040    -1.6160 H     1 <1>   0.0800 
 35 H      -10.2770     8.0810    -0.4830 H     1 <1>   0.0800 
 36 H      -11.3870     6.8100    -0.0220 H     1 <1>   0.0800 
@<TRIPOS>BOND
  1   1   2  1   
  2   2   3  ar  
  3   2   4  ar  
  4   3   5  1   
  5   3   6  ar  
  6   4   7  ar  
  7   4  23  1   
  8   5   8  1   
  9   6   9  ar  
 10   6  24  1   
 11   7   9  ar  
 12   7  10  1   
 13   8  25  1   
 14   8  26  1   
 15   8  27  1   
 16   9  11  1   
 17  10  12  am  
 18  10  28  1   
 19  11  13  1   
 20  12  14  2   
 21  12  15  1   
 22  13  29  1   
 23  13  30  1   
 24  13  31  1   
 25  15  16  1   
 26  15  32  1   
 27  15  33  1   
 28  16  17  1   
 29  17  18  1   
 30  17  19  2   
 31  18  20  1   
 32  19  21  1   
 33  20  21  2   
 34  20  22  1   
 35  22  34  1   
 36  22  35  1   
 37  22  36  1   
@<TRIPOS>SUBSTRUCTURE
  1 ****  10 GROUP 4 **** **** 0

# MOE 2024.06 (io_trps.svl 2023.06)
