@<TRIPOS>MOLECULE
NONAME
42 45 1 0 0 
SMALL
USER_CHARGES


@<TRIPOS>ATOM
  1 F       -1.5070     1.2660     1.0500 F     1 <1>  -0.1900 
  2 C       -0.9970     2.0970     0.1800 C.ar  1 <1>   0.1900 
  3 C       -1.7590     2.4500    -0.9280 C.ar  1 <1>  -0.1440 
  4 C        0.2730     2.5960     0.4140 C.ar  1 <1>  -0.1500 
  5 C       -1.2110     3.3460    -1.8380 C.ar  1 <1>  -0.1500 
  6 C       -3.1430     1.8660    -1.1300 C.3   1 <1>   0.4870 
  7 C        0.8130     3.4910    -0.4960 C.ar  1 <1>  -0.1500 
  8 C        0.0580     3.8470    -1.6010 C.ar  1 <1>   0.1900 
  9 N       -4.0420     2.3470    -0.0470 N.4   1 <1>  -0.9590 
 10 F        0.5610     4.6920    -2.4570 F     1 <1>  -0.1900 
 11 C       -5.3560     1.6110    -0.0560 C.3   1 <1>   0.3430 
 12 C       -4.2110     3.8360    -0.0750 C.3   1 <1>   0.3430 
 13 C       -6.4370     2.2700     0.8280 C.3   1 <1>   0.0580 
 14 C       -5.1190     4.3400     1.0670 C.3   1 <1>  -0.0800 
 15 C       -7.3980     3.0290    -0.0910 C.2   1 <1>  -0.0290 
 16 C       -5.7990     3.2090     1.8590 C.3   1 <1>  -0.1600 
 17 C       -6.2200     5.2020     0.4430 C.3   1 <1>   0.1400 
 18 N       -7.1640     4.3750    -0.3730 N.am  1 <1>  -0.4690 
 19 C       -8.4580     2.3850    -0.6560 C.2   1 <1>  -0.1500 
 20 C       -7.9700     5.0470    -1.2840 C.2   1 <1>   0.6160 
 21 C       -9.3220     3.0570    -1.5520 C.2   1 <1>  -0.1500 
 22 O       -7.7230     6.2070    -1.5850 O.2   1 <1>  -0.5700 
 23 C       -9.0700     4.3560    -1.8570 C.2   1 <1>  -0.1360 
 24 H        0.8270     2.2920     1.2860 H     1 <1>   0.1500 
 25 H       -1.7390     3.6620    -2.7220 H     1 <1>   0.1500 
 26 H       -3.0770     0.7900    -1.1020 H     1 <1>   0.0800 
 27 H       -3.5310     2.1590    -2.0920 H     1 <1>   0.0800 
 28 H        1.7970     3.9060    -0.3570 H     1 <1>   0.1500 
 29 H       -3.5640     2.1220     0.8370 H     1 <1>   0.4500 
 30 H       -5.1950     0.6030     0.2890 H     1 <1>   0.0800 
 31 H       -5.7350     1.5560    -1.0640 H     1 <1>   0.0800 
 32 H       -4.6490     4.1210    -1.0200 H     1 <1>   0.0800 
 33 H       -3.2490     4.3190    -0.0010 H     1 <1>   0.0800 
 34 H       -6.9850     1.4940     1.3350 H     1 <1>   0.0800 
 35 H       -4.5410     4.9580     1.7320 H     1 <1>   0.0800 
 36 H       -5.0860     2.6800     2.4690 H     1 <1>   0.0800 
 37 H       -6.5560     3.6100     2.5130 H     1 <1>   0.0800 
 38 H       -5.7760     5.9690    -0.1700 H     1 <1>   0.0800 
 39 H       -6.7850     5.6920     1.2180 H     1 <1>   0.0800 
 40 H       -8.6760     1.3510    -0.4490 H     1 <1>   0.1500 
 41 H      -10.1580     2.5240    -1.9740 H     1 <1>   0.1500 
 42 H       -9.6840     4.9180    -2.5350 H     1 <1>   0.1500 
@<TRIPOS>BOND
  1   1   2  1   
  2   2   3  ar  
  3   2   4  ar  
  4   3   5  ar  
  5   3   6  1   
  6   4   7  ar  
  7   4  24  1   
  8   5   8  ar  
  9   5  25  1   
 10   6   9  1   
 11   6  26  1   
 12   6  27  1   
 13   7   8  ar  
 14   7  28  1   
 15   8  10  1   
 16   9  11  1   
 17   9  12  1   
 18   9  29  1   
 19  11  13  1   
 20  11  30  1   
 21  11  31  1   
 22  12  14  1   
 23  12  32  1   
 24  12  33  1   
 25  13  15  1   
 26  13  16  1   
 27  13  34  1   
 28  14  16  1   
 29  14  17  1   
 30  14  35  1   
 31  15  18  1   
 32  15  19  2   
 33  16  36  1   
 34  16  37  1   
 35  17  18  1   
 36  17  38  1   
 37  17  39  1   
 38  18  20  am  
 39  19  21  1   
 40  19  40  1   
 41  20  22  2   
 42  20  23  1   
 43  21  23  2   
 44  21  41  1   
 45  23  42  1   
@<TRIPOS>SUBSTRUCTURE
  1 ****  12 GROUP 4 **** **** 0

# MOE 2024.06 (io_trps.svl 2023.06)
