@<TRIPOS>MOLECULE
NONAME
47 49 1 0 0 
SMALL
USER_CHARGES


@<TRIPOS>ATOM
  1 S        0.6360     0.1870     0.7260 S.o2  1 <1>   1.4470 
  2 O        1.7190     0.5220     1.6280 O.2   1 <1>  -0.6500 
  3 O        0.8420    -0.8500    -0.2570 O.2   1 <1>  -0.6500 
  4 N        0.3010     1.6490    -0.1390 N.am  1 <1>  -0.6930 
  5 C       -0.8920    -0.0870     1.6630 C.ar  1 <1>  -0.0090 
  6 C       -0.6910     1.6800    -1.1140 C.ar  1 <1>   0.1990 
  7 C        1.4000     2.6580    -0.2410 C.3   1 <1>   0.2570 
  8 C       -0.9830     0.2400     3.0120 C.ar  1 <1>  -0.1500 
  9 C       -2.0250    -0.6020     1.0420 C.ar  1 <1>  -0.1500 
 10 C       -1.9290     2.2890    -0.8840 C.ar  1 <1>  -0.1430 
 11 C       -0.4480     1.0890    -2.3490 C.ar  1 <1>  -0.1500 
 12 C        2.6310     2.1900    -1.0260 C.2   1 <1>   0.5690 
 13 C       -2.1610     0.0580     3.7160 C.ar  1 <1>  -0.1500 
 14 C       -3.2060    -0.7860     1.7380 C.ar  1 <1>  -0.1500 
 15 C       -2.8890     2.2810    -1.8840 C.ar  1 <1>  -0.1500 
 16 C       -2.2740     2.9750     0.4360 C.3   1 <1>  -0.0160 
 17 C       -1.4110     1.0870    -3.3390 C.ar  1 <1>  -0.1500 
 18 O        2.8200     2.6430    -2.1310 O.2   1 <1>  -0.5700 
 19 N        3.4840     1.2970    -0.4530 N.am  1 <1>  -0.5790 
 20 C       -3.2750    -0.4550     3.0790 C.ar  1 <1>  -0.1500 
 21 C       -2.6360     1.6830    -3.1060 C.ar  1 <1>  -0.1500 
 22 C       -2.0490     4.4860     0.3390 C.3   1 <1>  -0.2400 
 23 C        4.6500     0.6830    -1.0980 C.3   1 <1>   0.0490 
 24 C        4.7990    -0.7970    -0.9840 C.3   1 <1>  -0.2000 
 25 C        5.7140     0.1130    -0.2210 C.3   1 <1>  -0.2000 
 26 H        1.7090     2.9450     0.7470 H     1 <1>   0.0800 
 27 H        1.0170     3.5370    -0.7280 H     1 <1>   0.0800 
 28 H       -0.1230     0.6420     3.5200 H     1 <1>   0.1500 
 29 H       -1.9820    -0.8590    -0.0050 H     1 <1>   0.1500 
 30 H        0.5050     0.6250    -2.5330 H     1 <1>   0.1500 
 31 H       -2.2110     0.3150     4.7610 H     1 <1>   0.1500 
 32 H       -4.0700    -1.1860     1.2360 H     1 <1>   0.1500 
 33 H       -3.8450     2.7460    -1.7170 H     1 <1>   0.1500 
 34 H       -1.6840     2.5810     1.2430 H     1 <1>   0.0800 
 35 H       -3.3040     2.7820     0.6790 H     1 <1>   0.0800 
 36 H       -1.2060     0.6230    -4.2880 H     1 <1>   0.1500 
 37 H        3.2360     0.8940     0.4600 H     1 <1>   0.3700 
 38 H       -4.1930    -0.5990     3.6240 H     1 <1>   0.1500 
 39 H       -3.3900     1.6840    -3.8740 H     1 <1>   0.1500 
 40 H       -1.0190     4.6950     0.1130 H     1 <1>   0.0800 
 41 H       -2.3030     4.9580     1.2710 H     1 <1>   0.0800 
 42 H       -2.6630     4.9040    -0.4390 H     1 <1>   0.0800 
 43 H        4.9300     1.1600    -2.0240 H     1 <1>   0.1000 
 44 H        5.1970    -1.3380    -1.8230 H     1 <1>   0.1000 
 45 H        4.0350    -1.3470    -0.4610 H     1 <1>   0.1000 
 46 H        5.6040     0.1850     0.8470 H     1 <1>   0.1000 
 47 H        6.7390     0.1850    -0.5390 H     1 <1>   0.1000 
@<TRIPOS>BOND
  1   1   2  2   
  2   1   3  2   
  3   1   4  am  
  4   1   5  1   
  5   4   6  1   
  6   4   7  1   
  7   5   8  ar  
  8   5   9  ar  
  9   6  10  ar  
 10   6  11  ar  
 11   7  12  1   
 12   7  26  1   
 13   7  27  1   
 14   8  13  ar  
 15   8  28  1   
 16   9  14  ar  
 17   9  29  1   
 18  10  15  ar  
 19  10  16  1   
 20  11  17  ar  
 21  11  30  1   
 22  12  18  2   
 23  12  19  am  
 24  13  20  ar  
 25  13  31  1   
 26  14  20  ar  
 27  14  32  1   
 28  15  21  ar  
 29  15  33  1   
 30  16  22  1   
 31  16  34  1   
 32  16  35  1   
 33  17  21  ar  
 34  17  36  1   
 35  19  23  1   
 36  19  37  1   
 37  20  38  1   
 38  21  39  1   
 39  22  40  1   
 40  22  41  1   
 41  22  42  1   
 42  23  24  1   
 43  23  25  1   
 44  23  43  1   
 45  24  25  1   
 46  24  44  1   
 47  24  45  1   
 48  25  46  1   
 49  25  47  1   
@<TRIPOS>SUBSTRUCTURE
  1 ****   4 GROUP 4 **** **** 0

# MOE 2024.06 (io_trps.svl 2023.06)
