@<TRIPOS>MOLECULE
NONAME
35 35 1 0 0 
SMALL
USER_CHARGES


@<TRIPOS>ATOM
  1 CL       3.6170     3.1720    -2.4000 Cl    1 <1>  -0.1770 
  2 C        2.0530     2.9590    -1.6460 C.ar  1 <1>   0.1770 
  3 C        1.9470     2.4300    -0.3610 C.ar  1 <1>   0.0830 
  4 C        0.9270     3.3190    -2.3620 C.ar  1 <1>  -0.1500 
  5 O        3.0340     2.0670     0.3580 O.3   1 <1>  -0.3630 
  6 C        0.6930     2.2420     0.2030 C.ar  1 <1>  -0.1500 
  7 C       -0.3130     3.1340    -1.7780 C.ar  1 <1>   0.1770 
  8 C        3.8610     3.1070     0.8760 C.3   1 <1>   0.2610 
  9 C       -0.4430     2.5990    -0.5080 C.ar  1 <1>  -0.1500 
 10 CL      -1.7470     3.5830    -2.6650 Cl    1 <1>  -0.1770 
 11 C        5.3430     2.8260     0.5790 C.2   1 <1>   0.5690 
 12 C        3.5700     3.2100     2.3770 C.3   1 <1>  -0.2400 
 13 O        6.1530     3.6860     0.8380 O.2   1 <1>  -0.5700 
 14 N        5.6880     1.6270     0.0300 N.am  1 <1>  -0.7300 
 15 C        6.9940     1.1460    -0.4210 C.3   1 <1>   0.3000 
 16 C        7.5220     2.0610    -1.5260 C.3   1 <1>  -0.2400 
 17 C        7.9580     1.0840     0.7630 C.3   1 <1>  -0.2400 
 18 C        6.7700    -0.2580    -0.9790 C.3   1 <1>  -0.2400 
 19 H        1.0110     3.7300    -3.3510 H     1 <1>   0.1500 
 20 H        0.6120     1.8200     1.1890 H     1 <1>   0.1500 
 21 H        3.5990     4.0330     0.3940 H     1 <1>   0.0800 
 22 H       -1.4230     2.4630    -0.0840 H     1 <1>   0.1500 
 23 H        3.8230     2.2870     2.8670 H     1 <1>   0.0800 
 24 H        2.5330     3.4390     2.5430 H     1 <1>   0.0800 
 25 H        4.1660     3.9960     2.8060 H     1 <1>   0.0800 
 26 H        4.9170     0.9950    -0.1910 H     1 <1>   0.3700 
 27 H        7.7120     3.0470    -1.1420 H     1 <1>   0.0800 
 28 H        6.8100     2.1310    -2.3290 H     1 <1>   0.0800 
 29 H        8.4440     1.6740    -1.9190 H     1 <1>   0.0800 
 30 H        8.1480     2.0690     1.1480 H     1 <1>   0.0800 
 31 H        8.8970     0.6620     0.4550 H     1 <1>   0.0800 
 32 H        7.5490     0.4750     1.5480 H     1 <1>   0.0800 
 33 H        6.0830    -0.2310    -1.8060 H     1 <1>   0.0800 
 34 H        6.3820    -0.9100    -0.2170 H     1 <1>   0.0800 
 35 H        7.7000    -0.6680    -1.3290 H     1 <1>   0.0800 
@<TRIPOS>BOND
  1   1   2  1   
  2   2   3  ar  
  3   2   4  ar  
  4   3   5  1   
  5   3   6  ar  
  6   4   7  ar  
  7   4  19  1   
  8   5   8  1   
  9   6   9  ar  
 10   6  20  1   
 11   7   9  ar  
 12   7  10  1   
 13   8  11  1   
 14   8  12  1   
 15   8  21  1   
 16   9  22  1   
 17  11  13  2   
 18  11  14  am  
 19  12  23  1   
 20  12  24  1   
 21  12  25  1   
 22  14  15  1   
 23  14  26  1   
 24  15  16  1   
 25  15  17  1   
 26  15  18  1   
 27  16  27  1   
 28  16  28  1   
 29  16  29  1   
 30  17  30  1   
 31  17  31  1   
 32  17  32  1   
 33  18  33  1   
 34  18  34  1   
 35  18  35  1   
@<TRIPOS>SUBSTRUCTURE
  1 ****   5 GROUP 4 **** **** 0

# MOE 2024.06 (io_trps.svl 2023.06)
