@<TRIPOS>MOLECULE
NONAME
51 54 1 0 0 
SMALL
USER_CHARGES


@<TRIPOS>ATOM
  1 O        0.6580    -0.4400    -0.0480 O.2   1 <1>  -0.5700 
  2 C        0.9250    -1.6150    -0.2000 C.2   1 <1>   0.6340 
  3 O        2.1960    -1.9500    -0.4590 O.3   1 <1>  -0.4300 
  4 C       -0.0540    -2.6790    -0.1130 C.ar  1 <1>   0.0860 
  5 C        3.2150    -0.9750    -0.5630 C.3   1 <1>   0.0400 
  6 C       -1.4130    -2.4020     0.0560 C.ar  1 <1>  -0.1500 
  7 C        0.3090    -4.0270    -0.1890 C.ar  1 <1>  -0.1500 
  8 C       -2.3650    -3.4040     0.1470 C.ar  1 <1>   0.1170 
  9 C       -0.6290    -5.0380    -0.0970 C.ar  1 <1>  -0.1500 
 10 N       -3.7320    -3.1590     0.3400 N.am  1 <1>  -0.5470 
 11 C       -1.9750    -4.7500     0.0750 C.ar  1 <1>   0.1000 
 12 C       -4.5450    -2.0910     0.0640 C.2   1 <1>   0.5440 
 13 N       -2.9330    -5.7700     0.1580 N.pl3 1 <1>  -0.8380 
 14 O       -4.0880    -1.1050    -0.4810 O.2   1 <1>  -0.5700 
 15 C       -5.9560    -2.1700     0.3880 C.ar  1 <1>   0.0860 
 16 C       -2.7360    -6.9180     1.0990 C.3   1 <1>   0.2090 
 17 C       -3.6600    -6.1380    -1.0980 C.3   1 <1>   0.2090 
 18 C       -6.9040    -1.4830    -0.3720 C.ar  1 <1>  -0.1500 
 19 C       -6.4250    -2.9400     1.4600 C.ar  1 <1>  -0.1500 
 20 C       -2.3150    -8.2090     0.3700 C.3   1 <1>   0.1200 
 21 C       -3.1410    -7.4600    -1.6880 C.3   1 <1>   0.1200 
 22 C       -8.2540    -1.5720    -0.0920 C.ar  1 <1>   0.0830 
 23 C       -7.7740    -3.0300     1.7540 C.ar  1 <1>  -0.1500 
 24 O       -3.1500    -8.4740    -0.7230 O.3   1 <1>  -0.5600 
 25 O       -9.1340    -0.9050    -0.8800 O.3   1 <1>  -0.3630 
 26 C       -8.6950    -2.3440     0.9840 C.ar  1 <1>   0.0830 
 27 C      -10.4970    -1.2730    -0.7760 C.3   1 <1>   0.1200 
 28 O      -10.0090    -2.4310     1.2940 O.3   1 <1>  -0.3630 
 29 C      -10.8800    -1.4910     0.6940 C.3   1 <1>   0.1200 
 30 H        4.1430    -1.4730    -0.7760 H     1 <1>   0.0800 
 31 H        3.2820    -0.4420     0.3690 H     1 <1>   0.0800 
 32 H        2.9650    -0.2960    -1.3610 H     1 <1>   0.0800 
 33 H       -1.7230    -1.3740     0.1220 H     1 <1>   0.1500 
 34 H        1.3440    -4.2890    -0.3220 H     1 <1>   0.1500 
 35 H       -0.3130    -6.0610    -0.1670 H     1 <1>   0.1500 
 36 H       -4.2040    -4.0390     0.5630 H     1 <1>   0.3700 
 37 H       -3.6600    -7.1010     1.6200 H     1 <1>   0.0800 
 38 H       -1.9930    -6.6610     1.8340 H     1 <1>   0.0800 
 39 H       -3.5460    -5.3530    -1.8270 H     1 <1>   0.0800 
 40 H       -4.7090    -6.2390    -0.8820 H     1 <1>   0.0800 
 41 H       -6.5800    -0.8740    -1.1980 H     1 <1>   0.1500 
 42 H       -5.7240    -3.4700     2.0810 H     1 <1>   0.1500 
 43 H       -2.3790    -9.0470     1.0400 H     1 <1>   0.0800 
 44 H       -1.3030    -8.1330     0.0150 H     1 <1>   0.0800 
 45 H       -2.1360    -7.3390    -2.0550 H     1 <1>   0.0800 
 46 H       -3.7700    -7.7740    -2.5010 H     1 <1>   0.0800 
 47 H       -8.1210    -3.6230     2.5810 H     1 <1>   0.1500 
 48 H      -10.6430    -2.1790    -1.3380 H     1 <1>   0.0800 
 49 H      -11.0870    -0.4880    -1.2130 H     1 <1>   0.0800 
 50 H      -11.8830    -1.8680     0.7770 H     1 <1>   0.0800 
 51 H      -10.8030    -0.5680     1.2410 H     1 <1>   0.0800 
@<TRIPOS>BOND
  1   1   2  2   
  2   2   3  1   
  3   2   4  1   
  4   3   5  1   
  5   4   6  ar  
  6   4   7  ar  
  7   5  30  1   
  8   5  31  1   
  9   5  32  1   
 10   6   8  ar  
 11   6  33  1   
 12   7   9  ar  
 13   7  34  1   
 14   8  10  1   
 15   8  11  ar  
 16   9  11  ar  
 17   9  35  1   
 18  10  12  am  
 19  10  36  1   
 20  11  13  1   
 21  12  14  2   
 22  12  15  1   
 23  13  16  1   
 24  13  17  1   
 25  15  18  ar  
 26  15  19  ar  
 27  16  20  1   
 28  16  37  1   
 29  16  38  1   
 30  17  21  1   
 31  17  39  1   
 32  17  40  1   
 33  18  22  ar  
 34  18  41  1   
 35  19  23  ar  
 36  19  42  1   
 37  20  24  1   
 38  20  43  1   
 39  20  44  1   
 40  21  24  1   
 41  21  45  1   
 42  21  46  1   
 43  22  25  1   
 44  22  26  ar  
 45  23  26  ar  
 46  23  47  1   
 47  25  27  1   
 48  26  28  1   
 49  27  29  1   
 50  27  48  1   
 51  27  49  1   
 52  28  29  1   
 53  29  50  1   
 54  29  51  1   
@<TRIPOS>SUBSTRUCTURE
  1 ****  10 GROUP 4 **** **** 0

# MOE 2024.06 (io_trps.svl 2023.06)
