@<TRIPOS>MOLECULE
NONAME
47 49 1 0 0 
SMALL
USER_CHARGES


@<TRIPOS>ATOM
  1 O        0.5560     0.2220     1.2110 O.3   1 <1>  -0.3630 
  2 C        1.5270     0.9930     0.6390 C.ar  1 <1>   0.0830 
  3 C       -0.7780     0.6430     1.3830 C.3   1 <1>   0.0400 
  4 C        1.4060     2.3180     0.1840 C.ar  1 <1>   0.0830 
  5 C        2.7450     0.3460     0.5190 C.ar  1 <1>  -0.1500 
  6 O        0.2170     2.9800     0.2930 O.3   1 <1>  -0.3630 
  7 C        2.5220     2.9390    -0.3740 C.ar  1 <1>  -0.1500 
  8 C        3.8490     0.9690    -0.0370 C.ar  1 <1>  -0.1430 
  9 C        0.0300     4.3040    -0.1590 C.3   1 <1>   0.0400 
 10 C        3.7350     2.2770    -0.4860 C.ar  1 <1>  -0.1430 
 11 C        5.1490     0.1910    -0.1460 C.3   1 <1>   0.4860 
 12 C        4.9290     3.0060    -1.0880 C.3   1 <1>  -0.0160 
 13 N        6.3020     1.1320    -0.2200 N.4   1 <1>  -0.9590 
 14 C        6.1100     2.0730    -1.3660 C.3   1 <1>   0.3430 
 15 C        7.5970     0.3930    -0.2630 C.3   1 <1>   0.3430 
 16 C        8.8030     1.3150    -0.0190 C.3   1 <1>  -0.0800 
 17 C       10.0970     0.4790    -0.0960 C.3   1 <1>  -0.0220 
 18 C        8.7280     2.0670     1.3300 C.3   1 <1>  -0.1600 
 19 C       11.2990     1.2810     0.3630 C.2   1 <1>  -0.2880 
 20 C        9.9020     3.0450     1.4980 C.3   1 <1>  -0.0220 
 21 C       11.2110     2.4180     1.0570 C.2   1 <1>  -0.2880 
 22 H       -1.3310    -0.1670     1.8220 H     1 <1>   0.0800 
 23 H       -1.1930     0.8900     0.4220 H     1 <1>   0.0800 
 24 H       -0.7940     1.4940     2.0400 H     1 <1>   0.0800 
 25 H        2.8040    -0.6680     0.8750 H     1 <1>   0.1500 
 26 H        2.4630     3.9500    -0.7270 H     1 <1>   0.1500 
 27 H       -0.9910     4.5810     0.0370 H     1 <1>   0.0800 
 28 H        0.2200     4.3440    -1.2170 H     1 <1>   0.0800 
 29 H        0.6930     4.9560     0.3820 H     1 <1>   0.0800 
 30 H        5.1180    -0.4270    -1.0280 H     1 <1>   0.0800 
 31 H        5.2510    -0.4490     0.7150 H     1 <1>   0.0800 
 32 H        5.2430     3.7800    -0.4110 H     1 <1>   0.0800 
 33 H        4.6380     3.4820    -2.0090 H     1 <1>   0.0800 
 34 H        6.2650     1.6840     0.6460 H     1 <1>   0.4500 
 35 H        6.9960     2.6660    -1.5240 H     1 <1>   0.0800 
 36 H        5.9150     1.5100    -2.2650 H     1 <1>   0.0800 
 37 H        7.7070    -0.0950    -1.2180 H     1 <1>   0.0800 
 38 H        7.5980    -0.3700     0.5000 H     1 <1>   0.0800 
 39 H        8.8580     2.0420    -0.8100 H     1 <1>   0.0800 
 40 H       10.2580     0.1590    -1.1110 H     1 <1>   0.0800 
 41 H       10.0240    -0.3980     0.5250 H     1 <1>   0.0800 
 42 H        8.7630     1.3520     2.1350 H     1 <1>   0.0800 
 43 H        7.8150     2.6270     1.4210 H     1 <1>   0.0800 
 44 H       12.2430     0.8440     0.0780 H     1 <1>   0.1500 
 45 H        9.9750     3.3380     2.5310 H     1 <1>   0.0800 
 46 H        9.7330     3.9330     0.9130 H     1 <1>   0.0800 
 47 H       12.0770     2.9840     1.3620 H     1 <1>   0.1500 
@<TRIPOS>BOND
  1   1   2  1   
  2   1   3  1   
  3   2   4  ar  
  4   2   5  ar  
  5   3  22  1   
  6   3  23  1   
  7   3  24  1   
  8   4   6  1   
  9   4   7  ar  
 10   5   8  ar  
 11   5  25  1   
 12   6   9  1   
 13   7  10  ar  
 14   7  26  1   
 15   8  10  ar  
 16   8  11  1   
 17   9  27  1   
 18   9  28  1   
 19   9  29  1   
 20  10  12  1   
 21  11  13  1   
 22  11  30  1   
 23  11  31  1   
 24  12  14  1   
 25  12  32  1   
 26  12  33  1   
 27  13  14  1   
 28  13  15  1   
 29  13  34  1   
 30  14  35  1   
 31  14  36  1   
 32  15  16  1   
 33  15  37  1   
 34  15  38  1   
 35  16  17  1   
 36  16  18  1   
 37  16  39  1   
 38  17  19  1   
 39  17  40  1   
 40  17  41  1   
 41  18  20  1   
 42  18  42  1   
 43  18  43  1   
 44  19  21  2   
 45  19  44  1   
 46  20  21  1   
 47  20  45  1   
 48  20  46  1   
 49  21  47  1   
@<TRIPOS>SUBSTRUCTURE
  1 ****   8 GROUP 4 **** **** 0

# MOE 2024.06 (io_trps.svl 2023.06)
