@<TRIPOS>MOLECULE
NONAME
57 58 1 0 0 
SMALL
USER_CHARGES


@<TRIPOS>ATOM
  1 O       -6.0590     0.9980     0.5430 O.3   1 <1>  -0.3630 
  2 C       -7.4160     1.0020     0.6080 C.ar  1 <1>   0.0830 
  3 C       -5.3160    -0.1850     0.3320 C.3   1 <1>   0.1200 
  4 C       -8.1130     2.2030     0.3930 C.ar  1 <1>  -0.1440 
  5 C       -8.1040    -0.1780     0.8880 C.ar  1 <1>  -0.1500 
  6 C       -3.8830     0.2030    -0.0470 C.3   1 <1>   0.2000 
  7 C       -9.5060     2.1490     0.4640 C.ar  1 <1>  -0.1500 
  8 C       -7.3870     3.5480     0.0870 C.3   1 <1>   0.1440 
  9 C       -9.4810    -0.1940     0.9500 C.ar  1 <1>  -0.1500 
 10 O       -3.1610    -0.9610    -0.3000 O.3   1 <1>  -0.6800 
 11 C       -3.1810     1.0470     1.0490 C.3   1 <1>   0.1100 
 12 C      -10.1820     0.9740     0.7350 C.ar  1 <1>  -0.1500 
 13 C       -6.5480     3.4400    -1.1990 C.3   1 <1>  -0.2400 
 14 C       -6.4910     3.9560     1.2690 C.3   1 <1>  -0.2400 
 15 C       -8.3570     4.7250    -0.1380 C.3   1 <1>  -0.2400 
 16 N       -1.9590     1.7840     0.6300 N.3   1 <1>  -0.8100 
 17 C       -0.8640     0.9250     0.1170 C.3   1 <1>   0.1100 
 18 C       -2.2450     2.8950    -0.3100 C.3   1 <1>   0.1100 
 19 C        0.4290     1.7330    -0.1540 C.3   1 <1>   0.3430 
 20 C       -0.9680     3.6900    -0.6820 C.3   1 <1>   0.3430 
 21 N        0.2210     3.2000     0.0960 N.4   1 <1>  -0.9590 
 22 C        1.4720     3.9950    -0.1020 C.3   1 <1>   0.3430 
 23 C        1.3610     5.4210     0.4550 C.3   1 <1>   0.1200 
 24 O        2.5620     6.0630     0.2100 O.3   1 <1>  -0.6800 
 25 H       -5.3340    -0.7570     1.2420 H     1 <1>   0.0800 
 26 H       -5.7750    -0.7300    -0.4750 H     1 <1>   0.0800 
 27 H       -7.5860    -1.0990     1.0690 H     1 <1>   0.1500 
 28 H       -3.9280     0.7540    -0.9690 H     1 <1>   0.0800 
 29 H      -10.1160     3.0170     0.3110 H     1 <1>   0.1500 
 30 H      -10.0060    -1.1080     1.1650 H     1 <1>   0.1500 
 31 H       -3.1670    -1.5490     0.4800 H     1 <1>   0.4000 
 32 H       -2.9400     0.4070     1.8800 H     1 <1>   0.0800 
 33 H       -3.8810     1.7740     1.4220 H     1 <1>   0.0800 
 34 H      -11.2580     0.9710     0.7810 H     1 <1>   0.1500 
 35 H       -7.1670     3.0930    -2.0070 H     1 <1>   0.0800 
 36 H       -5.7300     2.7580    -1.0870 H     1 <1>   0.0800 
 37 H       -6.1400     4.3970    -1.4690 H     1 <1>   0.0800 
 38 H       -5.7000     3.2530     1.4280 H     1 <1>   0.0800 
 39 H       -7.0780     4.0060     2.1690 H     1 <1>   0.0800 
 40 H       -6.0470     4.9200     1.0970 H     1 <1>   0.0800 
 41 H       -9.0050     4.5280    -0.9740 H     1 <1>   0.0800 
 42 H       -7.8180     5.6310    -0.3480 H     1 <1>   0.0800 
 43 H       -8.9550     4.8980     0.7390 H     1 <1>   0.0800 
 44 H       -1.1660     0.4530    -0.8020 H     1 <1>   0.0800 
 45 H       -0.6530     0.1460     0.8280 H     1 <1>   0.0800 
 46 H       -2.9570     3.5660     0.1400 H     1 <1>   0.0800 
 47 H       -2.6880     2.5150    -1.2140 H     1 <1>   0.0800 
 48 H        0.7380     1.5700    -1.1730 H     1 <1>   0.0800 
 49 H        1.2100     1.3600     0.4880 H     1 <1>   0.0800 
 50 H       -1.1410     4.7340    -0.4820 H     1 <1>   0.0800 
 51 H       -0.7830     3.5850    -1.7380 H     1 <1>   0.0800 
 52 H       -0.0890     3.2310     1.0800 H     1 <1>   0.4500 
 53 H        1.7040     4.0480    -1.1530 H     1 <1>   0.0800 
 54 H        2.2890     3.5040     0.4000 H     1 <1>   0.0800 
 55 H        1.2000     5.4070     1.5190 H     1 <1>   0.0800 
 56 H        0.5840     5.9790    -0.0380 H     1 <1>   0.0800 
 57 H        2.5700     6.9750     0.5730 H     1 <1>   0.4000 
@<TRIPOS>BOND
  1   1   2  1   
  2   1   3  1   
  3   2   4  ar  
  4   2   5  ar  
  5   3   6  1   
  6   3  25  1   
  7   3  26  1   
  8   4   7  ar  
  9   4   8  1   
 10   5   9  ar  
 11   5  27  1   
 12   6  10  1   
 13   6  11  1   
 14   6  28  1   
 15   7  12  ar  
 16   7  29  1   
 17   8  13  1   
 18   8  14  1   
 19   8  15  1   
 20   9  12  ar  
 21   9  30  1   
 22  10  31  1   
 23  11  16  1   
 24  11  32  1   
 25  11  33  1   
 26  12  34  1   
 27  13  35  1   
 28  13  36  1   
 29  13  37  1   
 30  14  38  1   
 31  14  39  1   
 32  14  40  1   
 33  15  41  1   
 34  15  42  1   
 35  15  43  1   
 36  16  17  1   
 37  16  18  1   
 38  17  19  1   
 39  17  44  1   
 40  17  45  1   
 41  18  20  1   
 42  18  46  1   
 43  18  47  1   
 44  19  21  1   
 45  19  48  1   
 46  19  49  1   
 47  20  21  1   
 48  20  50  1   
 49  20  51  1   
 50  21  22  1   
 51  21  52  1   
 52  22  23  1   
 53  22  53  1   
 54  22  54  1   
 55  23  24  1   
 56  23  55  1   
 57  23  56  1   
 58  24  57  1   
@<TRIPOS>SUBSTRUCTURE
  1 ****  11 GROUP 4 **** **** 0

# MOE 2024.06 (io_trps.svl 2023.06)
