@<TRIPOS>MOLECULE
NONAME
46 49 1 0 0 
SMALL
USER_CHARGES


@<TRIPOS>ATOM
  1 O        0.6990    -1.5480    -2.0090 O.3   1 <1>  -0.3630 
  2 C       -0.0340    -2.2140    -1.1130 C.ar  1 <1>   0.0830 
  3 C        1.9370    -1.2320    -1.3710 C.3   1 <1>   0.4000 
  4 C        0.6460    -2.3250     0.0630 C.ar  1 <1>   0.0830 
  5 C       -1.2990    -2.7420    -1.2710 C.ar  1 <1>  -0.1500 
  6 O        1.8410    -1.7360    -0.0390 O.3   1 <1>  -0.3630 
  7 C        0.0990    -2.9740     1.1510 C.ar  1 <1>  -0.1500 
  8 C       -1.8790    -3.3920    -0.1850 C.ar  1 <1>  -0.1440 
  9 C       -1.1750    -3.5110     1.0160 C.ar  1 <1>  -0.1500 
 10 C       -3.2770    -3.9630    -0.3100 C.3   1 <1>   0.4870 
 11 N       -4.2240    -3.0460     0.3790 N.4   1 <1>  -0.9590 
 12 C       -5.6080    -3.6350     0.4790 C.3   1 <1>   0.3430 
 13 C       -4.2630    -1.6820    -0.2720 C.3   1 <1>   0.3430 
 14 C       -6.5960    -2.7090     1.2190 C.3   1 <1>   0.2090 
 15 C       -5.2260    -0.7080     0.4390 C.3   1 <1>   0.2090 
 16 N       -6.5660    -1.3230     0.6710 N.pl3 1 <1>  -0.8380 
 17 C       -7.6170    -0.9350    -0.1590 C.ar  1 <1>   0.1000 
 18 C       -8.6550    -0.1390     0.3270 C.ar  1 <1>  -0.1430 
 19 C       -7.6470    -1.3410    -1.4900 C.ar  1 <1>  -0.1500 
 20 C       -9.6920     0.2310    -0.5130 C.ar  1 <1>  -0.1500 
 21 C       -8.6620     0.3320     1.7750 C.3   1 <1>  -0.0970 
 22 C       -8.6840    -0.9690    -2.3230 C.ar  1 <1>  -0.1500 
 23 C       -9.7100    -0.1810    -1.8340 C.ar  1 <1>  -0.1500 
 24 H        2.0700    -0.1650    -1.3450 H     1 <1>   0.0800 
 25 H        2.7450    -1.7220    -1.8850 H     1 <1>   0.0800 
 26 H       -1.7920    -2.6370    -2.2210 H     1 <1>   0.1500 
 27 H        0.6600    -3.0550     2.0660 H     1 <1>   0.1500 
 28 H       -1.6040    -4.0240     1.8610 H     1 <1>   0.1500 
 29 H       -3.3040    -4.9400     0.1460 H     1 <1>   0.0800 
 30 H       -3.5430    -4.0640    -1.3500 H     1 <1>   0.0800 
 31 H       -3.8650    -2.9020     1.3310 H     1 <1>   0.4500 
 32 H       -5.5710    -4.5820     0.9910 H     1 <1>   0.0800 
 33 H       -5.9970    -3.8100    -0.5100 H     1 <1>   0.0800 
 34 H       -4.5830    -1.7800    -1.2950 H     1 <1>   0.0800 
 35 H       -3.2770    -1.2470    -0.2770 H     1 <1>   0.0800 
 36 H       -6.3520    -2.6760     2.2660 H     1 <1>   0.0800 
 37 H       -7.5930    -3.1060     1.1300 H     1 <1>   0.0800 
 38 H       -5.3400     0.1810    -0.1590 H     1 <1>   0.0800 
 39 H       -4.8090    -0.4100     1.3850 H     1 <1>   0.0800 
 40 H       -6.8580    -1.9520    -1.8790 H     1 <1>   0.1500 
 41 H      -10.4960     0.8440    -0.1460 H     1 <1>   0.1500 
 42 H       -8.6940    -0.5160     2.4340 H     1 <1>   0.0800 
 43 H       -9.5140     0.9560     1.9770 H     1 <1>   0.0800 
 44 H       -7.7700     0.8960     1.9780 H     1 <1>   0.0800 
 45 H       -8.7000    -1.2880    -3.3510 H     1 <1>   0.1500 
 46 H      -10.5210     0.1120    -2.4790 H     1 <1>   0.1500 
@<TRIPOS>BOND
  1   1   2  1   
  2   1   3  1   
  3   2   4  ar  
  4   2   5  ar  
  5   3   6  1   
  6   3  24  1   
  7   3  25  1   
  8   4   6  1   
  9   4   7  ar  
 10   5   8  ar  
 11   5  26  1   
 12   7   9  ar  
 13   7  27  1   
 14   8   9  ar  
 15   8  10  1   
 16   9  28  1   
 17  10  11  1   
 18  10  29  1   
 19  10  30  1   
 20  11  12  1   
 21  11  13  1   
 22  11  31  1   
 23  12  14  1   
 24  12  32  1   
 25  12  33  1   
 26  13  15  1   
 27  13  34  1   
 28  13  35  1   
 29  14  16  1   
 30  14  36  1   
 31  14  37  1   
 32  15  16  1   
 33  15  38  1   
 34  15  39  1   
 35  16  17  1   
 36  17  18  ar  
 37  17  19  ar  
 38  18  20  ar  
 39  18  21  1   
 40  19  22  ar  
 41  19  40  1   
 42  20  23  ar  
 43  20  41  1   
 44  21  42  1   
 45  21  43  1   
 46  21  44  1   
 47  22  23  ar  
 48  22  45  1   
 49  23  46  1   
@<TRIPOS>SUBSTRUCTURE
  1 ****  13 GROUP 4 **** **** 0

# MOE 2024.06 (io_trps.svl 2023.06)
