@<TRIPOS>MOLECULE
NONAME
51 53 1 0 0 
SMALL
USER_CHARGES


@<TRIPOS>ATOM
  1 S       -1.0980    -0.7690     0.3210 S.o2  1 <1>   1.5760 
  2 O       -1.9470    -1.4600     1.2650 O.2   1 <1>  -0.6500 
  3 O       -0.3040    -1.5070    -0.6350 O.2   1 <1>  -0.6500 
  4 N       -2.0450     0.3490    -0.5120 N.am  1 <1>  -0.8490 
  5 N       -0.0710     0.2780     1.1650 N.am  1 <1>  -0.8490 
  6 C       -2.8360    -0.3220    -1.5560 C.3   1 <1>   0.1960 
  7 C       -2.9250     1.0930     0.4060 C.3   1 <1>   0.1960 
  8 C        0.6630    -0.4260     2.2170 C.3   1 <1>   0.1160 
  9 C        0.8640     0.9750     0.2780 C.3   1 <1>   0.1160 
 10 C       -3.6870     0.6760    -2.3570 C.3   1 <1>   0.1400 
 11 C       -3.7900     2.1250    -0.3360 C.3   1 <1>   0.1400 
 12 N       -4.5570     1.4740    -1.4420 N.am  1 <1>  -0.6600 
 13 C       -5.9320     1.4270    -1.5220 C.2   1 <1>   0.6900 
 14 O       -6.4660     0.7640    -2.3930 O.2   1 <1>  -0.5700 
 15 N       -6.7210     2.1170    -0.6190 N.am  1 <1>  -0.2940 
 16 C       -7.5480     1.3960     0.2670 C.ar  1 <1>   0.1170 
 17 C       -6.7350     3.5270    -0.6270 C.ar  1 <1>   0.1170 
 18 C       -7.0500     0.3100     0.9820 C.ar  1 <1>  -0.1500 
 19 C       -8.8790     1.7580     0.4550 C.ar  1 <1>  -0.1500 
 20 C       -6.7340     4.2340    -1.8260 C.ar  1 <1>  -0.1500 
 21 C       -6.7380     4.2470     0.5650 C.ar  1 <1>  -0.1500 
 22 C       -7.8540    -0.3860     1.8670 C.ar  1 <1>  -0.1500 
 23 C       -9.6850     1.0640     1.3390 C.ar  1 <1>  -0.1500 
 24 C       -6.7270     5.6170    -1.8350 C.ar  1 <1>  -0.1500 
 25 C       -6.7310     5.6300     0.5610 C.ar  1 <1>  -0.1500 
 26 C       -9.1730    -0.0080     2.0480 C.ar  1 <1>  -0.1500 
 27 C       -6.7240     6.3170    -0.6400 C.ar  1 <1>  -0.1500 
 28 H       -3.4830    -1.0610    -1.1120 H     1 <1>   0.0800 
 29 H       -2.1740    -0.8290    -2.2370 H     1 <1>   0.0800 
 30 H       -2.3270     1.6080     1.1390 H     1 <1>   0.0800 
 31 H       -3.5740     0.4130     0.9310 H     1 <1>   0.0800 
 32 H       -0.0290    -0.8770     2.9090 H     1 <1>   0.0800 
 33 H        1.2850     0.2640     2.7610 H     1 <1>   0.0800 
 34 H        1.2810    -1.2000     1.7900 H     1 <1>   0.0800 
 35 H        0.3220     1.5210    -0.4750 H     1 <1>   0.0800 
 36 H        1.5200     0.2730    -0.2100 H     1 <1>   0.0800 
 37 H        1.4560     1.6750     0.8420 H     1 <1>   0.0800 
 38 H       -4.2790     0.1380    -3.0770 H     1 <1>   0.0800 
 39 H       -3.0390     1.3430    -2.8970 H     1 <1>   0.0800 
 40 H       -3.1540     2.8880    -0.7510 H     1 <1>   0.0800 
 41 H       -4.4470     2.5940     0.3710 H     1 <1>   0.0800 
 42 H       -6.0290     0.0050     0.8450 H     1 <1>   0.1500 
 43 H       -9.2840     2.5870    -0.0980 H     1 <1>   0.1500 
 44 H       -6.7400     3.6970    -2.7590 H     1 <1>   0.1500 
 45 H       -6.7450     3.7180     1.5020 H     1 <1>   0.1500 
 46 H       -7.4540    -1.2240     2.4120 H     1 <1>   0.1500 
 47 H      -10.7120     1.3570     1.4740 H     1 <1>   0.1500 
 48 H       -6.7250     6.1490    -2.7700 H     1 <1>   0.1500 
 49 H       -6.7330     6.1720     1.4900 H     1 <1>   0.1500 
 50 H       -9.7990    -0.5500     2.7350 H     1 <1>   0.1500 
 51 H       -6.7190     7.3930    -0.6460 H     1 <1>   0.1500 
@<TRIPOS>BOND
  1   1   2  2   
  2   1   3  2   
  3   1   4  am  
  4   1   5  am  
  5   4   6  1   
  6   4   7  1   
  7   5   8  1   
  8   5   9  1   
  9   6  10  1   
 10   6  28  1   
 11   6  29  1   
 12   7  11  1   
 13   7  30  1   
 14   7  31  1   
 15   8  32  1   
 16   8  33  1   
 17   8  34  1   
 18   9  35  1   
 19   9  36  1   
 20   9  37  1   
 21  10  12  1   
 22  10  38  1   
 23  10  39  1   
 24  11  12  1   
 25  11  40  1   
 26  11  41  1   
 27  12  13  am  
 28  13  14  2   
 29  13  15  am  
 30  15  16  1   
 31  15  17  1   
 32  16  18  ar  
 33  16  19  ar  
 34  17  20  ar  
 35  17  21  ar  
 36  18  22  ar  
 37  18  42  1   
 38  19  23  ar  
 39  19  43  1   
 40  20  24  ar  
 41  20  44  1   
 42  21  25  ar  
 43  21  45  1   
 44  22  26  ar  
 45  22  46  1   
 46  23  26  ar  
 47  23  47  1   
 48  24  27  ar  
 49  24  48  1   
 50  25  27  ar  
 51  25  49  1   
 52  26  50  1   
 53  27  51  1   
@<TRIPOS>SUBSTRUCTURE
  1 ****  11 GROUP 4 **** **** 0

# MOE 2024.06 (io_trps.svl 2023.06)
