@<TRIPOS>MOLECULE
NONAME
33 34 1 0 0 
SMALL
USER_CHARGES


@<TRIPOS>ATOM
  1 F        1.1220    -0.9610     1.6900 F     1 <1>  -0.3400 
  2 C        0.9160    -1.9030     0.7690 C.3   1 <1>   1.0200 
  3 F       -0.3540    -1.7720     0.3930 F     1 <1>  -0.3400 
  4 F        0.9700    -3.0590     1.4270 F     1 <1>  -0.3400 
  5 C        1.9320    -1.8270    -0.4320 C.3   1 <1>   0.6070 
  6 N        3.3770    -1.9780    -0.0700 N.2   1 <1>  -0.6960 
  7 N        1.6740    -2.7690    -1.5730 N.am  1 <1>  -0.7300 
  8 C        1.9080    -0.3810    -0.9130 C.2   1 <1>   0.5690 
  9 C        3.9870    -0.8810    -0.2970 C.2   1 <1>   0.4240 
 10 C        1.9710    -4.0730    -1.7470 C.2   1 <1>   0.5690 
 11 O        0.9780     0.2350    -1.3740 O.2   1 <1>  -0.5700 
 12 N        3.1540     0.0990    -0.7850 N.am  1 <1>  -0.4900 
 13 C        5.4010    -0.6290    -0.0730 C.ar  1 <1>   0.0860 
 14 O        1.5360    -4.6350    -2.7160 O.2   1 <1>  -0.5700 
 15 C        2.8210    -4.8660    -0.7830 C.3   1 <1>  -0.1790 
 16 C        6.1160    -1.3830     0.8560 C.ar  1 <1>  -0.1500 
 17 C        6.1010     0.3620    -0.7650 C.ar  1 <1>  -0.1500 
 18 C        7.4590    -1.1540     1.0950 C.ar  1 <1>  -0.1500 
 19 C        7.4440     0.5940    -0.5290 C.ar  1 <1>  -0.1500 
 20 C        8.1320    -0.1620     0.4030 C.ar  1 <1>  -0.1440 
 21 C        9.6060     0.0920     0.6650 C.3   1 <1>  -0.0970 
 22 H        1.0630    -2.3770    -2.2930 H     1 <1>   0.3700 
 23 H        3.4140     1.0520    -1.0280 H     1 <1>   0.3700 
 24 H        3.8440    -4.5510    -0.8620 H     1 <1>   0.0800 
 25 H        2.7650    -5.9110    -1.0290 H     1 <1>   0.0800 
 26 H        2.4810    -4.7340     0.2240 H     1 <1>   0.0800 
 27 H        5.6110    -2.1610     1.4030 H     1 <1>   0.1500 
 28 H        5.6020     0.9590    -1.5060 H     1 <1>   0.1500 
 29 H        7.9790    -1.7530     1.8230 H     1 <1>   0.1500 
 30 H        7.9570     1.3670    -1.0760 H     1 <1>   0.1500 
 31 H       10.0970    -0.8160     0.9670 H     1 <1>   0.0800 
 32 H        9.7170     0.8220     1.4460 H     1 <1>   0.0800 
 33 H       10.0890     0.4570    -0.2240 H     1 <1>   0.0800 
@<TRIPOS>BOND
  1   1   2  1   
  2   2   3  1   
  3   2   4  1   
  4   2   5  1   
  5   5   6  1   
  6   5   7  1   
  7   5   8  1   
  8   6   9  2   
  9   7  10  am  
 10   7  22  1   
 11   8  11  2   
 12   8  12  am  
 13   9  12  1   
 14   9  13  1   
 15  10  14  2   
 16  10  15  1   
 17  12  23  1   
 18  13  16  ar  
 19  13  17  ar  
 20  15  24  1   
 21  15  25  1   
 22  15  26  1   
 23  16  18  ar  
 24  16  27  1   
 25  17  19  ar  
 26  17  28  1   
 27  18  20  ar  
 28  18  29  1   
 29  19  20  ar  
 30  19  30  1   
 31  20  21  1   
 32  21  31  1   
 33  21  32  1   
 34  21  33  1   
@<TRIPOS>SUBSTRUCTURE
  1 ****   6 GROUP 4 **** **** 0

# MOE 2024.06 (io_trps.svl 2023.06)
