@<TRIPOS>MOLECULE
NONAME
46 48 1 0 0 
SMALL
USER_CHARGES


@<TRIPOS>ATOM
  1 CL      -0.0580     0.0460     1.1370 Cl    1 <1>  -0.1770 
  2 C        0.1610     1.7520     0.8470 C.ar  1 <1>   0.1770 
  3 C       -0.9430     2.5810     0.8530 C.ar  1 <1>  -0.1500 
  4 C        1.4320     2.2410     0.6120 C.ar  1 <1>  -0.1500 
  5 C       -0.7420     3.9260     0.6150 C.ar  1 <1>   0.1770 
  6 C        1.6300     3.6000     0.3760 C.ar  1 <1>   0.1170 
  7 CL      -2.1130     5.0040     0.6120 Cl    1 <1>  -0.1770 
  8 C        0.5200     4.4380     0.3770 C.ar  1 <1>  -0.1500 
  9 N        2.8950     4.1550     0.1190 N.am  1 <1>  -0.5470 
 10 C        4.1420     3.7150     0.4860 C.2   1 <1>   0.5690 
 11 O        4.3110     2.7330     1.1690 O.2   1 <1>  -0.5700 
 12 C        5.3610     4.5290     0.0040 C.3   1 <1>   0.1710 
 13 N        6.6710     3.8100    -0.0270 N.3   1 <1>  -0.8100 
 14 C        6.6650     2.6230    -0.9230 C.3   1 <1>   0.1100 
 15 C        7.8160     4.6940    -0.3220 C.3   1 <1>   0.1100 
 16 C        8.0240     1.8810    -0.9270 C.3   1 <1>   0.3430 
 17 C        9.1660     3.9460    -0.1780 C.3   1 <1>   0.3430 
 18 N        8.9650     2.4800     0.0800 N.4   1 <1>  -0.9590 
 19 C       10.2400     1.7350     0.2650 C.3   1 <1>   0.4860 
 20 C        9.9670     0.2670     0.5140 C.ar  1 <1>  -0.1430 
 21 C        9.5170    -0.1630     1.7540 C.ar  1 <1>   0.1600 
 22 C       10.1690    -0.6700    -0.4830 C.ar  1 <1>  -0.1500 
 23 N        9.2490    -1.4180     2.0630 N.ar  1 <1>  -0.6200 
 24 C        9.8960    -1.9840    -0.1710 C.ar  1 <1>  -0.1500 
 25 C        9.4440    -2.3020     1.0980 C.ar  1 <1>   0.1600 
 26 H       -1.9260     2.1910     1.0370 H     1 <1>   0.1500 
 27 H        2.2570     1.5540     0.6140 H     1 <1>   0.1500 
 28 H        0.6270     5.4920     0.2000 H     1 <1>   0.1500 
 29 H        2.8660     5.0520    -0.3620 H     1 <1>   0.3700 
 30 H        5.4520     5.3700     0.6680 H     1 <1>   0.0800 
 31 H        5.1480     4.9090    -0.9790 H     1 <1>   0.0800 
 32 H        6.4190     2.9180    -1.9290 H     1 <1>   0.0800 
 33 H        5.9090     1.9290    -0.5970 H     1 <1>   0.0800 
 34 H        7.8120     5.5310     0.3560 H     1 <1>   0.0800 
 35 H        7.7300     5.0850    -1.3220 H     1 <1>   0.0800 
 36 H        8.4550     1.9320    -1.9120 H     1 <1>   0.0800 
 37 H        7.8470     0.8420    -0.6990 H     1 <1>   0.0800 
 38 H        9.7160     4.3860     0.6390 H     1 <1>   0.0800 
 39 H        9.7440     4.0900    -1.0750 H     1 <1>   0.0800 
 40 H        8.4090     2.4470     0.9510 H     1 <1>   0.4500 
 41 H       10.7850     2.1430     1.1010 H     1 <1>   0.0800 
 42 H       10.8530     1.8370    -0.6160 H     1 <1>   0.0800 
 43 H        9.3640     0.5550     2.5430 H     1 <1>   0.1500 
 44 H       10.5280    -0.4060    -1.4640 H     1 <1>   0.1500 
 45 H       10.0330    -2.7640    -0.9000 H     1 <1>   0.1500 
 46 H        9.2350    -3.3330     1.3320 H     1 <1>   0.1500 
@<TRIPOS>BOND
  1   1   2  1   
  2   2   3  ar  
  3   2   4  ar  
  4   3   5  ar  
  5   3  26  1   
  6   4   6  ar  
  7   4  27  1   
  8   5   7  1   
  9   5   8  ar  
 10   6   8  ar  
 11   6   9  1   
 12   8  28  1   
 13   9  10  am  
 14   9  29  1   
 15  10  11  2   
 16  10  12  1   
 17  12  13  1   
 18  12  30  1   
 19  12  31  1   
 20  13  14  1   
 21  13  15  1   
 22  14  16  1   
 23  14  32  1   
 24  14  33  1   
 25  15  17  1   
 26  15  34  1   
 27  15  35  1   
 28  16  18  1   
 29  16  36  1   
 30  16  37  1   
 31  17  18  1   
 32  17  38  1   
 33  17  39  1   
 34  18  19  1   
 35  18  40  1   
 36  19  20  1   
 37  19  41  1   
 38  19  42  1   
 39  20  21  ar  
 40  20  22  ar  
 41  21  23  ar  
 42  21  43  1   
 43  22  24  ar  
 44  22  44  1   
 45  23  25  ar  
 46  24  25  ar  
 47  24  45  1   
 48  25  46  1   
@<TRIPOS>SUBSTRUCTURE
  1 ****  11 GROUP 4 **** **** 0

# MOE 2024.06 (io_trps.svl 2023.06)
