@<TRIPOS>MOLECULE
NONAME
36 37 1 0 0 
SMALL
USER_CHARGES


@<TRIPOS>ATOM
  1 CL       0.1380    -0.2700     1.1480 Cl    1 <1>  -0.1770 
  2 C        1.8400    -0.1370     0.7970 C.ar  1 <1>   0.1770 
  3 C        2.4970     1.0510     1.0490 C.ar  1 <1>  -0.1500 
  4 C        2.5130    -1.2220     0.2680 C.ar  1 <1>  -0.1500 
  5 C        3.8490     1.1470     0.7690 C.ar  1 <1>  -0.1500 
  6 C        3.8640    -1.1130    -0.0090 C.ar  1 <1>  -0.1500 
  7 C        4.5690     0.0720     0.2380 C.ar  1 <1>   0.0860 
  8 C        5.9920     0.1970    -0.0410 C.2   1 <1>   0.5440 
  9 O        6.5190     1.2870    -0.1410 O.2   1 <1>  -0.5700 
 10 N        6.7820    -0.9030    -0.1920 N.am  1 <1>  -0.7300 
 11 C        8.2490    -0.8730    -0.4530 C.3   1 <1>   0.2010 
 12 C        8.8880    -2.2690    -0.4430 C.2   1 <1>   0.5690 
 13 O        8.1570    -3.2220    -0.2660 O.2   1 <1>  -0.5700 
 14 N       10.2420    -2.4230    -0.6290 N.am  1 <1>  -0.6600 
 15 C       11.2050    -1.3100    -0.8710 C.3   1 <1>   0.1400 
 16 C       10.8850    -3.7660    -0.5590 C.3   1 <1>   0.1400 
 17 C       12.2510    -1.2880     0.2490 C.3   1 <1>  -0.1600 
 18 C       11.9340    -3.7730     0.5590 C.3   1 <1>  -0.1600 
 19 C       12.9590    -2.6430     0.3850 C.3   1 <1>  -0.1600 
 20 H        1.9560     1.8850     1.4580 H     1 <1>   0.1500 
 21 H        1.9800    -2.1360     0.0760 H     1 <1>   0.1500 
 22 H        4.3650     2.0730     0.9630 H     1 <1>   0.1500 
 23 H        4.3760    -1.9610    -0.4290 H     1 <1>   0.1500 
 24 H        6.4310    -1.8520    -0.0260 H     1 <1>   0.3700 
 25 H        8.7210    -0.2690     0.3010 H     1 <1>   0.0800 
 26 H        8.4180    -0.4180    -1.4120 H     1 <1>   0.0800 
 27 H       10.7070    -0.3590    -0.9160 H     1 <1>   0.0800 
 28 H       11.6930    -1.4730    -1.8170 H     1 <1>   0.0800 
 29 H       11.3540    -3.9810    -1.5040 H     1 <1>   0.0800 
 30 H       10.1530    -4.5330    -0.3690 H     1 <1>   0.0800 
 31 H       11.7650    -1.0380     1.1760 H     1 <1>   0.0800 
 32 H       12.9770    -0.5220     0.0420 H     1 <1>   0.0800 
 33 H       12.4390    -4.7230     0.5650 H     1 <1>   0.0800 
 34 H       11.4310    -3.6660     1.5040 H     1 <1>   0.0800 
 35 H       13.6260    -2.6230     1.2300 H     1 <1>   0.0800 
 36 H       13.5470    -2.8300    -0.4980 H     1 <1>   0.0800 
@<TRIPOS>BOND
  1   1   2  1   
  2   2   3  ar  
  3   2   4  ar  
  4   3   5  ar  
  5   3  20  1   
  6   4   6  ar  
  7   4  21  1   
  8   5   7  ar  
  9   5  22  1   
 10   6   7  ar  
 11   6  23  1   
 12   7   8  1   
 13   8   9  2   
 14   8  10  am  
 15  10  11  1   
 16  10  24  1   
 17  11  12  1   
 18  11  25  1   
 19  11  26  1   
 20  12  13  2   
 21  12  14  am  
 22  14  15  1   
 23  14  16  1   
 24  15  17  1   
 25  15  27  1   
 26  15  28  1   
 27  16  18  1   
 28  16  29  1   
 29  16  30  1   
 30  17  19  1   
 31  17  31  1   
 32  17  32  1   
 33  18  19  1   
 34  18  33  1   
 35  18  34  1   
 36  19  35  1   
 37  19  36  1   
@<TRIPOS>SUBSTRUCTURE
  1 ****  10 GROUP 4 **** **** 0

# MOE 2024.06 (io_trps.svl 2023.06)
