@<TRIPOS>MOLECULE
NONAME
40 41 1 0 0 
SMALL
USER_CHARGES


@<TRIPOS>ATOM
  1 O        0.8840    -1.1330     2.5930 O.2   1 <1>  -0.5700 
  2 C        0.4850    -1.7160     1.6240 C.2   1 <1>   0.6590 
  3 O        0.8470    -2.9780     1.4320 O.3   1 <1>  -0.4300 
  4 C       -0.4660    -1.0170     0.6800 C.3   1 <1>  -0.1790 
  5 C        1.2060    -3.7700     0.2980 C.3   1 <1>   0.2800 
  6 C        2.6310    -3.3590    -0.2490 C.3   1 <1>   0.2800 
  7 C        1.1180    -5.1980     0.8630 C.3   1 <1>  -0.1600 
  8 C        0.0790    -3.8180    -0.7500 C.3   1 <1>  -0.1600 
  9 O        2.9710    -4.0990    -1.4230 O.3   1 <1>  -0.4300 
 10 C        2.7480    -1.9050    -0.7330 C.3   1 <1>  -0.1600 
 11 C        3.7640    -3.3960     0.7910 C.3   1 <1>  -0.1600 
 12 C       -0.3800    -5.5150     0.9460 C.3   1 <1>  -0.1600 
 13 C       -1.0510    -4.6390    -0.1180 C.3   1 <1>  -0.1600 
 14 C        3.2040    -5.3860    -1.6370 C.2   1 <1>   0.6590 
 15 C        4.2530    -1.6250    -0.8230 C.3   1 <1>  -0.1600 
 16 C        4.9050    -2.5500     0.2110 C.3   1 <1>  -0.1600 
 17 O        2.6060    -5.9610    -2.5030 O.2   1 <1>  -0.5700 
 18 C        4.2800    -6.1090    -0.8620 C.3   1 <1>  -0.1790 
 19 H       -1.3420    -1.6160     0.5300 H     1 <1>   0.0800 
 20 H        0.0140    -0.8130    -0.2570 H     1 <1>   0.0800 
 21 H       -0.7670    -0.0810     1.1140 H     1 <1>   0.0800 
 22 H        1.6060    -5.2890     1.8170 H     1 <1>   0.0800 
 23 H        1.5490    -5.9080     0.1880 H     1 <1>   0.0800 
 24 H        0.4340    -4.3710    -1.6040 H     1 <1>   0.0800 
 25 H       -0.2360    -2.8660    -1.1210 H     1 <1>   0.0800 
 26 H        2.3540    -1.2260    -0.0050 H     1 <1>   0.0800 
 27 H        2.2440    -1.7440    -1.6690 H     1 <1>   0.0800 
 28 H        4.0690    -4.3780     1.0870 H     1 <1>   0.0800 
 29 H        3.4170    -2.9020     1.6830 H     1 <1>   0.0800 
 30 H       -0.7550    -5.2480     1.9210 H     1 <1>   0.0800 
 31 H       -0.5670    -6.5620     0.7750 H     1 <1>   0.0800 
 32 H       -1.5500    -5.2380    -0.8620 H     1 <1>   0.0800 
 33 H       -1.7720    -3.9920     0.3500 H     1 <1>   0.0800 
 34 H        4.4710    -0.5900    -0.6260 H     1 <1>   0.0800 
 35 H        4.6100    -1.8770    -1.8070 H     1 <1>   0.0800 
 36 H        5.6340    -3.1770    -0.2720 H     1 <1>   0.0800 
 37 H        5.3920    -1.9860     0.9890 H     1 <1>   0.0800 
 38 H        5.1470    -5.4850    -0.7650 H     1 <1>   0.0800 
 39 H        4.5600    -6.9980    -1.3970 H     1 <1>   0.0800 
 40 H        3.9160    -6.3970     0.1040 H     1 <1>   0.0800 
@<TRIPOS>BOND
  1   1   2  2   
  2   2   3  1   
  3   2   4  1   
  4   3   5  1   
  5   4  19  1   
  6   4  20  1   
  7   4  21  1   
  8   5   6  1   
  9   5   7  1   
 10   5   8  1   
 11   6   9  1   
 12   6  10  1   
 13   6  11  1   
 14   7  12  1   
 15   7  22  1   
 16   7  23  1   
 17   8  13  1   
 18   8  24  1   
 19   8  25  1   
 20   9  14  1   
 21  10  15  1   
 22  10  26  1   
 23  10  27  1   
 24  11  16  1   
 25  11  28  1   
 26  11  29  1   
 27  12  13  1   
 28  12  30  1   
 29  12  31  1   
 30  13  32  1   
 31  13  33  1   
 32  14  17  2   
 33  14  18  1   
 34  15  16  1   
 35  15  34  1   
 36  15  35  1   
 37  16  36  1   
 38  16  37  1   
 39  18  38  1   
 40  18  39  1   
 41  18  40  1   
@<TRIPOS>SUBSTRUCTURE
  1 ****   5 GROUP 4 **** **** 0

# MOE 2024.06 (io_trps.svl 2023.06)
