@<TRIPOS>MOLECULE
NONAME
32 33 1 0 0 
SMALL
USER_CHARGES


@<TRIPOS>ATOM
  1 CL       0.1740    -0.0320     0.3790 Cl    1 <1>  -0.1230 
  2 C        0.0420    -1.7600     0.0810 C.2   1 <1>   0.1230 
  3 C        1.0980    -2.6280    -0.1500 C.2   1 <1>   0.1080 
  4 C       -1.0940    -2.4820     0.0260 C.2   1 <1>  -0.3320 
  5 N        0.6400    -3.8450    -0.3450 N.2   1 <1>  -0.7070 
  6 C        2.5650    -2.1440    -0.1630 C.3   1 <1>   1.2010 
  7 N       -0.7060    -3.7630    -0.2200 N.pl3 1 <1>   0.3140 
  8 C       -2.5190    -1.9750     0.2050 C.3   1 <1>  -0.0600 
  9 F        3.4450    -3.1140    -0.3950 F     1 <1>  -0.3400 
 10 F        2.9290    -1.5900     0.9900 F     1 <1>  -0.3400 
 11 F        2.7850    -1.2240    -1.0990 F     1 <1>  -0.3400 
 12 C       -1.5090    -4.9830    -0.4500 C.3   1 <1>   0.1570 
 13 C       -2.7220    -5.0660     0.4490 C.2   1 <1>   0.5690 
 14 O       -2.5700    -5.1800     1.6400 O.2   1 <1>  -0.5700 
 15 N       -3.9650    -5.0280    -0.1010 N.am  1 <1>  -0.7300 
 16 C       -5.2170    -5.0170     0.6840 C.3   1 <1>   0.3200 
 17 C       -6.2000    -4.0460     0.0570 C.2   1 <1>  -0.1400 
 18 S       -7.7920    -3.9820     0.7990 S.3   1 <1>  -0.0800 
 19 C       -6.1340    -3.1840    -0.9780 C.2   1 <1>  -0.1500 
 20 C       -8.3300    -2.7640    -0.3430 C.2   1 <1>  -0.1100 
 21 C       -7.3450    -2.4560    -1.2050 C.2   1 <1>  -0.1500 
 22 H       -2.5280    -0.9030     0.2990 H     1 <1>   0.0800 
 23 H       -2.9570    -2.3870     1.0970 H     1 <1>   0.0800 
 24 H       -3.1230    -2.2400    -0.6430 H     1 <1>   0.0800 
 25 H       -0.8860    -5.8350    -0.2580 H     1 <1>   0.0800 
 26 H       -1.8060    -5.0010    -1.4800 H     1 <1>   0.0800 
 27 H       -4.1100    -4.9930    -1.1100 H     1 <1>   0.3700 
 28 H       -5.0180    -4.7230     1.7020 H     1 <1>   0.0800 
 29 H       -5.6400    -6.0060     0.6910 H     1 <1>   0.0800 
 30 H       -5.2790    -3.0150    -1.6080 H     1 <1>   0.1500 
 31 H       -9.3390    -2.4040    -0.2440 H     1 <1>   0.1500 
 32 H       -7.4170    -1.7370    -2.0030 H     1 <1>   0.1500 
@<TRIPOS>BOND
  1   1   2  1   
  2   2   3  1   
  3   2   4  2   
  4   3   5  2   
  5   3   6  1   
  6   4   7  1   
  7   4   8  1   
  8   5   7  1   
  9   6   9  1   
 10   6  10  1   
 11   6  11  1   
 12   7  12  1   
 13   8  22  1   
 14   8  23  1   
 15   8  24  1   
 16  12  13  1   
 17  12  25  1   
 18  12  26  1   
 19  13  14  2   
 20  13  15  am  
 21  15  16  1   
 22  15  27  1   
 23  16  17  1   
 24  16  28  1   
 25  16  29  1   
 26  17  18  1   
 27  17  19  2   
 28  18  20  1   
 29  19  21  1   
 30  19  30  1   
 31  20  21  2   
 32  20  31  1   
 33  21  32  1   
@<TRIPOS>SUBSTRUCTURE
  1 ****   4 GROUP 4 **** **** 0

# MOE 2024.06 (io_trps.svl 2023.06)
