@<TRIPOS>MOLECULE
NONAME
46 47 1 0 0 
SMALL
USER_CHARGES


@<TRIPOS>ATOM
  1 CL      -2.7190    -3.4000    -4.0030 Cl    1 <1>  -0.1770 
  2 C       -3.3340    -2.7190    -2.5220 C.ar  1 <1>   0.1770 
  3 C       -3.7710    -1.4080    -2.5080 C.ar  1 <1>  -0.1500 
  4 C       -3.3800    -3.4990    -1.3830 C.ar  1 <1>  -0.1500 
  5 C       -4.2750    -0.8720    -1.3350 C.ar  1 <1>  -0.1500 
  6 C       -3.8830    -2.9620    -0.2100 C.ar  1 <1>  -0.1500 
  7 C       -4.3460    -1.6500    -0.1850 C.ar  1 <1>  -0.1430 
  8 C       -4.9390    -1.0730     1.0870 C.3   1 <1>   0.4870 
  9 N       -6.4180    -1.0180     0.8860 N.4   1 <1>  -0.9590 
 10 C       -7.0870    -0.2120     1.9470 C.3   1 <1>   0.4860 
 11 C       -7.0200    -2.3990     0.7230 C.3   1 <1>   0.3430 
 12 C       -8.4830     0.0790     1.4360 C.ar  1 <1>  -0.1430 
 13 C       -7.5750    -2.6730    -0.7040 C.3   1 <1>   0.3430 
 14 C       -8.6710     0.9870     0.4020 C.ar  1 <1>  -0.1500 
 15 C       -9.5810    -0.5660     1.9870 C.ar  1 <1>  -0.1500 
 16 N       -8.8210    -1.8900    -1.0500 N.4   1 <1>  -0.9590 
 17 C       -9.9410     1.2230    -0.0940 C.ar  1 <1>  -0.1500 
 18 C      -10.8500    -0.3240     1.4930 C.ar  1 <1>  -0.1500 
 19 C      -10.0630    -2.6690    -0.7290 C.3   1 <1>   0.2630 
 20 C       -8.8490    -1.5290    -2.5060 C.3   1 <1>   0.2630 
 21 C      -11.0300     0.5640     0.4480 C.ar  1 <1>  -0.1500 
 22 H       -3.7030    -0.8210    -3.4090 H     1 <1>   0.1500 
 23 H       -3.0140    -4.5120    -1.4220 H     1 <1>   0.1500 
 24 H       -4.5930     0.1580    -1.3380 H     1 <1>   0.1500 
 25 H       -3.8970    -3.5790     0.6740 H     1 <1>   0.1500 
 26 H       -4.5400    -0.0850     1.2520 H     1 <1>   0.0800 
 27 H       -4.6890    -1.6920     1.9340 H     1 <1>   0.0800 
 28 H       -6.5500    -0.4970     0.0130 H     1 <1>   0.4500 
 29 H       -6.5630     0.7180     2.1080 H     1 <1>   0.0800 
 30 H       -7.1260    -0.7550     2.8780 H     1 <1>   0.0800 
 31 H       -7.8140    -2.5470     1.4370 H     1 <1>   0.0800 
 32 H       -6.2660    -3.1390     0.9340 H     1 <1>   0.0800 
 33 H       -7.7890    -3.7260    -0.7960 H     1 <1>   0.0800 
 34 H       -6.7940    -2.4510    -1.4140 H     1 <1>   0.0800 
 35 H       -7.8450     1.5370    -0.0210 H     1 <1>   0.1500 
 36 H       -9.4710    -1.2500     2.8140 H     1 <1>   0.1500 
 37 H       -8.8890    -1.0090    -0.5010 H     1 <1>   0.4500 
 38 H      -10.0940     1.9370    -0.8890 H     1 <1>   0.1500 
 39 H      -11.7080    -0.8120     1.9320 H     1 <1>   0.1500 
 40 H      -10.0950    -3.5850    -1.2970 H     1 <1>   0.0800 
 41 H      -10.9390    -2.0870    -0.9700 H     1 <1>   0.0800 
 42 H      -10.0990    -2.9090     0.3210 H     1 <1>   0.0800 
 43 H       -8.8470    -2.4180    -3.1160 H     1 <1>   0.0800 
 44 H       -7.9910    -0.9310    -2.7660 H     1 <1>   0.0800 
 45 H       -9.7400    -0.9630    -2.7320 H     1 <1>   0.0800 
 46 H      -12.0220     0.7620     0.0730 H     1 <1>   0.1500 
@<TRIPOS>BOND
  1   1   2  1   
  2   2   3  ar  
  3   2   4  ar  
  4   3   5  ar  
  5   3  22  1   
  6   4   6  ar  
  7   4  23  1   
  8   5   7  ar  
  9   5  24  1   
 10   6   7  ar  
 11   6  25  1   
 12   7   8  1   
 13   8   9  1   
 14   8  26  1   
 15   8  27  1   
 16   9  10  1   
 17   9  11  1   
 18   9  28  1   
 19  10  12  1   
 20  10  29  1   
 21  10  30  1   
 22  11  13  1   
 23  11  31  1   
 24  11  32  1   
 25  12  14  ar  
 26  12  15  ar  
 27  13  16  1   
 28  13  33  1   
 29  13  34  1   
 30  14  17  ar  
 31  14  35  1   
 32  15  18  ar  
 33  15  36  1   
 34  16  19  1   
 35  16  20  1   
 36  16  37  1   
 37  17  21  ar  
 38  17  38  1   
 39  18  21  ar  
 40  18  39  1   
 41  19  40  1   
 42  19  41  1   
 43  19  42  1   
 44  20  43  1   
 45  20  44  1   
 46  20  45  1   
 47  21  46  1   
@<TRIPOS>SUBSTRUCTURE
  1 ****   9 GROUP 4 **** **** 0

# MOE 2024.06 (io_trps.svl 2023.06)
