@<TRIPOS>MOLECULE
NONAME
48 50 1 0 0 
SMALL
USER_CHARGES


@<TRIPOS>ATOM
  1 P        0.4700     0.1760    -0.7300 P.3   1 <1>   1.4350 
  2 O       -0.9280     0.1860    -1.1700 O.2   1 <1>  -0.7000 
  3 O        0.6490     0.7060     0.7800 O.3   1 <1>  -0.5510 
  4 O        1.3740     1.2170    -1.5600 O.3   1 <1>  -0.5510 
  5 C        1.3370    -1.4010    -0.7940 C.2   1 <1>   0.0340 
  6 C        1.8970     0.7370     1.3790 C.3   1 <1>   0.1200 
  7 C        1.0290     2.5530    -1.6720 C.3   1 <1>   0.1200 
  8 N        2.6290    -1.6070    -1.1790 N.2   1 <1>  -0.5650 
  9 C        0.8440    -2.5900    -0.3850 C.2   1 <1>   0.2240 
 10 C        1.7310     1.3610     2.7590 C.3   1 <1>  -0.2400 
 11 C        0.1700     2.7450    -2.9190 C.3   1 <1>  -0.2400 
 12 C        2.8350    -2.8720    -0.9960 C.2   1 <1>   0.4250 
 13 O        1.7750    -3.4910    -0.5090 O.3   1 <1>  -0.2800 
 14 N       -0.3920    -2.9660     0.1260 N.pl3 1 <1>  -0.8220 
 15 C        4.0490    -3.6150    -1.2560 C.ar  1 <1>   0.0530 
 16 C       -1.5370    -3.0160    -0.8320 C.3   1 <1>   0.2090 
 17 C       -0.4410    -4.1110     1.0820 C.3   1 <1>   0.2090 
 18 C        4.1410    -4.9880    -1.0120 C.ar  1 <1>  -0.1500 
 19 C        5.1850    -2.9820    -1.7660 C.ar  1 <1>  -0.1500 
 20 C       -2.8680    -3.1460    -0.0720 C.3   1 <1>   0.1200 
 21 C       -1.8260    -4.1970     1.7490 C.3   1 <1>   0.1200 
 22 C        5.3060    -5.6920    -1.2620 C.ar  1 <1>  -0.1500 
 23 C        6.3520    -3.6790    -2.0170 C.ar  1 <1>  -0.1500 
 24 O       -2.8460    -4.2550     0.7890 O.3   1 <1>  -0.5600 
 25 C        6.4150    -5.0370    -1.7650 C.ar  1 <1>  -0.1500 
 26 H        2.5640     1.3250     0.7710 H     1 <1>   0.0800 
 27 H        2.2710    -0.2700     1.4610 H     1 <1>   0.0800 
 28 H        1.9430     3.1140    -1.7680 H     1 <1>   0.0800 
 29 H        0.5140     2.8690    -0.7800 H     1 <1>   0.0800 
 30 H        1.3490     2.3620     2.6700 H     1 <1>   0.0800 
 31 H        2.6820     1.3990     3.2570 H     1 <1>   0.0800 
 32 H        1.0560     0.7710     3.3530 H     1 <1>   0.0800 
 33 H        0.6930     2.3890    -3.7880 H     1 <1>   0.0800 
 34 H       -0.0430     3.7900    -3.0530 H     1 <1>   0.0800 
 35 H       -0.7650     2.2220    -2.8230 H     1 <1>   0.0800 
 36 H       -1.4200    -3.8630    -1.4860 H     1 <1>   0.0800 
 37 H       -1.5580    -2.1320    -1.4410 H     1 <1>   0.0800 
 38 H        0.3150    -3.9810     1.8360 H     1 <1>   0.0800 
 39 H       -0.2400    -5.0300     0.5570 H     1 <1>   0.0800 
 40 H        3.2880    -5.5150    -0.6220 H     1 <1>   0.1500 
 41 H        5.1480    -1.9250    -1.9680 H     1 <1>   0.1500 
 42 H       -3.6790    -3.2820    -0.7640 H     1 <1>   0.0800 
 43 H       -3.0530    -2.2590     0.5090 H     1 <1>   0.0800 
 44 H       -1.9920    -3.3360     2.3740 H     1 <1>   0.0800 
 45 H       -1.8930    -5.0830     2.3540 H     1 <1>   0.0800 
 46 H        5.3510    -6.7490    -1.0650 H     1 <1>   0.1500 
 47 H        7.2120    -3.1650    -2.4100 H     1 <1>   0.1500 
 48 H        7.3230    -5.5820    -1.9600 H     1 <1>   0.1500 
@<TRIPOS>BOND
  1   1   2  2   
  2   1   3  1   
  3   1   4  1   
  4   1   5  1   
  5   3   6  1   
  6   4   7  1   
  7   5   8  1   
  8   5   9  2   
  9   6  10  1   
 10   6  26  1   
 11   6  27  1   
 12   7  11  1   
 13   7  28  1   
 14   7  29  1   
 15   8  12  2   
 16   9  13  1   
 17   9  14  1   
 18  10  30  1   
 19  10  31  1   
 20  10  32  1   
 21  11  33  1   
 22  11  34  1   
 23  11  35  1   
 24  12  13  1   
 25  12  15  1   
 26  14  16  1   
 27  14  17  1   
 28  15  18  ar  
 29  15  19  ar  
 30  16  20  1   
 31  16  36  1   
 32  16  37  1   
 33  17  21  1   
 34  17  38  1   
 35  17  39  1   
 36  18  22  ar  
 37  18  40  1   
 38  19  23  ar  
 39  19  41  1   
 40  20  24  1   
 41  20  42  1   
 42  20  43  1   
 43  21  24  1   
 44  21  44  1   
 45  21  45  1   
 46  22  25  ar  
 47  22  46  1   
 48  23  25  ar  
 49  23  47  1   
 50  25  48  1   
@<TRIPOS>SUBSTRUCTURE
  1 ****   5 GROUP 4 **** **** 0

# MOE 2024.06 (io_trps.svl 2023.06)
