@<TRIPOS>MOLECULE
NONAME
34 35 1 0 0 
SMALL
USER_CHARGES


@<TRIPOS>ATOM
  1 N        1.2850    -0.2100    -2.7520 N.1   1 <1>  -0.5570 
  2 C        1.8410    -0.2570    -1.7560 C.1   1 <1>   0.3570 
  3 C        2.5660    -0.2080    -0.4300 C.3   1 <1>   0.4700 
  4 N        3.2420    -1.5240    -0.1470 N.pl3 1 <1>  -0.4870 
  5 C        3.5970     0.9300    -0.4870 C.3   1 <1>  -0.2400 
  6 C        1.5630     0.0760     0.6980 C.3   1 <1>  -0.2400 
  7 N        2.5270    -2.6910    -0.2390 N.2   1 <1>  -0.5030 
  8 C        4.3440    -1.6660     0.8490 C.3   1 <1>   0.3330 
  9 C        3.0570    -3.5860     0.4680 C.2   1 <1>   0.3280 
 10 C        5.7090    -1.3080     0.2650 C.ar  1 <1>  -0.1440 
 11 C        4.2730    -3.1430     1.2330 C.3   1 <1>  -0.0990 
 12 C        2.5680    -5.0100     0.6020 C.3   1 <1>  -0.1790 
 13 C        6.6310    -0.6130     1.0340 C.ar  1 <1>  -0.1500 
 14 C        6.0490    -1.6710    -1.0320 C.ar  1 <1>  -0.1500 
 15 C        7.8710    -0.2840     0.5160 C.ar  1 <1>  -0.1500 
 16 C        7.2880    -1.3420    -1.5510 C.ar  1 <1>  -0.1500 
 17 C        8.2010    -0.6480    -0.7780 C.ar  1 <1>  -0.1500 
 18 H        4.3360     0.7210    -1.2410 H     1 <1>   0.0800 
 19 H        4.0840     1.0670     0.4600 H     1 <1>   0.0800 
 20 H        3.1110     1.8540    -0.7460 H     1 <1>   0.0800 
 21 H        0.8260    -0.7070     0.7380 H     1 <1>   0.0800 
 22 H        1.0540     1.0050     0.5160 H     1 <1>   0.0800 
 23 H        2.0610     0.1390     1.6470 H     1 <1>   0.0800 
 24 H        4.1250    -1.0550     1.7070 H     1 <1>   0.0800 
 25 H        4.1370    -3.2600     2.2910 H     1 <1>   0.0800 
 26 H        5.1440    -3.6830     0.9080 H     1 <1>   0.0800 
 27 H        3.3340    -5.6910     0.2780 H     1 <1>   0.0800 
 28 H        1.6960    -5.1520    -0.0110 H     1 <1>   0.0800 
 29 H        2.3140    -5.2170     1.6240 H     1 <1>   0.0800 
 30 H        6.3910    -0.3230     2.0420 H     1 <1>   0.1500 
 31 H        5.3430    -2.2090    -1.6430 H     1 <1>   0.1500 
 32 H        8.5820     0.2560     1.1180 H     1 <1>   0.1500 
 33 H        7.5400    -1.6260    -2.5580 H     1 <1>   0.1500 
 34 H        9.1650    -0.3920    -1.1810 H     1 <1>   0.1500 
@<TRIPOS>BOND
  1   1   2  3   
  2   2   3  1   
  3   3   4  1   
  4   3   5  1   
  5   3   6  1   
  6   4   7  1   
  7   4   8  1   
  8   5  18  1   
  9   5  19  1   
 10   5  20  1   
 11   6  21  1   
 12   6  22  1   
 13   6  23  1   
 14   7   9  2   
 15   8  10  1   
 16   8  11  1   
 17   8  24  1   
 18   9  11  1   
 19   9  12  1   
 20  10  13  ar  
 21  10  14  ar  
 22  11  25  1   
 23  11  26  1   
 24  12  27  1   
 25  12  28  1   
 26  12  29  1   
 27  13  15  ar  
 28  13  30  1   
 29  14  16  ar  
 30  14  31  1   
 31  15  17  ar  
 32  15  32  1   
 33  16  17  ar  
 34  16  33  1   
 35  17  34  1   
@<TRIPOS>SUBSTRUCTURE
  1 ****   4 GROUP 4 **** **** 0

# MOE 2024.06 (io_trps.svl 2023.06)
