@<TRIPOS>MOLECULE
NONAME
45 45 1 0 0 
SMALL
USER_CHARGES


@<TRIPOS>ATOM
  1 S        0.1200    -0.0710     0.7390 S.3   1 <1>  -0.3310 
  2 C        0.0880    -1.8020     0.3140 C.2   1 <1>  -0.0370 
  3 C       -1.0920     0.7950    -0.3550 C.3   1 <1>   0.0700 
  4 C        1.1400    -2.6200     0.5710 C.2   1 <1>   0.0290 
  5 C       -1.1960    -2.2880    -0.3410 C.3   1 <1>  -0.0220 
  6 C       -0.8000     2.2910    -0.2720 C.3   1 <1>  -0.2400 
  7 C        1.1420    -3.9840     0.1160 C.2   1 <1>   0.4950 
  8 C        2.3150    -2.1920     1.2750 C.2   1 <1>   0.4950 
  9 C       -1.4370    -3.7790    -0.0210 C.3   1 <1>   0.0000 
 10 O        2.1530    -4.6260    -0.0160 O.2   1 <1>  -0.5700 
 11 C       -0.1580    -4.5960    -0.3830 C.3   1 <1>   0.0420 
 12 O        2.5210    -2.4720     2.4280 O.2   1 <1>  -0.5700 
 13 C        3.3380    -1.3330     0.5460 C.3   1 <1>  -0.0990 
 14 C       -2.6370    -4.2750    -0.8490 C.3   1 <1>  -0.2400 
 15 C       -1.8140    -3.9080     1.4730 C.3   1 <1>  -0.2400 
 16 C       -0.2160    -6.0540     0.0360 C.2   1 <1>   0.6590 
 17 C        4.5540    -2.1520     0.0870 C.3   1 <1>  -0.1600 
 18 O       -0.1050    -6.4130     1.1810 O.2   1 <1>  -0.5700 
 19 O       -0.4270    -6.9230    -0.9480 O.3   1 <1>  -0.4300 
 20 C        5.5810    -1.2720    -0.6320 C.3   1 <1>  -0.2400 
 21 C       -0.4860    -8.3130    -0.7050 C.3   1 <1>   0.0400 
 22 H       -2.0800     0.5680     0.0050 H     1 <1>   0.0800 
 23 H       -0.9550     0.4230    -1.3550 H     1 <1>   0.0800 
 24 H       -1.1270    -2.1340    -1.4040 H     1 <1>   0.0800 
 25 H       -2.0340    -1.7220     0.0240 H     1 <1>   0.0800 
 26 H       -0.9100     2.6330     0.7420 H     1 <1>   0.0800 
 27 H       -1.4860     2.8350    -0.8950 H     1 <1>   0.0800 
 28 H        0.2030     2.4930    -0.6030 H     1 <1>   0.0800 
 29 H       -0.0690    -4.5930    -1.4540 H     1 <1>   0.0800 
 30 H        3.6590    -0.5550     1.2160 H     1 <1>   0.0800 
 31 H        2.8740    -0.8670    -0.3030 H     1 <1>   0.0800 
 32 H       -2.4390    -4.1960    -1.9040 H     1 <1>   0.0800 
 33 H       -3.5160    -3.6940    -0.6280 H     1 <1>   0.0800 
 34 H       -2.8580    -5.3050    -0.6270 H     1 <1>   0.0800 
 35 H       -0.9850    -3.6640     2.1140 H     1 <1>   0.0800 
 36 H       -2.1290    -4.9080     1.7110 H     1 <1>   0.0800 
 37 H       -2.6290    -3.2500     1.7200 H     1 <1>   0.0800 
 38 H        4.2330    -2.9390    -0.5750 H     1 <1>   0.0800 
 39 H        5.0150    -2.6140     0.9450 H     1 <1>   0.0800 
 40 H        5.1450    -0.8190    -1.5050 H     1 <1>   0.0800 
 41 H        6.4220    -1.8690    -0.9390 H     1 <1>   0.0800 
 42 H        5.9350    -0.4960     0.0240 H     1 <1>   0.0800 
 43 H       -1.2940    -8.5140    -0.0220 H     1 <1>   0.0800 
 44 H        0.4490    -8.6300    -0.2770 H     1 <1>   0.0800 
 45 H       -0.6560    -8.8170    -1.6400 H     1 <1>   0.0800 
@<TRIPOS>BOND
  1   1   2  1   
  2   1   3  1   
  3   2   4  2   
  4   2   5  1   
  5   3   6  1   
  6   3  22  1   
  7   3  23  1   
  8   4   7  1   
  9   4   8  1   
 10   5   9  1   
 11   5  24  1   
 12   5  25  1   
 13   6  26  1   
 14   6  27  1   
 15   6  28  1   
 16   7  10  2   
 17   7  11  1   
 18   8  12  2   
 19   8  13  1   
 20   9  11  1   
 21   9  14  1   
 22   9  15  1   
 23  11  16  1   
 24  11  29  1   
 25  13  17  1   
 26  13  30  1   
 27  13  31  1   
 28  14  32  1   
 29  14  33  1   
 30  14  34  1   
 31  15  35  1   
 32  15  36  1   
 33  15  37  1   
 34  16  18  2   
 35  16  19  1   
 36  17  20  1   
 37  17  38  1   
 38  17  39  1   
 39  19  21  1   
 40  20  40  1   
 41  20  41  1   
 42  20  42  1   
 43  21  43  1   
 44  21  44  1   
 45  21  45  1   
@<TRIPOS>SUBSTRUCTURE
  1 ****   4 GROUP 4 **** **** 0

# MOE 2024.06 (io_trps.svl 2023.06)
