@<TRIPOS>MOLECULE
NONAME
41 42 1 0 0 
SMALL
USER_CHARGES


@<TRIPOS>ATOM
  1 S       -0.5310    -0.0650     0.1890 S.3   1 <1>  -0.2860 
  2 C        1.0870    -0.8330     0.3190 C.2   1 <1>   0.2420 
  3 C       -1.3200    -0.5170     1.8140 C.3   1 <1>   0.1310 
  4 N        1.4540    -1.5420     1.3240 N.2   1 <1>  -0.3380 
  5 N        2.0210    -0.7150    -0.6230 N.pl3 1 <1>   0.0480 
  6 C       -2.7610    -0.0370     1.8920 C.2   1 <1>   0.5690 
  7 N        2.7050    -1.9280     1.0540 N.2   1 <1>  -0.3380 
  8 C        3.0280    -1.4310    -0.0970 C.2   1 <1>   0.0060 
  9 C        1.9440     0.0290    -1.8970 C.3   1 <1>   0.0160 
 10 O       -3.2420     0.1200     2.9870 O.2   1 <1>  -0.5700 
 11 N       -3.4410     0.1880     0.7240 N.am  1 <1>  -0.5470 
 12 C        4.3740    -1.6190    -0.7900 C.3   1 <1>   0.0200 
 13 C       -4.7610     0.5880     0.4680 C.ar  1 <1>   0.1170 
 14 C        5.3940    -2.3840     0.0620 C.3   1 <1>  -0.2400 
 15 C       -5.7830     0.4990     1.4080 C.ar  1 <1>  -0.1500 
 16 C       -5.0710     1.0850    -0.7920 C.ar  1 <1>  -0.1500 
 17 C       -7.0700     0.9000     1.0980 C.ar  1 <1>  -0.1500 
 18 C       -6.3580     1.4850    -1.1050 C.ar  1 <1>  -0.1500 
 19 C       -7.3670     1.3970    -0.1600 C.ar  1 <1>  -0.1430 
 20 C       -8.7820     1.8370    -0.5000 C.3   1 <1>  -0.0170 
 21 C       -9.5840     0.6690    -1.0770 C.3   1 <1>  -0.2400 
 22 H       -0.7310    -0.0650     2.5900 H     1 <1>   0.0800 
 23 H       -1.2780    -1.5870     1.9050 H     1 <1>   0.0800 
 24 H        0.9720    -0.1070    -2.3340 H     1 <1>   0.0800 
 25 H        2.6900    -0.3320    -2.5800 H     1 <1>   0.0800 
 26 H        2.1070     1.0740    -1.7050 H     1 <1>   0.0800 
 27 H       -2.8590     0.0960    -0.1090 H     1 <1>   0.3700 
 28 H        4.7810    -0.6520    -1.0280 H     1 <1>   0.0800 
 29 H        4.2200    -2.1540    -1.7100 H     1 <1>   0.0800 
 30 H        5.5730    -1.8610     0.9850 H     1 <1>   0.0800 
 31 H        6.3250    -2.4820    -0.4670 H     1 <1>   0.0800 
 32 H        5.0210    -3.3670     0.2930 H     1 <1>   0.0800 
 33 H       -5.5810     0.1130     2.3900 H     1 <1>   0.1500 
 34 H       -4.3020     1.1640    -1.5370 H     1 <1>   0.1500 
 35 H       -7.8420     0.8200     1.8440 H     1 <1>   0.1500 
 36 H       -6.5740     1.8670    -2.0870 H     1 <1>   0.1500 
 37 H       -8.7500     2.6420    -1.2130 H     1 <1>   0.0800 
 38 H       -9.2690     2.2060     0.3860 H     1 <1>   0.0800 
 39 H       -9.1140     0.3040    -1.9730 H     1 <1>   0.0800 
 40 H      -10.5840     0.9860    -1.3150 H     1 <1>   0.0800 
 41 H       -9.6350    -0.1340    -0.3640 H     1 <1>   0.0800 
@<TRIPOS>BOND
  1   1   2  1   
  2   1   3  1   
  3   2   4  2   
  4   2   5  1   
  5   3   6  1   
  6   3  22  1   
  7   3  23  1   
  8   4   7  1   
  9   5   8  1   
 10   5   9  1   
 11   6  10  2   
 12   6  11  am  
 13   7   8  2   
 14   8  12  1   
 15   9  24  1   
 16   9  25  1   
 17   9  26  1   
 18  11  13  1   
 19  11  27  1   
 20  12  14  1   
 21  12  28  1   
 22  12  29  1   
 23  13  15  ar  
 24  13  16  ar  
 25  14  30  1   
 26  14  31  1   
 27  14  32  1   
 28  15  17  ar  
 29  15  33  1   
 30  16  18  ar  
 31  16  34  1   
 32  17  19  ar  
 33  17  35  1   
 34  18  19  ar  
 35  18  36  1   
 36  19  20  1   
 37  20  21  1   
 38  20  37  1   
 39  20  38  1   
 40  21  39  1   
 41  21  40  1   
 42  21  41  1   
@<TRIPOS>SUBSTRUCTURE
  1 ****  11 GROUP 4 **** **** 0

# MOE 2024.06 (io_trps.svl 2023.06)
