@<TRIPOS>MOLECULE
NONAME
43 44 1 0 0 
SMALL
USER_CHARGES


@<TRIPOS>ATOM
  1 BR       0.4250    -0.1910    -1.7950 Br    1 <1>  -0.1110 
  2 C        1.8420     0.8580    -1.0250 C.ar  1 <1>   0.1110 
  3 C        2.1910     2.0510    -1.6270 C.ar  1 <1>  -0.1500 
  4 C        2.4730     0.3930     0.1110 C.ar  1 <1>  -0.1500 
  5 C        3.2130     2.8020    -1.0710 C.ar  1 <1>  -0.1500 
  6 C        3.4940     1.1500     0.6610 C.ar  1 <1>  -0.1500 
  7 C        3.8700     2.3520     0.0700 C.ar  1 <1>  -0.1430 
  8 C        4.9980     3.1650     0.6630 C.3   1 <1>   0.4870 
  9 N        6.2390     2.6890     0.0050 N.4   1 <1>  -0.9060 
 10 C        7.5010     3.3070     0.4750 C.3   1 <1>   0.4230 
 11 C        7.5920     4.7680     0.0210 C.3   1 <1>  -0.1600 
 12 C        8.6770     2.5060    -0.0860 C.3   1 <1>  -0.1600 
 13 C        8.9420     5.3830     0.4020 C.3   1 <1>   0.3430 
 14 C       10.0160     3.1400     0.2990 C.3   1 <1>   0.3430 
 15 N       10.0570     4.5630    -0.1530 N.4   1 <1>  -0.9590 
 16 C       11.3660     5.2040     0.1900 C.3   1 <1>   0.3430 
 17 C       12.4850     4.6480    -0.6950 C.3   1 <1>  -0.1600 
 18 C       13.8010     5.3870    -0.4320 C.3   1 <1>  -0.2400 
 19 H        1.6670     2.3790    -2.5090 H     1 <1>   0.1500 
 20 H        2.1650    -0.5390     0.5530 H     1 <1>   0.1500 
 21 H        3.4740     3.7360    -1.5400 H     1 <1>   0.1500 
 22 H        3.9770     0.7860     1.5530 H     1 <1>   0.1500 
 23 H        5.0420     3.0060     1.7290 H     1 <1>   0.0800 
 24 H        4.8350     4.2130     0.4700 H     1 <1>   0.0800 
 25 H        6.1090     2.8050    -1.0080 H     1 <1>   0.4500 
 26 H        6.2580     1.6700     0.1490 H     1 <1>   0.4500 
 27 H        7.5390     3.2670     1.5540 H     1 <1>   0.0800 
 28 H        6.8210     5.3510     0.4940 H     1 <1>   0.0800 
 29 H        7.4660     4.8450    -1.0450 H     1 <1>   0.0800 
 30 H        8.6210     2.4440    -1.1590 H     1 <1>   0.0800 
 31 H        8.6570     1.5050     0.3090 H     1 <1>   0.0800 
 32 H        9.0300     5.4340     1.4770 H     1 <1>   0.0800 
 33 H        9.0010     6.3900     0.0170 H     1 <1>   0.0800 
 34 H       10.8180     2.5820    -0.1590 H     1 <1>   0.0800 
 35 H       10.1500     3.0940     1.3690 H     1 <1>   0.0800 
 36 H       10.0030     4.5860    -1.1830 H     1 <1>   0.4500 
 37 H       11.6060     5.0400     1.2290 H     1 <1>   0.0800 
 38 H       11.3030     6.2680     0.0260 H     1 <1>   0.0800 
 39 H       12.2300     4.7720    -1.7340 H     1 <1>   0.0800 
 40 H       12.6440     3.6030    -0.4970 H     1 <1>   0.0800 
 41 H       13.7040     6.4380    -0.6470 H     1 <1>   0.0800 
 42 H       14.5790     4.9890    -1.0620 H     1 <1>   0.0800 
 43 H       14.1110     5.2710     0.5930 H     1 <1>   0.0800 
@<TRIPOS>BOND
  1   1   2  1   
  2   2   3  ar  
  3   2   4  ar  
  4   3   5  ar  
  5   3  19  1   
  6   4   6  ar  
  7   4  20  1   
  8   5   7  ar  
  9   5  21  1   
 10   6   7  ar  
 11   6  22  1   
 12   7   8  1   
 13   8   9  1   
 14   8  23  1   
 15   8  24  1   
 16   9  10  1   
 17   9  25  1   
 18   9  26  1   
 19  10  11  1   
 20  10  12  1   
 21  10  27  1   
 22  11  13  1   
 23  11  28  1   
 24  11  29  1   
 25  12  14  1   
 26  12  30  1   
 27  12  31  1   
 28  13  15  1   
 29  13  32  1   
 30  13  33  1   
 31  14  15  1   
 32  14  34  1   
 33  14  35  1   
 34  15  16  1   
 35  15  36  1   
 36  16  17  1   
 37  16  37  1   
 38  16  38  1   
 39  17  18  1   
 40  17  39  1   
 41  17  40  1   
 42  18  41  1   
 43  18  42  1   
 44  18  43  1   
@<TRIPOS>SUBSTRUCTURE
  1 ****   9 GROUP 4 **** **** 0

# MOE 2024.06 (io_trps.svl 2023.06)
