@<TRIPOS>MOLECULE
Structure2147
44 45 1 0 0 
SMALL
USER_CHARGES


@<TRIPOS>ATOM
  1 O        0.1790    -0.6610    -1.2940 O.2   1 <1>  -0.5700 
  2 C        0.0960    -1.8610    -1.1080 C.2   1 <1>   0.7800 
  3 O       -1.0840    -2.3980    -0.8140 O.3   1 <1>  -0.4300 
  4 N        1.1790    -2.6960    -1.1710 N.am  1 <1>  -0.6600 
  5 C       -2.2310    -1.5880    -0.7220 C.3   1 <1>   0.2640 
  6 C        2.5470    -2.1780    -1.4380 C.3   1 <1>   0.1400 
  7 C        1.1340    -4.1370    -0.8030 C.3   1 <1>   0.1400 
  8 C       -3.4060    -2.4630    -0.3180 C.ar  1 <1>  -0.1440 
  9 C        3.4000    -2.3420    -0.1780 C.3   1 <1>  -0.0190 
 10 C        2.0040    -4.3700     0.4400 C.3   1 <1>  -0.1600 
 11 C       -4.4060    -2.7680    -1.2300 C.ar  1 <1>  -0.1500 
 12 C       -3.4870    -2.9650     0.9720 C.ar  1 <1>  -0.1500 
 13 C        4.7900    -1.7700    -0.4460 C.2   1 <1>   0.5690 
 14 C        3.4310    -3.8230     0.2580 C.3   1 <1>  -0.1600 
 15 C       -5.4760    -3.5610    -0.8540 C.ar  1 <1>  -0.1500 
 16 C       -4.5560    -3.7580     1.3490 C.ar  1 <1>  -0.1500 
 17 O        5.5110    -2.3810    -1.2090 O.2   1 <1>  -0.5700 
 18 N        5.1870    -0.5920     0.1380 N.am  1 <1>  -0.3250 
 19 C       -5.5520    -4.0560     0.4360 C.ar  1 <1>  -0.1500 
 20 O        4.3730     0.1380     1.0130 O.3   1 <1>  -0.3150 
 21 C        6.5510    -0.0260     0.0110 C.3   1 <1>   0.0600 
 22 C        3.5970     1.1140     0.3510 C.3   1 <1>   0.0400 
 23 H       -2.3980    -1.1250    -1.6780 H     1 <1>   0.0800 
 24 H       -2.0540    -0.8280     0.0200 H     1 <1>   0.0800 
 25 H        2.5110    -1.1420    -1.7270 H     1 <1>   0.0800 
 26 H        2.9840    -2.7330    -2.2520 H     1 <1>   0.0800 
 27 H        1.5100    -4.7180    -1.6270 H     1 <1>   0.0800 
 28 H        0.1240    -4.4550    -0.6050 H     1 <1>   0.0800 
 29 H        2.9320    -1.7810     0.6090 H     1 <1>   0.0800 
 30 H        2.0460    -5.4240     0.6500 H     1 <1>   0.0800 
 31 H        1.5370    -3.8890     1.2820 H     1 <1>   0.0800 
 32 H       -4.3560    -2.3910    -2.2360 H     1 <1>   0.1500 
 33 H       -2.7120    -2.7410     1.6850 H     1 <1>   0.1500 
 34 H        3.9790    -3.9170     1.1800 H     1 <1>   0.0800 
 35 H        3.9410    -4.4060    -0.4900 H     1 <1>   0.0800 
 36 H       -6.2490    -3.7940    -1.5660 H     1 <1>   0.1500 
 37 H       -4.6120    -4.1440     2.3520 H     1 <1>   0.1500 
 38 H       -6.3840    -4.6730     0.7280 H     1 <1>   0.1500 
 39 H        7.1820    -0.6860    -0.5570 H     1 <1>   0.0800 
 40 H        6.9730     0.1040     0.9910 H     1 <1>   0.0800 
 41 H        6.5010     0.9260    -0.4840 H     1 <1>   0.0800 
 42 H        2.9260     0.6290    -0.3340 H     1 <1>   0.0800 
 43 H        3.0330     1.6520     1.0910 H     1 <1>   0.0800 
 44 H        4.2500     1.7880    -0.1740 H     1 <1>   0.0800 
@<TRIPOS>BOND
  1   1   2  2   
  2   2   3  1   
  3   2   4  am  
  4   3   5  1   
  5   4   6  1   
  6   4   7  1   
  7   5   8  1   
  8   5  23  1   
  9   5  24  1   
 10   6   9  1   
 11   6  25  1   
 12   6  26  1   
 13   7  10  1   
 14   7  27  1   
 15   7  28  1   
 16   8  11  ar  
 17   8  12  ar  
 18   9  13  1   
 19   9  14  1   
 20   9  29  1   
 21  10  14  1   
 22  10  30  1   
 23  10  31  1   
 24  11  15  ar  
 25  11  32  1   
 26  12  16  ar  
 27  12  33  1   
 28  13  17  2   
 29  13  18  am  
 30  14  34  1   
 31  14  35  1   
 32  15  19  ar  
 33  15  36  1   
 34  16  19  ar  
 35  16  37  1   
 36  18  20  1   
 37  18  21  1   
 38  19  38  1   
 39  20  22  1   
 40  21  39  1   
 41  21  40  1   
 42  21  41  1   
 43  22  42  1   
 44  22  43  1   
 45  22  44  1   
@<TRIPOS>SUBSTRUCTURE
  1 ****   2 GROUP 4 **** **** 0

# MOE 2024.06 (io_trps.svl 2023.06)
