@<TRIPOS>MOLECULE
NONAME
48 49 1 0 0 
SMALL
USER_CHARGES


@<TRIPOS>ATOM
  1 O        0.8470    -4.6550     0.9510 O.2   1 <1>  -0.5700 
  2 C        0.1070    -3.7850     0.5290 C.2   1 <1>   0.5440 
  3 N        0.6320    -2.9480    -0.4290 N.am  1 <1>  -0.6600 
  4 C       -1.2280    -3.5970     1.0750 C.ar  1 <1>   0.0860 
  5 C        1.5400    -3.4790    -1.4980 C.3   1 <1>   0.1400 
  6 C        0.7200    -1.4870    -0.1850 C.3   1 <1>   0.1400 
  7 C       -2.2360    -2.9710     0.3430 C.ar  1 <1>  -0.1500 
  8 C       -1.5510    -4.0380     2.3590 C.ar  1 <1>  -0.1500 
  9 C        2.9710    -3.7790    -0.9990 C.3   1 <1>   0.3430 
 10 C        1.8570    -1.1880     0.8010 C.3   1 <1>  -0.1600 
 11 C       -3.5010    -2.7700     0.8650 C.ar  1 <1>   0.0830 
 12 C       -2.8120    -3.8490     2.8930 C.ar  1 <1>  -0.1500 
 13 N        3.2420    -3.2100     0.3590 N.4   1 <1>  -0.9590 
 14 C        3.2350    -1.7210     0.3910 C.3   1 <1>   0.3430 
 15 O       -4.3930    -2.1400     0.0640 O.3   1 <1>  -0.3620 
 16 C       -3.7910    -3.2120     2.1520 C.ar  1 <1>  -0.1500 
 17 C        4.4630    -3.8010     0.9760 C.3   1 <1>   0.2630 
 18 C       -5.7260    -1.9300     0.4710 C.3   1 <1>   0.1200 
 19 C       -6.4680    -1.2250    -0.6650 C.3   1 <1>  -0.1600 
 20 C       -7.9330    -0.9620    -0.2940 C.3   1 <1>  -0.1600 
 21 C       -8.6700    -0.2570    -1.4350 C.3   1 <1>  -0.2400 
 22 H        1.5840    -2.7780    -2.3120 H     1 <1>   0.0800 
 23 H        1.1180    -4.3880    -1.8910 H     1 <1>   0.0800 
 24 H       -0.2100    -1.1290     0.2250 H     1 <1>   0.0800 
 25 H        0.8830    -0.9710    -1.1170 H     1 <1>   0.0800 
 26 H       -2.0420    -2.6340    -0.6580 H     1 <1>   0.1500 
 27 H       -0.8010    -4.5400     2.9460 H     1 <1>   0.1500 
 28 H        3.6900    -3.4120    -1.7130 H     1 <1>   0.0800 
 29 H        3.0780    -4.8500    -0.9530 H     1 <1>   0.0800 
 30 H        1.5990    -1.5670     1.7740 H     1 <1>   0.0800 
 31 H        1.9310    -0.1190     0.8980 H     1 <1>   0.0800 
 32 H       -3.0340    -4.1980     3.8870 H     1 <1>   0.1500 
 33 H        2.4100    -3.5370     0.9020 H     1 <1>   0.4500 
 34 H        3.9580    -1.3760     1.1130 H     1 <1>   0.0800 
 35 H        3.5140    -1.3270    -0.5730 H     1 <1>   0.0800 
 36 H       -4.7620    -3.0740     2.5880 H     1 <1>   0.1500 
 37 H        5.3390    -3.5260     0.4120 H     1 <1>   0.0800 
 38 H        4.3840    -4.8760     0.9970 H     1 <1>   0.0800 
 39 H        4.5750    -3.4490     1.9880 H     1 <1>   0.0800 
 40 H       -5.7190    -1.3180     1.3560 H     1 <1>   0.0800 
 41 H       -6.1730    -2.8870     0.6800 H     1 <1>   0.0800 
 42 H       -6.4260    -1.8430    -1.5460 H     1 <1>   0.0800 
 43 H       -5.9780    -0.2900    -0.8760 H     1 <1>   0.0800 
 44 H       -7.9790    -0.3470     0.5890 H     1 <1>   0.0800 
 45 H       -8.4260    -1.8950    -0.0790 H     1 <1>   0.0800 
 46 H       -8.2080     0.6900    -1.6540 H     1 <1>   0.0800 
 47 H       -9.6950    -0.0800    -1.1590 H     1 <1>   0.0800 
 48 H       -8.6560    -0.8620    -2.3240 H     1 <1>   0.0800 
@<TRIPOS>BOND
  1   1   2  2   
  2   2   3  am  
  3   2   4  1   
  4   3   5  1   
  5   3   6  1   
  6   4   7  ar  
  7   4   8  ar  
  8   5   9  1   
  9   5  22  1   
 10   5  23  1   
 11   6  10  1   
 12   6  24  1   
 13   6  25  1   
 14   7  11  ar  
 15   7  26  1   
 16   8  12  ar  
 17   8  27  1   
 18   9  13  1   
 19   9  28  1   
 20   9  29  1   
 21  10  14  1   
 22  10  30  1   
 23  10  31  1   
 24  11  15  1   
 25  11  16  ar  
 26  12  16  ar  
 27  12  32  1   
 28  13  14  1   
 29  13  17  1   
 30  13  33  1   
 31  14  34  1   
 32  14  35  1   
 33  15  18  1   
 34  16  36  1   
 35  17  37  1   
 36  17  38  1   
 37  17  39  1   
 38  18  19  1   
 39  18  40  1   
 40  18  41  1   
 41  19  20  1   
 42  19  42  1   
 43  19  43  1   
 44  20  21  1   
 45  20  44  1   
 46  20  45  1   
 47  21  46  1   
 48  21  47  1   
 49  21  48  1   
@<TRIPOS>SUBSTRUCTURE
  1 ****   7 GROUP 4 **** **** 0

# MOE 2024.06 (io_trps.svl 2023.06)
