@<TRIPOS>MOLECULE
NONAME
36 37 1 0 0 
SMALL
USER_CHARGES


@<TRIPOS>ATOM
  1 N       -0.1390    -0.1370    -0.1050 N.2   1 <1>  -0.7070 
  2 N       -0.9320    -1.2480    -0.1600 N.pl3 1 <1>   0.5930 
  3 C        1.0840    -0.5740    -0.0590 C.2   1 <1>   0.1080 
  4 C       -2.3520    -1.1780    -0.2330 C.ar  1 <1>  -0.0230 
  5 C       -0.1510    -2.3820    -0.1730 C.2   1 <1>  -0.0680 
  6 C        1.1320    -1.9670    -0.0970 C.2   1 <1>  -0.1500 
  7 C        2.2990     0.3700     0.0260 C.3   1 <1>   0.1810 
  8 C       -2.9740    -0.2730    -1.0870 C.ar  1 <1>  -0.1500 
  9 C       -3.1540    -2.0110     0.5430 C.ar  1 <1>  -0.1500 
 10 N       -0.5860    -3.7210    -0.2640 N.pl3 1 <1>  -0.8840 
 11 C        3.6290    -0.4000     0.0580 C.3   1 <1>  -0.2400 
 12 C        2.3070     1.3020    -1.1960 C.3   1 <1>  -0.2400 
 13 C        2.1970     1.2170     1.3030 C.3   1 <1>  -0.2400 
 14 C       -4.3530    -0.2110    -1.1740 C.ar  1 <1>  -0.1500 
 15 C       -4.5330    -1.9500     0.4560 C.ar  1 <1>  -0.1500 
 16 C       -5.1410    -1.0500    -0.4030 C.ar  1 <1>  -0.1430 
 17 C       -6.6540    -0.9830    -0.5010 C.3   1 <1>  -0.0970 
 18 H        2.0100    -2.5820    -0.0730 H     1 <1>   0.1500 
 19 H       -2.3680     0.3890    -1.6840 H     1 <1>   0.1500 
 20 H       -2.6940    -2.7090     1.2230 H     1 <1>   0.1500 
 21 H        0.1090    -4.3830    -0.6260 H     1 <1>   0.4000 
 22 H       -1.4950    -3.8570    -0.7240 H     1 <1>   0.4000 
 23 H        3.6660    -1.0490     0.9140 H     1 <1>   0.0800 
 24 H        4.4580     0.2830     0.1170 H     1 <1>   0.0800 
 25 H        3.7420    -0.9920    -0.8330 H     1 <1>   0.0800 
 26 H        2.3610     0.7240    -2.1010 H     1 <1>   0.0800 
 27 H        3.1450     1.9740    -1.1600 H     1 <1>   0.0800 
 28 H        1.4020     1.8830    -1.2230 H     1 <1>   0.0800 
 29 H        2.1740     0.5790     2.1680 H     1 <1>   0.0800 
 30 H        1.2910     1.7960     1.2910 H     1 <1>   0.0800 
 31 H        3.0320     1.8890     1.3870 H     1 <1>   0.0800 
 32 H       -4.8100     0.4960    -1.8440 H     1 <1>   0.1500 
 33 H       -5.1320    -2.6060     1.0640 H     1 <1>   0.1500 
 34 H       -6.9710     0.0190    -0.7270 H     1 <1>   0.0800 
 35 H       -7.1050    -1.2780     0.4300 H     1 <1>   0.0800 
 36 H       -6.9980    -1.6400    -1.2790 H     1 <1>   0.0800 
@<TRIPOS>BOND
  1   1   2  1   
  2   1   3  2   
  3   2   4  1   
  4   2   5  1   
  5   3   6  1   
  6   3   7  1   
  7   4   8  ar  
  8   4   9  ar  
  9   5   6  2   
 10   5  10  1   
 11   6  18  1   
 12   7  11  1   
 13   7  12  1   
 14   7  13  1   
 15   8  14  ar  
 16   8  19  1   
 17   9  15  ar  
 18   9  20  1   
 19  10  21  1   
 20  10  22  1   
 21  11  23  1   
 22  11  24  1   
 23  11  25  1   
 24  12  26  1   
 25  12  27  1   
 26  12  28  1   
 27  13  29  1   
 28  13  30  1   
 29  13  31  1   
 30  14  16  ar  
 31  14  32  1   
 32  15  16  ar  
 33  15  33  1   
 34  16  17  1   
 35  17  34  1   
 36  17  35  1   
 37  17  36  1   
@<TRIPOS>SUBSTRUCTURE
  1 ****   2 GROUP 4 **** **** 0

# MOE 2024.06 (io_trps.svl 2023.06)
