@<TRIPOS>MOLECULE
NONAME
35 35 1 0 0 
SMALL
USER_CHARGES


@<TRIPOS>ATOM
  1 CL       3.6810     1.6030     2.0240 Cl    1 <1>  -0.1770 
  2 C        2.1620     2.1610     1.3490 C.ar  1 <1>   0.1770 
  3 C        2.1560     2.9890     0.2270 C.ar  1 <1>   0.0820 
  4 C        0.9850     1.7590     1.9490 C.ar  1 <1>  -0.1500 
  5 O        3.3220     3.3710    -0.3490 O.3   1 <1>  -0.3630 
  6 C        0.9450     3.4100    -0.3190 C.ar  1 <1>  -0.1440 
  7 C       -0.2080     2.1940     1.4040 C.ar  1 <1>   0.1770 
  8 C        4.0390     4.4120     0.2900 C.3   1 <1>   0.1200 
  9 C       -0.2390     3.0070     0.2840 C.ar  1 <1>  -0.1500 
 10 C        0.8990     4.2940    -1.5570 C.3   1 <1>  -0.0960 
 11 CL      -1.7100     1.7040     2.1450 Cl    1 <1>  -0.1770 
 12 C        5.5340     4.2220     0.0050 C.3   1 <1>   0.3430 
 13 N        5.8970     2.7790     0.1100 N.4   1 <1>  -0.9060 
 14 C        7.3010     2.4820    -0.2940 C.3   1 <1>   0.3430 
 15 C        7.6130     0.9870    -0.1940 C.3   1 <1>   0.1200 
 16 O        8.9380     0.8240    -0.5690 O.3   1 <1>  -0.5600 
 17 C        9.3880    -0.4950    -0.5360 C.3   1 <1>   0.0400 
 18 H        0.9900     1.1230     2.8150 H     1 <1>   0.1500 
 19 H        3.8530     4.3750     1.3500 H     1 <1>   0.0800 
 20 H        3.6870     5.3550    -0.0920 H     1 <1>   0.0800 
 21 H       -1.1930     3.3160    -0.1060 H     1 <1>   0.1500 
 22 H        1.2680     5.2760    -1.3240 H     1 <1>   0.0800 
 23 H       -0.1070     4.3870    -1.9270 H     1 <1>   0.0800 
 24 H        1.5050     3.8700    -2.3380 H     1 <1>   0.0800 
 25 H        6.1160     4.8110     0.6960 H     1 <1>   0.0800 
 26 H        5.7420     4.5760    -0.9920 H     1 <1>   0.0800 
 27 H        5.2270     2.2660    -0.4850 H     1 <1>   0.4500 
 28 H        5.7110     2.4440     1.0660 H     1 <1>   0.4500 
 29 H        7.9840     3.0180     0.3450 H     1 <1>   0.0800 
 30 H        7.4620     2.7990    -1.3110 H     1 <1>   0.0800 
 31 H        6.9960     0.4170    -0.8680 H     1 <1>   0.0800 
 32 H        7.5010     0.6350     0.8170 H     1 <1>   0.0800 
 33 H       10.4200    -0.5040    -0.8440 H     1 <1>   0.0800 
 34 H        8.8060    -1.0920    -1.2170 H     1 <1>   0.0800 
 35 H        9.3100    -0.8770     0.4670 H     1 <1>   0.0800 
@<TRIPOS>BOND
  1   1   2  1   
  2   2   3  ar  
  3   2   4  ar  
  4   3   5  1   
  5   3   6  ar  
  6   4   7  ar  
  7   4  18  1   
  8   5   8  1   
  9   6   9  ar  
 10   6  10  1   
 11   7   9  ar  
 12   7  11  1   
 13   8  12  1   
 14   8  19  1   
 15   8  20  1   
 16   9  21  1   
 17  10  22  1   
 18  10  23  1   
 19  10  24  1   
 20  12  13  1   
 21  12  25  1   
 22  12  26  1   
 23  13  14  1   
 24  13  27  1   
 25  13  28  1   
 26  14  15  1   
 27  14  29  1   
 28  14  30  1   
 29  15  16  1   
 30  15  31  1   
 31  15  32  1   
 32  16  17  1   
 33  17  33  1   
 34  17  34  1   
 35  17  35  1   
@<TRIPOS>SUBSTRUCTURE
  1 ****   5 GROUP 4 **** **** 0

# MOE 2024.06 (io_trps.svl 2023.06)
