@<TRIPOS>MOLECULE
NONAME
51 53 1 0 0 
SMALL
USER_CHARGES


@<TRIPOS>ATOM
  1 S       -0.1220     1.0670     1.1050 S.o2  1 <1>   1.4470 
  2 O        0.1340     1.2740     2.5100 O.2   1 <1>  -0.6500 
  3 O       -0.9100     2.0210     0.3600 O.2   1 <1>  -0.6500 
  4 N       -0.9800    -0.4190     1.0890 N.am  1 <1>  -0.7570 
  5 C        1.4350     0.5840     0.2860 C.ar  1 <1>  -0.0090 
  6 C       -1.1920    -1.1870    -0.0450 C.ar  1 <1>   0.1990 
  7 C        1.8460     1.0020    -0.9850 C.ar  1 <1>  -0.1440 
  8 C        2.2620    -0.3010     0.9650 C.ar  1 <1>  -0.1500 
  9 C       -0.7830    -2.5230    -0.0900 C.ar  1 <1>  -0.1440 
 10 C       -1.8110    -0.6320    -1.1590 C.ar  1 <1>  -0.1500 
 11 C        3.0320     0.5240    -1.5220 C.ar  1 <1>  -0.1500 
 12 C        1.0300     1.9710    -1.8310 C.3   1 <1>  -0.0970 
 13 C        3.4480    -0.8080     0.4440 C.ar  1 <1>   0.0860 
 14 C       -0.9810    -3.2600    -1.2460 C.ar  1 <1>  -0.1500 
 15 C       -0.1120    -3.1950     1.1040 C.3   1 <1>  -0.0970 
 16 C       -2.0060    -1.3750    -2.3080 C.ar  1 <1>  -0.1500 
 17 C        3.8190    -0.3690    -0.8230 C.ar  1 <1>  -0.1500 
 18 C        4.2350    -1.7670     1.1980 C.2   1 <1>   0.5440 
 19 C       -1.5870    -2.6910    -2.3530 C.ar  1 <1>  -0.1500 
 20 O        3.6900    -2.5460     1.9550 O.2   1 <1>  -0.5700 
 21 N        5.5950    -1.8140     1.0730 N.am  1 <1>  -0.7300 
 22 C        6.4890    -2.7430     1.8230 C.3   1 <1>   0.1400 
 23 C        6.3290    -4.1990     1.3610 C.3   1 <1>   0.2000 
 24 O        7.3430    -4.9700     1.9160 O.3   1 <1>  -0.5600 
 25 C        6.4800    -4.4240    -0.1390 C.3   1 <1>  -0.1600 
 26 C        7.4820    -6.1530     1.1980 C.3   1 <1>   0.1200 
 27 C        7.0130    -5.8460    -0.2230 C.3   1 <1>  -0.1600 
 28 H       -0.7910    -0.9160     1.9510 H     1 <1>   0.4200 
 29 H        1.9740    -0.6260     1.9510 H     1 <1>   0.1500 
 30 H       -2.1510     0.3870    -1.1240 H     1 <1>   0.1500 
 31 H        3.3500     0.8420    -2.5010 H     1 <1>   0.1500 
 32 H        0.0650     1.5510    -2.0520 H     1 <1>   0.0800 
 33 H        1.5180     2.1840    -2.7650 H     1 <1>   0.0800 
 34 H        0.8960     2.9020    -1.3090 H     1 <1>   0.0800 
 35 H       -0.6640    -4.2880    -1.2960 H     1 <1>   0.1500 
 36 H        0.8580    -2.7660     1.2780 H     1 <1>   0.0800 
 37 H        0.0200    -4.2480     0.9280 H     1 <1>   0.0800 
 38 H       -0.7130    -3.0800     1.9870 H     1 <1>   0.0800 
 39 H       -2.4840    -0.9310    -3.1640 H     1 <1>   0.1500 
 40 H        4.7230    -0.7380    -1.2740 H     1 <1>   0.1500 
 41 H       -1.7340    -3.2740    -3.2460 H     1 <1>   0.1500 
 42 H        6.0700    -1.1010     0.5180 H     1 <1>   0.3700 
 43 H        6.2550    -2.6850     2.8730 H     1 <1>   0.0800 
 44 H        7.5100    -2.4380     1.6800 H     1 <1>   0.0800 
 45 H        5.3910    -4.5980     1.7110 H     1 <1>   0.0800 
 46 H        7.2000    -3.7340    -0.5400 H     1 <1>   0.0800 
 47 H        5.5420    -4.3000    -0.6500 H     1 <1>   0.0800 
 48 H        6.8620    -6.9010     1.6620 H     1 <1>   0.0800 
 49 H        8.5150    -6.4560     1.2320 H     1 <1>   0.0800 
 50 H        7.8260    -5.9220    -0.9230 H     1 <1>   0.0800 
 51 H        6.2380    -6.5370    -0.5060 H     1 <1>   0.0800 
@<TRIPOS>BOND
  1   1   2  2   
  2   1   3  2   
  3   1   4  am  
  4   1   5  1   
  5   4   6  1   
  6   4  28  1   
  7   5   7  ar  
  8   5   8  ar  
  9   6   9  ar  
 10   6  10  ar  
 11   7  11  ar  
 12   7  12  1   
 13   8  13  ar  
 14   8  29  1   
 15   9  14  ar  
 16   9  15  1   
 17  10  16  ar  
 18  10  30  1   
 19  11  17  ar  
 20  11  31  1   
 21  12  32  1   
 22  12  33  1   
 23  12  34  1   
 24  13  17  ar  
 25  13  18  1   
 26  14  19  ar  
 27  14  35  1   
 28  15  36  1   
 29  15  37  1   
 30  15  38  1   
 31  16  19  ar  
 32  16  39  1   
 33  17  40  1   
 34  18  20  2   
 35  18  21  am  
 36  19  41  1   
 37  21  22  1   
 38  21  42  1   
 39  22  23  1   
 40  22  43  1   
 41  22  44  1   
 42  23  24  1   
 43  23  25  1   
 44  23  45  1   
 45  24  26  1   
 46  25  27  1   
 47  25  46  1   
 48  25  47  1   
 49  26  27  1   
 50  26  48  1   
 51  26  49  1   
 52  27  50  1   
 53  27  51  1   
@<TRIPOS>SUBSTRUCTURE
  1 ****  13 GROUP 4 **** **** 0

# MOE 2024.06 (io_trps.svl 2023.06)
