@<TRIPOS>MOLECULE
NONAME
52 54 1 0 0 
SMALL
USER_CHARGES


@<TRIPOS>ATOM
  1 BR      -1.5550     0.4100     0.3210 Br    1 <1>  -0.1110 
  2 C       -0.8730     2.2140     0.2820 C.ar  1 <1>   0.1110 
  3 C       -1.6190     3.2320     0.8490 C.ar  1 <1>  -0.1440 
  4 C        0.3450     2.4310    -0.3290 C.ar  1 <1>  -0.1500 
  5 C       -1.1000     4.5150     0.7960 C.ar  1 <1>  -0.1500 
  6 C       -2.9590     2.9650     1.5030 C.3   1 <1>   0.4870 
  7 C        0.8580     3.7250    -0.3890 C.ar  1 <1>   0.0820 
  8 C        0.1200     4.7760     0.1900 C.ar  1 <1>   0.0820 
  9 N       -3.9800     2.7480     0.4480 N.4   1 <1>  -0.9590 
 10 O        2.0440     3.9810    -1.0110 O.3   1 <1>  -0.3620 
 11 O        0.4770     6.0910     0.2210 O.3   1 <1>  -0.3620 
 12 C       -4.1710     3.9740    -0.4130 C.3   1 <1>   0.3430 
 13 C       -5.2960     2.3150     1.0390 C.3   1 <1>   0.3430 
 14 C        2.8500     2.9620    -1.5660 C.3   1 <1>   0.0400 
 15 C        1.8220     6.5110     0.1380 C.3   1 <1>   0.0400 
 16 C       -5.2280     3.7740    -1.5180 C.3   1 <1>   0.2090 
 17 C       -6.3760     2.0580    -0.0330 C.3   1 <1>   0.2090 
 18 N       -6.5000     3.1900    -0.9970 N.pl3 1 <1>  -0.8380 
 19 C       -7.5700     4.0750    -0.7970 C.ar  1 <1>   0.1000 
 20 C       -7.6260     5.0300     0.2360 C.ar  1 <1>   0.0820 
 21 C       -8.6320     3.9870    -1.6850 C.ar  1 <1>  -0.1500 
 22 O       -6.5730     5.1150     1.1110 O.3   1 <1>  -0.3630 
 23 C       -8.7420     5.8570     0.3420 C.ar  1 <1>  -0.1500 
 24 C       -9.7340     4.8130    -1.5720 C.ar  1 <1>  -0.1500 
 25 C       -6.5500     6.1080     2.1170 C.3   1 <1>   0.0400 
 26 C       -9.7890     5.7490    -0.5580 C.ar  1 <1>  -0.1500 
 27 H        0.8640     1.5900    -0.7480 H     1 <1>   0.1500 
 28 H       -1.6310     5.3460     1.2290 H     1 <1>   0.1500 
 29 H       -3.2380     3.8020     2.1220 H     1 <1>   0.0800 
 30 H       -2.8810     2.0900     2.1290 H     1 <1>   0.0800 
 31 H       -3.6400     1.9950    -0.1640 H     1 <1>   0.4500 
 32 H       -3.2370     4.2490    -0.8750 H     1 <1>   0.0800 
 33 H       -4.4840     4.8000     0.2020 H     1 <1>   0.0800 
 34 H       -5.6620     3.0790     1.7020 H     1 <1>   0.0800 
 35 H       -5.1620     1.4160     1.6160 H     1 <1>   0.0800 
 36 H        3.7340     3.4210    -1.9720 H     1 <1>   0.0800 
 37 H        2.3040     2.4710    -2.3520 H     1 <1>   0.0800 
 38 H        3.1240     2.2690    -0.7910 H     1 <1>   0.0800 
 39 H        1.8760     7.5330     0.4670 H     1 <1>   0.0800 
 40 H        2.1460     6.4430    -0.8850 H     1 <1>   0.0800 
 41 H        2.4270     5.8890     0.7740 H     1 <1>   0.0800 
 42 H       -4.8340     3.1250    -2.2810 H     1 <1>   0.0800 
 43 H       -5.4360     4.7250    -1.9810 H     1 <1>   0.0800 
 44 H       -7.3240     1.9000     0.4540 H     1 <1>   0.0800 
 45 H       -6.1400     1.1610    -0.5780 H     1 <1>   0.0800 
 46 H       -8.5880     3.2580    -2.4740 H     1 <1>   0.1500 
 47 H       -8.8290     6.5970     1.1140 H     1 <1>   0.1500 
 48 H      -10.5460     4.7270    -2.2730 H     1 <1>   0.1500 
 49 H       -5.6290     6.0190     2.6630 H     1 <1>   0.0800 
 50 H       -7.3820     5.9530     2.7820 H     1 <1>   0.0800 
 51 H       -6.6060     7.0780     1.6540 H     1 <1>   0.0800 
 52 H      -10.6470     6.3930    -0.4680 H     1 <1>   0.1500 
@<TRIPOS>BOND
  1   1   2  1   
  2   2   3  ar  
  3   2   4  ar  
  4   3   5  ar  
  5   3   6  1   
  6   4   7  ar  
  7   4  27  1   
  8   5   8  ar  
  9   5  28  1   
 10   6   9  1   
 11   6  29  1   
 12   6  30  1   
 13   7   8  ar  
 14   7  10  1   
 15   8  11  1   
 16   9  12  1   
 17   9  13  1   
 18   9  31  1   
 19  10  14  1   
 20  11  15  1   
 21  12  16  1   
 22  12  32  1   
 23  12  33  1   
 24  13  17  1   
 25  13  34  1   
 26  13  35  1   
 27  14  36  1   
 28  14  37  1   
 29  14  38  1   
 30  15  39  1   
 31  15  40  1   
 32  15  41  1   
 33  16  18  1   
 34  16  42  1   
 35  16  43  1   
 36  17  18  1   
 37  17  44  1   
 38  17  45  1   
 39  18  19  1   
 40  19  20  ar  
 41  19  21  ar  
 42  20  22  1   
 43  20  23  ar  
 44  21  24  ar  
 45  21  46  1   
 46  22  25  1   
 47  23  26  ar  
 48  23  47  1   
 49  24  26  ar  
 50  24  48  1   
 51  25  49  1   
 52  25  50  1   
 53  25  51  1   
 54  26  52  1   
@<TRIPOS>SUBSTRUCTURE
  1 ****  12 GROUP 4 **** **** 0

# MOE 2024.06 (io_trps.svl 2023.06)
