@<TRIPOS>MOLECULE
NONAME
38 38 1 0 0 
SMALL
USER_CHARGES


@<TRIPOS>ATOM
  1 O        6.3500    -4.0700    -1.0710 O.co2 1 <1>  -0.9000 
  2 C        7.4580    -3.5550    -1.3230 C.2   1 <1>   1.0320 
  3 O        8.2580    -4.1710    -2.0490 O.co2 1 <1>  -0.9000 
  4 C        7.7480    -2.2440    -0.7650 C.2   1 <1>  -0.0920 
  5 O        8.8480    -1.5380    -1.0280 O.3   1 <1>  -0.2800 
  6 C        6.9740    -1.5200     0.0820 C.2   1 <1>  -0.1500 
  7 C        8.7880    -0.3900    -0.3910 C.2   1 <1>  -0.0400 
  8 C        7.6360    -0.3110     0.3110 C.2   1 <1>  -0.1810 
  9 C        9.9470     0.5740    -0.5650 C.3   1 <1>   0.0200 
 10 C        7.0900     0.8130     1.1470 C.3   1 <1>   0.5240 
 11 C       11.2200     0.0140     0.0810 C.3   1 <1>  -0.1600 
 12 N        5.8220     1.2060     0.4850 N.4   1 <1>  -0.9590 
 13 C       12.4000     0.9820    -0.0560 C.3   1 <1>  -0.2400 
 14 C        5.6980     2.6670     0.2580 C.3   1 <1>   0.3430 
 15 C        4.6530     0.6140     1.1810 C.3   1 <1>   0.3430 
 16 C        6.6630     3.0960    -0.8420 C.3   1 <1>  -0.2400 
 17 C        3.4990     0.4760     0.1960 C.3   1 <1>  -0.2400 
 18 H        6.0300    -1.8580     0.4730 H     1 <1>   0.1500 
 19 H        9.7080     1.5220    -0.1220 H     1 <1>   0.0800 
 20 H       10.1140     0.7240    -1.6180 H     1 <1>   0.0800 
 21 H        7.7910     1.6300     1.1550 H     1 <1>   0.0800 
 22 H        6.9180     0.4830     2.1580 H     1 <1>   0.0800 
 23 H       11.4690    -0.9220    -0.3900 H     1 <1>   0.0800 
 24 H       11.0360    -0.1850     1.1230 H     1 <1>   0.0800 
 25 H        5.8870     0.7370    -0.4330 H     1 <1>   0.4500 
 26 H       12.6140     1.1680    -1.0940 H     1 <1>   0.0800 
 27 H       13.2770     0.5540     0.3990 H     1 <1>   0.0800 
 28 H       12.1850     1.9170     0.4290 H     1 <1>   0.0800 
 29 H        5.9010     3.2080     1.1680 H     1 <1>   0.0800 
 30 H        4.6940     2.9020    -0.0560 H     1 <1>   0.0800 
 31 H        4.3620     1.2290     2.0180 H     1 <1>   0.0800 
 32 H        4.9070    -0.3660     1.5520 H     1 <1>   0.0800 
 33 H        7.6870     2.9720    -0.5430 H     1 <1>   0.0800 
 34 H        6.5090     4.1380    -1.0600 H     1 <1>   0.0800 
 35 H        6.4820     2.5390    -1.7450 H     1 <1>   0.0800 
 36 H        3.1650     1.4320    -0.1630 H     1 <1>   0.0800 
 37 H        2.6700     0.0010     0.6900 H     1 <1>   0.0800 
 38 H        3.7850    -0.1460    -0.6350 H     1 <1>   0.0800 
@<TRIPOS>BOND
  1   1   2  ar  
  2   2   3  ar  
  3   2   4  1   
  4   4   5  1   
  5   4   6  2   
  6   5   7  1   
  7   6   8  1   
  8   6  18  1   
  9   7   8  2   
 10   7   9  1   
 11   8  10  1   
 12   9  11  1   
 13   9  19  1   
 14   9  20  1   
 15  10  12  1   
 16  10  21  1   
 17  10  22  1   
 18  11  13  1   
 19  11  23  1   
 20  11  24  1   
 21  12  14  1   
 22  12  15  1   
 23  12  25  1   
 24  13  26  1   
 25  13  27  1   
 26  13  28  1   
 27  14  16  1   
 28  14  29  1   
 29  14  30  1   
 30  15  17  1   
 31  15  31  1   
 32  15  32  1   
 33  16  33  1   
 34  16  34  1   
 35  16  35  1   
 36  17  36  1   
 37  17  37  1   
 38  17  38  1   
@<TRIPOS>SUBSTRUCTURE
  1 ****   8 GROUP 4 **** **** 0

# MOE 2024.06 (io_trps.svl 2023.06)
