@<TRIPOS>MOLECULE
NONAME
52 55 1 0 0 
SMALL
USER_CHARGES


@<TRIPOS>ATOM
  1 O        0.0890     1.3830    -0.6120 O.3   1 <1>  -0.6800 
  2 C        1.4270     1.5450    -0.2390 C.3   1 <1>   0.2000 
  3 C        1.9930     2.8390    -0.8750 C.3   1 <1>   0.3430 
  4 C        2.2060     0.2900    -0.6570 C.3   1 <1>  -0.0170 
  5 N        0.9200     3.8590    -1.0460 N.4   1 <1>  -0.9060 
  6 C        1.5160    -0.9630    -0.1380 C.ar  1 <1>  -0.1440 
  7 C        0.4880     4.5250     0.1750 C.3   1 <1>   0.6030 
  8 C        1.6600    -1.3430     1.1870 C.ar  1 <1>  -0.1500 
  9 C        0.7250    -1.7260    -0.9840 C.ar  1 <1>  -0.1500 
 10 C       -1.0060     4.6500     0.0380 C.2   1 <1>  -0.3320 
 11 C        1.1610     5.9110     0.2570 C.3   1 <1>  -0.1600 
 12 C        1.0110    -2.4680     1.6650 C.ar  1 <1>  -0.1500 
 13 C        0.0760    -2.8510    -0.5070 C.ar  1 <1>  -0.1500 
 14 N       -1.8830     3.6160    -0.1660 N.pl3 1 <1>   0.0330 
 15 C       -1.6930     5.8090     0.1300 C.2   1 <1>  -0.1810 
 16 C        0.3280     6.9460     1.0450 C.3   1 <1>  -0.1600 
 17 C        0.2180    -3.2220     0.8180 C.ar  1 <1>  -0.1500 
 18 C       -3.1450     4.1450    -0.2420 C.ar  1 <1>  -0.1520 
 19 C       -3.0610     5.5220    -0.0630 C.ar  1 <1>   0.0000 
 20 C       -1.0650     7.1570     0.4220 C.3   1 <1>   0.0210 
 21 C       -4.3790     3.5260    -0.4540 C.ar  1 <1>  -0.1500 
 22 C       -4.2240     6.2970    -0.0980 C.ar  1 <1>  -0.1500 
 23 C       -5.5140     4.3030    -0.4870 C.ar  1 <1>  -0.1500 
 24 C       -5.4430     5.6910    -0.3100 C.ar  1 <1>  -0.1440 
 25 C       -6.7240     6.5030    -0.3540 C.3   1 <1>  -0.0960 
 26 H       -0.1700     0.4490    -0.4100 H     1 <1>   0.4000 
 27 H        1.4490     1.6280     0.8350 H     1 <1>   0.0800 
 28 H        2.3910     2.5870    -1.8440 H     1 <1>   0.0800 
 29 H        2.8030     3.2260    -0.2790 H     1 <1>   0.0800 
 30 H        3.2050     0.3320    -0.2610 H     1 <1>   0.0800 
 31 H        2.2880     0.2450    -1.7290 H     1 <1>   0.0800 
 32 H        0.0870     3.3400    -1.3570 H     1 <1>   0.4500 
 33 H        1.1100     4.5630    -1.7620 H     1 <1>   0.4500 
 34 H        0.7120     3.9350     1.0500 H     1 <1>   0.0800 
 35 H        2.2770    -0.7740     1.8610 H     1 <1>   0.1500 
 36 H        0.6070    -1.4580    -2.0200 H     1 <1>   0.1500 
 37 H        1.3050     6.3090    -0.7330 H     1 <1>   0.0800 
 38 H        2.1250     5.8080     0.7220 H     1 <1>   0.0800 
 39 H        1.1250    -2.7630     2.6940 H     1 <1>   0.1500 
 40 H       -0.5360    -3.4440    -1.1660 H     1 <1>   0.1500 
 41 H       -1.6720     2.6090    -0.2190 H     1 <1>   0.2700 
 42 H        0.8470     7.8890     1.0800 H     1 <1>   0.0800 
 43 H        0.2030     6.6040     2.0590 H     1 <1>   0.0800 
 44 H       -0.2860    -4.0980     1.1900 H     1 <1>   0.1500 
 45 H       -1.6880     7.7090     1.1050 H     1 <1>   0.0800 
 46 H       -0.9890     7.7170    -0.4940 H     1 <1>   0.0800 
 47 H       -4.4360     2.4610    -0.5890 H     1 <1>   0.1500 
 48 H       -4.1440     7.3590     0.0410 H     1 <1>   0.1500 
 49 H       -6.4730     3.8440    -0.6490 H     1 <1>   0.1500 
 50 H       -6.5210     7.5480    -0.2050 H     1 <1>   0.0800 
 51 H       -7.3940     6.1700     0.4180 H     1 <1>   0.0800 
 52 H       -7.2020     6.3790    -1.3090 H     1 <1>   0.0800 
@<TRIPOS>BOND
  1   1   2  1   
  2   1  26  1   
  3   2   3  1   
  4   2   4  1   
  5   2  27  1   
  6   3   5  1   
  7   3  28  1   
  8   3  29  1   
  9   4   6  1   
 10   4  30  1   
 11   4  31  1   
 12   5   7  1   
 13   5  32  1   
 14   5  33  1   
 15   6   8  ar  
 16   6   9  ar  
 17   7  10  1   
 18   7  11  1   
 19   7  34  1   
 20   8  12  ar  
 21   8  35  1   
 22   9  13  ar  
 23   9  36  1   
 24  10  14  1   
 25  10  15  2   
 26  11  16  1   
 27  11  37  1   
 28  11  38  1   
 29  12  17  ar  
 30  12  39  1   
 31  13  17  ar  
 32  13  40  1   
 33  14  18  1   
 34  14  41  1   
 35  15  19  1   
 36  15  20  1   
 37  16  20  1   
 38  16  42  1   
 39  16  43  1   
 40  17  44  1   
 41  18  19  ar  
 42  18  21  ar  
 43  19  22  ar  
 44  20  45  1   
 45  20  46  1   
 46  21  23  ar  
 47  21  47  1   
 48  22  24  ar  
 49  22  48  1   
 50  23  24  ar  
 51  23  49  1   
 52  24  25  1   
 53  25  50  1   
 54  25  51  1   
 55  25  52  1   
@<TRIPOS>SUBSTRUCTURE
  1 ****  14 GROUP 4 **** **** 0

# MOE 2024.06 (io_trps.svl 2023.06)
