@<TRIPOS>MOLECULE
NONAME
50 52 1 0 0 
SMALL
USER_CHARGES


@<TRIPOS>ATOM
  1 O        1.1670    -1.8290    -2.2910 O.2   1 <1>  -0.5700 
  2 C        0.5120    -1.6790    -1.2770 C.2   1 <1>   0.5440 
  3 N        1.0920    -1.0690    -0.1890 N.am  1 <1>  -0.5470 
  4 C       -0.8530    -2.1730    -1.2030 C.ar  1 <1>   0.0860 
  5 C        2.3640    -0.5130    -0.0060 C.ar  1 <1>   0.1170 
  6 C       -1.8260    -1.6550    -0.3290 C.ar  1 <1>   0.0830 
  7 C       -1.2440    -3.2310    -2.0270 C.ar  1 <1>  -0.1500 
  8 C        3.0910     0.0550    -1.0450 C.ar  1 <1>  -0.1500 
  9 C        2.9220    -0.5080     1.2660 C.ar  1 <1>  -0.1500 
 10 O       -1.5450    -0.6020     0.4690 O.3   1 <1>  -0.3630 
 11 C       -3.1030    -2.2090    -0.2520 C.ar  1 <1>  -0.1430 
 12 C       -2.5130    -3.7700    -1.9720 C.ar  1 <1>  -0.1500 
 13 C        4.3460     0.5920    -0.8280 C.ar  1 <1>  -0.1500 
 14 C        4.1780     0.0260     1.4910 C.ar  1 <1>  -0.1500 
 15 C       -1.7000     0.6810    -0.1030 C.3   1 <1>   0.0400 
 16 C       -3.4410    -3.2630    -1.0810 C.ar  1 <1>  -0.1500 
 17 C       -4.1390    -1.6740     0.7290 C.3   1 <1>  -0.0970 
 18 C        4.9040     0.5710     0.4410 C.ar  1 <1>  -0.1430 
 19 C        6.2970     1.1230     0.6720 C.3   1 <1>   0.4860 
 20 N        7.2760     0.1820     0.0640 N.4   1 <1>  -0.9590 
 21 C        7.2350    -1.1710     0.7240 C.3   1 <1>   0.3430 
 22 C        8.6720     0.7390     0.0640 C.3   1 <1>   0.3430 
 23 C        8.3260    -2.1060     0.1670 C.3   1 <1>   0.1200 
 24 C        9.6890    -0.2900    -0.4660 C.3   1 <1>   0.1200 
 25 O        9.5790    -1.4890     0.2450 O.3   1 <1>  -0.5600 
 26 H        0.4520    -0.9990     0.6070 H     1 <1>   0.3700 
 27 H       -0.5310    -3.6420    -2.7220 H     1 <1>   0.1500 
 28 H        2.6680     0.0790    -2.0350 H     1 <1>   0.1500 
 29 H        2.3660    -0.9310     2.0840 H     1 <1>   0.1500 
 30 H       -2.7820    -4.5870    -2.6200 H     1 <1>   0.1500 
 31 H        4.8690     1.0250    -1.6640 H     1 <1>   0.1500 
 32 H        4.5770     0.0090     2.4920 H     1 <1>   0.1500 
 33 H       -2.7130     0.7910    -0.4470 H     1 <1>   0.0800 
 34 H       -1.0140     0.7860    -0.9260 H     1 <1>   0.0800 
 35 H       -1.4850     1.4160     0.6510 H     1 <1>   0.0800 
 36 H       -4.4250    -3.6980    -1.0410 H     1 <1>   0.1500 
 37 H       -3.6980    -1.5530     1.7020 H     1 <1>   0.0800 
 38 H       -4.9700    -2.3500     0.8190 H     1 <1>   0.0800 
 39 H       -4.5050    -0.7220     0.3920 H     1 <1>   0.0800 
 40 H        6.4840     1.2280     1.7280 H     1 <1>   0.0800 
 41 H        6.3750     2.0940     0.2100 H     1 <1>   0.0800 
 42 H        6.9790     0.0390    -0.9090 H     1 <1>   0.4500 
 43 H        6.2680    -1.6260     0.5750 H     1 <1>   0.0800 
 44 H        7.3900    -1.0660     1.7850 H     1 <1>   0.0800 
 45 H        8.9580     1.0060     1.0680 H     1 <1>   0.0800 
 46 H        8.7170     1.6280    -0.5420 H     1 <1>   0.0800 
 47 H        8.1290    -2.3680    -0.8580 H     1 <1>   0.0800 
 48 H        8.3700    -3.0110     0.7480 H     1 <1>   0.0800 
 49 H       10.6920     0.0770    -0.3340 H     1 <1>   0.0800 
 50 H        9.5330    -0.4910    -1.5120 H     1 <1>   0.0800 
@<TRIPOS>BOND
  1   1   2  2   
  2   2   3  am  
  3   2   4  1   
  4   3   5  1   
  5   3  26  1   
  6   4   6  ar  
  7   4   7  ar  
  8   5   8  ar  
  9   5   9  ar  
 10   6  10  1   
 11   6  11  ar  
 12   7  12  ar  
 13   7  27  1   
 14   8  13  ar  
 15   8  28  1   
 16   9  14  ar  
 17   9  29  1   
 18  10  15  1   
 19  11  16  ar  
 20  11  17  1   
 21  12  16  ar  
 22  12  30  1   
 23  13  18  ar  
 24  13  31  1   
 25  14  18  ar  
 26  14  32  1   
 27  15  33  1   
 28  15  34  1   
 29  15  35  1   
 30  16  36  1   
 31  17  37  1   
 32  17  38  1   
 33  17  39  1   
 34  18  19  1   
 35  19  20  1   
 36  19  40  1   
 37  19  41  1   
 38  20  21  1   
 39  20  22  1   
 40  20  42  1   
 41  21  23  1   
 42  21  43  1   
 43  21  44  1   
 44  22  24  1   
 45  22  45  1   
 46  22  46  1   
 47  23  25  1   
 48  23  47  1   
 49  23  48  1   
 50  24  25  1   
 51  24  49  1   
 52  24  50  1   
@<TRIPOS>SUBSTRUCTURE
  1 ****   5 GROUP 4 **** **** 0

# MOE 2024.06 (io_trps.svl 2023.06)
