@<TRIPOS>MOLECULE
NONAME
47 48 1 0 0 
SMALL
USER_CHARGES


@<TRIPOS>ATOM
  1 O       -0.1710    -0.5170    -1.4780 O.2   1 <1>  -0.5700 
  2 C       -0.5920    -1.3580    -0.7180 C.2   1 <1>   0.4950 
  3 C       -1.9660    -1.4720    -0.3290 C.2   1 <1>   0.0290 
  4 C        0.4420    -2.3430    -0.1970 C.3   1 <1>  -0.0990 
  5 C       -2.1980    -2.2730     0.8360 C.2   1 <1>   0.4950 
  6 C       -2.9200    -0.8270    -1.0980 C.2   1 <1>  -0.0500 
  7 C       -0.1790    -3.7060     0.1430 C.3   1 <1>   0.0000 
  8 O       -3.0320    -2.0440     1.6790 O.2   1 <1>  -0.5700 
  9 C       -1.3160    -3.4730     1.1510 C.3   1 <1>  -0.0990 
 10 N       -4.2840    -0.8390    -1.1230 N.pl3 1 <1>  -0.8690 
 11 C       -0.7130    -4.3980    -1.1260 C.3   1 <1>  -0.2400 
 12 C        0.8890    -4.6160     0.7680 C.3   1 <1>  -0.2400 
 13 C       -5.2830    -1.5770    -0.3180 C.3   1 <1>   0.2890 
 14 C       -5.2620    -3.0390    -0.7850 C.3   1 <1>  -0.1600 
 15 C       -6.6330    -0.8730    -0.5170 C.3   1 <1>  -0.1600 
 16 C       -6.1220    -4.0050     0.0460 C.3   1 <1>  -0.1600 
 17 C       -7.6200    -1.0630     0.6530 C.3   1 <1>  -0.1600 
 18 C       -7.5870    -4.1050    -0.4170 C.3   1 <1>  -0.1600 
 19 C       -8.8260    -1.9540     0.3240 C.3   1 <1>  -0.1600 
 20 C       -8.5960    -3.4560     0.5410 C.3   1 <1>  -0.1600 
 21 H        1.2080    -2.4680    -0.9420 H     1 <1>   0.0800 
 22 H        0.9040    -1.9120     0.6730 H     1 <1>   0.0800 
 23 H       -2.5140    -0.1910    -1.8710 H     1 <1>   0.1500 
 24 H       -0.8970    -3.3020     2.1270 H     1 <1>   0.0800 
 25 H       -1.9350    -4.3490     1.2220 H     1 <1>   0.0800 
 26 H       -4.7600    -0.2600    -1.8250 H     1 <1>   0.4000 
 27 H        0.0790    -4.5320    -1.8430 H     1 <1>   0.0800 
 28 H       -1.4960    -3.8330    -1.5990 H     1 <1>   0.0800 
 29 H       -1.1100    -5.3690    -0.8850 H     1 <1>   0.0800 
 30 H        1.3070    -4.1690     1.6540 H     1 <1>   0.0800 
 31 H        1.6910    -4.7930     0.0720 H     1 <1>   0.0800 
 32 H        0.4650    -5.5670     1.0400 H     1 <1>   0.0800 
 33 H       -5.0230    -1.5030     0.7190 H     1 <1>   0.0800 
 34 H       -5.5360    -3.0940    -1.8230 H     1 <1>   0.0800 
 35 H       -4.2480    -3.3820    -0.7090 H     1 <1>   0.0800 
 36 H       -6.4410     0.1840    -0.5800 H     1 <1>   0.0800 
 37 H       -7.0730    -1.1750    -1.4500 H     1 <1>   0.0800 
 38 H       -5.6880    -4.9840    -0.0650 H     1 <1>   0.0800 
 39 H       -6.0520    -3.7590     1.0920 H     1 <1>   0.0800 
 40 H       -7.1190    -1.4220     1.5360 H     1 <1>   0.0800 
 41 H       -8.0080    -0.0890     0.9010 H     1 <1>   0.0800 
 42 H       -7.7140    -3.7160    -1.4130 H     1 <1>   0.0800 
 43 H       -7.8320    -5.1520    -0.4660 H     1 <1>   0.0800 
 44 H       -9.6300    -1.6630     0.9780 H     1 <1>   0.0800 
 45 H       -9.1650    -1.7730    -0.6810 H     1 <1>   0.0800 
 46 H       -8.3140    -3.6430     1.5630 H     1 <1>   0.0800 
 47 H       -9.5440    -3.9440     0.3900 H     1 <1>   0.0800 
@<TRIPOS>BOND
  1   1   2  2   
  2   2   3  1   
  3   2   4  1   
  4   3   5  1   
  5   3   6  2   
  6   4   7  1   
  7   4  21  1   
  8   4  22  1   
  9   5   8  2   
 10   5   9  1   
 11   6  10  1   
 12   6  23  1   
 13   7   9  1   
 14   7  11  1   
 15   7  12  1   
 16   9  24  1   
 17   9  25  1   
 18  10  13  1   
 19  10  26  1   
 20  11  27  1   
 21  11  28  1   
 22  11  29  1   
 23  12  30  1   
 24  12  31  1   
 25  12  32  1   
 26  13  14  1   
 27  13  15  1   
 28  13  33  1   
 29  14  16  1   
 30  14  34  1   
 31  14  35  1   
 32  15  17  1   
 33  15  36  1   
 34  15  37  1   
 35  16  18  1   
 36  16  38  1   
 37  16  39  1   
 38  17  19  1   
 39  17  40  1   
 40  17  41  1   
 41  18  20  1   
 42  18  42  1   
 43  18  43  1   
 44  19  20  1   
 45  19  44  1   
 46  19  45  1   
 47  20  46  1   
 48  20  47  1   
@<TRIPOS>SUBSTRUCTURE
  1 ****   5 GROUP 4 **** **** 0

# MOE 2024.06 (io_trps.svl 2023.06)
