@<TRIPOS>MOLECULE
NONAME
38 40 1 0 0 
SMALL
USER_CHARGES


@<TRIPOS>ATOM
  1 S       -0.3470     0.0010    -0.9090 S.3   1 <1>  -0.0800 
  2 C        0.6240    -1.3190    -0.2610 C.2   1 <1>   0.3250 
  3 C       -1.7920    -0.9090    -0.6150 C.2   1 <1>  -0.1100 
  4 N       -0.1040    -2.3110     0.1250 N.2   1 <1>  -0.5650 
  5 C        2.0670    -1.1940    -0.2150 C.ar  1 <1>   0.0530 
  6 C       -1.4550    -2.0880    -0.0700 C.2   1 <1>   0.0460 
  7 C        2.7560    -0.0540    -0.6420 C.ar  1 <1>  -0.1500 
  8 C        2.8420    -2.2470     0.2750 C.ar  1 <1>  -0.1500 
  9 C       -2.4090    -3.1990     0.3470 C.3   1 <1>   0.3210 
 10 C        4.1350     0.0260    -0.5800 C.ar  1 <1>  -0.1500 
 11 C        4.2210    -2.1720     0.3380 C.ar  1 <1>  -0.1500 
 12 N       -3.7770    -2.6700     0.5720 N.am  1 <1>  -0.7300 
 13 C        4.8790    -1.0320    -0.0880 C.ar  1 <1>  -0.1430 
 14 C       -4.8830    -3.0750    -0.1020 C.2   1 <1>   0.5770 
 15 C        6.3930    -0.9460    -0.0220 C.3   1 <1>  -0.0970 
 16 O       -4.8290    -3.9510    -0.9300 O.2   1 <1>  -0.5700 
 17 C       -6.2200    -2.4160     0.2120 C.3   1 <1>   0.0530 
 18 C       -7.1550    -2.1900    -1.0080 C.3   1 <1>   0.0000 
 19 C       -6.1790    -0.8690     0.3580 C.3   1 <1>   0.0000 
 20 C       -7.5570    -0.8450    -0.3510 C.3   1 <1>   0.0000 
 21 H       -2.7350    -0.4700    -0.8840 H     1 <1>   0.1500 
 22 H        2.2180     0.7910    -1.0300 H     1 <1>   0.1500 
 23 H        2.3510    -3.1430     0.6120 H     1 <1>   0.1500 
 24 H       -2.0550    -3.6390     1.2630 H     1 <1>   0.0800 
 25 H       -2.4150    -3.9640    -0.4100 H     1 <1>   0.0800 
 26 H        4.6310     0.9190    -0.9190 H     1 <1>   0.1500 
 27 H        4.7800    -3.0070     0.7220 H     1 <1>   0.1500 
 28 H       -3.8420    -1.9300     1.2710 H     1 <1>   0.3700 
 29 H        6.7050     0.0720     0.1250 H     1 <1>   0.0800 
 30 H        6.8180    -1.3110    -0.9390 H     1 <1>   0.0800 
 31 H        6.7670    -1.5360     0.7950 H     1 <1>   0.0800 
 32 H       -6.7360    -2.8840     1.0340 H     1 <1>   0.0000 
 33 H       -7.9600    -2.9000    -1.0780 H     1 <1>   0.0000 
 34 H       -6.6210    -2.0500    -1.9340 H     1 <1>   0.0000 
 35 H       -5.4070    -0.4060    -0.2340 H     1 <1>   0.0000 
 36 H       -6.2060    -0.5260     1.3760 H     1 <1>   0.0000 
 37 H       -8.3800    -0.9480     0.3370 H     1 <1>   0.0000 
 38 H       -7.6750    -0.0360    -1.0490 H     1 <1>   0.0000 
@<TRIPOS>BOND
  1   1   2  1   
  2   1   3  1   
  3   2   4  2   
  4   2   5  1   
  5   3   6  2   
  6   3  21  1   
  7   4   6  1   
  8   5   7  ar  
  9   5   8  ar  
 10   6   9  1   
 11   7  10  ar  
 12   7  22  1   
 13   8  11  ar  
 14   8  23  1   
 15   9  12  1   
 16   9  24  1   
 17   9  25  1   
 18  10  13  ar  
 19  10  26  1   
 20  11  13  ar  
 21  11  27  1   
 22  12  14  am  
 23  12  28  1   
 24  13  15  1   
 25  14  16  2   
 26  14  17  1   
 27  15  29  1   
 28  15  30  1   
 29  15  31  1   
 30  17  18  1   
 31  17  19  1   
 32  17  32  1   
 33  18  20  1   
 34  18  33  1   
 35  18  34  1   
 36  19  20  1   
 37  19  35  1   
 38  19  36  1   
 39  20  37  1   
 40  20  38  1   
@<TRIPOS>SUBSTRUCTURE
  1 ****   6 GROUP 4 **** **** 0

# MOE 2024.06 (io_trps.svl 2023.06)
