@<TRIPOS>MOLECULE
NONAME
42 43 1 0 0 
SMALL
USER_CHARGES


@<TRIPOS>ATOM
  1 O        0.1810     1.1420    -1.8610 O.2   1 <1>  -0.5700 
  2 C       -0.1140     1.8100    -0.8990 C.2   1 <1>   0.5690 
  3 N       -1.3790     1.8360    -0.4160 N.am  1 <1>  -0.7300 
  4 C        0.9520     2.6560    -0.2020 C.3   1 <1>  -0.0190 
  5 C       -2.5200     1.1640    -1.0400 C.3   1 <1>   0.3640 
  6 C        1.4880     3.7590    -1.1350 C.3   1 <1>  -0.1600 
  7 C        2.1070     1.7830     0.3260 C.3   1 <1>  -0.1600 
  8 C       -3.7680     1.9930    -0.7560 C.ar  1 <1>  -0.1440 
  9 C       -2.6260    -0.2550    -0.4880 C.3   1 <1>  -0.2400 
 10 C        2.5660     4.6070    -0.4450 C.3   1 <1>  -0.1600 
 11 C        3.1850     2.6310     1.0160 C.3   1 <1>  -0.1600 
 12 C       -4.4270     2.6190    -1.8040 C.ar  1 <1>  -0.1500 
 13 C       -4.2630     2.1470     0.5340 C.ar  1 <1>  -0.1500 
 14 C        3.7090     3.7290     0.0810 C.3   1 <1>  -0.1600 
 15 C       -5.5580     3.3790    -1.5700 C.ar  1 <1>  -0.1500 
 16 C       -5.3950     2.9060     0.7730 C.ar  1 <1>  -0.1500 
 17 C       -6.0520     3.5290    -0.2850 C.ar  1 <1>   0.0820 
 18 O       -7.1660     4.2900    -0.1410 O.3   1 <1>  -0.3620 
 19 C       -7.7640     4.4850     1.1200 C.3   1 <1>   0.0400 
 20 H       -1.6360     2.4700     0.3390 H     1 <1>   0.3700 
 21 H        0.4930     3.1360     0.6430 H     1 <1>   0.0800 
 22 H       -2.3560     1.1100    -2.1050 H     1 <1>   0.0800 
 23 H        0.6770     4.3930    -1.4480 H     1 <1>   0.0800 
 24 H        1.9060     3.3030    -2.0170 H     1 <1>   0.0800 
 25 H        2.5510     1.2490    -0.4980 H     1 <1>   0.0800 
 26 H        1.7220     1.0550     1.0180 H     1 <1>   0.0800 
 27 H       -2.7030    -0.2520     0.5830 H     1 <1>   0.0800 
 28 H       -1.7580    -0.8200    -0.7780 H     1 <1>   0.0800 
 29 H       -3.4950    -0.7350    -0.8970 H     1 <1>   0.0800 
 30 H        2.1260     5.1490     0.3750 H     1 <1>   0.0800 
 31 H        2.9580     5.3270    -1.1430 H     1 <1>   0.0800 
 32 H        4.0010     1.9980     1.3190 H     1 <1>   0.0800 
 33 H        2.7730     3.0840     1.9020 H     1 <1>   0.0800 
 34 H       -4.0610     2.5200    -2.8120 H     1 <1>   0.1500 
 35 H       -3.7690     1.6730     1.3640 H     1 <1>   0.1500 
 36 H        4.4220     4.3410     0.6060 H     1 <1>   0.0800 
 37 H        4.2170     3.2720    -0.7520 H     1 <1>   0.0800 
 38 H       -6.0670     3.8630    -2.3830 H     1 <1>   0.1500 
 39 H       -5.7500     3.0020     1.7810 H     1 <1>   0.1500 
 40 H       -8.6290     5.1090     0.9860 H     1 <1>   0.0800 
 41 H       -7.0590     4.9730     1.7700 H     1 <1>   0.0800 
 42 H       -8.0600     3.5300     1.5180 H     1 <1>   0.0800 
@<TRIPOS>BOND
  1   1   2  2   
  2   2   3  am  
  3   2   4  1   
  4   3   5  1   
  5   3  20  1   
  6   4   6  1   
  7   4   7  1   
  8   4  21  1   
  9   5   8  1   
 10   5   9  1   
 11   5  22  1   
 12   6  10  1   
 13   6  23  1   
 14   6  24  1   
 15   7  11  1   
 16   7  25  1   
 17   7  26  1   
 18   8  12  ar  
 19   8  13  ar  
 20   9  27  1   
 21   9  28  1   
 22   9  29  1   
 23  10  14  1   
 24  10  30  1   
 25  10  31  1   
 26  11  14  1   
 27  11  32  1   
 28  11  33  1   
 29  12  15  ar  
 30  12  34  1   
 31  13  16  ar  
 32  13  35  1   
 33  14  36  1   
 34  14  37  1   
 35  15  17  ar  
 36  15  38  1   
 37  16  17  ar  
 38  16  39  1   
 39  17  18  1   
 40  18  19  1   
 41  19  40  1   
 42  19  41  1   
 43  19  42  1   
@<TRIPOS>SUBSTRUCTURE
  1 ****   3 GROUP 4 **** **** 0

# MOE 2024.06 (io_trps.svl 2023.06)
