@<TRIPOS>MOLECULE
NONAME
41 42 1 0 0 
SMALL
USER_CHARGES


@<TRIPOS>ATOM
  1 O       -0.1560    -1.1770     0.5960 O.2   1 <1>  -0.5700 
  2 C        0.3070    -2.2880     0.4260 C.2   1 <1>   0.6900 
  3 N       -0.4330    -3.2700    -0.1900 N.am  1 <1>  -0.6600 
  4 N        1.5710    -2.4960     0.8830 N.am  1 <1>  -0.5470 
  5 C       -0.2380    -4.7240     0.0650 C.3   1 <1>   0.1400 
  6 C       -1.6350    -2.9290    -0.9950 C.3   1 <1>   0.1400 
  7 C        2.6090    -3.2810     0.3640 C.ar  1 <1>   0.1170 
  8 C       -1.4890    -5.3060     0.7290 C.3   1 <1>  -0.1600 
  9 C       -2.8880    -3.4910    -0.3210 C.3   1 <1>  -0.1600 
 10 C        3.5980    -3.7550     1.2170 C.ar  1 <1>  -0.1500 
 11 C        2.6860    -3.5940    -0.9880 C.ar  1 <1>  -0.1500 
 12 C       -2.7680    -5.0080    -0.0790 C.3   1 <1>  -0.0190 
 13 C        4.6370    -4.5330     0.7370 C.ar  1 <1>  -0.1500 
 14 C        3.7220    -4.3710    -1.4730 C.ar  1 <1>  -0.1500 
 15 C       -4.0310    -5.5630     0.5790 C.2   1 <1>   0.6590 
 16 C        4.7020    -4.8480    -0.6180 C.ar  1 <1>   0.0820 
 17 O       -4.0520    -5.9750     1.7110 O.2   1 <1>  -0.5700 
 18 O       -5.1170    -5.5700    -0.1870 O.3   1 <1>  -0.4300 
 19 O        5.6820    -5.6070    -1.1750 O.3   1 <1>  -0.3630 
 20 C       -6.3570    -6.0500     0.2900 C.3   1 <1>   0.0400 
 21 C        6.7380    -6.1180    -0.3920 C.3   1 <1>   0.0400 
 22 H        1.8570    -1.7360     1.4950 H     1 <1>   0.3700 
 23 H        0.6050    -4.8900     0.7120 H     1 <1>   0.0800 
 24 H       -0.0470    -5.2220    -0.8700 H     1 <1>   0.0800 
 25 H       -1.5260    -3.3500    -1.9800 H     1 <1>   0.0800 
 26 H       -1.7290    -1.8610    -1.1020 H     1 <1>   0.0800 
 27 H       -1.5780    -4.8870     1.7170 H     1 <1>   0.0800 
 28 H       -1.3690    -6.3690     0.8390 H     1 <1>   0.0800 
 29 H       -3.7420    -3.2860    -0.9430 H     1 <1>   0.0800 
 30 H       -3.0360    -2.9810     0.6160 H     1 <1>   0.0800 
 31 H        3.5490    -3.5170     2.2640 H     1 <1>   0.1500 
 32 H        1.9350    -3.2240    -1.6630 H     1 <1>   0.1500 
 33 H       -2.6770    -5.4940    -1.0340 H     1 <1>   0.0800 
 34 H        5.3800    -4.8840     1.4270 H     1 <1>   0.1500 
 35 H        3.7800    -4.6120    -2.5190 H     1 <1>   0.1500 
 36 H       -7.0850    -5.9580    -0.4960 H     1 <1>   0.0800 
 37 H       -6.6520    -5.4620     1.1420 H     1 <1>   0.0800 
 38 H       -6.2440    -7.0820     0.5740 H     1 <1>   0.0800 
 39 H        7.3930    -6.6750    -1.0380 H     1 <1>   0.0800 
 40 H        6.3300    -6.7680     0.3620 H     1 <1>   0.0800 
 41 H        7.2730    -5.2970     0.0520 H     1 <1>   0.0800 
@<TRIPOS>BOND
  1   1   2  2   
  2   2   3  am  
  3   2   4  am  
  4   3   5  1   
  5   3   6  1   
  6   4   7  1   
  7   4  22  1   
  8   5   8  1   
  9   5  23  1   
 10   5  24  1   
 11   6   9  1   
 12   6  25  1   
 13   6  26  1   
 14   7  10  ar  
 15   7  11  ar  
 16   8  12  1   
 17   8  27  1   
 18   8  28  1   
 19   9  12  1   
 20   9  29  1   
 21   9  30  1   
 22  10  13  ar  
 23  10  31  1   
 24  11  14  ar  
 25  11  32  1   
 26  12  15  1   
 27  12  33  1   
 28  13  16  ar  
 29  13  34  1   
 30  14  16  ar  
 31  14  35  1   
 32  15  17  2   
 33  15  18  1   
 34  16  19  1   
 35  18  20  1   
 36  19  21  1   
 37  20  36  1   
 38  20  37  1   
 39  20  38  1   
 40  21  39  1   
 41  21  40  1   
 42  21  41  1   
@<TRIPOS>SUBSTRUCTURE
  1 ****   5 GROUP 4 **** **** 0

# MOE 2024.06 (io_trps.svl 2023.06)
