@<TRIPOS>MOLECULE
NONAME
50 52 1 0 0 
SMALL
USER_CHARGES


@<TRIPOS>ATOM
  1 O       -1.4340    -1.9990     2.4990 O.2   1 <1>  -0.5700 
  2 C       -1.8940    -1.2320     1.6850 C.2   1 <1>   0.5690 
  3 N       -1.9530     0.1150     1.8490 N.am  1 <1>  -0.5470 
  4 C       -2.4760    -1.6180     0.3100 C.3   1 <1>   0.4810 
  5 C       -2.4660     0.7280     0.7170 C.ar  1 <1>   0.1170 
  6 C       -1.4640    -2.3610    -0.5790 C.2   1 <1>  -0.1240 
  7 C       -3.8020    -2.3770     0.4570 C.2   1 <1>  -0.1240 
  8 C       -2.7760    -0.2190    -0.2410 C.ar  1 <1>  -0.1440 
  9 C       -2.6660     2.0760     0.4710 C.ar  1 <1>  -0.1500 
 10 C       -1.7760    -3.6220    -1.0070 C.2   1 <1>   0.1770 
 11 C       -0.2490    -1.6940    -0.9210 C.2   1 <1>   0.7060 
 12 C       -3.9150    -3.6300    -0.0410 C.2   1 <1>  -0.0620 
 13 C       -4.8530    -1.6530     1.1120 C.2   1 <1>   0.7060 
 14 C       -3.2820     0.1590    -1.4710 C.ar  1 <1>  -0.1500 
 15 C       -3.1740     2.4600    -0.7600 C.ar  1 <1>  -0.1500 
 16 O       -2.9230    -4.2340    -0.6980 O.3   1 <1>  -0.1530 
 17 N       -0.9800    -4.4020    -1.7890 N.pl3 1 <1>  -0.9000 
 18 O        0.4790    -2.0620    -1.8300 O.2   1 <1>  -0.5700 
 19 O        0.1240    -0.6120    -0.2240 O.3   1 <1>  -0.4300 
 20 C       -5.1330    -4.5360     0.0560 C.3   1 <1>  -0.1020 
 21 O       -4.7310    -1.0820     2.1740 O.2   1 <1>  -0.5700 
 22 O       -6.0350    -1.5990     0.4900 O.3   1 <1>  -0.4300 
 23 C       -3.4780     1.5080    -1.7250 C.ar  1 <1>  -0.1500 
 24 C        1.2580     0.2090    -0.4120 C.3   1 <1>   0.2800 
 25 C       -7.1240    -0.8710     1.0240 C.3   1 <1>   0.0400 
 26 C        1.1670     1.2750     0.6810 C.3   1 <1>  -0.2400 
 27 C        2.5450    -0.6000    -0.2110 C.3   1 <1>  -0.2400 
 28 C        1.1910     0.8890    -1.7840 C.3   1 <1>  -0.2400 
 29 H       -1.6830     0.5680     2.7200 H     1 <1>   0.3700 
 30 H       -2.4280     2.8050     1.2230 H     1 <1>   0.1500 
 31 H       -3.5220    -0.5780    -2.2200 H     1 <1>   0.1500 
 32 H       -3.3340     3.5030    -0.9710 H     1 <1>   0.1500 
 33 H       -0.0950    -4.0310    -2.1680 H     1 <1>   0.4000 
 34 H       -1.2470    -5.3390    -2.1010 H     1 <1>   0.4000 
 35 H       -4.8400    -5.4920     0.4530 H     1 <1>   0.0800 
 36 H       -5.5530    -4.6860    -0.9220 H     1 <1>   0.0800 
 37 H       -5.8920    -4.1310     0.6990 H     1 <1>   0.0800 
 38 H       -3.8700     1.8200    -2.6780 H     1 <1>   0.1500 
 39 H       -7.9610    -0.9700     0.3560 H     1 <1>   0.0800 
 40 H       -6.8400     0.1640     1.1120 H     1 <1>   0.0800 
 41 H       -7.3710    -1.2720     1.9910 H     1 <1>   0.0800 
 42 H        1.1580     0.8130     1.6510 H     1 <1>   0.0800 
 43 H        0.2730     1.8590     0.5590 H     1 <1>   0.0800 
 44 H        2.0110     1.9380     0.6270 H     1 <1>   0.0800 
 45 H        2.6930    -1.3030    -1.0090 H     1 <1>   0.0800 
 46 H        2.5110    -1.1280     0.7250 H     1 <1>   0.0800 
 47 H        3.3940     0.0580    -0.2010 H     1 <1>   0.0800 
 48 H        1.3240     0.1770    -2.5770 H     1 <1>   0.0800 
 49 H        1.9740     1.6200    -1.8690 H     1 <1>   0.0800 
 50 H        0.2450     1.3850    -1.9080 H     1 <1>   0.0800 
@<TRIPOS>BOND
  1   1   2  2   
  2   2   3  am  
  3   2   4  1   
  4   3   5  1   
  5   3  29  1   
  6   4   6  1   
  7   4   7  1   
  8   4   8  1   
  9   5   8  ar  
 10   5   9  ar  
 11   6  10  2   
 12   6  11  1   
 13   7  12  2   
 14   7  13  1   
 15   8  14  ar  
 16   9  15  ar  
 17   9  30  1   
 18  10  16  1   
 19  10  17  1   
 20  11  18  2   
 21  11  19  1   
 22  12  16  1   
 23  12  20  1   
 24  13  21  2   
 25  13  22  1   
 26  14  23  ar  
 27  14  31  1   
 28  15  23  ar  
 29  15  32  1   
 30  17  33  1   
 31  17  34  1   
 32  19  24  1   
 33  20  35  1   
 34  20  36  1   
 35  20  37  1   
 36  22  25  1   
 37  23  38  1   
 38  24  26  1   
 39  24  27  1   
 40  24  28  1   
 41  25  39  1   
 42  25  40  1   
 43  25  41  1   
 44  26  42  1   
 45  26  43  1   
 46  26  44  1   
 47  27  45  1   
 48  27  46  1   
 49  27  47  1   
 50  28  48  1   
 51  28  49  1   
 52  28  50  1   
@<TRIPOS>SUBSTRUCTURE
  1 ****   4 GROUP 4 **** **** 0

# MOE 2024.06 (io_trps.svl 2023.06)
