@<TRIPOS>MOLECULE
NONAME
51 53 1 0 0 
SMALL
USER_CHARGES


@<TRIPOS>ATOM
  1 O        0.3120     0.0230    -0.5360 O.2   1 <1>  -0.5700 
  2 C        0.7390    -1.0970    -0.3180 C.2   1 <1>   0.5440 
  3 N       -0.1470    -2.1480    -0.3200 N.am  1 <1>  -0.5470 
  4 C        2.1580    -1.3060    -0.0700 C.ar  1 <1>   0.0860 
  5 C       -1.5200    -2.1840    -0.5870 C.ar  1 <1>   0.1170 
  6 C        2.6970    -2.4420     0.5680 C.ar  1 <1>   0.0830 
  7 C        3.0650    -0.3240    -0.4870 C.ar  1 <1>  -0.1500 
  8 C       -2.3260    -3.0740     0.1090 C.ar  1 <1>  -0.1500 
  9 C       -2.1100    -1.3610    -1.5380 C.ar  1 <1>  -0.1500 
 10 O        1.8540    -3.4150     1.0080 O.3   1 <1>  -0.3630 
 11 C        4.0730    -2.5600     0.7490 C.ar  1 <1>  -0.1500 
 12 C        4.4270    -0.4440    -0.3020 C.ar  1 <1>  -0.1500 
 13 C       -3.6900    -3.1220    -0.1140 C.ar  1 <1>  -0.1500 
 14 C       -3.4720    -1.4030    -1.7680 C.ar  1 <1>  -0.1500 
 15 C        2.2950    -4.5370     1.7450 C.3   1 <1>   0.0400 
 16 C        4.9410    -1.5740     0.3210 C.ar  1 <1>   0.0830 
 17 C       -4.2750    -2.2750    -1.0460 C.ar  1 <1>  -0.1430 
 18 O        6.2590    -1.7780     0.5430 O.3   1 <1>  -0.3630 
 19 C       -5.7750    -2.2730    -1.2590 C.3   1 <1>   0.4860 
 20 C        7.2320    -0.8330     0.1560 C.3   1 <1>   0.0400 
 21 N       -6.4130    -1.5850    -0.1030 N.4   1 <1>  -0.9590 
 22 C       -7.9130    -1.5890    -0.1450 C.3   1 <1>   0.3430 
 23 C       -5.8830    -0.2000     0.1470 C.3   1 <1>   0.3430 
 24 C       -8.5160    -0.7850     1.0310 C.3   1 <1>   0.1200 
 25 C       -6.5280     0.4240     1.4060 C.3   1 <1>   0.1200 
 26 O       -7.5220    -0.4100     1.9440 O.3   1 <1>  -0.5600 
 27 H        0.2640    -3.0060     0.0580 H     1 <1>   0.3700 
 28 H        2.6860     0.5600    -0.9730 H     1 <1>   0.1500 
 29 H       -1.8790    -3.7280     0.8370 H     1 <1>   0.1500 
 30 H       -1.4940    -0.6800    -2.0990 H     1 <1>   0.1500 
 31 H        4.5120    -3.4140     1.2250 H     1 <1>   0.1500 
 32 H        5.0690     0.3450    -0.6460 H     1 <1>   0.1500 
 33 H       -4.2840    -3.8230     0.4480 H     1 <1>   0.1500 
 34 H       -3.8890    -0.7460    -2.5120 H     1 <1>   0.1500 
 35 H        1.4350    -5.1260     2.0100 H     1 <1>   0.0800 
 36 H        2.7920    -4.1970     2.6360 H     1 <1>   0.0800 
 37 H        2.9600    -5.1200     1.1310 H     1 <1>   0.0800 
 38 H       -6.1290    -3.2890    -1.3310 H     1 <1>   0.0800 
 39 H       -6.0130    -1.7600    -2.1760 H     1 <1>   0.0800 
 40 H        8.1980    -1.2140     0.4380 H     1 <1>   0.0800 
 41 H        7.0420     0.0940     0.6670 H     1 <1>   0.0800 
 42 H        7.1890    -0.7030    -0.9110 H     1 <1>   0.0800 
 43 H       -6.1550    -2.1010     0.7500 H     1 <1>   0.4500 
 44 H       -8.2780    -2.6020    -0.0970 H     1 <1>   0.0800 
 45 H       -8.2600    -1.1620    -1.0720 H     1 <1>   0.0800 
 46 H       -6.0850     0.4320    -0.7020 H     1 <1>   0.0800 
 47 H       -4.8130    -0.2270     0.2830 H     1 <1>   0.0800 
 48 H       -9.2400    -1.3820     1.5570 H     1 <1>   0.0800 
 49 H       -9.0090     0.1030     0.6740 H     1 <1>   0.0800 
 50 H       -6.9660     1.3800     1.1750 H     1 <1>   0.0800 
 51 H       -5.7810     0.5730     2.1660 H     1 <1>   0.0800 
@<TRIPOS>BOND
  1   1   2  2   
  2   2   3  am  
  3   2   4  1   
  4   3   5  1   
  5   3  27  1   
  6   4   6  ar  
  7   4   7  ar  
  8   5   8  ar  
  9   5   9  ar  
 10   6  10  1   
 11   6  11  ar  
 12   7  12  ar  
 13   7  28  1   
 14   8  13  ar  
 15   8  29  1   
 16   9  14  ar  
 17   9  30  1   
 18  10  15  1   
 19  11  16  ar  
 20  11  31  1   
 21  12  16  ar  
 22  12  32  1   
 23  13  17  ar  
 24  13  33  1   
 25  14  17  ar  
 26  14  34  1   
 27  15  35  1   
 28  15  36  1   
 29  15  37  1   
 30  16  18  1   
 31  17  19  1   
 32  18  20  1   
 33  19  21  1   
 34  19  38  1   
 35  19  39  1   
 36  20  40  1   
 37  20  41  1   
 38  20  42  1   
 39  21  22  1   
 40  21  23  1   
 41  21  43  1   
 42  22  24  1   
 43  22  44  1   
 44  22  45  1   
 45  23  25  1   
 46  23  46  1   
 47  23  47  1   
 48  24  26  1   
 49  24  48  1   
 50  24  49  1   
 51  25  26  1   
 52  25  50  1   
 53  25  51  1   
@<TRIPOS>SUBSTRUCTURE
  1 ****   5 GROUP 4 **** **** 0

# MOE 2024.06 (io_trps.svl 2023.06)
