@<TRIPOS>MOLECULE
NONAME
40 41 1 0 0 
SMALL
USER_CHARGES


@<TRIPOS>ATOM
  1 O        0.6330    -1.2900     0.4060 O.3   1 <1>  -0.3630 
  2 C       -0.7090    -1.3860     0.2070 C.ar  1 <1>   0.0830 
  3 C        1.3960    -0.2590    -0.1810 C.3   1 <1>   0.1200 
  4 C       -1.3750    -2.4460     0.8140 C.ar  1 <1>  -0.1440 
  5 C       -1.4260    -0.4760    -0.5690 C.ar  1 <1>  -0.1500 
  6 C        2.8520    -0.4430     0.2310 C.3   1 <1>   0.1200 
  7 C       -2.7420    -2.5830     0.6390 C.ar  1 <1>  -0.1500 
  8 C       -0.6160    -3.4530     1.6660 C.3   1 <1>  -0.0960 
  9 C       -2.7920    -0.6200    -0.7420 C.ar  1 <1>  -0.1430 
 10 O        3.6130     0.5910    -0.3580 O.3   1 <1>  -0.3630 
 11 C       -3.4470    -1.6760    -0.1330 C.ar  1 <1>  -0.1500 
 12 C       -3.5730     0.3710    -1.5860 C.3   1 <1>  -0.0970 
 13 C        4.9140     0.6670     0.0160 C.ar  1 <1>   0.0830 
 14 C        5.8490    -0.3320    -0.2800 C.ar  1 <1>   0.0830 
 15 C        5.3090     1.7890     0.7250 C.ar  1 <1>  -0.1500 
 16 O        5.5440    -1.4330    -1.0090 O.3   1 <1>  -0.3630 
 17 C        7.1500    -0.2100     0.1800 C.ar  1 <1>  -0.1500 
 18 C        6.6160     1.9110     1.1680 C.ar  1 <1>  -0.1500 
 19 C        5.2300    -1.2150    -2.3670 C.3   1 <1>   0.0400 
 20 C        7.5340     0.9090     0.9020 C.ar  1 <1>  -0.1500 
 21 H        1.0230     0.6840     0.1780 H     1 <1>   0.0800 
 22 H        1.2980    -0.3330    -1.2490 H     1 <1>   0.0800 
 23 H       -0.9350     0.3500    -1.0450 H     1 <1>   0.1500 
 24 H        3.2220    -1.3900    -0.1180 H     1 <1>   0.0800 
 25 H        2.9550    -0.3720     1.2990 H     1 <1>   0.0800 
 26 H       -3.2690    -3.3980     1.1040 H     1 <1>   0.1500 
 27 H        0.1430    -3.9310     1.0730 H     1 <1>   0.0800 
 28 H       -1.2740    -4.2080     2.0560 H     1 <1>   0.0800 
 29 H       -0.1440    -2.9480     2.4900 H     1 <1>   0.0800 
 30 H       -4.5080    -1.7980    -0.2570 H     1 <1>   0.1500 
 31 H       -2.9280     0.8640    -2.2900 H     1 <1>   0.0800 
 32 H       -4.0250     1.1120    -0.9510 H     1 <1>   0.0800 
 33 H       -4.3480    -0.1350    -2.1340 H     1 <1>   0.0800 
 34 H        4.5910     2.5610     0.9330 H     1 <1>   0.1500 
 35 H        7.8590    -0.9890    -0.0340 H     1 <1>   0.1500 
 36 H        6.9170     2.7830     1.7230 H     1 <1>   0.1500 
 37 H        5.0980    -2.1720    -2.8390 H     1 <1>   0.0800 
 38 H        6.0420    -0.6830    -2.8300 H     1 <1>   0.0800 
 39 H        4.3220    -0.6450    -2.4360 H     1 <1>   0.0800 
 40 H        8.5480     0.9990     1.2530 H     1 <1>   0.1500 
@<TRIPOS>BOND
  1   1   2  1   
  2   1   3  1   
  3   2   4  ar  
  4   2   5  ar  
  5   3   6  1   
  6   3  21  1   
  7   3  22  1   
  8   4   7  ar  
  9   4   8  1   
 10   5   9  ar  
 11   5  23  1   
 12   6  10  1   
 13   6  24  1   
 14   6  25  1   
 15   7  11  ar  
 16   7  26  1   
 17   8  27  1   
 18   8  28  1   
 19   8  29  1   
 20   9  11  ar  
 21   9  12  1   
 22  10  13  1   
 23  11  30  1   
 24  12  31  1   
 25  12  32  1   
 26  12  33  1   
 27  13  14  ar  
 28  13  15  ar  
 29  14  16  1   
 30  14  17  ar  
 31  15  18  ar  
 32  15  34  1   
 33  16  19  1   
 34  17  20  ar  
 35  17  35  1   
 36  18  20  ar  
 37  18  36  1   
 38  19  37  1   
 39  19  38  1   
 40  19  39  1   
 41  20  40  1   
@<TRIPOS>SUBSTRUCTURE
  1 ****   3 GROUP 4 **** **** 0

# MOE 2024.06 (io_trps.svl 2023.06)
