@<TRIPOS>MOLECULE
NONAME
47 49 1 0 0 
SMALL
USER_CHARGES


@<TRIPOS>ATOM
  1 O       -0.9250     0.6640     0.4360 O.3   1 <1>  -0.3630 
  2 C       -0.0810     1.7240     0.4300 C.ar  1 <1>   0.0830 
  3 C       -1.2660     0.0090    -0.7650 C.3   1 <1>   0.2580 
  4 C       -0.3050     2.7330     1.3620 C.ar  1 <1>  -0.1440 
  5 C        0.9720     1.8270    -0.4710 C.ar  1 <1>  -0.1500 
  6 C       -2.7050    -0.4380    -0.6040 C.2   1 <1>  -0.2880 
  7 C        0.5220     3.8460     1.3760 C.ar  1 <1>  -0.1500 
  8 C       -1.4510     2.6150     2.3510 C.3   1 <1>   0.4870 
  9 C        1.7890     2.9420    -0.4500 C.ar  1 <1>  -0.1500 
 10 C       -3.7410     0.0150    -1.3180 C.2   1 <1>  -0.3000 
 11 C        1.5640     3.9500     0.4710 C.ar  1 <1>  -0.1500 
 12 N       -2.7220     2.4780     1.5970 N.4   1 <1>  -0.9590 
 13 C       -3.0440     3.6950     0.7740 C.3   1 <1>   0.3430 
 14 C       -3.8830     2.0710     2.4560 C.3   1 <1>   0.3430 
 15 C       -4.3250     3.5070    -0.0630 C.3   1 <1>   0.2090 
 16 C       -5.1660     1.8610     1.6270 C.3   1 <1>   0.2090 
 17 N       -5.4780     3.0470     0.7710 N.pl3 1 <1>  -0.8380 
 18 C       -6.6580     2.9320     0.0690 C.ar  1 <1>   0.4100 
 19 N       -6.7030     1.9770    -0.8520 N.ar  1 <1>  -0.6200 
 20 C       -7.7150     3.7920     0.3460 C.ar  1 <1>  -0.1500 
 21 C       -7.8440     1.8810    -1.5160 C.ar  1 <1>   0.1600 
 22 C       -8.8930     3.6790    -0.3540 C.ar  1 <1>  -0.1500 
 23 C       -8.9490     2.6880    -1.3130 C.ar  1 <1>  -0.1500 
 24 H       -0.6020    -0.8270    -0.9060 H     1 <1>   0.0800 
 25 H       -1.1750     0.6980    -1.5870 H     1 <1>   0.0800 
 26 H        1.1720     1.0470    -1.1830 H     1 <1>   0.1500 
 27 H       -2.8140    -1.1840     0.1650 H     1 <1>   0.1500 
 28 H        0.3730     4.6410     2.0880 H     1 <1>   0.1500 
 29 H       -1.4850     3.4830     2.9900 H     1 <1>   0.0800 
 30 H       -1.2910     1.7420     2.9620 H     1 <1>   0.0800 
 31 H        2.6070     3.0250    -1.1470 H     1 <1>   0.1500 
 32 H       -4.7590    -0.3180    -1.1860 H     1 <1>   0.1500 
 33 H       -3.6760     0.7500    -2.1020 H     1 <1>   0.1500 
 34 H        2.2080     4.8150     0.4840 H     1 <1>   0.1500 
 35 H       -2.5410     1.7050     0.9310 H     1 <1>   0.4500 
 36 H       -2.2240     3.9160     0.1110 H     1 <1>   0.0800 
 37 H       -3.1860     4.5430     1.4220 H     1 <1>   0.0800 
 38 H       -4.0770     2.8340     3.1910 H     1 <1>   0.0800 
 39 H       -3.6510     1.1560     2.9760 H     1 <1>   0.0800 
 40 H       -4.1390     2.7910    -0.8450 H     1 <1>   0.0800 
 41 H       -4.5820     4.4410    -0.5330 H     1 <1>   0.0800 
 42 H       -5.9940     1.6810     2.2920 H     1 <1>   0.0800 
 43 H       -5.0530     0.9880     1.0070 H     1 <1>   0.0800 
 44 H       -7.5940     4.5370     1.1080 H     1 <1>   0.1500 
 45 H       -7.9040     1.1120    -2.2690 H     1 <1>   0.1500 
 46 H       -9.7310     4.3280    -0.1650 H     1 <1>   0.1500 
 47 H       -9.8410     2.5450    -1.8970 H     1 <1>   0.1500 
@<TRIPOS>BOND
  1   1   2  1   
  2   1   3  1   
  3   2   4  ar  
  4   2   5  ar  
  5   3   6  1   
  6   3  24  1   
  7   3  25  1   
  8   4   7  ar  
  9   4   8  1   
 10   5   9  ar  
 11   5  26  1   
 12   6  10  2   
 13   6  27  1   
 14   7  11  ar  
 15   7  28  1   
 16   8  12  1   
 17   8  29  1   
 18   8  30  1   
 19   9  11  ar  
 20   9  31  1   
 21  10  32  1   
 22  10  33  1   
 23  11  34  1   
 24  12  13  1   
 25  12  14  1   
 26  12  35  1   
 27  13  15  1   
 28  13  36  1   
 29  13  37  1   
 30  14  16  1   
 31  14  38  1   
 32  14  39  1   
 33  15  17  1   
 34  15  40  1   
 35  15  41  1   
 36  16  17  1   
 37  16  42  1   
 38  16  43  1   
 39  17  18  1   
 40  18  19  ar  
 41  18  20  ar  
 42  19  21  ar  
 43  20  22  ar  
 44  20  44  1   
 45  21  23  ar  
 46  21  45  1   
 47  22  23  ar  
 48  22  46  1   
 49  23  47  1   
@<TRIPOS>SUBSTRUCTURE
  1 ****  12 GROUP 4 **** **** 0

# MOE 2024.06 (io_trps.svl 2023.06)
