@<TRIPOS>MOLECULE
NONAME
37 38 1 0 0 
SMALL
USER_CHARGES


@<TRIPOS>ATOM
  1 CL       0.1220    -0.0790    -0.8410 Cl    1 <1>  -0.1770 
  2 C        1.6650     0.6250    -0.4200 C.ar  1 <1>   0.1770 
  3 C        2.6230    -0.1580     0.1960 C.ar  1 <1>  -0.1500 
  4 C        1.9050     1.9560    -0.7090 C.ar  1 <1>  -0.1500 
  5 C        3.8430     0.4060     0.5270 C.ar  1 <1>  -0.1500 
  6 C        3.1280     2.5110    -0.3730 C.ar  1 <1>  -0.1500 
  7 C        4.1100     1.7420     0.2480 C.ar  1 <1>   0.1170 
  8 N        5.3580     2.2510     0.6190 N.am  1 <1>  -0.5470 
  9 C        6.1410     3.2360     0.0780 C.2   1 <1>   0.5690 
 10 O        5.7510     3.9480    -0.8230 O.2   1 <1>  -0.5700 
 11 C        7.5690     3.4770     0.6740 C.3   1 <1>   0.4840 
 12 N        8.2470     4.7840     0.3090 N.4   1 <1>  -0.9590 
 13 C        8.5610     2.3600     0.3670 C.3   1 <1>  -0.2660 
 14 C        7.4470     5.9720     0.6850 C.3   1 <1>   0.3430 
 15 C        8.5370     4.9390    -1.1400 C.3   1 <1>   0.3430 
 16 C        8.0600     1.1310     1.0450 C.2   1 <1>   0.9060 
 17 C        8.0650     7.1040    -0.1230 C.3   1 <1>  -0.1600 
 18 C        8.7380     6.4370    -1.3270 C.3   1 <1>  -0.1600 
 19 O        7.4290     1.2830     2.0940 O.co2 1 <1>  -0.9000 
 20 O        8.1860     0.0550     0.4830 O.co2 1 <1>  -0.9000 
 21 H        2.4180    -1.1910     0.4100 H     1 <1>   0.1500 
 22 H        1.1450     2.5440    -1.1900 H     1 <1>   0.1500 
 23 H        4.6020    -0.1950     1.0020 H     1 <1>   0.1500 
 24 H        3.3170     3.5450    -0.5930 H     1 <1>   0.1500 
 25 H        5.8640     1.6570     1.3120 H     1 <1>   0.3700 
 26 H        7.4330     3.4840     1.7430 H     1 <1>   0.0800 
 27 H        9.1370     4.8200     0.8150 H     1 <1>   0.4500 
 28 H        9.5330     2.5680     0.7670 H     1 <1>   0.0800 
 29 H        8.6210     2.1620    -0.6860 H     1 <1>   0.0800 
 30 H        7.4840     6.1630     1.7450 H     1 <1>   0.0800 
 31 H        6.4220     5.8360     0.3790 H     1 <1>   0.0800 
 32 H        7.6910     4.6170    -1.7250 H     1 <1>   0.0800 
 33 H        9.4070     4.3750    -1.4350 H     1 <1>   0.0800 
 34 H        8.7930     7.6230     0.4760 H     1 <1>   0.0800 
 35 H        7.3060     7.8050    -0.4260 H     1 <1>   0.0800 
 36 H        8.2950     6.7530    -2.2550 H     1 <1>   0.0800 
 37 H        9.7890     6.6670    -1.3510 H     1 <1>   0.0800 
@<TRIPOS>BOND
  1   1   2  1   
  2   2   3  ar  
  3   2   4  ar  
  4   3   5  ar  
  5   3  21  1   
  6   4   6  ar  
  7   4  22  1   
  8   5   7  ar  
  9   5  23  1   
 10   6   7  ar  
 11   6  24  1   
 12   7   8  1   
 13   8   9  am  
 14   8  25  1   
 15   9  10  2   
 16   9  11  1   
 17  11  12  1   
 18  11  13  1   
 19  11  26  1   
 20  12  14  1   
 21  12  15  1   
 22  12  27  1   
 23  13  16  1   
 24  13  28  1   
 25  13  29  1   
 26  14  17  1   
 27  14  30  1   
 28  14  31  1   
 29  15  18  1   
 30  15  32  1   
 31  15  33  1   
 32  16  19  ar  
 33  16  20  ar  
 34  17  18  1   
 35  17  34  1   
 36  17  35  1   
 37  18  36  1   
 38  18  37  1   
@<TRIPOS>SUBSTRUCTURE
  1 ****   9 GROUP 4 **** **** 0

# MOE 2024.06 (io_trps.svl 2023.06)
