@<TRIPOS>MOLECULE
NONAME
32 34 1 0 0 
SMALL
USER_CHARGES


@<TRIPOS>ATOM
  1 S       -0.1770     0.0460    -0.2660 S.3   1 <1>  -0.3320 
  2 C       -1.9460    -0.2350    -0.2840 C.ar  1 <1>   0.7220 
  3 C        0.5790    -1.5060     0.3980 C.3   1 <1>   0.0700 
  4 N       -2.6720     0.7910    -0.7890 N.ar  1 <1>  -0.3100 
  5 N       -2.3780    -1.3820     0.1830 N.ar  1 <1>  -0.5670 
  6 C        0.7100    -2.5120    -0.7490 C.3   1 <1>  -0.1600 
  7 N       -3.9700     0.7000    -0.8520 N.ar  1 <1>  -0.2560 
  8 C       -3.7060    -1.4550     0.1090 C.ar  1 <1>   0.1050 
  9 C        1.3550    -3.8170    -0.2690 C.3   1 <1>  -0.2400 
 10 C       -4.4980    -0.4420    -0.3970 C.ar  1 <1>   0.2560 
 11 N       -4.5020    -2.4930     0.4980 N.pl3 1 <1>   0.0330 
 12 C       -5.8470    -0.8840    -0.3120 C.ar  1 <1>   0.0000 
 13 C       -5.8180    -2.1600     0.2470 C.ar  1 <1>  -0.1520 
 14 C       -7.0670    -0.3080    -0.6620 C.ar  1 <1>  -0.1500 
 15 C       -6.9950    -2.8790     0.4660 C.ar  1 <1>  -0.1440 
 16 C       -8.2310    -1.0140    -0.4470 C.ar  1 <1>  -0.1500 
 17 C       -8.1930    -2.2930     0.1140 C.ar  1 <1>  -0.1500 
 18 C       -6.9490    -4.2690     1.0770 C.3   1 <1>  -0.0970 
 19 H       -0.0480    -1.8710     1.1920 H     1 <1>   0.0800 
 20 H        1.5430    -1.2370     0.7910 H     1 <1>   0.0800 
 21 H        1.3130    -2.0830    -1.5300 H     1 <1>   0.0800 
 22 H       -0.2640    -2.7260    -1.1530 H     1 <1>   0.0800 
 23 H        2.3400    -3.6300     0.1200 H     1 <1>   0.0800 
 24 H        1.4380    -4.5080    -1.0900 H     1 <1>   0.0800 
 25 H        0.7560    -4.2710     0.5010 H     1 <1>   0.0800 
 26 H       -4.1640    -3.3670     0.9060 H     1 <1>   0.2700 
 27 H       -7.0800     0.6780    -1.0930 H     1 <1>   0.1500 
 28 H       -9.1810    -0.5830    -0.7110 H     1 <1>   0.1500 
 29 H       -9.1220    -2.8150     0.2670 H     1 <1>   0.1500 
 30 H       -6.5000    -4.2280     2.0530 H     1 <1>   0.0800 
 31 H       -6.3740    -4.9270     0.4510 H     1 <1>   0.0800 
 32 H       -7.9390    -4.6750     1.1760 H     1 <1>   0.0800 
@<TRIPOS>BOND
  1   1   2  1   
  2   1   3  1   
  3   2   4  ar  
  4   2   5  ar  
  5   3   6  1   
  6   3  19  1   
  7   3  20  1   
  8   4   7  ar  
  9   5   8  ar  
 10   6   9  1   
 11   6  21  1   
 12   6  22  1   
 13   7  10  ar  
 14   8  10  ar  
 15   8  11  1   
 16   9  23  1   
 17   9  24  1   
 18   9  25  1   
 19  10  12  1   
 20  11  13  1   
 21  11  26  1   
 22  12  13  ar  
 23  12  14  ar  
 24  13  15  ar  
 25  14  16  ar  
 26  14  27  1   
 27  15  17  ar  
 28  15  18  1   
 29  16  17  ar  
 30  16  28  1   
 31  17  29  1   
 32  18  30  1   
 33  18  31  1   
 34  18  32  1   
@<TRIPOS>SUBSTRUCTURE
  1 ****   8 GROUP 4 **** **** 0

# MOE 2024.06 (io_trps.svl 2023.06)
