@<TRIPOS>MOLECULE
NONAME
48 49 1 0 0 
SMALL
USER_CHARGES


@<TRIPOS>ATOM
  1 O        5.8030    -5.8490     0.0310 O.3   1 <1>  -0.5600 
  2 C        6.2630    -5.1900    -1.1180 C.3   1 <1>   0.1200 
  3 C        4.5880    -5.3530     0.5290 C.3   1 <1>   0.1200 
  4 C        6.4820    -3.6830    -0.8440 C.3   1 <1>   0.3430 
  5 C        4.6790    -3.8380     0.8270 C.3   1 <1>   0.3430 
  6 N        6.0570    -3.3080     0.5520 N.4   1 <1>  -0.9590 
  7 C        6.1700    -1.8440     0.8540 C.3   1 <1>   0.3430 
  8 C        7.6180    -1.3490     0.8440 C.3   1 <1>   0.1200 
  9 O        7.5810     0.0410     1.0500 O.3   1 <1>  -0.3630 
 10 C        8.6520     0.8060     0.7200 C.ar  1 <1>   0.0830 
 11 C        8.4590     2.0830     0.1720 C.ar  1 <1>  -0.1430 
 12 C        9.9350     0.3050     0.9320 C.ar  1 <1>  -0.1500 
 13 C        9.6060     2.7990    -0.1700 C.ar  1 <1>  -0.1500 
 14 C        7.0450     2.6950    -0.0550 C.3   1 <1>   0.1430 
 15 C       11.0510     1.0380     0.5820 C.ar  1 <1>  -0.1430 
 16 C       10.8770     2.2890     0.0270 C.ar  1 <1>  -0.1500 
 17 C        7.0860     4.1220    -0.6390 C.3   1 <1>  -0.2400 
 18 C        6.2810     2.8050     1.2760 C.3   1 <1>  -0.2400 
 19 C        6.2430     1.8480    -1.0570 C.3   1 <1>  -0.2400 
 20 C       12.4500     0.4940     0.8100 C.3   1 <1>  -0.0970 
 21 H        5.5480    -5.3350    -1.9090 H     1 <1>   0.0800 
 22 H        7.1890    -5.6520    -1.4130 H     1 <1>   0.0800 
 23 H        4.3600    -5.8950     1.4310 H     1 <1>   0.0800 
 24 H        3.8110    -5.5560    -0.1880 H     1 <1>   0.0800 
 25 H        5.9220    -3.1130    -1.5670 H     1 <1>   0.0800 
 26 H        7.5240    -3.4530    -0.9880 H     1 <1>   0.0800 
 27 H        4.4140    -3.6670     1.8580 H     1 <1>   0.0800 
 28 H        3.9560    -3.3190     0.2180 H     1 <1>   0.0800 
 29 H        6.6720    -3.8500     1.1790 H     1 <1>   0.4500 
 30 H        5.7550    -1.6460     1.8290 H     1 <1>   0.0800 
 31 H        5.6070    -1.2830     0.1260 H     1 <1>   0.0800 
 32 H        8.0880    -1.5280    -0.1060 H     1 <1>   0.0800 
 33 H        8.1820    -1.7930     1.6450 H     1 <1>   0.0800 
 34 H       10.0810    -0.6550     1.3840 H     1 <1>   0.1500 
 35 H        9.5570     3.7810    -0.6000 H     1 <1>   0.1500 
 36 H       11.7320     2.8790    -0.2520 H     1 <1>   0.1500 
 37 H        7.6130     4.7870     0.0230 H     1 <1>   0.0800 
 38 H        6.0920     4.5110    -0.7700 H     1 <1>   0.0800 
 39 H        7.5680     4.1270    -1.6010 H     1 <1>   0.0800 
 40 H        6.8650     3.3650     1.9850 H     1 <1>   0.0800 
 41 H        6.0750     1.8430     1.7010 H     1 <1>   0.0800 
 42 H        5.3410     3.3090     1.1360 H     1 <1>   0.0800 
 43 H        6.8010     1.7410    -1.9710 H     1 <1>   0.0800 
 44 H        5.3030     2.3200    -1.2840 H     1 <1>   0.0800 
 45 H        6.0330     0.8730    -0.6710 H     1 <1>   0.0800 
 46 H       12.4360    -0.5780     0.8900 H     1 <1>   0.0800 
 47 H       12.8550     0.9030     1.7190 H     1 <1>   0.0800 
 48 H       13.0930     0.7640    -0.0080 H     1 <1>   0.0800 
@<TRIPOS>BOND
  1   1   2  1   
  2   1   3  1   
  3   2   4  1   
  4   2  21  1   
  5   2  22  1   
  6   3   5  1   
  7   3  23  1   
  8   3  24  1   
  9   4   6  1   
 10   4  25  1   
 11   4  26  1   
 12   5   6  1   
 13   5  27  1   
 14   5  28  1   
 15   6   7  1   
 16   6  29  1   
 17   7   8  1   
 18   7  30  1   
 19   7  31  1   
 20   8   9  1   
 21   8  32  1   
 22   8  33  1   
 23   9  10  1   
 24  10  11  ar  
 25  10  12  ar  
 26  11  13  ar  
 27  11  14  1   
 28  12  15  ar  
 29  12  34  1   
 30  13  16  ar  
 31  13  35  1   
 32  14  17  1   
 33  14  18  1   
 34  14  19  1   
 35  15  16  ar  
 36  15  20  1   
 37  16  36  1   
 38  17  37  1   
 39  17  38  1   
 40  17  39  1   
 41  18  40  1   
 42  18  41  1   
 43  18  42  1   
 44  19  43  1   
 45  19  44  1   
 46  19  45  1   
 47  20  46  1   
 48  20  47  1   
 49  20  48  1   
@<TRIPOS>SUBSTRUCTURE
  1 ****   9 GROUP 4 **** **** 0

# MOE 2024.06 (io_trps.svl 2023.06)
