@<TRIPOS>MOLECULE
NONAME
42 44 1 0 0 
SMALL
USER_CHARGES


@<TRIPOS>ATOM
  1 S        0.3830    -0.1560    -0.1330 S.3   1 <1>  -0.2860 
  2 C       -1.2590    -0.6100    -0.7090 C.2   1 <1>   0.2420 
  3 C        1.4930    -1.2300    -1.1730 C.3   1 <1>   0.1310 
  4 N       -1.4330    -1.4560    -1.6600 N.2   1 <1>  -0.3380 
  5 N       -2.3990    -0.1190    -0.2090 N.pl3 1 <1>   0.0480 
  6 C        2.9620    -0.9680    -0.8810 C.2   1 <1>   0.5690 
  7 N       -2.7530    -1.5540    -1.8210 N.2   1 <1>  -0.3380 
  8 C       -3.3070    -0.7660    -0.9590 C.2   1 <1>   0.1010 
  9 C       -2.6660     0.8650     0.8790 C.3   1 <1>   0.1760 
 10 O        3.7580    -1.8170    -1.1970 O.2   1 <1>  -0.5700 
 11 N        3.3140     0.2110    -0.2780 N.am  1 <1>  -0.5470 
 12 C       -4.8120    -0.5910    -0.8160 C.3   1 <1>  -0.0150 
 13 C       -2.0740     2.2410     0.5490 C.3   1 <1>  -0.2400 
 14 C       -2.1720     0.3440     2.2340 C.3   1 <1>  -0.2400 
 15 C        4.5640     0.7350     0.0850 C.ar  1 <1>   0.1170 
 16 C       -5.5200    -1.1370     0.3870 C.3   1 <1>  -0.2000 
 17 C       -5.7250    -1.7700    -0.9530 C.3   1 <1>  -0.2000 
 18 C        5.7590     0.3160    -0.4990 C.ar  1 <1>  -0.1500 
 19 C        4.6060     1.7290     1.0620 C.ar  1 <1>  -0.1500 
 20 C        6.9700     0.8680    -0.1160 C.ar  1 <1>  -0.1500 
 21 C        5.8080     2.2910     1.4550 C.ar  1 <1>  -0.1500 
 22 C        6.9710     1.8480     0.8570 C.ar  1 <1>   0.1900 
 23 F        8.1100     2.3750     1.2230 F     1 <1>  -0.1900 
 24 H        1.2720    -1.0180    -2.2030 H     1 <1>   0.0800 
 25 H        1.2430    -2.2520    -0.9530 H     1 <1>   0.0800 
 26 H       -3.7320     0.9880     0.9530 H     1 <1>   0.0800 
 27 H        2.5130     0.7760     0.0080 H     1 <1>   0.3700 
 28 H       -5.1580     0.3370    -1.2360 H     1 <1>   0.1000 
 29 H       -1.0000     2.2140     0.5410 H     1 <1>   0.0800 
 30 H       -2.3830     2.9560     1.2900 H     1 <1>   0.0800 
 31 H       -2.4270     2.5770    -0.4100 H     1 <1>   0.0800 
 32 H       -1.1010     0.2650     2.2570 H     1 <1>   0.0800 
 33 H       -2.6020    -0.6200     2.4400 H     1 <1>   0.0800 
 34 H       -2.4730     1.0190     3.0150 H     1 <1>   0.0800 
 35 H       -6.3290    -0.5730     0.8180 H     1 <1>   0.1000 
 36 H       -4.9600    -1.6880     1.1230 H     1 <1>   0.1000 
 37 H       -5.2860    -2.7340    -1.1510 H     1 <1>   0.1000 
 38 H       -6.6630    -1.6340    -1.4620 H     1 <1>   0.1000 
 39 H        5.7510    -0.4440    -1.2600 H     1 <1>   0.1500 
 40 H        3.6930     2.0630     1.5220 H     1 <1>   0.1500 
 41 H        7.8940     0.5460    -0.5610 H     1 <1>   0.1500 
 42 H        5.8500     3.0570     2.2090 H     1 <1>   0.1500 
@<TRIPOS>BOND
  1   1   2  1   
  2   1   3  1   
  3   2   4  2   
  4   2   5  1   
  5   3   6  1   
  6   3  24  1   
  7   3  25  1   
  8   4   7  1   
  9   5   8  1   
 10   5   9  1   
 11   6  10  2   
 12   6  11  am  
 13   7   8  2   
 14   8  12  1   
 15   9  13  1   
 16   9  14  1   
 17   9  26  1   
 18  11  15  1   
 19  11  27  1   
 20  12  16  1   
 21  12  17  1   
 22  12  28  1   
 23  13  29  1   
 24  13  30  1   
 25  13  31  1   
 26  14  32  1   
 27  14  33  1   
 28  14  34  1   
 29  15  18  ar  
 30  15  19  ar  
 31  16  17  1   
 32  16  35  1   
 33  16  36  1   
 34  17  37  1   
 35  17  38  1   
 36  18  20  ar  
 37  18  39  1   
 38  19  21  ar  
 39  19  40  1   
 40  20  22  ar  
 41  20  41  1   
 42  21  22  ar  
 43  21  42  1   
 44  22  23  1   
@<TRIPOS>SUBSTRUCTURE
  1 ****   1 GROUP 4 **** **** 0

# MOE 2024.06 (io_trps.svl 2023.06)
