@<TRIPOS>MOLECULE
NONAME
32 32 1 0 0 
SMALL
USER_CHARGES


@<TRIPOS>ATOM
  1 S       -0.0280     0.3180    -1.5110 S.o2  1 <1>   1.3330 
  2 O       -0.5900     1.6100    -1.2010 O.2   1 <1>  -0.6500 
  3 O        0.6860     0.0860    -2.7410 O.2   1 <1>  -0.6500 
  4 N       -1.3130    -0.8170    -1.5720 N.am  1 <1>  -0.7570 
  5 C        0.9530    -0.2890    -0.1370 C.3   1 <1>  -0.0550 
  6 C       -2.4200    -0.9700    -0.7470 C.ar  1 <1>   0.1990 
  7 C        2.2250     0.5350     0.1230 C.3   1 <1>  -0.1600 
  8 C       -2.6800    -0.1470     0.3450 C.ar  1 <1>  -0.1500 
  9 C       -3.3140    -1.9980    -1.0160 C.ar  1 <1>  -0.1500 
 10 C        3.0220    -0.0270     1.3060 C.3   1 <1>  -0.1600 
 11 C       -3.7920    -0.3520     1.1420 C.ar  1 <1>  -0.1500 
 12 C       -4.4270    -2.2060    -0.2210 C.ar  1 <1>  -0.1500 
 13 C        4.2870     0.7980     1.5550 C.3   1 <1>  -0.2400 
 14 C       -4.6820    -1.3870     0.8750 C.ar  1 <1>  -0.1430 
 15 C       -5.9220    -1.6140     1.7560 C.3   1 <1>   1.1630 
 16 F       -6.2670    -2.8950     1.8340 F     1 <1>  -0.3400 
 17 F       -5.7490    -1.2020     3.0070 F     1 <1>  -0.3400 
 18 F       -6.9850    -0.9700     1.2940 F     1 <1>  -0.3400 
 19 H       -1.2850    -1.3170    -2.4560 H     1 <1>   0.4200 
 20 H        1.2350    -1.3050    -0.3340 H     1 <1>   0.0800 
 21 H        0.3510    -0.2840     0.7510 H     1 <1>   0.0800 
 22 H        1.9490     1.5570     0.3260 H     1 <1>   0.0800 
 23 H        2.8380     0.5270    -0.7620 H     1 <1>   0.0800 
 24 H       -2.0230     0.6690     0.5790 H     1 <1>   0.1500 
 25 H       -3.1370    -2.6440    -1.8560 H     1 <1>   0.1500 
 26 H        3.3010    -1.0480     1.1050 H     1 <1>   0.0800 
 27 H        2.4130    -0.0160     2.1950 H     1 <1>   0.0800 
 28 H       -3.9610     0.3100     1.9760 H     1 <1>   0.1500 
 29 H       -5.0990    -3.0140    -0.4640 H     1 <1>   0.1500 
 30 H        4.9240     0.7830     0.6880 H     1 <1>   0.0800 
 31 H        4.8340     0.3910     2.3870 H     1 <1>   0.0800 
 32 H        4.0330     1.8190     1.7810 H     1 <1>   0.0800 
@<TRIPOS>BOND
  1   1   2  2   
  2   1   3  2   
  3   1   4  am  
  4   1   5  1   
  5   4   6  1   
  6   4  19  1   
  7   5   7  1   
  8   5  20  1   
  9   5  21  1   
 10   6   8  ar  
 11   6   9  ar  
 12   7  10  1   
 13   7  22  1   
 14   7  23  1   
 15   8  11  ar  
 16   8  24  1   
 17   9  12  ar  
 18   9  25  1   
 19  10  13  1   
 20  10  26  1   
 21  10  27  1   
 22  11  14  ar  
 23  11  28  1   
 24  12  14  ar  
 25  12  29  1   
 26  13  30  1   
 27  13  31  1   
 28  13  32  1   
 29  14  15  1   
 30  15  16  1   
 31  15  17  1   
 32  15  18  1   
@<TRIPOS>SUBSTRUCTURE
  1 ****   8 GROUP 4 **** **** 0

# MOE 2024.06 (io_trps.svl 2023.06)
