@<TRIPOS>MOLECULE
NONAME
36 37 1 0 0 
SMALL
USER_CHARGES


@<TRIPOS>ATOM
  1 O        0.6340    -0.4730    -0.0520 O.2   1 <1>  -0.5700 
  2 C        0.6510    -1.5000     0.5950 C.2   1 <1>   0.6900 
  3 N       -0.2860    -2.5090     0.5040 N.am  1 <1>  -0.2370 
  4 N        1.6410    -1.7880     1.4820 N.am  1 <1>  -0.6600 
  5 C       -1.4560    -2.4860    -0.2890 C.ar  1 <1>   0.1170 
  6 C        0.1280    -3.5430     1.3070 C.2   1 <1>   0.5690 
  7 C        2.9800    -1.1190     1.4450 C.3   1 <1>   0.2810 
  8 C        1.4370    -3.1740     1.9780 C.3   1 <1>   0.2010 
  9 C       -1.8310    -3.5950    -1.0420 C.ar  1 <1>  -0.1500 
 10 C       -2.2650    -1.3540    -0.3350 C.ar  1 <1>  -0.1500 
 11 O       -0.4310    -4.5970     1.4930 O.2   1 <1>  -0.5700 
 12 C        3.9380    -1.7050     0.3890 C.2   1 <1>   0.6590 
 13 C        3.5880    -1.1410     2.8520 C.3   1 <1>  -0.2400 
 14 C       -2.9780    -3.5750    -1.8150 C.ar  1 <1>  -0.1500 
 15 C       -3.4120    -1.3300    -1.1080 C.ar  1 <1>  -0.1500 
 16 O        3.9440    -2.8770     0.0940 O.2   1 <1>  -0.5700 
 17 O        4.7800    -0.8430    -0.1690 O.3   1 <1>  -0.4300 
 18 C       -3.7710    -2.4420    -1.8490 C.ar  1 <1>  -0.1500 
 19 C        5.6970    -1.2420    -1.1610 C.3   1 <1>   0.1200 
 20 C        6.4980    -0.0160    -1.5850 C.3   1 <1>  -0.2400 
 21 H        2.8200    -0.0890     1.1740 H     1 <1>   0.0800 
 22 H        1.3340    -3.1890     3.0480 H     1 <1>   0.0800 
 23 H        2.2230    -3.8330     1.6560 H     1 <1>   0.0800 
 24 H       -1.2250    -4.4830    -1.0220 H     1 <1>   0.1500 
 25 H       -1.9950    -0.4820     0.2330 H     1 <1>   0.1500 
 26 H        3.8280    -2.1460     3.1480 H     1 <1>   0.0800 
 27 H        2.9040    -0.7070     3.5590 H     1 <1>   0.0800 
 28 H        4.4950    -0.5630     2.8610 H     1 <1>   0.0800 
 29 H       -3.2540    -4.4430    -2.3900 H     1 <1>   0.1500 
 30 H       -4.0240    -0.4450    -1.1340 H     1 <1>   0.1500 
 31 H       -4.6630    -2.4250    -2.4510 H     1 <1>   0.1500 
 32 H        5.1450    -1.6500    -1.9910 H     1 <1>   0.0800 
 33 H        6.3400    -2.0010    -0.7470 H     1 <1>   0.0800 
 34 H        5.8410     0.7350    -1.9860 H     1 <1>   0.0800 
 35 H        7.2070    -0.2910    -2.3460 H     1 <1>   0.0800 
 36 H        7.0370     0.3860    -0.7460 H     1 <1>   0.0800 
@<TRIPOS>BOND
  1   1   2  2   
  2   2   3  am  
  3   2   4  am  
  4   3   5  1   
  5   3   6  am  
  6   4   7  1   
  7   4   8  1   
  8   5   9  ar  
  9   5  10  ar  
 10   6   8  1   
 11   6  11  2   
 12   7  12  1   
 13   7  13  1   
 14   7  21  1   
 15   8  22  1   
 16   8  23  1   
 17   9  14  ar  
 18   9  24  1   
 19  10  15  ar  
 20  10  25  1   
 21  12  16  2   
 22  12  17  1   
 23  13  26  1   
 24  13  27  1   
 25  13  28  1   
 26  14  18  ar  
 27  14  29  1   
 28  15  18  ar  
 29  15  30  1   
 30  17  19  1   
 31  18  31  1   
 32  19  20  1   
 33  19  32  1   
 34  19  33  1   
 35  20  34  1   
 36  20  35  1   
 37  20  36  1   
@<TRIPOS>SUBSTRUCTURE
  1 ****   2 GROUP 4 **** **** 0

# MOE 2024.06 (io_trps.svl 2023.06)
