@<TRIPOS>MOLECULE
NONAME
44 47 1 0 0 
SMALL
USER_CHARGES


@<TRIPOS>ATOM
  1 BR       0.7870    -0.0280    -1.6900 Br    1 <1>  -0.1110 
  2 C        1.6240    -1.5040    -0.7780 C.ar  1 <1>   0.1110 
  3 C        0.9710    -2.7170    -0.7350 C.ar  1 <1>  -0.1500 
  4 C        2.8540    -1.3030    -0.1880 C.ar  1 <1>  -0.1500 
  5 C        1.5400    -3.8170    -0.0760 C.ar  1 <1>   0.0000 
  6 C        3.4460    -2.3760     0.4440 C.ar  1 <1>  -0.1500 
  7 C        0.8020    -5.0740     0.0440 C.ar  1 <1>   0.3100 
  8 C        2.8180    -3.6190     0.4810 C.ar  1 <1>   0.1000 
  9 N       -0.5270    -4.9590    -0.0990 N.ar  1 <1>  -0.3100 
 10 C        1.3320    -6.3620     0.2970 C.ar  1 <1>   0.3920 
 11 N        3.5050    -4.6680     1.0420 N.pl3 1 <1>  -0.8690 
 12 N       -1.2740    -6.0220    -0.0050 N.ar  1 <1>  -0.3100 
 13 O        2.6270    -6.6740     0.4640 O.3   1 <1>  -0.3630 
 14 N        0.5810    -7.4430     0.3880 N.ar  1 <1>  -0.6200 
 15 C        3.6710    -5.8160     0.1580 C.3   1 <1>   0.5690 
 16 C       -0.6900    -7.1930     0.2330 C.ar  1 <1>   0.7220 
 17 C        5.0180    -6.5220     0.3930 C.3   1 <1>  -0.0800 
 18 S       -1.7700    -8.6140     0.3490 S.3   1 <1>  -0.3310 
 19 C        6.1960    -5.5810     0.0610 C.3   1 <1>  -0.0220 
 20 C        5.1380    -7.8260    -0.4270 C.3   1 <1>  -0.1600 
 21 C       -3.4790    -7.9460     0.1090 C.3   1 <1>  -0.0100 
 22 C        7.5190    -6.3250     0.0130 C.2   1 <1>  -0.2880 
 23 C        6.4290    -8.5860    -0.0910 C.3   1 <1>  -0.0220 
 24 C        7.6320    -7.6550    -0.0430 C.2   1 <1>  -0.2760 
 25 C        8.9700    -8.3730    -0.0590 C.3   1 <1>  -0.1020 
 26 H        0.0100    -2.7900    -1.2120 H     1 <1>   0.1500 
 27 H        3.3290    -0.3390    -0.2290 H     1 <1>   0.1500 
 28 H        4.4080    -2.2520     0.9070 H     1 <1>   0.1500 
 29 H        4.3800    -4.4390     1.5180 H     1 <1>   0.4000 
 30 H        3.5770    -5.5290    -0.8770 H     1 <1>   0.0800 
 31 H        5.0750    -6.7840     1.4360 H     1 <1>   0.0800 
 32 H        6.2630    -4.8110     0.8080 H     1 <1>   0.0800 
 33 H        6.0390    -5.1090    -0.8930 H     1 <1>   0.0800 
 34 H        5.1380    -7.5870    -1.4760 H     1 <1>   0.0800 
 35 H        4.3010    -8.4750    -0.2340 H     1 <1>   0.0800 
 36 H       -4.1650    -8.7700     0.1770 H     1 <1>   0.0800 
 37 H       -3.5220    -7.4870    -0.8620 H     1 <1>   0.0800 
 38 H       -3.6650    -7.2250     0.8850 H     1 <1>   0.0800 
 39 H        8.3720    -5.6670     0.0280 H     1 <1>   0.1500 
 40 H        6.5830    -9.3480    -0.8350 H     1 <1>   0.0800 
 41 H        6.3260    -9.0700     0.8650 H     1 <1>   0.0800 
 42 H        9.0730    -8.9450    -0.9640 H     1 <1>   0.0800 
 43 H        9.0440    -9.0360     0.7840 H     1 <1>   0.0800 
 44 H        9.7800    -7.6670    -0.0090 H     1 <1>   0.0800 
@<TRIPOS>BOND
  1   1   2  1   
  2   2   3  ar  
  3   2   4  ar  
  4   3   5  ar  
  5   3  26  1   
  6   4   6  ar  
  7   4  27  1   
  8   5   7  1   
  9   5   8  ar  
 10   6   8  ar  
 11   6  28  1   
 12   7   9  ar  
 13   7  10  ar  
 14   8  11  1   
 15   9  12  ar  
 16  10  13  1   
 17  10  14  ar  
 18  11  15  1   
 19  11  29  1   
 20  12  16  ar  
 21  13  15  1   
 22  14  16  ar  
 23  15  17  1   
 24  15  30  1   
 25  16  18  1   
 26  17  19  1   
 27  17  20  1   
 28  17  31  1   
 29  18  21  1   
 30  19  22  1   
 31  19  32  1   
 32  19  33  1   
 33  20  23  1   
 34  20  34  1   
 35  20  35  1   
 36  21  36  1   
 37  21  37  1   
 38  21  38  1   
 39  22  24  2   
 40  22  39  1   
 41  23  24  1   
 42  23  40  1   
 43  23  41  1   
 44  24  25  1   
 45  25  42  1   
 46  25  43  1   
 47  25  44  1   
@<TRIPOS>SUBSTRUCTURE
  1 ****  15 GROUP 4 **** **** 0

# MOE 2024.06 (io_trps.svl 2023.06)
