@<TRIPOS>MOLECULE
NONAME
55 57 1 0 0 
SMALL
USER_CHARGES


@<TRIPOS>ATOM
  1 O       -1.8660     3.3880    -1.3770 O.2   1 <1>  -0.5700 
  2 C       -0.9710     3.5660    -0.5770 C.2   1 <1>   0.5690 
  3 N       -1.2550     3.8790     0.7290 N.am  1 <1>  -0.7300 
  4 C        0.5120     3.4210    -1.0300 C.3   1 <1>   0.3480 
  5 C       -2.5250     4.3010     1.3830 C.3   1 <1>   0.1400 
  6 C        1.4020     4.1240     0.0320 C.ar  1 <1>  -0.1440 
  7 C        0.9430     1.9410    -1.1900 C.ar  1 <1>  -0.1440 
  8 C        0.6890     4.0670    -2.4240 C.3   1 <1>  -0.2400 
  9 C       -3.7780     3.6280     0.8110 C.3   1 <1>  -0.1600 
 10 C        1.7300     5.4750    -0.0560 C.ar  1 <1>  -0.1500 
 11 C        1.8610     3.4160     1.1410 C.ar  1 <1>  -0.1500 
 12 C        2.2870     1.6470    -1.4030 C.ar  1 <1>  -0.1500 
 13 C        0.0440     0.8780    -1.1440 C.ar  1 <1>  -0.1500 
 14 C       -3.6320     2.1060     0.7670 C.3   1 <1>   0.3430 
 15 C        2.4950     6.0900     0.9200 C.ar  1 <1>  -0.1500 
 16 C        2.6250     4.0280     2.1180 C.ar  1 <1>  -0.1500 
 17 C        2.7220     0.3430    -1.5530 C.ar  1 <1>  -0.1500 
 18 C        0.4760    -0.4290    -1.2950 C.ar  1 <1>  -0.1500 
 19 N       -4.6520     1.5070    -0.1360 N.4   1 <1>  -0.9590 
 20 C        2.9450     5.3670     2.0090 C.ar  1 <1>  -0.1500 
 21 C        1.8160    -0.6990    -1.4980 C.ar  1 <1>  -0.1500 
 22 C       -4.8330     0.0420     0.1450 C.3   1 <1>   0.3430 
 23 C       -4.2630     1.7070    -1.5810 C.3   1 <1>   0.3430 
 24 C       -5.7750    -0.6180    -0.8810 C.3   1 <1>   0.1200 
 25 C       -5.2130     0.9640    -2.5390 C.3   1 <1>   0.1200 
 26 O       -5.3150    -0.3860    -2.1800 O.3   1 <1>  -0.5600 
 27 H       -0.4220     4.0900     1.2990 H     1 <1>   0.3700 
 28 H       -2.6200     5.3710     1.2910 H     1 <1>   0.0800 
 29 H       -2.4530     4.0720     2.4340 H     1 <1>   0.0800 
 30 H        1.7310     4.1490    -2.6760 H     1 <1>   0.0800 
 31 H        0.2410     5.0430    -2.4560 H     1 <1>   0.0800 
 32 H        0.2070     3.4610    -3.1700 H     1 <1>   0.0800 
 33 H       -3.9560     4.0390    -0.1660 H     1 <1>   0.0800 
 34 H       -4.6180     3.8890     1.4290 H     1 <1>   0.0800 
 35 H        1.3970     6.0820    -0.8780 H     1 <1>   0.1500 
 36 H        1.6310     2.3700     1.2600 H     1 <1>   0.1500 
 37 H        3.0140     2.4410    -1.4490 H     1 <1>   0.1500 
 38 H       -1.0060     1.0380    -0.9990 H     1 <1>   0.1500 
 39 H       -3.7390     1.7150     1.7660 H     1 <1>   0.0800 
 40 H       -2.6480     1.8460     0.4130 H     1 <1>   0.0800 
 41 H        2.7420     7.1340     0.8320 H     1 <1>   0.1500 
 42 H        2.9750     3.4600     2.9630 H     1 <1>   0.1500 
 43 H        3.7660     0.1400    -1.7130 H     1 <1>   0.1500 
 44 H       -0.2290    -1.2410    -1.2600 H     1 <1>   0.1500 
 45 H       -5.5500     1.9800     0.0170 H     1 <1>   0.4500 
 46 H        3.5420     5.8450     2.7660 H     1 <1>   0.1500 
 47 H        2.1530    -1.7140    -1.6150 H     1 <1>   0.1500 
 48 H       -5.2320    -0.0970     1.1360 H     1 <1>   0.0800 
 49 H       -3.8800    -0.4580     0.0970 H     1 <1>   0.0800 
 50 H       -3.2630     1.3390    -1.7430 H     1 <1>   0.0800 
 51 H       -4.2590     2.7560    -1.8250 H     1 <1>   0.0800 
 52 H       -6.7780    -0.2360    -0.7940 H     1 <1>   0.0800 
 53 H       -5.7990    -1.6830    -0.7300 H     1 <1>   0.0800 
 54 H       -4.8310     1.0070    -3.5440 H     1 <1>   0.0800 
 55 H       -6.1960     1.4010    -2.5280 H     1 <1>   0.0800 
@<TRIPOS>BOND
  1   1   2  2   
  2   2   3  am  
  3   2   4  1   
  4   3   5  1   
  5   3  27  1   
  6   4   6  1   
  7   4   7  1   
  8   4   8  1   
  9   5   9  1   
 10   5  28  1   
 11   5  29  1   
 12   6  10  ar  
 13   6  11  ar  
 14   7  12  ar  
 15   7  13  ar  
 16   8  30  1   
 17   8  31  1   
 18   8  32  1   
 19   9  14  1   
 20   9  33  1   
 21   9  34  1   
 22  10  15  ar  
 23  10  35  1   
 24  11  16  ar  
 25  11  36  1   
 26  12  17  ar  
 27  12  37  1   
 28  13  18  ar  
 29  13  38  1   
 30  14  19  1   
 31  14  39  1   
 32  14  40  1   
 33  15  20  ar  
 34  15  41  1   
 35  16  20  ar  
 36  16  42  1   
 37  17  21  ar  
 38  17  43  1   
 39  18  21  ar  
 40  18  44  1   
 41  19  22  1   
 42  19  23  1   
 43  19  45  1   
 44  20  46  1   
 45  21  47  1   
 46  22  24  1   
 47  22  48  1   
 48  22  49  1   
 49  23  25  1   
 50  23  50  1   
 51  23  51  1   
 52  24  26  1   
 53  24  52  1   
 54  24  53  1   
 55  25  26  1   
 56  25  54  1   
 57  25  55  1   
@<TRIPOS>SUBSTRUCTURE
  1 ****   2 GROUP 4 **** **** 0

# MOE 2024.06 (io_trps.svl 2023.06)
