@<TRIPOS>MOLECULE
NONAME
32 34 1 0 0 
SMALL
USER_CHARGES


@<TRIPOS>ATOM
  1 O        0.2490     0.3730     0.0560 O.2   1 <1>  -0.5700 
  2 C        0.8540     1.4310    -0.0500 C.2   1 <1>   0.8410 
  3 N        2.1800     1.4450    -0.2210 N.2   1 <1>  -0.6610 
  4 N        0.1670     2.5940     0.0090 N.am  1 <1>  -0.4200 
  5 C        2.7420     2.6120    -0.3220 C.2   1 <1>   0.7110 
  6 C        0.8310     3.7390    -0.1060 C.2   1 <1>   0.5600 
  7 C       -1.2780     2.8040     0.1860 C.3   1 <1>   0.1400 
  8 N        2.1030     3.7990    -0.2690 N.2   1 <1>  -0.6610 
  9 N        4.1030     2.6630    -0.4990 N.pl3 1 <1>  -0.7880 
 10 N       -0.0130     4.7910    -0.0260 N.pl3 1 <1>  -0.7880 
 11 C       -1.4090     4.3360     0.1600 C.3   1 <1>   0.2090 
 12 C        4.8890     3.9330    -0.5910 C.3   1 <1>   0.2090 
 13 C        4.9590     1.4430    -0.6410 C.3   1 <1>   0.2090 
 14 C        0.3440     6.2260    -0.1250 C.3   1 <1>   0.1290 
 15 C        6.1270     3.8740     0.3210 C.3   1 <1>   0.1200 
 16 C        6.1910     1.5320     0.2750 C.3   1 <1>   0.1200 
 17 O        6.8910     2.7280     0.0640 O.3   1 <1>  -0.5600 
 18 H       -1.6000     2.3970     1.1270 H     1 <1>   0.0800 
 19 H       -1.8220     2.3490    -0.6220 H     1 <1>   0.0800 
 20 H       -1.8080     4.7050     1.0890 H     1 <1>   0.0800 
 21 H       -2.0250     4.6570    -0.6610 H     1 <1>   0.0800 
 22 H        4.2980     4.7850    -0.3080 H     1 <1>   0.0800 
 23 H        5.2060     4.0760    -1.6090 H     1 <1>   0.0800 
 24 H        5.2840     1.3590    -1.6630 H     1 <1>   0.0800 
 25 H        4.4150     0.5470    -0.3980 H     1 <1>   0.0800 
 26 H        1.4060     6.3340    -0.2650 H     1 <1>   0.0800 
 27 H        0.0590     6.7360     0.7790 H     1 <1>   0.0800 
 28 H       -0.1630     6.6710    -0.9630 H     1 <1>   0.0800 
 29 H        5.8280     3.8650     1.3540 H     1 <1>   0.0800 
 30 H        6.7530     4.7310     0.1490 H     1 <1>   0.0800 
 31 H        6.8630     0.7180     0.0710 H     1 <1>   0.0800 
 32 H        5.8910     1.4840     1.3070 H     1 <1>   0.0800 
@<TRIPOS>BOND
  1   1   2  2   
  2   2   3  1   
  3   2   4  am  
  4   3   5  2   
  5   4   6  1   
  6   4   7  1   
  7   5   8  1   
  8   5   9  1   
  9   6   8  2   
 10   6  10  1   
 11   7  11  1   
 12   7  18  1   
 13   7  19  1   
 14   9  12  1   
 15   9  13  1   
 16  10  11  1   
 17  10  14  1   
 18  11  20  1   
 19  11  21  1   
 20  12  15  1   
 21  12  22  1   
 22  12  23  1   
 23  13  16  1   
 24  13  24  1   
 25  13  25  1   
 26  14  26  1   
 27  14  27  1   
 28  14  28  1   
 29  15  17  1   
 30  15  29  1   
 31  15  30  1   
 32  16  17  1   
 33  16  31  1   
 34  16  32  1   
@<TRIPOS>SUBSTRUCTURE
  1 ****   5 GROUP 4 **** **** 0

# MOE 2024.06 (io_trps.svl 2023.06)
