@<TRIPOS>MOLECULE
NONAME
37 37 1 0 0 
SMALL
USER_CHARGES


@<TRIPOS>ATOM
  1 O        8.1200     1.0690    -0.0710 O.3   1 <1>  -0.3630 
  2 C        8.4450    -0.0380    -0.7930 C.ar  1 <1>   0.0830 
  3 C        6.8880     1.1630     0.6120 C.3   1 <1>   0.1200 
  4 C        9.5750     0.0350    -1.6030 C.ar  1 <1>  -0.1440 
  5 C        7.7100    -1.2190    -0.7430 C.ar  1 <1>  -0.1500 
  6 C        6.7980     2.5570     1.2260 C.3   1 <1>  -0.2400 
  7 C        9.9630    -1.0670    -2.3500 C.ar  1 <1>  -0.1500 
  8 C       10.3740     1.3180    -1.6720 C.3   1 <1>   0.4860 
  9 C        8.1040    -2.3130    -1.4910 C.ar  1 <1>  -0.1500 
 10 C        9.2290    -2.2380    -2.2930 C.ar  1 <1>  -0.1500 
 11 N       10.8690     1.5880    -0.3080 N.4   1 <1>  -0.9060 
 12 C       11.5250     2.8630    -0.0520 C.3   1 <1>   0.5030 
 13 C       10.5500     4.0060    -0.3310 C.3   1 <1>  -0.2400 
 14 C       11.9090     2.8570     1.4230 C.3   1 <1>  -0.2400 
 15 C       12.7760     2.9800    -0.9200 C.3   1 <1>  -0.2400 
 16 H        6.8580     0.4080     1.3790 H     1 <1>   0.0800 
 17 H        6.0900     1.0060    -0.0950 H     1 <1>   0.0800 
 18 H        6.8330    -1.3140    -0.1300 H     1 <1>   0.1500 
 19 H        7.5940     2.7100     1.9310 H     1 <1>   0.0800 
 20 H        5.8620     2.6590     1.7470 H     1 <1>   0.0800 
 21 H        6.8390     3.3080     0.4580 H     1 <1>   0.0800 
 22 H       10.8320    -1.0320    -2.9860 H     1 <1>   0.1500 
 23 H        9.7290     2.1150    -2.0040 H     1 <1>   0.0800 
 24 H       11.1940     1.2150    -2.3630 H     1 <1>   0.0800 
 25 H        7.5350    -3.2270    -1.4520 H     1 <1>   0.1500 
 26 H        9.5290    -3.0940    -2.8740 H     1 <1>   0.1500 
 27 H       11.4700     0.8150    -0.0170 H     1 <1>   0.4500 
 28 H       10.0240     1.5280     0.2800 H     1 <1>   0.4500 
 29 H       10.9950     4.9420    -0.0400 H     1 <1>   0.0800 
 30 H       10.3100     4.0800    -1.3760 H     1 <1>   0.0800 
 31 H        9.6420     3.8860     0.2350 H     1 <1>   0.0800 
 32 H       11.0400     2.7650     2.0500 H     1 <1>   0.0800 
 33 H       12.3990     3.7810     1.6780 H     1 <1>   0.0800 
 34 H       12.5910     2.0560     1.6440 H     1 <1>   0.0800 
 35 H       12.5300     3.0350    -1.9650 H     1 <1>   0.0800 
 36 H       13.4420     2.1520    -0.7530 H     1 <1>   0.0800 
 37 H       13.3070     3.8820    -0.6690 H     1 <1>   0.0800 
@<TRIPOS>BOND
  1   1   2  1   
  2   1   3  1   
  3   2   4  ar  
  4   2   5  ar  
  5   3   6  1   
  6   3  16  1   
  7   3  17  1   
  8   4   7  ar  
  9   4   8  1   
 10   5   9  ar  
 11   5  18  1   
 12   6  19  1   
 13   6  20  1   
 14   6  21  1   
 15   7  10  ar  
 16   7  22  1   
 17   8  11  1   
 18   8  23  1   
 19   8  24  1   
 20   9  10  ar  
 21   9  25  1   
 22  10  26  1   
 23  11  12  1   
 24  11  27  1   
 25  11  28  1   
 26  12  13  1   
 27  12  14  1   
 28  12  15  1   
 29  13  29  1   
 30  13  30  1   
 31  13  31  1   
 32  14  32  1   
 33  14  33  1   
 34  14  34  1   
 35  15  35  1   
 36  15  36  1   
 37  15  37  1   
@<TRIPOS>SUBSTRUCTURE
  1 ****   4 GROUP 4 **** **** 0

# MOE 2024.06 (io_trps.svl 2023.06)
