@<TRIPOS>MOLECULE
NONAME
48 50 1 0 0 
SMALL
USER_CHARGES


@<TRIPOS>ATOM
  1 O        0.9680     2.6430    -1.9060 O.2   1 <1>  -0.5700 
  2 C        0.2100     2.7280    -0.9670 C.2   1 <1>   0.5690 
  3 N        0.5270     2.2510     0.2760 N.am  1 <1>  -0.5470 
  4 C       -1.1860     3.3820    -1.1270 C.3   1 <1>   0.2050 
  5 C        1.6310     1.5580     0.7970 C.ar  1 <1>   0.1170 
  6 C       -2.1860     2.5310    -0.3010 C.ar  1 <1>  -0.1440 
  7 C       -1.6700     3.4260    -2.6010 C.3   1 <1>  -0.1600 
  8 C       -1.1040     4.8460    -0.6300 C.3   1 <1>  -0.1600 
  9 C        1.4710     0.8990     2.0190 C.ar  1 <1>   0.0830 
 10 C        2.8700     1.4970     0.1710 C.ar  1 <1>  -0.1500 
 11 C       -2.8390     2.9980     0.8380 C.ar  1 <1>  -0.1500 
 12 C       -2.4150     1.2130    -0.6860 C.ar  1 <1>  -0.1500 
 13 C       -0.9170     4.4540    -3.4600 C.3   1 <1>   0.1200 
 14 C       -0.3080     5.7260    -1.5960 C.3   1 <1>   0.1200 
 15 O        0.2740     0.9460     2.6550 O.3   1 <1>  -0.3630 
 16 C        2.5210     0.2090     2.6000 C.ar  1 <1>  -0.1500 
 17 C        3.9200     0.8010     0.7470 C.ar  1 <1>  -0.1500 
 18 C       -3.6870     2.1800     1.5630 C.ar  1 <1>  -0.1500 
 19 C       -3.2640     0.3940     0.0340 C.ar  1 <1>  -0.1500 
 20 O       -0.9440     5.6960    -2.8320 O.3   1 <1>  -0.5600 
 21 C       -0.5850    -0.1470     2.4170 C.3   1 <1>   0.0400 
 22 C        3.7480     0.1570     1.9610 C.ar  1 <1>  -0.1500 
 23 C       -3.9040     0.8660     1.1650 C.ar  1 <1>   0.0830 
 24 O       -4.7080    -0.0040     1.8240 O.3   1 <1>  -0.3630 
 25 C       -5.4660     0.4020     2.9420 C.3   1 <1>   0.0400 
 26 H       -0.2510     2.2690     0.9420 H     1 <1>   0.3700 
 27 H       -2.7150     3.6790    -2.6220 H     1 <1>   0.0800 
 28 H       -1.5610     2.4610    -3.0590 H     1 <1>   0.0800 
 29 H       -0.6460     4.8870     0.3420 H     1 <1>   0.0800 
 30 H       -2.0910     5.2670    -0.5570 H     1 <1>   0.0800 
 31 H        3.0220     1.9950    -0.7690 H     1 <1>   0.1500 
 32 H       -2.7050     4.0020     1.1950 H     1 <1>   0.1500 
 33 H       -1.9240     0.8020    -1.5510 H     1 <1>   0.1500 
 34 H       -1.3960     4.5620    -4.4170 H     1 <1>   0.0800 
 35 H        0.1090     4.1720    -3.6210 H     1 <1>   0.0800 
 36 H        0.7080     5.3870    -1.7140 H     1 <1>   0.0800 
 37 H       -0.3010     6.7480    -1.2580 H     1 <1>   0.0800 
 38 H        2.3780    -0.2810     3.5460 H     1 <1>   0.1500 
 39 H        4.8730     0.7620     0.2470 H     1 <1>   0.1500 
 40 H       -4.1680     2.5810     2.4350 H     1 <1>   0.1500 
 41 H       -3.4340    -0.6220    -0.2760 H     1 <1>   0.1500 
 42 H       -0.7370    -0.2500     1.3570 H     1 <1>   0.0800 
 43 H       -1.5250     0.0470     2.9040 H     1 <1>   0.0800 
 44 H       -0.1370    -1.0380     2.8190 H     1 <1>   0.0800 
 45 H        4.5670    -0.3800     2.4070 H     1 <1>   0.1500 
 46 H       -6.0480    -0.4390     3.2740 H     1 <1>   0.0800 
 47 H       -6.1190     1.2050     2.6480 H     1 <1>   0.0800 
 48 H       -4.7970     0.7150     3.7240 H     1 <1>   0.0800 
@<TRIPOS>BOND
  1   1   2  2   
  2   2   3  am  
  3   2   4  1   
  4   3   5  1   
  5   3  26  1   
  6   4   6  1   
  7   4   7  1   
  8   4   8  1   
  9   5   9  ar  
 10   5  10  ar  
 11   6  11  ar  
 12   6  12  ar  
 13   7  13  1   
 14   7  27  1   
 15   7  28  1   
 16   8  14  1   
 17   8  29  1   
 18   8  30  1   
 19   9  15  1   
 20   9  16  ar  
 21  10  17  ar  
 22  10  31  1   
 23  11  18  ar  
 24  11  32  1   
 25  12  19  ar  
 26  12  33  1   
 27  13  20  1   
 28  13  34  1   
 29  13  35  1   
 30  14  20  1   
 31  14  36  1   
 32  14  37  1   
 33  15  21  1   
 34  16  22  ar  
 35  16  38  1   
 36  17  22  ar  
 37  17  39  1   
 38  18  23  ar  
 39  18  40  1   
 40  19  23  ar  
 41  19  41  1   
 42  21  42  1   
 43  21  43  1   
 44  21  44  1   
 45  22  45  1   
 46  23  24  1   
 47  24  25  1   
 48  25  46  1   
 49  25  47  1   
 50  25  48  1   
@<TRIPOS>SUBSTRUCTURE
  1 ****   3 GROUP 4 **** **** 0

# MOE 2024.06 (io_trps.svl 2023.06)
