@<TRIPOS>MOLECULE
NONAME
32 32 1 0 0 
SMALL
USER_CHARGES


@<TRIPOS>ATOM
  1 CL       1.1390    -0.3450    -0.3930 Cl    1 <1>  -0.1770 
  2 C       -0.1040    -1.5780    -0.3980 C.ar  1 <1>   0.1770 
  3 C        0.2320    -2.9150    -0.1950 C.ar  1 <1>   0.0830 
  4 C       -1.4110    -1.1830    -0.6090 C.ar  1 <1>  -0.1500 
  5 O        1.5420    -3.2220     0.0060 O.3   1 <1>  -0.3630 
  6 C       -0.7830    -3.8730    -0.2070 C.ar  1 <1>  -0.1500 
  7 C       -2.3970    -2.1500    -0.6160 C.ar  1 <1>   0.1770 
  8 C        1.9800    -4.5490     0.1800 C.3   1 <1>   0.1200 
  9 C       -2.0980    -3.4860    -0.4180 C.ar  1 <1>  -0.1500 
 10 CL      -4.0560    -1.6760    -0.8810 Cl    1 <1>  -0.1770 
 11 C        3.4960    -4.5190     0.3760 C.3   1 <1>  -0.1600 
 12 C        4.0780    -5.9380     0.4880 C.3   1 <1>  -0.0990 
 13 C        5.5700    -5.9280     0.7540 C.2   1 <1>   0.5690 
 14 O        5.9740    -6.3060     1.8260 O.2   1 <1>  -0.5700 
 15 N        6.4010    -5.4980    -0.2290 N.am  1 <1>  -0.7300 
 16 C        7.8670    -5.3960    -0.1140 C.3   1 <1>   0.1400 
 17 C        8.2920    -4.0040    -0.5640 C.3   1 <1>  -0.2400 
 18 H       -1.6540    -0.1480    -0.7640 H     1 <1>   0.1500 
 19 H       -0.5720    -4.9150    -0.0540 H     1 <1>   0.1500 
 20 H        1.7190    -5.1090    -0.7010 H     1 <1>   0.0800 
 21 H        1.4930    -4.9600     1.0470 H     1 <1>   0.0800 
 22 H       -2.8910    -4.2130    -0.4300 H     1 <1>   0.1500 
 23 H        3.7220    -3.9730     1.2770 H     1 <1>   0.0800 
 24 H        3.9490    -4.0080    -0.4550 H     1 <1>   0.0800 
 25 H        3.8950    -6.4870    -0.4180 H     1 <1>   0.0800 
 26 H        3.5970    -6.4620     1.2950 H     1 <1>   0.0800 
 27 H        6.0070    -5.1760    -1.1130 H     1 <1>   0.3700 
 28 H        8.3270    -6.1470    -0.7340 H     1 <1>   0.0800 
 29 H        8.1710    -5.5630     0.9070 H     1 <1>   0.0800 
 30 H        8.0200    -3.8370    -1.5900 H     1 <1>   0.0800 
 31 H        9.3590    -3.9070    -0.4740 H     1 <1>   0.0800 
 32 H        7.8310    -3.2570     0.0590 H     1 <1>   0.0800 
@<TRIPOS>BOND
  1   1   2  1   
  2   2   3  ar  
  3   2   4  ar  
  4   3   5  1   
  5   3   6  ar  
  6   4   7  ar  
  7   4  18  1   
  8   5   8  1   
  9   6   9  ar  
 10   6  19  1   
 11   7   9  ar  
 12   7  10  1   
 13   8  11  1   
 14   8  20  1   
 15   8  21  1   
 16   9  22  1   
 17  11  12  1   
 18  11  23  1   
 19  11  24  1   
 20  12  13  1   
 21  12  25  1   
 22  12  26  1   
 23  13  14  2   
 24  13  15  am  
 25  15  16  1   
 26  15  27  1   
 27  16  17  1   
 28  16  28  1   
 29  16  29  1   
 30  17  30  1   
 31  17  31  1   
 32  17  32  1   
@<TRIPOS>SUBSTRUCTURE
  1 ****   5 GROUP 4 **** **** 0

# MOE 2024.06 (io_trps.svl 2023.06)
