@<TRIPOS>MOLECULE
NONAME
35 36 1 0 0 
SMALL
USER_CHARGES


@<TRIPOS>ATOM
  1 O        0.7260    -0.8780    -1.4830 O.3   1 <1>  -0.6800 
  2 C        1.6320    -0.9500    -0.4540 C.3   1 <1>   0.2000 
  3 C        2.9130    -0.2470    -0.9000 C.3   1 <1>  -0.1600 
  4 C        1.8700    -2.4320    -0.1720 C.3   1 <1>  -0.1600 
  5 C        4.0440    -0.4860     0.0970 C.3   1 <1>   0.3430 
  6 C        3.0150    -2.6270     0.8150 C.3   1 <1>   0.3430 
  7 N        4.2370    -1.9530     0.2970 N.4   1 <1>  -0.9590 
  8 C        5.4290    -2.2460     1.1380 C.3   1 <1>   0.4860 
  9 C        6.6640    -1.7570     0.4040 C.ar  1 <1>  -0.1440 
 10 C        7.1850    -2.4380    -0.6950 C.ar  1 <1>  -0.1440 
 11 C        7.2740    -0.5910     0.8450 C.ar  1 <1>  -0.1500 
 12 C        8.2960    -1.9210    -1.3440 C.ar  1 <1>  -0.1500 
 13 C        6.5940    -3.7410    -1.2210 C.3   1 <1>  -0.0970 
 14 C        8.3830    -0.0880     0.1910 C.ar  1 <1>  -0.1500 
 15 C        8.8920    -0.7530    -0.9070 C.ar  1 <1>  -0.1500 
 16 H        0.4430     0.0430    -1.6520 H     1 <1>   0.4000 
 17 H        1.2040    -0.4650     0.4090 H     1 <1>   0.0800 
 18 H        2.7370     0.8110    -0.9790 H     1 <1>   0.0800 
 19 H        3.2180    -0.6100    -1.8670 H     1 <1>   0.0800 
 20 H        2.0980    -2.9500    -1.0870 H     1 <1>   0.0800 
 21 H        0.9740    -2.8620     0.2390 H     1 <1>   0.0800 
 22 H        3.8050    -0.0160     1.0370 H     1 <1>   0.0800 
 23 H        4.9500    -0.0410    -0.2840 H     1 <1>   0.0800 
 24 H        3.1980    -3.6820     0.9430 H     1 <1>   0.0800 
 25 H        2.7420    -2.2100     1.7710 H     1 <1>   0.0800 
 26 H        4.4560    -2.3400    -0.6300 H     1 <1>   0.4500 
 27 H        5.5150    -3.3070     1.3090 H     1 <1>   0.0800 
 28 H        5.3470    -1.7530     2.0920 H     1 <1>   0.0800 
 29 H        6.9000    -0.0570     1.7020 H     1 <1>   0.1500 
 30 H        8.7140    -2.4260    -2.1990 H     1 <1>   0.1500 
 31 H        5.7350    -3.5430    -1.8360 H     1 <1>   0.0800 
 32 H        6.3190    -4.3970    -0.4150 H     1 <1>   0.0800 
 33 H        7.3180    -4.2630    -1.8230 H     1 <1>   0.0800 
 34 H        8.8550     0.8170     0.5350 H     1 <1>   0.1500 
 35 H        9.7560    -0.3640    -1.4200 H     1 <1>   0.1500 
@<TRIPOS>BOND
  1   1   2  1   
  2   1  16  1   
  3   2   3  1   
  4   2   4  1   
  5   2  17  1   
  6   3   5  1   
  7   3  18  1   
  8   3  19  1   
  9   4   6  1   
 10   4  20  1   
 11   4  21  1   
 12   5   7  1   
 13   5  22  1   
 14   5  23  1   
 15   6   7  1   
 16   6  24  1   
 17   6  25  1   
 18   7   8  1   
 19   7  26  1   
 20   8   9  1   
 21   8  27  1   
 22   8  28  1   
 23   9  10  ar  
 24   9  11  ar  
 25  10  12  ar  
 26  10  13  1   
 27  11  14  ar  
 28  11  29  1   
 29  12  15  ar  
 30  12  30  1   
 31  13  31  1   
 32  13  32  1   
 33  13  33  1   
 34  14  15  ar  
 35  14  34  1   
 36  15  35  1   
@<TRIPOS>SUBSTRUCTURE
  1 ****   7 GROUP 4 **** **** 0

# MOE 2024.06 (io_trps.svl 2023.06)
