@<TRIPOS>MOLECULE
Structure1716
34 34 1 0 0 
SMALL
USER_CHARGES


@<TRIPOS>ATOM
  1 S        0.2720    -3.1400     1.0240 S.3   1 <1>  -0.0800 
  2 C        0.7560    -1.7220     0.1010 C.2   1 <1>  -0.1400 
  3 C       -1.3600    -3.0620     0.3830 C.2   1 <1>  -0.1100 
  4 C       -0.2860    -1.2630    -0.6210 C.2   1 <1>  -0.1500 
  5 C        2.1980    -1.2440     0.2510 C.3   1 <1>   0.4000 
  6 C       -1.4880    -2.0240    -0.4630 C.2   1 <1>  -0.1500 
  7 N        2.3650     0.0660    -0.3880 N.am  1 <1>  -0.7300 
  8 C        3.1450    -2.2290    -0.4150 C.3   1 <1>  -0.2660 
  9 C        1.9770     1.2300     0.1610 C.2   1 <1>   0.7800 
 10 C        4.5500    -1.7390    -0.2800 C.2   1 <1>   0.9060 
 11 O        1.2030     1.2940     1.0950 O.2   1 <1>  -0.5700 
 12 O        2.5010     2.3230    -0.3890 O.3   1 <1>  -0.4300 
 13 O        4.9210    -0.8370    -1.0380 O.co2 1 <1>  -0.9000 
 14 O        5.2650    -2.2250     0.5960 O.co2 1 <1>  -0.9000 
 15 C        2.3120     3.6600     0.0170 C.3   1 <1>   0.2800 
 16 C        0.8400     4.0590    -0.1380 C.3   1 <1>  -0.2400 
 17 C        3.1650     4.4910    -0.9430 C.3   1 <1>  -0.2400 
 18 C        2.8270     3.8550     1.4480 C.3   1 <1>  -0.2400 
 19 H       -2.0560    -3.8110     0.7130 H     1 <1>   0.1500 
 20 H       -0.2530    -0.4020    -1.2650 H     1 <1>   0.1500 
 21 H        2.4420    -1.1570     1.2970 H     1 <1>   0.0800 
 22 H       -2.3840    -1.7500    -0.9900 H     1 <1>   0.1500 
 23 H        3.2580     0.1000    -0.9110 H     1 <1>   0.3700 
 24 H        2.9060    -2.3370    -1.4550 H     1 <1>   0.0800 
 25 H        3.0750    -3.1880     0.0580 H     1 <1>   0.0800 
 26 H        0.2220     3.5400     0.5720 H     1 <1>   0.0800 
 27 H        0.4970     3.8380    -1.1320 H     1 <1>   0.0800 
 28 H        0.7250     5.1120     0.0390 H     1 <1>   0.0800 
 29 H        2.8340     4.3430    -1.9560 H     1 <1>   0.0800 
 30 H        4.1970     4.1980    -0.8680 H     1 <1>   0.0800 
 31 H        3.0880     5.5360    -0.7070 H     1 <1>   0.0800 
 32 H        3.8350     3.4900     1.5320 H     1 <1>   0.0800 
 33 H        2.2060     3.3390     2.1560 H     1 <1>   0.0800 
 34 H        2.8170     4.8990     1.7040 H     1 <1>   0.0800 
@<TRIPOS>BOND
  1   1   2  1   
  2   1   3  1   
  3   2   4  2   
  4   2   5  1   
  5   3   6  2   
  6   3  19  1   
  7   4   6  1   
  8   4  20  1   
  9   5   7  1   
 10   5   8  1   
 11   5  21  1   
 12   6  22  1   
 13   7   9  am  
 14   7  23  1   
 15   8  10  1   
 16   8  24  1   
 17   8  25  1   
 18   9  11  2   
 19   9  12  1   
 20  10  13  ar  
 21  10  14  ar  
 22  12  15  1   
 23  15  16  1   
 24  15  17  1   
 25  15  18  1   
 26  16  26  1   
 27  16  27  1   
 28  16  28  1   
 29  17  29  1   
 30  17  30  1   
 31  17  31  1   
 32  18  32  1   
 33  18  33  1   
 34  18  34  1   
@<TRIPOS>SUBSTRUCTURE
  1 ****   7 GROUP 4 **** **** 0

# MOE 2024.06 (io_trps.svl 2023.06)
