@<TRIPOS>MOLECULE
NONAME
19 18 1 0 0 
SMALL
USER_CHARGES


@<TRIPOS>ATOM
  1 S        0.0380     0.2240     0.4420 S.3   1 <1>  -0.4600 
  2 C        1.6980    -0.4640     0.1840 C.3   1 <1>   0.0700 
  3 C       -1.0390    -0.9950    -0.3550 C.3   1 <1>  -0.0100 
  4 C        2.7210     0.5720     0.6470 C.3   1 <1>   0.1400 
  5 N        4.0860    -0.0080     0.6320 N.am  1 <1>  -0.7300 
  6 C        4.8130    -0.2270    -0.4900 C.2   1 <1>   0.5690 
  7 O        4.3800    -0.0120    -1.5940 O.2   1 <1>  -0.5700 
  8 C        6.2100    -0.7680    -0.3380 C.3   1 <1>  -0.1790 
  9 H        1.8060    -0.6710    -0.8660 H     1 <1>   0.0800 
 10 H        1.7610    -1.3680     0.7620 H     1 <1>   0.0800 
 11 H       -2.0540    -0.6560    -0.2450 H     1 <1>   0.0800 
 12 H       -0.8950    -1.9400     0.1370 H     1 <1>   0.0800 
 13 H       -0.7650    -1.0510    -1.3940 H     1 <1>   0.0800 
 14 H        2.4840     0.9000     1.6440 H     1 <1>   0.0800 
 15 H        2.6870     1.4240    -0.0130 H     1 <1>   0.0800 
 16 H        4.4940    -0.2130     1.5450 H     1 <1>   0.3700 
 17 H        6.1780    -1.7260     0.1460 H     1 <1>   0.0800 
 18 H        6.8010    -0.0870     0.2450 H     1 <1>   0.0800 
 19 H        6.6620    -0.8810    -1.3060 H     1 <1>   0.0800 
@<TRIPOS>BOND
  1   1   2  1   
  2   1   3  1   
  3   2   4  1   
  4   2   9  1   
  5   2  10  1   
  6   3  11  1   
  7   3  12  1   
  8   3  13  1   
  9   4   5  1   
 10   4  14  1   
 11   4  15  1   
 12   5   6  am  
 13   5  16  1   
 14   6   7  2   
 15   6   8  1   
 16   8  17  1   
 17   8  18  1   
 18   8  19  1   
@<TRIPOS>SUBSTRUCTURE
  1 ****   4 GROUP 4 **** **** 0

# MOE 2024.06 (io_trps.svl 2023.06)
