@<TRIPOS>MOLECULE
NONAME
51 54 1 0 0 
SMALL
USER_CHARGES


@<TRIPOS>ATOM
  1 S       -0.1940    -0.5370     0.0550 S.3   1 <1>  -0.0800 
  2 C        0.8570     0.8720    -0.1280 C.2   1 <1>   0.1040 
  3 C       -1.6260     0.4490    -0.1550 C.2   1 <1>  -0.1400 
  4 N        2.2450     0.7160    -0.0730 N.am  1 <1>  -0.4940 
  5 C        0.1100     1.9920    -0.3340 C.2   1 <1>   0.0190 
  6 C       -1.3020     1.7330    -0.3380 C.2   1 <1>  -0.1810 
  7 C       -3.0210    -0.1370    -0.1160 C.3   1 <1>   0.3000 
  8 C        3.0440    -0.2840     0.4280 C.2   1 <1>   0.5690 
  9 C        0.6440     3.3050    -0.5240 C.1   1 <1>   0.5380 
 10 C       -2.4200     2.7440    -0.5330 C.3   1 <1>   0.0210 
 11 O       -3.9440     0.8420    -0.5340 O.3   1 <1>  -0.5600 
 12 O        2.6010    -1.2410     1.0180 O.2   1 <1>  -0.5700 
 13 C        4.5710    -0.1540     0.2120 C.3   1 <1>   0.2040 
 14 N        1.0720     4.3510    -0.6740 N.1   1 <1>  -0.5570 
 15 C       -3.7860     2.1610    -0.0730 C.3   1 <1>   0.2800 
 16 C        4.9380     1.3390    -0.0080 C.ar  1 <1>  -0.1440 
 17 C        5.4230    -0.7070     1.3720 C.3   1 <1>  -0.1600 
 18 C        5.0150    -1.0910    -0.9280 C.3   1 <1>  -0.1600 
 19 C       -4.9360     2.9520    -0.6980 C.3   1 <1>  -0.2400 
 20 C       -3.9390     2.1790     1.4560 C.3   1 <1>  -0.2400 
 21 C        4.6560     2.2460     1.0110 C.ar  1 <1>  -0.1500 
 22 C        5.5040     1.8360    -1.1800 C.ar  1 <1>  -0.1500 
 23 C        6.7880    -1.0270     0.7550 C.3   1 <1>  -0.1600 
 24 C        6.5120    -1.3520    -0.7170 C.3   1 <1>  -0.1600 
 25 C        4.9150     3.5960     0.8640 C.ar  1 <1>  -0.1500 
 26 C        5.7660     3.1860    -1.3280 C.ar  1 <1>  -0.1500 
 27 C        5.4690     4.0700    -0.3090 C.ar  1 <1>  -0.1500 
 28 H        2.7940     1.5180    -0.4030 H     1 <1>   0.3700 
 29 H       -3.2770    -0.4570     0.8780 H     1 <1>   0.0800 
 30 H       -3.1010    -0.9720    -0.7900 H     1 <1>   0.0800 
 31 H       -2.4690     3.0040    -1.5760 H     1 <1>   0.0800 
 32 H       -2.2140     3.6430     0.0190 H     1 <1>   0.0800 
 33 H        4.9920    -1.6250     1.7340 H     1 <1>   0.0800 
 34 H        5.5100    -0.0280     2.2010 H     1 <1>   0.0800 
 35 H        4.7810    -0.7200    -1.9090 H     1 <1>   0.0800 
 36 H        4.4990    -2.0300    -0.8140 H     1 <1>   0.0800 
 37 H       -4.8830     2.9030    -1.7710 H     1 <1>   0.0800 
 38 H       -4.8890     3.9840    -0.4000 H     1 <1>   0.0800 
 39 H       -5.8800     2.5480    -0.3800 H     1 <1>   0.0800 
 40 H       -3.1100     1.6960     1.9390 H     1 <1>   0.0800 
 41 H       -4.8530     1.6910     1.7430 H     1 <1>   0.0800 
 42 H       -3.9740     3.1940     1.8090 H     1 <1>   0.0800 
 43 H        4.2210     1.9080     1.9360 H     1 <1>   0.1500 
 44 H        5.7570     1.1950    -2.0030 H     1 <1>   0.1500 
 45 H        7.2650    -1.8470     1.2630 H     1 <1>   0.0800 
 46 H        7.4240    -0.1590     0.8170 H     1 <1>   0.0800 
 47 H        7.1040    -0.7120    -1.3480 H     1 <1>   0.0800 
 48 H        6.7520    -2.3780    -0.9400 H     1 <1>   0.0800 
 49 H        4.6830     4.2810     1.6620 H     1 <1>   0.1500 
 50 H        6.2020     3.5530    -2.2420 H     1 <1>   0.1500 
 51 H        5.6690     5.1210    -0.4270 H     1 <1>   0.1500 
@<TRIPOS>BOND
  1   1   2  1   
  2   1   3  1   
  3   2   4  1   
  4   2   5  2   
  5   3   6  2   
  6   3   7  1   
  7   4   8  am  
  8   4  28  1   
  9   5   6  1   
 10   5   9  1   
 11   6  10  1   
 12   7  11  1   
 13   7  29  1   
 14   7  30  1   
 15   8  12  2   
 16   8  13  1   
 17   9  14  3   
 18  10  15  1   
 19  10  31  1   
 20  10  32  1   
 21  11  15  1   
 22  13  16  1   
 23  13  17  1   
 24  13  18  1   
 25  15  19  1   
 26  15  20  1   
 27  16  21  ar  
 28  16  22  ar  
 29  17  23  1   
 30  17  33  1   
 31  17  34  1   
 32  18  24  1   
 33  18  35  1   
 34  18  36  1   
 35  19  37  1   
 36  19  38  1   
 37  19  39  1   
 38  20  40  1   
 39  20  41  1   
 40  20  42  1   
 41  21  25  ar  
 42  21  43  1   
 43  22  26  ar  
 44  22  44  1   
 45  23  24  1   
 46  23  45  1   
 47  23  46  1   
 48  24  47  1   
 49  24  48  1   
 50  25  27  ar  
 51  25  49  1   
 52  26  27  ar  
 53  26  50  1   
 54  27  51  1   
@<TRIPOS>SUBSTRUCTURE
  1 ****   4 GROUP 4 **** **** 0

# MOE 2024.06 (io_trps.svl 2023.06)
