@<TRIPOS>MOLECULE
NONAME
45 46 1 0 0 
SMALL
USER_CHARGES


@<TRIPOS>ATOM
  1 O        0.2140    -1.2670    -1.2170 O.2   1 <1>  -0.5700 
  2 C        0.1620    -2.2620    -0.5350 C.2   1 <1>   0.5690 
  3 N        1.2860    -2.8620    -0.0720 N.am  1 <1>  -0.7300 
  4 C       -1.1930    -2.8600    -0.1600 C.3   1 <1>  -0.0190 
  5 C        2.6780    -2.3520    -0.2590 C.3   1 <1>   0.2010 
  6 C       -2.0540    -3.1490    -1.4050 C.3   1 <1>  -0.1600 
  7 C       -1.9500    -1.9430     0.8210 C.3   1 <1>  -0.1600 
  8 C        3.4560    -2.3190     1.0610 C.2   1 <1>   0.5690 
  9 C       -3.4200    -3.7360    -1.0240 C.3   1 <1>  -0.1600 
 10 C       -3.3170    -2.5280     1.2010 C.3   1 <1>  -0.1600 
 11 O        3.4110    -3.2800     1.7910 O.2   1 <1>  -0.5700 
 12 N        4.1990    -1.2390     1.4250 N.am  1 <1>  -0.5470 
 13 C       -4.1630    -2.8160    -0.0460 C.3   1 <1>  -0.1600 
 14 C        4.4190    -0.0460     0.7300 C.ar  1 <1>   0.1170 
 15 C        3.4270     0.9260     0.5560 C.ar  1 <1>  -0.1440 
 16 C        5.6820     0.1600     0.1930 C.ar  1 <1>  -0.1500 
 17 C        3.7130     2.0700    -0.1860 C.ar  1 <1>  -0.1440 
 18 C        2.0330     0.7570     1.1670 C.3   1 <1>  -0.0970 
 19 C        5.9650     1.3010    -0.5280 C.ar  1 <1>  -0.1500 
 20 C        4.9800     2.2500    -0.7200 C.ar  1 <1>  -0.1500 
 21 C        2.6650     3.1470    -0.4400 C.3   1 <1>  -0.0970 
 22 H        1.2230    -3.6560     0.5710 H     1 <1>   0.3700 
 23 H       -1.0150    -3.7970     0.3370 H     1 <1>   0.0800 
 24 H        2.6500    -1.3730    -0.7020 H     1 <1>   0.0800 
 25 H        3.1950    -3.0040    -0.9380 H     1 <1>   0.0800 
 26 H       -1.5330    -3.8350    -2.0510 H     1 <1>   0.0800 
 27 H       -2.2030    -2.2330    -1.9540 H     1 <1>   0.0800 
 28 H       -2.0920    -0.9780     0.3620 H     1 <1>   0.0800 
 29 H       -1.3600    -1.8000     1.7090 H     1 <1>   0.0800 
 30 H       -3.2810    -4.7020    -0.5700 H     1 <1>   0.0800 
 31 H       -4.0140    -3.8710    -1.9120 H     1 <1>   0.0800 
 32 H       -3.8410    -1.8350     1.8380 H     1 <1>   0.0800 
 33 H       -3.1750    -3.4410     1.7540 H     1 <1>   0.0800 
 34 H        4.7030    -1.3610     2.3040 H     1 <1>   0.3700 
 35 H       -5.0920    -3.2750     0.2460 H     1 <1>   0.0800 
 36 H       -4.3950    -1.8880    -0.5400 H     1 <1>   0.0800 
 37 H        6.4470    -0.5810     0.3360 H     1 <1>   0.1500 
 38 H        1.9900    -0.0430     1.8800 H     1 <1>   0.0800 
 39 H        1.3170     0.5580     0.3900 H     1 <1>   0.0800 
 40 H        1.7410     1.6540     1.6810 H     1 <1>   0.0800 
 41 H        6.9470     1.4520    -0.9430 H     1 <1>   0.1500 
 42 H        5.2090     3.1340    -1.2890 H     1 <1>   0.1500 
 43 H        1.7710     2.7070    -0.8450 H     1 <1>   0.0800 
 44 H        3.0230     3.8770    -1.1430 H     1 <1>   0.0800 
 45 H        2.4260     3.6520     0.4790 H     1 <1>   0.0800 
@<TRIPOS>BOND
  1   1   2  2   
  2   2   3  am  
  3   2   4  1   
  4   3   5  1   
  5   3  22  1   
  6   4   6  1   
  7   4   7  1   
  8   4  23  1   
  9   5   8  1   
 10   5  24  1   
 11   5  25  1   
 12   6   9  1   
 13   6  26  1   
 14   6  27  1   
 15   7  10  1   
 16   7  28  1   
 17   7  29  1   
 18   8  11  2   
 19   8  12  am  
 20   9  13  1   
 21   9  30  1   
 22   9  31  1   
 23  10  13  1   
 24  10  32  1   
 25  10  33  1   
 26  12  14  1   
 27  12  34  1   
 28  13  35  1   
 29  13  36  1   
 30  14  15  ar  
 31  14  16  ar  
 32  15  17  ar  
 33  15  18  1   
 34  16  19  ar  
 35  16  37  1   
 36  17  20  ar  
 37  17  21  1   
 38  18  38  1   
 39  18  39  1   
 40  18  40  1   
 41  19  20  ar  
 42  19  41  1   
 43  20  42  1   
 44  21  43  1   
 45  21  44  1   
 46  21  45  1   
@<TRIPOS>SUBSTRUCTURE
  1 ****   5 GROUP 4 **** **** 0

# MOE 2024.06 (io_trps.svl 2023.06)
