@<TRIPOS>MOLECULE
ka-07000
23 23 1 0 0 
SMALL
USER_CHARGES


@<TRIPOS>ATOM
  1 O        0.1240     0.2080    -0.2380 O.3   1 <1>  -0.3630 
  2 C        1.4680     0.1740    -0.0600 C.ar  1 <1>   0.0830 
  3 C       -0.6110     1.4010    -0.0460 C.3   1 <1>   0.1200 
  4 C        2.0870    -1.0550    -0.2260 C.ar  1 <1>  -0.1500 
  5 C        2.2350     1.2880     0.2730 C.ar  1 <1>  -0.1500 
  6 C       -2.1020     1.1330    -0.2950 C.3   1 <1>   0.2000 
  7 C        3.4550    -1.1800    -0.0610 C.ar  1 <1>  -0.1500 
  8 C        3.6040     1.1610     0.4380 C.ar  1 <1>  -0.1500 
  9 O       -2.8050     2.2970    -0.0540 O.3   1 <1>  -0.6800 
 10 C       -2.6960     0.0570     0.6130 C.3   1 <1>  -0.2400 
 11 C        4.2140    -0.0710     0.2720 C.ar  1 <1>  -0.1500 
 12 H       -0.2490     2.1330    -0.7450 H     1 <1>   0.0800 
 13 H       -0.4520     1.7280     0.9660 H     1 <1>   0.0800 
 14 H        1.4910    -1.9110    -0.4850 H     1 <1>   0.1500 
 15 H        1.7900     2.2550     0.4070 H     1 <1>   0.1500 
 16 H       -2.2500     0.8790    -1.3320 H     1 <1>   0.0800 
 17 H        3.9280    -2.1370    -0.1920 H     1 <1>   0.1500 
 18 H        4.1970     2.0210     0.6960 H     1 <1>   0.1500 
 19 H       -2.9040     2.4340     0.9060 H     1 <1>   0.4000 
 20 H       -2.5410     0.2990     1.6490 H     1 <1>   0.0800 
 21 H       -2.2190    -0.8860     0.4130 H     1 <1>   0.0800 
 22 H       -3.7480    -0.0540     0.4170 H     1 <1>   0.0800 
 23 H        5.2780    -0.1660     0.4000 H     1 <1>   0.1500 
@<TRIPOS>BOND
  1   1   2  1   
  2   1   3  1   
  3   2   4  ar  
  4   2   5  ar  
  5   3   6  1   
  6   3  12  1   
  7   3  13  1   
  8   4   7  ar  
  9   4  14  1   
 10   5   8  ar  
 11   5  15  1   
 12   6   9  1   
 13   6  10  1   
 14   6  16  1   
 15   7  11  ar  
 16   7  17  1   
 17   8  11  ar  
 18   8  18  1   
 19   9  19  1   
 20  10  20  1   
 21  10  21  1   
 22  10  22  1   
 23  11  23  1   
@<TRIPOS>SUBSTRUCTURE
  1 ****   2 GROUP 4 **** **** 0

# MOE 2024.06 (io_trps.svl 2023.06)
