@<TRIPOS>MOLECULE
NONAME
24 23 1 0 0 
SMALL
USER_CHARGES


@<TRIPOS>ATOM
  1 S       -1.2160    -1.1560    -2.3570 S.2   1 <1>  -0.6770 
  2 P       -1.4540    -1.3300    -0.4470 P.3   1 <1>   1.4880 
  3 O       -1.7050     0.0510     0.3150 O.3   1 <1>  -0.5510 
  4 O       -2.6720    -2.2720    -0.0320 O.3   1 <1>  -0.5510 
  5 N       -0.1440    -2.0070     0.3210 N.3   1 <1>  -0.8980 
  6 C       -2.1730     1.1600    -0.3650 C.3   1 <1>   0.1200 
  7 C       -3.9630    -1.9650    -0.4130 C.3   1 <1>   0.1200 
  8 C        1.1320    -1.3140     0.1590 C.3   1 <1>   0.0300 
  9 C       -2.3950     2.2690     0.6560 C.3   1 <1>  -0.2400 
 10 C       -4.8720    -3.0790     0.0910 C.3   1 <1>  -0.2400 
 11 H       -0.0480    -2.9490    -0.0570 H     1 <1>   0.3600 
 12 H       -3.0950     0.9070    -0.8620 H     1 <1>   0.0800 
 13 H       -1.4360     1.4550    -1.0940 H     1 <1>   0.0800 
 14 H       -4.0020    -1.8980    -1.4890 H     1 <1>   0.0800 
 15 H       -4.2390    -1.0210     0.0270 H     1 <1>   0.0800 
 16 H        1.0590    -0.3120     0.5500 H     1 <1>   0.0800 
 17 H        1.4070    -1.2670    -0.8820 H     1 <1>   0.0800 
 18 H        1.9000    -1.8390     0.7000 H     1 <1>   0.0800 
 19 H       -3.1220     1.9610     1.3870 H     1 <1>   0.0800 
 20 H       -2.7580     3.1520     0.1620 H     1 <1>   0.0800 
 21 H       -1.4700     2.5080     1.1500 H     1 <1>   0.0800 
 22 H       -4.5830    -4.0190    -0.3440 H     1 <1>   0.0800 
 23 H       -5.8900    -2.8720    -0.1850 H     1 <1>   0.0800 
 24 H       -4.8150    -3.1470     1.1630 H     1 <1>   0.0800 
@<TRIPOS>BOND
  1   1   2  2   
  2   2   3  1   
  3   2   4  1   
  4   2   5  1   
  5   3   6  1   
  6   4   7  1   
  7   5   8  1   
  8   5  11  1   
  9   6   9  1   
 10   6  12  1   
 11   6  13  1   
 12   7  10  1   
 13   7  14  1   
 14   7  15  1   
 15   8  16  1   
 16   8  17  1   
 17   8  18  1   
 18   9  19  1   
 19   9  20  1   
 20   9  21  1   
 21  10  22  1   
 22  10  23  1   
 23  10  24  1   
@<TRIPOS>SUBSTRUCTURE
  1 ****   2 GROUP 4 **** **** 0

# MOE 2024.06 (io_trps.svl 2023.06)
