@<TRIPOS>MOLECULE
NONAME
34 37 1 0 0 
SMALL
USER_CHARGES


@<TRIPOS>ATOM
  1 O       -0.0280     0.6320    -1.2690 O.2   1 <1>  -0.5700 
  2 C       -0.4260     1.7310    -0.9740 C.2   1 <1>   0.5690 
  3 N        0.3300     2.7960    -0.5570 N.am  1 <1>  -0.2370 
  4 C       -1.8900     2.0930    -1.0750 C.3   1 <1>  -0.0190 
  5 C        1.7260     2.7640    -0.3330 C.ar  1 <1>   0.1170 
  6 C       -0.4770     3.8890    -0.3720 C.2   1 <1>   0.5690 
  7 C       -1.9250     3.5660    -0.6560 C.3   1 <1>  -0.0190 
  8 C       -2.7090     1.4430     0.0420 C.3   1 <1>   0.2000 
  9 C        2.5550     3.7630    -0.8320 C.ar  1 <1>  -0.1500 
 10 C        2.3060     1.7300     0.3930 C.ar  1 <1>  -0.1500 
 11 O       -0.1320     5.0010    -0.0620 O.2   1 <1>  -0.5700 
 12 C       -2.7530     3.4920     0.6290 C.3   1 <1>   0.2000 
 13 O       -2.3850     2.2520     1.1120 O.3   1 <1>  -0.5600 
 14 C       -4.1960     1.7700    -0.1250 C.3   1 <1>  -0.1600 
 15 C        3.9200     3.7290    -0.6130 C.ar  1 <1>  -0.1500 
 16 C        3.6710     1.6930     0.6130 C.ar  1 <1>  -0.1500 
 17 C       -4.2280     3.2440     0.3000 C.3   1 <1>  -0.1600 
 18 C        4.4870     2.6940     0.1120 C.ar  1 <1>  -0.1430 
 19 C        5.9850     2.6540     0.3520 C.3   1 <1>  -0.0970 
 20 H       -2.2740     1.9000    -2.0600 H     1 <1>   0.0800 
 21 H       -2.3360     4.2280    -1.3950 H     1 <1>   0.0800 
 22 H       -2.4810     0.4080     0.2410 H     1 <1>   0.0800 
 23 H        2.1310     4.5770    -1.3920 H     1 <1>   0.1500 
 24 H        1.6860     0.9440     0.7870 H     1 <1>   0.1500 
 25 H       -2.5620     4.2720     1.3470 H     1 <1>   0.0800 
 26 H       -4.7810     1.1650     0.5450 H     1 <1>   0.0800 
 27 H       -4.5340     1.6160    -1.1340 H     1 <1>   0.0800 
 28 H        4.5400     4.5140    -1.0090 H     1 <1>   0.1500 
 29 H        4.0950     0.8800     1.1750 H     1 <1>   0.1500 
 30 H       -4.5860     3.8970    -0.4760 H     1 <1>   0.0800 
 31 H       -4.8270     3.3750     1.1840 H     1 <1>   0.0800 
 32 H        6.3870     3.6510     0.3860 H     1 <1>   0.0800 
 33 H        6.4650     2.1120    -0.4420 H     1 <1>   0.0800 
 34 H        6.2030     2.1690     1.2870 H     1 <1>   0.0800 
@<TRIPOS>BOND
  1   1   2  2   
  2   2   3  am  
  3   2   4  1   
  4   3   5  1   
  5   3   6  am  
  6   4   7  1   
  7   4   8  1   
  8   4  20  1   
  9   5   9  ar  
 10   5  10  ar  
 11   6   7  1   
 12   6  11  2   
 13   7  12  1   
 14   7  21  1   
 15   8  13  1   
 16   8  14  1   
 17   8  22  1   
 18   9  15  ar  
 19   9  23  1   
 20  10  16  ar  
 21  10  24  1   
 22  12  13  1   
 23  12  17  1   
 24  12  25  1   
 25  14  17  1   
 26  14  26  1   
 27  14  27  1   
 28  15  18  ar  
 29  15  28  1   
 30  16  18  ar  
 31  16  29  1   
 32  17  30  1   
 33  17  31  1   
 34  18  19  1   
 35  19  32  1   
 36  19  33  1   
 37  19  34  1   
@<TRIPOS>SUBSTRUCTURE
  1 ****   3 GROUP 4 **** **** 0

# MOE 2024.06 (io_trps.svl 2023.06)
