@<TRIPOS>MOLECULE
NONAME
51 53 1 0 0 
SMALL
USER_CHARGES


@<TRIPOS>ATOM
  1 O       -1.1700     4.9510     1.6170 O.2   1 <1>  -0.5700 
  2 C       -0.4670     4.1310     1.0650 C.2   1 <1>   0.7800 
  3 O        0.5900     3.6600     1.7230 O.3   1 <1>  -0.4300 
  4 N       -0.7680     3.6570    -0.1880 N.am  1 <1>  -0.6600 
  5 C        1.8400     3.4640     1.0980 C.3   1 <1>   0.1200 
  6 C       -0.8740     2.2010    -0.4230 C.3   1 <1>   0.1400 
  7 C       -1.5600     4.4960    -1.1150 C.3   1 <1>   0.1400 
  8 C        2.5100     4.8210     0.8900 C.3   1 <1>  -0.2400 
  9 C       -2.3360     1.7960    -0.2200 C.3   1 <1>  -0.1600 
 10 C       -3.0390     4.1480    -0.9430 C.3   1 <1>  -0.1600 
 11 C       -3.2750     2.6400    -1.1030 C.3   1 <1>   0.4230 
 12 N       -4.7160     2.3370    -0.8510 N.4   1 <1>  -0.9590 
 13 C       -5.1510     2.5180     0.5930 C.3   1 <1>   0.3430 
 14 C       -5.1050     0.9620    -1.3440 C.3   1 <1>   0.3430 
 15 C       -6.6550     2.2400     0.8010 C.3   1 <1>   0.2090 
 16 C       -6.6090     0.6680    -1.1620 C.3   1 <1>   0.2090 
 17 N       -7.0260     0.9060     0.2490 N.pl3 1 <1>  -0.8380 
 18 C       -8.2760     0.4200     0.6110 C.ar  1 <1>   0.1000 
 19 C       -9.4480     0.9860     0.1200 C.ar  1 <1>  -0.1500 
 20 C       -8.3670    -0.6570     1.4820 C.ar  1 <1>  -0.1500 
 21 C      -10.6820     0.4860     0.4940 C.ar  1 <1>  -0.1500 
 22 C       -9.5990    -1.1600     1.8580 C.ar  1 <1>  -0.1500 
 23 C      -10.7590    -0.5890     1.3640 C.ar  1 <1>  -0.1500 
 24 H        1.7080     2.9490     0.1630 H     1 <1>   0.0800 
 25 H        2.4360     2.8530     1.7540 H     1 <1>   0.0800 
 26 H       -0.2490     1.6640     0.2710 H     1 <1>   0.0800 
 27 H       -0.5440     1.9730    -1.4230 H     1 <1>   0.0800 
 28 H       -1.2370     4.3160    -2.1270 H     1 <1>   0.0800 
 29 H       -1.3980     5.5390    -0.8930 H     1 <1>   0.0800 
 30 H        1.9340     5.4290     0.2170 H     1 <1>   0.0800 
 31 H        3.4890     4.6810     0.4680 H     1 <1>   0.0800 
 32 H        2.6140     5.3290     1.8320 H     1 <1>   0.0800 
 33 H       -2.5600     1.9300     0.8220 H     1 <1>   0.0800 
 34 H       -2.4340     0.7530    -0.4580 H     1 <1>   0.0800 
 35 H       -3.6060     4.6910    -1.6770 H     1 <1>   0.0800 
 36 H       -3.3360     4.4860     0.0330 H     1 <1>   0.0800 
 37 H       -3.0510     2.3970    -2.1300 H     1 <1>   0.0800 
 38 H       -5.2650     3.0100    -1.3990 H     1 <1>   0.4500 
 39 H       -4.9350     3.5190     0.9270 H     1 <1>   0.0800 
 40 H       -4.6050     1.8370     1.2240 H     1 <1>   0.0800 
 41 H       -4.5560     0.2140    -0.7950 H     1 <1>   0.0800 
 42 H       -4.8540     0.8590    -2.3860 H     1 <1>   0.0800 
 43 H       -7.2400     3.0070     0.3250 H     1 <1>   0.0800 
 44 H       -6.8790     2.2600     1.8540 H     1 <1>   0.0800 
 45 H       -6.8070    -0.3600    -1.4170 H     1 <1>   0.0800 
 46 H       -7.1890     1.2890    -1.8220 H     1 <1>   0.0800 
 47 H       -9.3960     1.8200    -0.5530 H     1 <1>   0.1500 
 48 H       -7.4650    -1.0980     1.8630 H     1 <1>   0.1500 
 49 H      -11.5850     0.9290     0.1110 H     1 <1>   0.1500 
 50 H       -9.6580    -1.9950     2.5340 H     1 <1>   0.1500 
 51 H      -11.7190    -0.9790     1.6550 H     1 <1>   0.1500 
@<TRIPOS>BOND
  1   1   2  2   
  2   2   3  1   
  3   2   4  am  
  4   3   5  1   
  5   4   6  1   
  6   4   7  1   
  7   5   8  1   
  8   5  24  1   
  9   5  25  1   
 10   6   9  1   
 11   6  26  1   
 12   6  27  1   
 13   7  10  1   
 14   7  28  1   
 15   7  29  1   
 16   8  30  1   
 17   8  31  1   
 18   8  32  1   
 19   9  11  1   
 20   9  33  1   
 21   9  34  1   
 22  10  11  1   
 23  10  35  1   
 24  10  36  1   
 25  11  12  1   
 26  11  37  1   
 27  12  13  1   
 28  12  14  1   
 29  12  38  1   
 30  13  15  1   
 31  13  39  1   
 32  13  40  1   
 33  14  16  1   
 34  14  41  1   
 35  14  42  1   
 36  15  17  1   
 37  15  43  1   
 38  15  44  1   
 39  16  17  1   
 40  16  45  1   
 41  16  46  1   
 42  17  18  1   
 43  18  19  ar  
 44  18  20  ar  
 45  19  21  ar  
 46  19  47  1   
 47  20  22  ar  
 48  20  48  1   
 49  21  23  ar  
 50  21  49  1   
 51  22  23  ar  
 52  22  50  1   
 53  23  51  1   
@<TRIPOS>SUBSTRUCTURE
  1 ****  13 GROUP 4 **** **** 0

# MOE 2024.06 (io_trps.svl 2023.06)
