@<TRIPOS>MOLECULE
NONAME
48 49 1 0 0 
SMALL
USER_CHARGES


@<TRIPOS>ATOM
  1 O       -5.3150    -5.5390     0.0070 O.3   1 <1>  -0.5600 
  2 C       -5.5090    -6.8430     0.4860 C.3   1 <1>   0.1200 
  3 C       -4.7380    -5.4760    -1.2700 C.3   1 <1>   0.1200 
  4 C       -4.1860    -7.6450     0.4920 C.3   1 <1>   0.3430 
  5 C       -3.3500    -6.1590    -1.2870 C.3   1 <1>   0.3430 
  6 N       -3.0300    -6.8000     0.0360 N.4   1 <1>  -0.9590 
  7 C       -1.7400    -7.5410     0.0640 C.3   1 <1>   0.3430 
  8 C       -0.5590    -6.5720    -0.0420 C.3   1 <1>  -0.1600 
  9 C        0.7680    -7.3330     0.0910 C.3   1 <1>  -0.1600 
 10 C        1.9760    -6.3980     0.0030 C.3   1 <1>   0.1200 
 11 O        3.1310    -7.1900     0.1250 O.3   1 <1>  -0.3630 
 12 C        4.3710    -6.6420     0.0840 C.ar  1 <1>   0.0820 
 13 C        5.4410    -7.5120     0.2070 C.ar  1 <1>  -0.1500 
 14 C        4.6150    -5.2810    -0.0710 C.ar  1 <1>  -0.1500 
 15 C        6.7400    -7.0370     0.1760 C.ar  1 <1>  -0.1500 
 16 C        5.9170    -4.8100    -0.1020 C.ar  1 <1>  -0.1500 
 17 C        6.9920    -5.6810     0.0210 C.ar  1 <1>  -0.1440 
 18 C        8.4320    -5.1730    -0.0110 C.3   1 <1>   0.0630 
 19 C        8.7000    -4.2120     1.1510 C.3   1 <1>  -0.2400 
 20 C        8.7470    -4.5060    -1.3540 C.3   1 <1>  -0.2400 
 21 H       -6.2480    -7.3300    -0.1280 H     1 <1>   0.0800 
 22 H       -5.9010    -6.7680     1.4850 H     1 <1>   0.0800 
 23 H       -4.6450    -4.4380    -1.5380 H     1 <1>   0.0800 
 24 H       -5.4040    -5.9460    -1.9730 H     1 <1>   0.0800 
 25 H       -4.2940    -8.5000    -0.1560 H     1 <1>   0.0800 
 26 H       -4.0050    -8.0140     1.4880 H     1 <1>   0.0800 
 27 H       -2.6040    -5.4190    -1.5280 H     1 <1>   0.0800 
 28 H       -3.3350    -6.8990    -2.0700 H     1 <1>   0.0800 
 29 H       -2.9940    -6.0210     0.7110 H     1 <1>   0.4500 
 30 H       -1.7030    -8.2540    -0.7430 H     1 <1>   0.0800 
 31 H       -1.6570    -8.0820     0.9940 H     1 <1>   0.0800 
 32 H       -0.6210    -5.8390     0.7430 H     1 <1>   0.0800 
 33 H       -0.5730    -6.0710    -0.9940 H     1 <1>   0.0800 
 34 H        0.8480    -8.0670    -0.6940 H     1 <1>   0.0800 
 35 H        0.8020    -7.8420     1.0400 H     1 <1>   0.0800 
 36 H        1.9720    -5.6820     0.8070 H     1 <1>   0.0800 
 37 H        2.0110    -5.8960    -0.9490 H     1 <1>   0.0800 
 38 H        5.2510    -8.5620     0.3270 H     1 <1>   0.1500 
 39 H        3.8150    -4.5750    -0.1690 H     1 <1>   0.1500 
 40 H        7.5540    -7.7330     0.2730 H     1 <1>   0.1500 
 41 H        6.0910    -3.7560    -0.2220 H     1 <1>   0.1500 
 42 H        9.0960    -6.0140     0.1000 H     1 <1>   0.0800 
 43 H        8.0960    -3.3270     1.0630 H     1 <1>   0.0800 
 44 H        9.7350    -3.9230     1.1650 H     1 <1>   0.0800 
 45 H        8.4660    -4.6940     2.0840 H     1 <1>   0.0800 
 46 H        8.1450    -3.6270    -1.4960 H     1 <1>   0.0800 
 47 H        8.5470    -5.1920    -2.1570 H     1 <1>   0.0800 
 48 H        9.7840    -4.2230    -1.3950 H     1 <1>   0.0800 
@<TRIPOS>BOND
  1   1   2  1   
  2   1   3  1   
  3   2   4  1   
  4   2  21  1   
  5   2  22  1   
  6   3   5  1   
  7   3  23  1   
  8   3  24  1   
  9   4   6  1   
 10   4  25  1   
 11   4  26  1   
 12   5   6  1   
 13   5  27  1   
 14   5  28  1   
 15   6   7  1   
 16   6  29  1   
 17   7   8  1   
 18   7  30  1   
 19   7  31  1   
 20   8   9  1   
 21   8  32  1   
 22   8  33  1   
 23   9  10  1   
 24   9  34  1   
 25   9  35  1   
 26  10  11  1   
 27  10  36  1   
 28  10  37  1   
 29  11  12  1   
 30  12  13  ar  
 31  12  14  ar  
 32  13  15  ar  
 33  13  38  1   
 34  14  16  ar  
 35  14  39  1   
 36  15  17  ar  
 37  15  40  1   
 38  16  17  ar  
 39  16  41  1   
 40  17  18  1   
 41  18  19  1   
 42  18  20  1   
 43  18  42  1   
 44  19  43  1   
 45  19  44  1   
 46  19  45  1   
 47  20  46  1   
 48  20  47  1   
 49  20  48  1   
@<TRIPOS>SUBSTRUCTURE
  1 ****  10 GROUP 4 **** **** 0

# MOE 2024.06 (io_trps.svl 2023.06)
