@<TRIPOS>MOLECULE
NONAME
35 35 1 0 0 
SMALL
USER_CHARGES


@<TRIPOS>ATOM
  1 O        0.0670    -0.8580    -1.0260 O.2   1 <1>  -0.5700 
  2 C       -0.3140    -1.7190    -0.2700 C.2   1 <1>   0.5690 
  3 N       -1.6190    -1.8570     0.1210 N.am  1 <1>  -0.5470 
  4 C        0.7010    -2.7300     0.2760 C.3   1 <1>  -0.0190 
  5 C       -2.7560    -1.0890    -0.1810 C.ar  1 <1>   0.1170 
  6 C        1.8560    -2.0340     1.0140 C.3   1 <1>  -0.2400 
  7 C        1.2560    -3.6260    -0.8430 C.3   1 <1>  -0.2400 
  8 C       -4.0100    -1.6750    -0.0620 C.ar  1 <1>  -0.1500 
  9 C       -2.6850     0.2410    -0.5800 C.ar  1 <1>  -0.1500 
 10 C       -5.1780    -0.9740    -0.3330 C.ar  1 <1>   0.1170 
 11 C       -3.8350     0.9580    -0.8540 C.ar  1 <1>  -0.1500 
 12 N       -6.4100    -1.6330    -0.1810 N.am  1 <1>  -0.5470 
 13 C       -5.0720     0.3550    -0.7300 C.ar  1 <1>  -0.1500 
 14 C       -7.6570    -1.3450    -0.6640 C.2   1 <1>   0.5690 
 15 O       -7.9080    -0.4070    -1.3770 O.2   1 <1>  -0.5700 
 16 C       -8.7870    -2.2840    -0.2810 C.3   1 <1>  -0.0990 
 17 C       -9.1180    -2.2460     1.2200 C.3   1 <1>  -0.2400 
 18 H       -1.8020    -2.6720     0.6990 H     1 <1>   0.3700 
 19 H        0.2000    -3.3650     0.9850 H     1 <1>   0.0800 
 20 H        2.4030    -1.4000     0.3360 H     1 <1>   0.0800 
 21 H        2.5330    -2.7590     1.4300 H     1 <1>   0.0800 
 22 H        1.4720    -1.4230     1.8120 H     1 <1>   0.0800 
 23 H        1.7800    -3.0290    -1.5700 H     1 <1>   0.0800 
 24 H        0.4540    -4.1390    -1.3430 H     1 <1>   0.0800 
 25 H        1.9350    -4.3570    -0.4420 H     1 <1>   0.0800 
 26 H       -4.0770    -2.7020     0.2410 H     1 <1>   0.1500 
 27 H       -1.7310     0.7270    -0.6770 H     1 <1>   0.1500 
 28 H       -3.7660     1.9860    -1.1640 H     1 <1>   0.1500 
 29 H       -6.3680    -2.4840     0.3730 H     1 <1>   0.3700 
 30 H       -5.9540     0.9310    -0.9420 H     1 <1>   0.1500 
 31 H       -8.5230    -3.2840    -0.5730 H     1 <1>   0.0800 
 32 H       -9.6630    -2.0050    -0.8400 H     1 <1>   0.0800 
 33 H       -8.2750    -2.5600     1.8100 H     1 <1>   0.0800 
 34 H       -9.9470    -2.8990     1.4320 H     1 <1>   0.0800 
 35 H       -9.3890    -1.2450     1.5110 H     1 <1>   0.0800 
@<TRIPOS>BOND
  1   1   2  2   
  2   2   3  am  
  3   2   4  1   
  4   3   5  1   
  5   3  18  1   
  6   4   6  1   
  7   4   7  1   
  8   4  19  1   
  9   5   8  ar  
 10   5   9  ar  
 11   6  20  1   
 12   6  21  1   
 13   6  22  1   
 14   7  23  1   
 15   7  24  1   
 16   7  25  1   
 17   8  10  ar  
 18   8  26  1   
 19   9  11  ar  
 20   9  27  1   
 21  10  12  1   
 22  10  13  ar  
 23  11  13  ar  
 24  11  28  1   
 25  12  14  am  
 26  12  29  1   
 27  13  30  1   
 28  14  15  2   
 29  14  16  1   
 30  16  17  1   
 31  16  31  1   
 32  16  32  1   
 33  17  33  1   
 34  17  34  1   
 35  17  35  1   
@<TRIPOS>SUBSTRUCTURE
  1 ****   8 GROUP 4 **** **** 0

# MOE 2024.06 (io_trps.svl 2023.06)
