@<TRIPOS>MOLECULE
NONAME
43 46 1 0 0 
SMALL
USER_CHARGES


@<TRIPOS>ATOM
  1 S        0.4660     0.7950     0.9290 S.3   1 <1>  -0.3710 
  2 C       -1.2550     1.1640     0.7480 C.2   1 <1>   0.6510 
  3 C        1.0280     2.1990    -0.1390 C.3   1 <1>   0.2910 
  4 N       -2.1580     0.4660     1.2760 N.2   1 <1>  -0.6960 
  5 N       -1.4000     2.2900    -0.0120 N.am  1 <1>  -0.4200 
  6 C       -0.2820     2.8990    -0.4890 C.2   1 <1>   0.5690 
  7 C        1.7490     1.6230    -1.3710 C.3   1 <1>   0.1200 
  8 C        1.9890     3.0850     0.6660 C.3   1 <1>   0.1200 
  9 C       -3.5400     0.8330     1.0060 C.3   1 <1>   0.3560 
 10 C       -2.7530     2.7760    -0.2310 C.3   1 <1>   0.4100 
 11 O       -0.3070     3.9230    -1.1290 O.2   1 <1>  -0.5700 
 12 O        3.1430     1.6800    -1.2250 O.3   1 <1>  -0.5600 
 13 O        3.2320     2.4660     0.8980 O.3   1 <1>  -0.5600 
 14 N       -3.6260     1.6050    -0.2420 N.3   1 <1>  -0.8100 
 15 C        3.6120     1.4020     0.0630 C.3   1 <1>   0.6240 
 16 C       -5.0140     1.9780    -0.5300 C.3   1 <1>   0.0300 
 17 C        5.1320     1.2850     0.0500 C.ar  1 <1>  -0.1440 
 18 C        5.7570     0.1880     0.6280 C.ar  1 <1>  -0.1500 
 19 C        5.9120     2.2720    -0.5370 C.ar  1 <1>  -0.1500 
 20 C        7.1370     0.0750     0.6190 C.ar  1 <1>  -0.1500 
 21 C        7.2910     2.1620    -0.5480 C.ar  1 <1>  -0.1500 
 22 C        7.9140     1.0670     0.0270 C.ar  1 <1>   0.0820 
 23 O        9.2690     1.0350    -0.0270 O.3   1 <1>  -0.3630 
 24 C        9.9990    -0.0320     0.5370 C.3   1 <1>   0.0400 
 25 H        1.5090     2.2010    -2.2460 H     1 <1>   0.0800 
 26 H        1.4640     0.6000    -1.5450 H     1 <1>   0.0800 
 27 H        1.5660     3.3520     1.6180 H     1 <1>   0.0800 
 28 H        2.1880     3.9870     0.1130 H     1 <1>   0.0800 
 29 H       -3.9340     1.3930     1.8370 H     1 <1>   0.0800 
 30 H       -4.1170    -0.0710     0.8950 H     1 <1>   0.0800 
 31 H       -2.8070     3.2880    -1.1780 H     1 <1>   0.0800 
 32 H       -3.0320     3.4520     0.5600 H     1 <1>   0.0800 
 33 H        3.1620     0.4910     0.4190 H     1 <1>   0.0800 
 34 H       -5.6240     1.0930    -0.5910 H     1 <1>   0.0800 
 35 H       -5.0680     2.4890    -1.4770 H     1 <1>   0.0800 
 36 H       -5.4040     2.6210     0.2410 H     1 <1>   0.0800 
 37 H        5.1690    -0.5850     1.0910 H     1 <1>   0.1500 
 38 H        5.4370     3.1270    -0.9850 H     1 <1>   0.1500 
 39 H        7.5860    -0.7860     1.0740 H     1 <1>   0.1500 
 40 H        7.8930     2.9280    -1.0040 H     1 <1>   0.1500 
 41 H       11.0450     0.1590     0.3780 H     1 <1>   0.0800 
 42 H        9.7150    -0.9460     0.0470 H     1 <1>   0.0800 
 43 H        9.7910    -0.0770     1.5910 H     1 <1>   0.0800 
@<TRIPOS>BOND
  1   1   2  1   
  2   1   3  1   
  3   2   4  2   
  4   2   5  1   
  5   3   6  1   
  6   3   7  1   
  7   3   8  1   
  8   4   9  1   
  9   5   6  am  
 10   5  10  1   
 11   6  11  2   
 12   7  12  1   
 13   7  25  1   
 14   7  26  1   
 15   8  13  1   
 16   8  27  1   
 17   8  28  1   
 18   9  14  1   
 19   9  29  1   
 20   9  30  1   
 21  10  14  1   
 22  10  31  1   
 23  10  32  1   
 24  12  15  1   
 25  13  15  1   
 26  14  16  1   
 27  15  17  1   
 28  15  33  1   
 29  16  34  1   
 30  16  35  1   
 31  16  36  1   
 32  17  18  ar  
 33  17  19  ar  
 34  18  20  ar  
 35  18  37  1   
 36  19  21  ar  
 37  19  38  1   
 38  20  22  ar  
 39  20  39  1   
 40  21  22  ar  
 41  21  40  1   
 42  22  23  1   
 43  23  24  1   
 44  24  41  1   
 45  24  42  1   
 46  24  43  1   
@<TRIPOS>SUBSTRUCTURE
  1 ****   3 GROUP 4 **** **** 0

# MOE 2024.06 (io_trps.svl 2023.06)
