@<TRIPOS>MOLECULE
NONAME
40 40 1 0 0 
SMALL
USER_CHARGES


@<TRIPOS>ATOM
  1 N        0.0230     0.2890    -0.3320 N.4   1 <1>  -0.9590 
  2 C        1.3170    -0.4700    -0.2260 C.3   1 <1>   0.3430 
  3 C       -1.1360    -0.6210     0.0040 C.3   1 <1>   0.3430 
  4 C       -0.0970     0.9280    -1.6900 C.3   1 <1>   0.2630 
  5 C        2.5460     0.4560    -0.2010 C.3   1 <1>  -0.0800 
  6 C       -2.5120     0.0980     0.1360 C.3   1 <1>   0.3430 
  7 C        3.8200    -0.4090    -0.1030 C.3   1 <1>  -0.0220 
  8 C        2.5080     1.4890     0.9500 C.3   1 <1>  -0.1600 
  9 N       -3.6490    -0.7910     0.5860 N.4   1 <1>  -0.9590 
 10 C        5.0460     0.4450     0.1570 C.2   1 <1>  -0.2880 
 11 C        3.7060     2.4510     0.8840 C.3   1 <1>  -0.0220 
 12 C       -4.0020    -1.8690    -0.4020 C.3   1 <1>   0.2630 
 13 C       -4.8760     0.0320     0.8590 C.3   1 <1>   0.2630 
 14 C        4.9940     1.7090     0.5830 C.2   1 <1>  -0.2880 
 15 H        0.0980     1.0420     0.3720 H     1 <1>   0.4500 
 16 H        1.4090    -1.1570    -1.0520 H     1 <1>   0.0800 
 17 H        1.3210    -1.0490     0.6850 H     1 <1>   0.0800 
 18 H       -0.9240    -1.1090     0.9420 H     1 <1>   0.0800 
 19 H       -1.2120    -1.3810    -0.7560 H     1 <1>   0.0800 
 20 H       -0.0980     0.1760    -2.4630 H     1 <1>   0.0800 
 21 H        0.7330     1.5940    -1.8670 H     1 <1>   0.0800 
 22 H       -1.0050     1.5050    -1.7640 H     1 <1>   0.0800 
 23 H        2.6100     0.9890    -1.1330 H     1 <1>   0.0800 
 24 H       -2.7690     0.5350    -0.8150 H     1 <1>   0.0800 
 25 H       -2.4040     0.8980     0.8500 H     1 <1>   0.0800 
 26 H        3.9610    -0.9480    -1.0240 H     1 <1>   0.0800 
 27 H        3.7380    -1.1260     0.6970 H     1 <1>   0.0800 
 28 H        2.5440     0.9700     1.8930 H     1 <1>   0.0800 
 29 H        1.6120     2.0800     0.9260 H     1 <1>   0.0800 
 30 H       -3.4080    -1.2490     1.4830 H     1 <1>   0.4500 
 31 H        5.9760    -0.0680    -0.0310 H     1 <1>   0.1500 
 32 H        3.8010     2.9650     1.8260 H     1 <1>   0.0800 
 33 H        3.5490     3.1900     0.1180 H     1 <1>   0.0800 
 34 H       -4.2960    -1.4370    -1.3450 H     1 <1>   0.0800 
 35 H       -4.8270    -2.4580    -0.0300 H     1 <1>   0.0800 
 36 H       -3.1670    -2.5300    -0.5660 H     1 <1>   0.0800 
 37 H       -5.2090     0.5280    -0.0390 H     1 <1>   0.0800 
 38 H       -4.6730     0.7790     1.6100 H     1 <1>   0.0800 
 39 H       -5.6780    -0.5960     1.2160 H     1 <1>   0.0800 
 40 H        5.8770     2.3060     0.7470 H     1 <1>   0.1500 
@<TRIPOS>BOND
  1   1   2  1   
  2   1   3  1   
  3   1   4  1   
  4   1  15  1   
  5   2   5  1   
  6   2  16  1   
  7   2  17  1   
  8   3   6  1   
  9   3  18  1   
 10   3  19  1   
 11   4  20  1   
 12   4  21  1   
 13   4  22  1   
 14   5   7  1   
 15   5   8  1   
 16   5  23  1   
 17   6   9  1   
 18   6  24  1   
 19   6  25  1   
 20   7  10  1   
 21   7  26  1   
 22   7  27  1   
 23   8  11  1   
 24   8  28  1   
 25   8  29  1   
 26   9  12  1   
 27   9  13  1   
 28   9  30  1   
 29  10  14  2   
 30  10  31  1   
 31  11  14  1   
 32  11  32  1   
 33  11  33  1   
 34  12  34  1   
 35  12  35  1   
 36  12  36  1   
 37  13  37  1   
 38  13  38  1   
 39  13  39  1   
 40  14  40  1   
@<TRIPOS>SUBSTRUCTURE
  1 ****   1 GROUP 4 **** **** 0

# MOE 2024.06 (io_trps.svl 2023.06)
