@<TRIPOS>MOLECULE
NONAME
33 33 1 0 0 
SMALL
USER_CHARGES


@<TRIPOS>ATOM
  1 S        3.0750    -2.6380    -0.9560 S.3   1 <1>  -0.4600 
  2 C        2.9110    -4.0100     0.2130 C.3   1 <1>   0.1500 
  3 C        4.8700    -2.6550    -1.1650 C.3   1 <1>   0.0700 
  4 C        4.2850    -4.7090     0.1060 C.3   1 <1>   0.4230 
  5 C        1.6730    -4.8540    -0.1380 C.3   1 <1>  -0.1600 
  6 C        5.3470    -3.5430    -0.0070 C.3   1 <1>   0.4230 
  7 N        4.2810    -5.6460    -1.0840 N.4   1 <1>  -0.8530 
  8 C        0.3620    -4.1500     0.2340 C.3   1 <1>  -0.1600 
  9 N        5.4530    -2.6730     1.2240 N.4   1 <1>  -0.8530 
 10 C       -0.8260    -5.0830    -0.0280 C.3   1 <1>  -0.1600 
 11 C       -2.1550    -4.4600     0.4300 C.3   1 <1>  -0.2660 
 12 C       -3.3230    -5.4080     0.2540 C.2   1 <1>   0.9060 
 13 O       -4.2820    -5.0460    -0.4310 O.co2 1 <1>  -0.9000 
 14 O       -3.2650    -6.5130     0.8030 O.co2 1 <1>  -0.9000 
 15 H        2.7860    -3.5690     1.1880 H     1 <1>   0.0800 
 16 H        5.2380    -1.6420    -1.1310 H     1 <1>   0.0800 
 17 H        5.0740    -3.0860    -2.1300 H     1 <1>   0.0800 
 18 H        4.4680    -5.2870     0.9980 H     1 <1>   0.0800 
 19 H        1.7090    -5.7810     0.4110 H     1 <1>   0.0800 
 20 H        1.6440    -5.0840    -1.1890 H     1 <1>   0.0800 
 21 H        6.3210    -3.9510    -0.2280 H     1 <1>   0.0800 
 22 H        3.9450    -5.1670    -1.9340 H     1 <1>   0.4500 
 23 H        3.5950    -6.4030    -0.9300 H     1 <1>   0.4500 
 24 H        5.1780    -6.1080    -1.2880 H     1 <1>   0.4500 
 25 H        0.2350    -3.2500    -0.3460 H     1 <1>   0.0800 
 26 H        0.3640    -3.8810     1.2760 H     1 <1>   0.0800 
 27 H        4.5950    -2.1160     1.3710 H     1 <1>   0.4500 
 28 H        6.2040    -1.9750     1.1110 H     1 <1>   0.4500 
 29 H        5.6690    -3.1770     2.0960 H     1 <1>   0.4500 
 30 H       -0.6930    -6.0100     0.5060 H     1 <1>   0.0800 
 31 H       -0.9000    -5.3150    -1.0770 H     1 <1>   0.0800 
 32 H       -2.3630    -3.5680    -0.1310 H     1 <1>   0.0800 
 33 H       -2.1120    -4.2080     1.4710 H     1 <1>   0.0800 
@<TRIPOS>BOND
  1   1   2  1   
  2   1   3  1   
  3   2   4  1   
  4   2   5  1   
  5   2  15  1   
  6   3   6  1   
  7   3  16  1   
  8   3  17  1   
  9   4   6  1   
 10   4   7  1   
 11   4  18  1   
 12   5   8  1   
 13   5  19  1   
 14   5  20  1   
 15   6   9  1   
 16   6  21  1   
 17   7  22  1   
 18   7  23  1   
 19   7  24  1   
 20   8  10  1   
 21   8  25  1   
 22   8  26  1   
 23   9  27  1   
 24   9  28  1   
 25   9  29  1   
 26  10  11  1   
 27  10  30  1   
 28  10  31  1   
 29  11  12  1   
 30  11  32  1   
 31  11  33  1   
 32  12  13  ar  
 33  12  14  ar  
@<TRIPOS>SUBSTRUCTURE
  1 ****   5 GROUP 4 **** **** 0

# MOE 2024.06 (io_trps.svl 2023.06)
