@<TRIPOS>MOLECULE
NONAME
38 39 1 0 0 
SMALL
USER_CHARGES


@<TRIPOS>ATOM
  1 BR      -0.7740    -0.5110    -1.5140 Br    1 <1>  -0.1110 
  2 C       -0.2130    -2.0230    -0.4640 C.ar  1 <1>   0.1110 
  3 C        1.1300    -2.3440    -0.4330 C.ar  1 <1>  -0.1500 
  4 C       -1.1700    -2.7410     0.2270 C.ar  1 <1>  -0.1500 
  5 C        1.5310    -3.4390     0.3280 C.ar  1 <1>   0.0830 
  6 C       -0.7620    -3.8280     0.9820 C.ar  1 <1>  -0.1500 
  7 O        2.8190    -3.8500     0.4350 O.3   1 <1>  -0.3630 
  8 C        0.5810    -4.1710     1.0280 C.ar  1 <1>  -0.1500 
  9 C        3.8600    -3.1840    -0.2320 C.3   1 <1>   0.1200 
 10 C        5.1570    -3.9150     0.1170 C.3   1 <1>  -0.1600 
 11 C        6.3550    -3.2630    -0.5620 C.3   1 <1>   0.3430 
 12 N        7.5800    -4.0050    -0.1820 N.4   1 <1>  -0.9060 
 13 C        8.8230    -3.4660    -0.7670 C.3   1 <1>   0.4230 
 14 C        9.9510    -4.4370    -0.4400 C.3   1 <1>  -0.1600 
 15 C        9.2370    -2.2060    -0.0120 C.3   1 <1>  -0.1600 
 16 C       10.3650    -4.1300     1.0050 C.3   1 <1>  -0.1600 
 17 C        9.9030    -2.6930     1.2810 C.3   1 <1>  -0.1600 
 18 H        1.8170    -1.7430    -0.9940 H     1 <1>   0.1500 
 19 H       -2.2060    -2.4570     0.1760 H     1 <1>   0.1500 
 20 H       -1.4850    -4.4070     1.5310 H     1 <1>   0.1500 
 21 H        0.8990    -5.0150     1.6140 H     1 <1>   0.1500 
 22 H        3.8800    -2.1630     0.1120 H     1 <1>   0.0800 
 23 H        3.6600    -3.2220    -1.2900 H     1 <1>   0.0800 
 24 H        5.0670    -4.9370    -0.2060 H     1 <1>   0.0800 
 25 H        5.2840    -3.8860     1.1860 H     1 <1>   0.0800 
 26 H        6.4320    -2.2330    -0.2490 H     1 <1>   0.0800 
 27 H        6.2250    -3.2870    -1.6330 H     1 <1>   0.0800 
 28 H        7.4880    -4.9890    -0.4560 H     1 <1>   0.4500 
 29 H        7.7020    -3.9950     0.8370 H     1 <1>   0.4500 
 30 H        8.7210    -3.3050    -1.8290 H     1 <1>   0.0800 
 31 H       10.7830    -4.2140    -1.0860 H     1 <1>   0.0800 
 32 H        9.6840    -5.4690    -0.5860 H     1 <1>   0.0800 
 33 H        8.4300    -1.5200     0.1730 H     1 <1>   0.0800 
 34 H        9.9780    -1.6930    -0.6010 H     1 <1>   0.0800 
 35 H       11.4320    -4.2250     1.1240 H     1 <1>   0.0800 
 36 H        9.8870    -4.8100     1.6910 H     1 <1>   0.0800 
 37 H        9.2030    -2.6800     2.1000 H     1 <1>   0.0800 
 38 H       10.7370    -2.0600     1.5420 H     1 <1>   0.0800 
@<TRIPOS>BOND
  1   1   2  1   
  2   2   3  ar  
  3   2   4  ar  
  4   3   5  ar  
  5   3  18  1   
  6   4   6  ar  
  7   4  19  1   
  8   5   7  1   
  9   5   8  ar  
 10   6   8  ar  
 11   6  20  1   
 12   7   9  1   
 13   8  21  1   
 14   9  10  1   
 15   9  22  1   
 16   9  23  1   
 17  10  11  1   
 18  10  24  1   
 19  10  25  1   
 20  11  12  1   
 21  11  26  1   
 22  11  27  1   
 23  12  13  1   
 24  12  28  1   
 25  12  29  1   
 26  13  14  1   
 27  13  15  1   
 28  13  30  1   
 29  14  16  1   
 30  14  31  1   
 31  14  32  1   
 32  15  17  1   
 33  15  33  1   
 34  15  34  1   
 35  16  17  1   
 36  16  35  1   
 37  16  36  1   
 38  17  37  1   
 39  17  38  1   
@<TRIPOS>SUBSTRUCTURE
  1 ****   9 GROUP 4 **** **** 0

# MOE 2024.06 (io_trps.svl 2023.06)
