@<TRIPOS>MOLECULE
NONAME
46 48 1 0 0 
SMALL
USER_CHARGES


@<TRIPOS>ATOM
  1 O       -0.2180    -1.3450    -2.3050 O.2   1 <1>  -0.5700 
  2 C       -0.2470    -1.7140    -1.1550 C.2   1 <1>   0.5690 
  3 N       -1.3820    -1.5800    -0.3960 N.am  1 <1>  -0.6600 
  4 C        1.0250    -2.3460    -0.6060 C.3   1 <1>  -0.0990 
  5 C       -2.6440    -1.0650    -1.0230 C.3   1 <1>   0.3200 
  6 C       -1.5180    -1.9720     1.0380 C.3   1 <1>   0.0600 
  7 C        2.1310    -1.3130    -0.3080 C.3   1 <1>  -0.0800 
  8 C       -3.7740    -2.0810    -0.9430 C.2   1 <1>   0.2980 
  9 C        3.4360    -2.0290     0.0840 C.3   1 <1>  -0.1600 
 10 C        1.7190    -0.3160     0.7910 C.3   1 <1>  -0.1600 
 11 O       -3.6750    -3.1820    -1.6390 O.3   1 <1>  -0.0190 
 12 N       -4.8300    -1.9710    -0.2440 N.2   1 <1>  -0.5650 
 13 C        4.5600    -1.0280     0.3820 C.3   1 <1>  -0.1600 
 14 C        2.8410     0.6890     1.0850 C.3   1 <1>  -0.1600 
 15 N       -4.7620    -3.8310    -1.3600 N.2   1 <1>  -0.4100 
 16 C       -5.4490    -3.1200    -0.5370 C.2   1 <1>   0.4620 
 17 C        4.1410    -0.0290     1.4680 C.3   1 <1>  -0.1600 
 18 C       -6.7380    -3.4860     0.0280 C.ar  1 <1>   0.0540 
 19 C       -7.3450    -4.7050    -0.2830 C.ar  1 <1>  -0.1500 
 20 C       -7.4250    -2.6400     0.9030 C.ar  1 <1>  -0.1500 
 21 C       -8.5710    -5.0620     0.2490 C.ar  1 <1>  -0.1500 
 22 C       -8.6500    -2.9910     1.4390 C.ar  1 <1>  -0.1500 
 23 C       -9.2270    -4.2050     1.1130 C.ar  1 <1>  -0.1500 
 24 H        1.3860    -3.0220    -1.3600 H     1 <1>   0.0800 
 25 H        0.8210    -2.9370     0.2650 H     1 <1>   0.0800 
 26 H       -2.4900    -0.8120    -2.0560 H     1 <1>   0.0800 
 27 H       -2.9440    -0.1680    -0.5110 H     1 <1>   0.0800 
 28 H       -1.8360    -2.9980     1.1040 H     1 <1>   0.0800 
 29 H       -2.2500    -1.3500     1.5240 H     1 <1>   0.0800 
 30 H       -0.5860    -1.8560     1.5590 H     1 <1>   0.0800 
 31 H        2.3150    -0.7570    -1.2130 H     1 <1>   0.0800 
 32 H        3.7490    -2.6780    -0.7160 H     1 <1>   0.0800 
 33 H        3.2670    -2.6380     0.9560 H     1 <1>   0.0800 
 34 H        1.4880    -0.8500     1.6960 H     1 <1>   0.0800 
 35 H        0.8400     0.2260     0.4860 H     1 <1>   0.0800 
 36 H        4.8060    -0.4910    -0.5180 H     1 <1>   0.0800 
 37 H        5.4410    -1.5580     0.7010 H     1 <1>   0.0800 
 38 H        2.5400     1.3420     1.8860 H     1 <1>   0.0800 
 39 H        3.0120     1.2950     0.2120 H     1 <1>   0.0800 
 40 H        4.9240     0.6960     1.6120 H     1 <1>   0.0800 
 41 H        4.0000    -0.5520     2.3980 H     1 <1>   0.0800 
 42 H       -6.8490    -5.3840    -0.9540 H     1 <1>   0.1500 
 43 H       -6.9930    -1.6910     1.1680 H     1 <1>   0.1500 
 44 H       -9.0140    -6.0090    -0.0090 H     1 <1>   0.1500 
 45 H       -9.1570    -2.3200     2.1110 H     1 <1>   0.1500 
 46 H      -10.1810    -4.4810     1.5290 H     1 <1>   0.1500 
@<TRIPOS>BOND
  1   1   2  2   
  2   2   3  am  
  3   2   4  1   
  4   3   5  1   
  5   3   6  1   
  6   4   7  1   
  7   4  24  1   
  8   4  25  1   
  9   5   8  1   
 10   5  26  1   
 11   5  27  1   
 12   6  28  1   
 13   6  29  1   
 14   6  30  1   
 15   7   9  1   
 16   7  10  1   
 17   7  31  1   
 18   8  11  1   
 19   8  12  2   
 20   9  13  1   
 21   9  32  1   
 22   9  33  1   
 23  10  14  1   
 24  10  34  1   
 25  10  35  1   
 26  11  15  1   
 27  12  16  1   
 28  13  17  1   
 29  13  36  1   
 30  13  37  1   
 31  14  17  1   
 32  14  38  1   
 33  14  39  1   
 34  15  16  2   
 35  16  18  1   
 36  17  40  1   
 37  17  41  1   
 38  18  19  ar  
 39  18  20  ar  
 40  19  21  ar  
 41  19  42  1   
 42  20  22  ar  
 43  20  43  1   
 44  21  23  ar  
 45  21  44  1   
 46  22  23  ar  
 47  22  45  1   
 48  23  46  1   
@<TRIPOS>SUBSTRUCTURE
  1 ****   3 GROUP 4 **** **** 0

# MOE 2024.06 (io_trps.svl 2023.06)
