@<TRIPOS>MOLECULE
NONAME
38 40 1 0 0 
SMALL
USER_CHARGES


@<TRIPOS>ATOM
  1 O       -0.6380    -0.2190     0.3630 O.2   1 <1>  -0.5700 
  2 C       -1.8280     0.0200     0.3400 C.2   1 <1>   0.5440 
  3 N       -2.2990     1.2780     0.5400 N.am  1 <1>  -0.4900 
  4 C       -2.9630    -0.8480     0.1210 C.ar  1 <1>   0.3960 
  5 C       -3.6530     1.2670     0.4630 C.2   1 <1>   0.5440 
  6 N       -2.9850    -2.1800    -0.1210 N.ar  1 <1>  -0.6200 
  7 C       -4.0890    -0.0720     0.1980 C.ar  1 <1>   0.0860 
  8 O       -4.3150     2.2720     0.6050 O.2   1 <1>  -0.5700 
  9 C       -4.1530    -2.7310    -0.2840 C.ar  1 <1>   0.1670 
 10 C       -5.3660    -0.6420     0.0270 C.ar  1 <1>   0.0000 
 11 C       -5.3960    -2.0310    -0.2220 C.ar  1 <1>   0.0000 
 12 C       -4.1190    -4.2320    -0.5560 C.3   1 <1>  -0.0160 
 13 C       -6.5660     0.0870     0.0920 C.ar  1 <1>  -0.1500 
 14 C       -6.6650    -2.6310    -0.3880 C.ar  1 <1>  -0.1500 
 15 C       -4.4110    -5.0450     0.7150 C.3   1 <1>  -0.1600 
 16 C       -7.7870    -0.5220    -0.0780 C.ar  1 <1>   0.0830 
 17 C       -7.8360    -1.9100    -0.3210 C.ar  1 <1>   0.0830 
 18 C       -4.4040    -6.5510     0.4330 C.3   1 <1>  -0.2400 
 19 O       -8.9660     0.1520    -0.0210 O.3   1 <1>  -0.3630 
 20 O       -9.0640    -2.4750    -0.4780 O.3   1 <1>  -0.3630 
 21 C       -9.0290     1.5410     0.2170 C.3   1 <1>   0.0400 
 22 C       -9.2450    -3.8540    -0.7030 C.3   1 <1>   0.0400 
 23 H       -1.7220     2.0960     0.7190 H     1 <1>   0.3700 
 24 H       -3.1400    -4.4990    -0.9180 H     1 <1>   0.0800 
 25 H       -4.8120    -4.4830    -1.3370 H     1 <1>   0.0800 
 26 H       -6.5040     1.1420     0.2790 H     1 <1>   0.1500 
 27 H       -6.7070    -3.6840    -0.5700 H     1 <1>   0.1500 
 28 H       -5.3660    -4.7640     1.1220 H     1 <1>   0.0800 
 29 H       -3.6600    -4.8180     1.4540 H     1 <1>   0.0800 
 30 H       -5.1590    -6.8060    -0.2900 H     1 <1>   0.0800 
 31 H       -4.6010    -7.0950     1.3400 H     1 <1>   0.0800 
 32 H       -3.4440    -6.8580     0.0550 H     1 <1>   0.0800 
 33 H      -10.0640     1.8320     0.2140 H     1 <1>   0.0800 
 34 H       -8.5030     2.0550    -0.5680 H     1 <1>   0.0800 
 35 H       -8.5930     1.7520     1.1770 H     1 <1>   0.0800 
 36 H      -10.3000    -4.0420    -0.7810 H     1 <1>   0.0800 
 37 H       -8.8380    -4.4000     0.1300 H     1 <1>   0.0800 
 38 H       -8.7570    -4.1250    -1.6220 H     1 <1>   0.0800 
@<TRIPOS>BOND
  1   1   2  2   
  2   2   3  am  
  3   2   4  1   
  4   3   5  am  
  5   3  23  1   
  6   4   6  ar  
  7   4   7  ar  
  8   5   7  1   
  9   5   8  2   
 10   6   9  ar  
 11   7  10  ar  
 12   9  11  ar  
 13   9  12  1   
 14  10  11  ar  
 15  10  13  ar  
 16  11  14  ar  
 17  12  15  1   
 18  12  24  1   
 19  12  25  1   
 20  13  16  ar  
 21  13  26  1   
 22  14  17  ar  
 23  14  27  1   
 24  15  18  1   
 25  15  28  1   
 26  15  29  1   
 27  16  17  ar  
 28  16  19  1   
 29  17  20  1   
 30  18  30  1   
 31  18  31  1   
 32  18  32  1   
 33  19  21  1   
 34  20  22  1   
 35  21  33  1   
 36  21  34  1   
 37  21  35  1   
 38  22  36  1   
 39  22  37  1   
 40  22  38  1   
@<TRIPOS>SUBSTRUCTURE
  1 ****  10 GROUP 4 **** **** 0

# MOE 2024.06 (io_trps.svl 2023.06)
