@<TRIPOS>MOLECULE
NONAME
43 45 1 0 0 
SMALL
USER_CHARGES


@<TRIPOS>ATOM
  1 O       -7.8330     1.4260    -0.8210 O.3   1 <1>  -0.3630 
  2 C       -6.6570     2.0320    -0.4750 C.ar  1 <1>   0.0830 
  3 C       -7.9400     0.0360    -1.0420 C.3   1 <1>   0.0400 
  4 C       -6.6000     3.4280    -0.3100 C.ar  1 <1>   0.0830 
  5 C       -5.5000     1.2820    -0.2830 C.ar  1 <1>  -0.1500 
  6 O       -7.6220     4.3190    -0.4520 O.3   1 <1>  -0.3630 
  7 C       -5.3910     4.0110     0.0340 C.ar  1 <1>  -0.1500 
  8 C       -4.2860     1.8650     0.0810 C.ar  1 <1>   0.0860 
  9 C       -8.9360     3.9620    -0.8120 C.3   1 <1>   0.0400 
 10 C       -4.2550     3.2480     0.2220 C.ar  1 <1>  -0.1440 
 11 C       -3.0580     1.1090     0.2950 C.2   1 <1>   0.2780 
 12 C       -2.9240     3.8790     0.5890 C.3   1 <1>  -0.0160 
 13 N       -1.8960     1.6430     0.2200 N.2   1 <1>  -0.6960 
 14 C       -3.1680    -0.3070     0.5940 C.ar  1 <1>   0.0860 
 15 C       -1.7410     3.0790    -0.0020 C.3   1 <1>   0.2460 
 16 C       -3.9710    -0.7720     1.6350 C.ar  1 <1>  -0.1500 
 17 C       -2.4690    -1.2520    -0.1540 C.ar  1 <1>  -0.1500 
 18 C       -0.4400     3.4950     0.6850 C.3   1 <1>  -0.2400 
 19 C       -1.6120     3.2980    -1.5120 C.3   1 <1>  -0.2400 
 20 C       -4.0880    -2.1240     1.9050 C.ar  1 <1>  -0.1500 
 21 C       -2.5800    -2.6050     0.1100 C.ar  1 <1>  -0.1500 
 22 C       -3.3940    -3.0440     1.1390 C.ar  1 <1>  -0.1500 
 23 H       -7.6860    -0.4840    -0.1350 H     1 <1>   0.0800 
 24 H       -8.9580    -0.1810    -1.3120 H     1 <1>   0.0800 
 25 H       -7.2820    -0.2430    -1.8460 H     1 <1>   0.0800 
 26 H       -5.5160     0.2190    -0.4190 H     1 <1>   0.1500 
 27 H       -5.3530     5.0790     0.1520 H     1 <1>   0.1500 
 28 H       -9.3330     3.2970    -0.0650 H     1 <1>   0.0800 
 29 H       -9.5270     4.8580    -0.8560 H     1 <1>   0.0800 
 30 H       -8.9160     3.4880    -1.7770 H     1 <1>   0.0800 
 31 H       -2.8420     3.8930     1.6610 H     1 <1>   0.0800 
 32 H       -2.8820     4.8960     0.2450 H     1 <1>   0.0800 
 33 H       -4.5060    -0.0620     2.2410 H     1 <1>   0.1500 
 34 H       -1.8290    -0.9080    -0.9480 H     1 <1>   0.1500 
 35 H       -0.4960     3.2940     1.7400 H     1 <1>   0.0800 
 36 H       -0.2580     4.5440     0.5430 H     1 <1>   0.0800 
 37 H        0.3870     2.9440     0.2740 H     1 <1>   0.0800 
 38 H       -2.5130     2.9980    -2.0150 H     1 <1>   0.0800 
 39 H       -0.7910     2.7250    -1.9020 H     1 <1>   0.0800 
 40 H       -1.4350     4.3360    -1.7260 H     1 <1>   0.0800 
 41 H       -4.7150    -2.4610     2.7120 H     1 <1>   0.1500 
 42 H       -2.0310    -3.3160    -0.4840 H     1 <1>   0.1500 
 43 H       -3.4810    -4.0960     1.3470 H     1 <1>   0.1500 
@<TRIPOS>BOND
  1   1   2  1   
  2   1   3  1   
  3   2   4  ar  
  4   2   5  ar  
  5   3  23  1   
  6   3  24  1   
  7   3  25  1   
  8   4   6  1   
  9   4   7  ar  
 10   5   8  ar  
 11   5  26  1   
 12   6   9  1   
 13   7  10  ar  
 14   7  27  1   
 15   8  10  ar  
 16   8  11  1   
 17   9  28  1   
 18   9  29  1   
 19   9  30  1   
 20  10  12  1   
 21  11  13  2   
 22  11  14  1   
 23  12  15  1   
 24  12  31  1   
 25  12  32  1   
 26  13  15  1   
 27  14  16  ar  
 28  14  17  ar  
 29  15  18  1   
 30  15  19  1   
 31  16  20  ar  
 32  16  33  1   
 33  17  21  ar  
 34  17  34  1   
 35  18  35  1   
 36  18  36  1   
 37  18  37  1   
 38  19  38  1   
 39  19  39  1   
 40  19  40  1   
 41  20  22  ar  
 42  20  41  1   
 43  21  22  ar  
 44  21  42  1   
 45  22  43  1   
@<TRIPOS>SUBSTRUCTURE
  1 ****   8 GROUP 4 **** **** 0

# MOE 2024.06 (io_trps.svl 2023.06)
