@<TRIPOS>MOLECULE
NONAME
36 37 1 0 0 
SMALL
USER_CHARGES


@<TRIPOS>ATOM
  1 O       -1.0200    -0.9800     0.5930 O.2   1 <1>  -0.5700 
  2 C       -1.0720    -1.6990    -0.3710 C.2   1 <1>   0.5690 
  3 N       -0.1730    -1.5500    -1.3610 N.am  1 <1>  -0.8000 
  4 C       -2.1450    -2.7800    -0.4800 C.3   1 <1>  -0.0190 
  5 C       -3.5540    -2.2110    -0.2330 C.3   1 <1>  -0.1600 
  6 C       -1.8690    -3.9360     0.4980 C.3   1 <1>  -0.1600 
  7 C       -4.6260    -3.3010    -0.3070 C.3   1 <1>   0.1400 
  8 C       -2.9520    -5.0150     0.4170 C.3   1 <1>   0.1400 
  9 N       -4.2920    -4.4050     0.6380 N.am  1 <1>  -0.6600 
 10 C       -5.1470    -4.9060     1.5950 C.2   1 <1>   0.5690 
 11 O       -4.8450    -5.8620     2.2720 O.2   1 <1>  -0.5700 
 12 C       -6.5130    -4.2830     1.8600 C.3   1 <1>   0.0440 
 13 C       -7.5010    -4.4530     0.7070 C.ar  1 <1>  -0.1440 
 14 C       -8.2940    -3.3880     0.3010 C.ar  1 <1>  -0.1500 
 15 C       -7.6180    -5.6710     0.0540 C.ar  1 <1>  -0.1500 
 16 C       -9.1830    -3.5380    -0.7490 C.ar  1 <1>  -0.1500 
 17 C       -8.5060    -5.8210    -0.9960 C.ar  1 <1>  -0.1500 
 18 C       -9.2880    -4.7540    -1.4000 C.ar  1 <1>  -0.1500 
 19 H        0.5410    -0.8270    -1.2710 H     1 <1>   0.3700 
 20 H       -0.1420    -2.1210    -2.2050 H     1 <1>   0.3700 
 21 H       -2.1190    -3.1760    -1.4790 H     1 <1>   0.0800 
 22 H       -3.7690    -1.4500    -0.9620 H     1 <1>   0.0800 
 23 H       -3.5950    -1.7500     0.7390 H     1 <1>   0.0800 
 24 H       -1.8310    -3.5580     1.5060 H     1 <1>   0.0800 
 25 H       -0.9130    -4.3770     0.2800 H     1 <1>   0.0800 
 26 H       -4.6760    -3.7020    -1.3050 H     1 <1>   0.0800 
 27 H       -5.5810    -2.8640    -0.0820 H     1 <1>   0.0800 
 28 H       -2.7500    -5.7750     1.1530 H     1 <1>   0.0800 
 29 H       -2.9370    -5.4830    -0.5530 H     1 <1>   0.0800 
 30 H       -6.3710    -3.2440     2.0850 H     1 <1>   0.0800 
 31 H       -6.9340    -4.7440     2.7350 H     1 <1>   0.0800 
 32 H       -8.2250    -2.4380     0.8000 H     1 <1>   0.1500 
 33 H       -7.0160    -6.5110     0.3610 H     1 <1>   0.1500 
 34 H       -9.7950    -2.7090    -1.0600 H     1 <1>   0.1500 
 35 H       -8.5890    -6.7700    -1.4970 H     1 <1>   0.1500 
 36 H       -9.9790    -4.8710    -2.2160 H     1 <1>   0.1500 
@<TRIPOS>BOND
  1   1   2  2   
  2   2   3  am  
  3   2   4  1   
  4   3  19  1   
  5   3  20  1   
  6   4   5  1   
  7   4   6  1   
  8   4  21  1   
  9   5   7  1   
 10   5  22  1   
 11   5  23  1   
 12   6   8  1   
 13   6  24  1   
 14   6  25  1   
 15   7   9  1   
 16   7  26  1   
 17   7  27  1   
 18   8   9  1   
 19   8  28  1   
 20   8  29  1   
 21   9  10  am  
 22  10  11  2   
 23  10  12  1   
 24  12  13  1   
 25  12  30  1   
 26  12  31  1   
 27  13  14  ar  
 28  13  15  ar  
 29  14  16  ar  
 30  14  32  1   
 31  15  17  ar  
 32  15  33  1   
 33  16  18  ar  
 34  16  34  1   
 35  17  18  ar  
 36  17  35  1   
 37  18  36  1   
@<TRIPOS>SUBSTRUCTURE
  1 ****   7 GROUP 4 **** **** 0

# MOE 2024.06 (io_trps.svl 2023.06)
