@<TRIPOS>MOLECULE
NONAME
52 54 1 0 0 
SMALL
USER_CHARGES


@<TRIPOS>ATOM
  1 O        1.0110    -2.6420     2.0700 O.2   1 <1>  -0.5700 
  2 C        0.7940    -2.9620     0.9200 C.2   1 <1>   0.5690 
  3 N        1.7470    -2.7460    -0.0500 N.am  1 <1>  -0.6600 
  4 C       -0.5580    -3.6440     0.5770 C.3   1 <1>   0.2610 
  5 C        3.0420    -2.0670     0.2460 C.3   1 <1>   0.1400 
  6 C        1.6200    -3.1130    -1.4910 C.3   1 <1>   0.1400 
  7 O       -1.2700    -2.9190    -0.3920 O.3   1 <1>  -0.5600 
  8 C       -1.5630    -3.7440     1.7260 C.3   1 <1>  -0.1600 
  9 C        4.2270    -2.9240    -0.2270 C.3   1 <1>   0.1100 
 10 C        2.8280    -3.9520    -1.9440 C.3   1 <1>   0.1100 
 11 C       -2.0270    -1.9260     0.2240 C.3   1 <1>   0.1200 
 12 C       -2.3360    -2.4370     1.6300 C.3   1 <1>  -0.1600 
 13 N        4.1160    -3.2830    -1.6610 N.3   1 <1>  -0.8100 
 14 C        5.2530    -4.1060    -2.1680 C.3   1 <1>   0.1710 
 15 C        6.6510    -3.4720    -2.0980 C.2   1 <1>   0.5690 
 16 O        7.1320    -3.0230    -3.1110 O.2   1 <1>  -0.5700 
 17 N        7.3100    -3.5060    -0.8950 N.am  1 <1>  -0.5470 
 18 C        8.5710    -3.0350    -0.4910 C.ar  1 <1>   0.1170 
 19 C        9.1380    -3.5220     0.6900 C.ar  1 <1>  -0.1440 
 20 C        9.2730    -2.0780    -1.2180 C.ar  1 <1>  -0.1500 
 21 C       10.3750    -3.0560     1.1080 C.ar  1 <1>  -0.1500 
 22 C        8.4270    -4.5680     1.5400 C.3   1 <1>  -0.0970 
 23 C       10.5060    -1.6210    -0.7950 C.ar  1 <1>  -0.1500 
 24 C       11.0660    -2.1090     0.3720 C.ar  1 <1>  -0.1440 
 25 C       12.4200    -1.6090     0.8430 C.3   1 <1>  -0.0970 
 26 H       -0.3540    -4.6200     0.1790 H     1 <1>   0.0800 
 27 H        3.1410    -1.8760     1.3000 H     1 <1>   0.0800 
 28 H        3.0660    -1.1190    -0.2630 H     1 <1>   0.0800 
 29 H        1.5750    -2.2130    -2.0800 H     1 <1>   0.0800 
 30 H        0.7200    -3.6700    -1.6760 H     1 <1>   0.0800 
 31 H       -1.0950    -3.8830     2.6850 H     1 <1>   0.0800 
 32 H       -2.2200    -4.5740     1.5380 H     1 <1>   0.0800 
 33 H        4.2730    -3.8150     0.3740 H     1 <1>   0.0800 
 34 H        5.1240    -2.3530    -0.0670 H     1 <1>   0.0800 
 35 H        2.7440    -4.1250    -3.0030 H     1 <1>   0.0800 
 36 H        2.7940    -4.9050    -1.4450 H     1 <1>   0.0800 
 37 H       -2.9180    -1.7620    -0.3570 H     1 <1>   0.0800 
 38 H       -1.4360    -1.0260     0.2590 H     1 <1>   0.0800 
 39 H       -1.9810    -1.7270     2.3560 H     1 <1>   0.0800 
 40 H       -3.3920    -2.5880     1.7700 H     1 <1>   0.0800 
 41 H        5.0710    -4.3280    -3.2050 H     1 <1>   0.0800 
 42 H        5.2780    -5.0420    -1.6410 H     1 <1>   0.0800 
 43 H        6.7990    -3.9690    -0.1510 H     1 <1>   0.3700 
 44 H        8.8580    -1.6770    -2.1240 H     1 <1>   0.1500 
 45 H       10.8120    -3.4310     2.0160 H     1 <1>   0.1500 
 46 H        8.2150    -5.4420     0.9490 H     1 <1>   0.0800 
 47 H        7.5080    -4.1670     1.9290 H     1 <1>   0.0800 
 48 H        9.0390    -4.8700     2.3710 H     1 <1>   0.0800 
 49 H       11.0250    -0.8820    -1.3790 H     1 <1>   0.1500 
 50 H       12.9600    -2.3970     1.3370 H     1 <1>   0.0800 
 51 H       12.2880    -0.7930     1.5300 H     1 <1>   0.0800 
 52 H       13.0080    -1.2690     0.0090 H     1 <1>   0.0800 
@<TRIPOS>BOND
  1   1   2  2   
  2   2   3  am  
  3   2   4  1   
  4   3   5  1   
  5   3   6  1   
  6   4   7  1   
  7   4   8  1   
  8   4  26  1   
  9   5   9  1   
 10   5  27  1   
 11   5  28  1   
 12   6  10  1   
 13   6  29  1   
 14   6  30  1   
 15   7  11  1   
 16   8  12  1   
 17   8  31  1   
 18   8  32  1   
 19   9  13  1   
 20   9  33  1   
 21   9  34  1   
 22  10  13  1   
 23  10  35  1   
 24  10  36  1   
 25  11  12  1   
 26  11  37  1   
 27  11  38  1   
 28  12  39  1   
 29  12  40  1   
 30  13  14  1   
 31  14  15  1   
 32  14  41  1   
 33  14  42  1   
 34  15  16  2   
 35  15  17  am  
 36  17  18  1   
 37  17  43  1   
 38  18  19  ar  
 39  18  20  ar  
 40  19  21  ar  
 41  19  22  1   
 42  20  23  ar  
 43  20  44  1   
 44  21  24  ar  
 45  21  45  1   
 46  22  46  1   
 47  22  47  1   
 48  22  48  1   
 49  23  24  ar  
 50  23  49  1   
 51  24  25  1   
 52  25  50  1   
 53  25  51  1   
 54  25  52  1   
@<TRIPOS>SUBSTRUCTURE
  1 ****   9 GROUP 4 **** **** 0

# MOE 2024.06 (io_trps.svl 2023.06)
