@<TRIPOS>MOLECULE
NONAME
43 45 1 0 0 
SMALL
USER_CHARGES


@<TRIPOS>ATOM
  1 O        0.2650    -0.4050    -1.4390 O.2   1 <1>  -0.5700 
  2 C        1.2820    -0.8880    -1.0000 C.2   1 <1>   0.4950 
  3 C        2.3470    -0.1160    -0.4760 C.2   1 <1>  -0.1360 
  4 C        1.4210    -2.3960    -1.0270 C.3   1 <1>  -0.0990 
  5 C        3.5060    -0.6090     0.0400 C.2   1 <1>  -0.0380 
  6 C        2.3460    -2.8760     0.1000 C.3   1 <1>   0.0640 
  7 N        4.5970     0.0670     0.5400 N.pl3 1 <1>  -0.8690 
  8 C        3.6880    -2.1230     0.0900 C.3   1 <1>  -0.0220 
  9 C        2.5580    -4.3870     0.0440 C.ar  1 <1>  -0.1430 
 10 C        5.0060     1.4900     0.7010 C.3   1 <1>   0.2890 
 11 C        2.1520    -5.1810     1.1070 C.ar  1 <1>  -0.1500 
 12 C        3.1550    -4.9910    -1.0550 C.ar  1 <1>  -0.1500 
 13 C        4.0480     2.5190     0.0910 C.3   1 <1>  -0.1600 
 14 C        6.4050     1.6220     0.0880 C.3   1 <1>  -0.1600 
 15 C        2.3400    -6.5520     1.0750 C.ar  1 <1>  -0.1500 
 16 C        3.3430    -6.3620    -1.0900 C.ar  1 <1>  -0.1500 
 17 C        4.5940     3.9510     0.2090 C.3   1 <1>  -0.1600 
 18 C        6.9560     3.0510     0.2090 C.3   1 <1>  -0.1600 
 19 C        2.9350    -7.1440    -0.0240 C.ar  1 <1>  -0.1500 
 20 C        5.9910     4.0670    -0.4120 C.3   1 <1>  -0.1600 
 21 H        2.1540     0.9300    -0.5290 H     1 <1>   0.1500 
 22 H        1.8110    -2.6780    -1.9870 H     1 <1>   0.0800 
 23 H        0.4510    -2.8440    -0.9120 H     1 <1>   0.0800 
 24 H        1.8600    -2.6340     1.0300 H     1 <1>   0.0800 
 25 H        5.3600    -0.5270     0.8830 H     1 <1>   0.4000 
 26 H        4.2270    -2.3960     0.9800 H     1 <1>   0.0800 
 27 H        4.2790    -2.4210    -0.7570 H     1 <1>   0.0800 
 28 H        5.0790     1.6930     1.7570 H     1 <1>   0.0800 
 29 H        1.6870    -4.7390     1.9710 H     1 <1>   0.1500 
 30 H        3.4800    -4.4020    -1.8940 H     1 <1>   0.1500 
 31 H        3.1100     2.4780     0.6130 H     1 <1>   0.0800 
 32 H        3.8990     2.2910    -0.9490 H     1 <1>   0.0800 
 33 H        6.3550     1.3530    -0.9530 H     1 <1>   0.0800 
 34 H        7.0790     0.9460     0.5810 H     1 <1>   0.0800 
 35 H        2.0210    -7.1580     1.9050 H     1 <1>   0.1500 
 36 H        3.8060    -6.8210    -1.9460 H     1 <1>   0.1500 
 37 H        4.6420     4.2300     1.2480 H     1 <1>   0.0800 
 38 H        3.9230     4.6330    -0.2840 H     1 <1>   0.0800 
 39 H        7.9100     3.1120    -0.2850 H     1 <1>   0.0800 
 40 H        7.1060     3.2900     1.2480 H     1 <1>   0.0800 
 41 H        3.0810    -8.2090    -0.0500 H     1 <1>   0.1500 
 42 H        6.3700     5.0640    -0.2640 H     1 <1>   0.0800 
 43 H        5.9240     3.8940    -1.4730 H     1 <1>   0.0800 
@<TRIPOS>BOND
  1   1   2  2   
  2   2   3  1   
  3   2   4  1   
  4   3   5  2   
  5   3  21  1   
  6   4   6  1   
  7   4  22  1   
  8   4  23  1   
  9   5   7  1   
 10   5   8  1   
 11   6   8  1   
 12   6   9  1   
 13   6  24  1   
 14   7  10  1   
 15   7  25  1   
 16   8  26  1   
 17   8  27  1   
 18   9  11  ar  
 19   9  12  ar  
 20  10  13  1   
 21  10  14  1   
 22  10  28  1   
 23  11  15  ar  
 24  11  29  1   
 25  12  16  ar  
 26  12  30  1   
 27  13  17  1   
 28  13  31  1   
 29  13  32  1   
 30  14  18  1   
 31  14  33  1   
 32  14  34  1   
 33  15  19  ar  
 34  15  35  1   
 35  16  19  ar  
 36  16  36  1   
 37  17  20  1   
 38  17  37  1   
 39  17  38  1   
 40  18  20  1   
 41  18  39  1   
 42  18  40  1   
 43  19  41  1   
 44  20  42  1   
 45  20  43  1   
@<TRIPOS>SUBSTRUCTURE
  1 ****   5 GROUP 4 **** **** 0

# MOE 2024.06 (io_trps.svl 2023.06)
