@<TRIPOS>MOLECULE
NONAME
43 44 1 0 0 
SMALL
USER_CHARGES


@<TRIPOS>ATOM
  1 O        0.0340    -3.3780     1.8890 O.co2 1 <1>  -0.9000 
  2 C        0.1090    -3.4660     0.6590 C.2   1 <1>   1.0330 
  3 O       -0.3590    -2.5350    -0.0250 O.co2 1 <1>  -0.9000 
  4 C        0.3710    -4.7400     0.0310 C.2   1 <1>  -0.2330 
  5 C        1.3730    -5.6290     0.2540 C.2   1 <1>  -0.0400 
  6 C       -0.4490    -5.3700    -0.9390 C.2   1 <1>  -0.1810 
  7 O        1.2230    -6.7030    -0.4880 O.3   1 <1>  -0.2800 
  8 C        2.5460    -5.5340     1.2150 C.3   1 <1>   0.0200 
  9 C        0.1330    -6.5590    -1.2070 C.2   1 <1>  -0.0400 
 10 C       -1.7260    -4.7830    -1.5240 C.3   1 <1>   0.5240 
 11 C        3.8190    -4.9790     0.5470 C.3   1 <1>  -0.0800 
 12 C       -0.2380    -7.6880    -2.1440 C.3   1 <1>  -0.0600 
 13 N       -2.5050    -4.0710    -0.4810 N.4   1 <1>  -0.9590 
 14 C        4.3480    -5.9040    -0.5590 C.3   1 <1>  -0.2400 
 15 C        4.9140    -4.7550     1.5980 C.3   1 <1>  -0.2400 
 16 C       -2.7470    -4.8470     0.7800 C.3   1 <1>   0.3430 
 17 C       -3.7110    -3.3420    -0.9560 C.3   1 <1>   0.3430 
 18 C       -3.4310    -3.9570     1.8330 C.3   1 <1>   0.1200 
 19 C       -4.3430    -2.5400     0.2000 C.3   1 <1>   0.1200 
 20 O       -4.5910    -3.3760     1.2960 O.3   1 <1>  -0.5600 
 21 H        2.7350    -6.5040     1.6370 H     1 <1>   0.0800 
 22 H        2.2640    -4.8790     2.0210 H     1 <1>   0.0800 
 23 H       -2.3200    -5.5680    -1.9590 H     1 <1>   0.0800 
 24 H       -1.4530    -4.0840    -2.2970 H     1 <1>   0.0800 
 25 H        3.5740    -4.0260     0.1070 H     1 <1>   0.0800 
 26 H       -1.1380    -7.4640    -2.6840 H     1 <1>   0.0800 
 27 H       -0.3810    -8.5910    -1.5790 H     1 <1>   0.0800 
 28 H        0.5610    -7.8450    -2.8470 H     1 <1>   0.0800 
 29 H       -1.8320    -3.3160    -0.1930 H     1 <1>   0.4500 
 30 H        4.5490    -6.8850    -0.1680 H     1 <1>   0.0800 
 31 H        5.2530    -5.5040    -0.9800 H     1 <1>   0.0800 
 32 H        3.6250    -5.9920    -1.3510 H     1 <1>   0.0800 
 33 H        5.1870    -5.6850     2.0650 H     1 <1>   0.0800 
 34 H        4.5670    -4.0760     2.3570 H     1 <1>   0.0800 
 35 H        5.7890    -4.3290     1.1390 H     1 <1>   0.0800 
 36 H       -1.8130    -5.2020     1.1850 H     1 <1>   0.0800 
 37 H       -3.3730    -5.6990     0.5780 H     1 <1>   0.0800 
 38 H       -4.4380    -4.0390    -1.3350 H     1 <1>   0.0800 
 39 H       -3.4390    -2.6640    -1.7480 H     1 <1>   0.0800 
 40 H       -2.7600    -3.1780     2.1600 H     1 <1>   0.0800 
 41 H       -3.7150    -4.5440     2.6880 H     1 <1>   0.0800 
 42 H       -5.2810    -2.1150    -0.1090 H     1 <1>   0.0800 
 43 H       -3.6880    -1.7440     0.5130 H     1 <1>   0.0800 
@<TRIPOS>BOND
  1   1   2  ar  
  2   2   3  ar  
  3   2   4  1   
  4   4   5  2   
  5   4   6  1   
  6   5   7  1   
  7   5   8  1   
  8   6   9  2   
  9   6  10  1   
 10   7   9  1   
 11   8  11  1   
 12   8  21  1   
 13   8  22  1   
 14   9  12  1   
 15  10  13  1   
 16  10  23  1   
 17  10  24  1   
 18  11  14  1   
 19  11  15  1   
 20  11  25  1   
 21  12  26  1   
 22  12  27  1   
 23  12  28  1   
 24  13  16  1   
 25  13  17  1   
 26  13  29  1   
 27  14  30  1   
 28  14  31  1   
 29  14  32  1   
 30  15  33  1   
 31  15  34  1   
 32  15  35  1   
 33  16  18  1   
 34  16  36  1   
 35  16  37  1   
 36  17  19  1   
 37  17  38  1   
 38  17  39  1   
 39  18  20  1   
 40  18  40  1   
 41  18  41  1   
 42  19  20  1   
 43  19  42  1   
 44  19  43  1   
@<TRIPOS>SUBSTRUCTURE
  1 ****   4 GROUP 4 **** **** 0

# MOE 2024.06 (io_trps.svl 2023.06)
