@<TRIPOS>MOLECULE
NONAME
38 39 1 0 0 
SMALL
USER_CHARGES


@<TRIPOS>ATOM
  1 CL       0.2090     0.1470    -1.6710 Cl    1 <1>  -0.1770 
  2 C        1.5090    -0.8420    -1.0820 C.ar  1 <1>   0.7970 
  3 N        2.6140    -0.2190    -0.8060 N.ar  1 <1>  -0.6200 
  4 N        1.2420    -2.1100    -0.9710 N.ar  1 <1>  -0.6200 
  5 C        3.5400    -1.0240    -0.3630 C.ar  1 <1>   0.7200 
  6 C        2.2660    -2.7890    -0.5250 C.ar  1 <1>   0.7200 
  7 N        3.4290    -2.3150    -0.2000 N.ar  1 <1>  -0.6200 
  8 N        4.7060    -0.4220    -0.0580 N.pl3 1 <1>  -0.8690 
  9 N        2.1260    -4.1190    -0.3610 N.pl3 1 <1>  -0.8690 
 10 C        5.9550    -1.0630     0.3780 C.3   1 <1>   0.2890 
 11 C        0.9330    -4.9650    -0.7100 C.3   1 <1>   0.2700 
 12 C        6.4880    -0.3140     1.6030 C.3   1 <1>  -0.1600 
 13 C        6.9590    -1.0230    -0.7770 C.3   1 <1>  -0.1600 
 14 C        0.3050    -5.7210     0.4720 C.2   1 <1>   0.6590 
 15 C        7.8520    -0.8670     2.0420 C.3   1 <1>  -0.1600 
 16 C        8.3250    -1.5770    -0.3470 C.3   1 <1>  -0.1600 
 17 O        0.4350    -6.9130     0.5620 O.2   1 <1>  -0.5700 
 18 O       -0.4060    -5.0630     1.3880 O.3   1 <1>  -0.4300 
 19 C        8.8610    -0.8350     0.8850 C.3   1 <1>  -0.1600 
 20 C       -0.4980    -3.6570     1.4940 C.3   1 <1>   0.0400 
 21 H        4.7520     0.5750    -0.2600 H     1 <1>   0.4000 
 22 H        2.9500    -4.6020     0.0020 H     1 <1>   0.4000 
 23 H        5.7740    -2.0890     0.6510 H     1 <1>   0.0800 
 24 H        1.2430    -5.6970    -1.4350 H     1 <1>   0.0800 
 25 H        0.1690    -4.3690    -1.1750 H     1 <1>   0.0800 
 26 H        5.7850    -0.4140     2.4110 H     1 <1>   0.0800 
 27 H        6.5930     0.7300     1.3680 H     1 <1>   0.0800 
 28 H        7.0820    -0.0070    -1.1110 H     1 <1>   0.0800 
 29 H        6.5780    -1.6080    -1.5960 H     1 <1>   0.0800 
 30 H        7.7340    -1.8820     2.3830 H     1 <1>   0.0800 
 31 H        8.2290    -0.2850     2.8660 H     1 <1>   0.0800 
 32 H        9.0260    -1.4820    -1.1590 H     1 <1>   0.0800 
 33 H        8.2290    -2.6250    -0.1170 H     1 <1>   0.0800 
 34 H        9.7870    -1.2840     1.2020 H     1 <1>   0.0800 
 35 H        9.0670     0.1890     0.6220 H     1 <1>   0.0800 
 36 H       -1.1530    -3.4260     2.3150 H     1 <1>   0.0800 
 37 H       -0.9020    -3.2540     0.5830 H     1 <1>   0.0800 
 38 H        0.4810    -3.2550     1.6890 H     1 <1>   0.0800 
@<TRIPOS>BOND
  1   1   2  1   
  2   2   3  ar  
  3   2   4  ar  
  4   3   5  ar  
  5   4   6  ar  
  6   5   7  ar  
  7   5   8  1   
  8   6   7  ar  
  9   6   9  1   
 10   8  10  1   
 11   8  21  1   
 12   9  11  1   
 13   9  22  1   
 14  10  12  1   
 15  10  13  1   
 16  10  23  1   
 17  11  14  1   
 18  11  24  1   
 19  11  25  1   
 20  12  15  1   
 21  12  26  1   
 22  12  27  1   
 23  13  16  1   
 24  13  28  1   
 25  13  29  1   
 26  14  17  2   
 27  14  18  1   
 28  15  19  1   
 29  15  30  1   
 30  15  31  1   
 31  16  19  1   
 32  16  32  1   
 33  16  33  1   
 34  18  20  1   
 35  19  34  1   
 36  19  35  1   
 37  20  36  1   
 38  20  37  1   
 39  20  38  1   
@<TRIPOS>SUBSTRUCTURE
  1 ****   7 GROUP 4 **** **** 0

# MOE 2024.06 (io_trps.svl 2023.06)
