@<TRIPOS>MOLECULE
NONAME
52 54 1 0 0 
SMALL
USER_CHARGES


@<TRIPOS>ATOM
  1 O       -5.6990     7.3870     1.6370 O.3   1 <1>  -0.3630 
  2 C       -5.5780     6.1510     1.0780 C.ar  1 <1>   0.0830 
  3 C       -4.7120     8.3850     1.4910 C.3   1 <1>   0.0400 
  4 C       -4.3740     5.5120     0.7290 C.ar  1 <1>   0.0830 
  5 C       -6.7800     5.5080     0.8630 C.ar  1 <1>  -0.1500 
  6 O       -3.1850     6.1100     0.9680 O.3   1 <1>  -0.3630 
  7 C       -4.4400     4.2460     0.1490 C.ar  1 <1>  -0.1500 
  8 C       -6.8570     4.2350     0.2940 C.ar  1 <1>   0.0860 
  9 C       -1.9310     5.5220     0.6960 C.3   1 <1>   0.0400 
 10 C       -5.6530     3.6190    -0.0660 C.ar  1 <1>  -0.1440 
 11 C       -8.0990     3.5420     0.0930 C.2   1 <1>   0.2280 
 12 C       -5.6980     2.2420    -0.7220 C.3   1 <1>  -0.0160 
 13 N       -8.0970     2.2450    -0.1420 N.2   1 <1>  -0.1460 
 14 C       -9.3440     4.2430     0.1420 C.ar  1 <1>   0.0860 
 15 C       -6.8880     1.3930    -0.2210 C.3   1 <1>   0.3460 
 16 C       -9.6710     5.1910    -0.8260 C.ar  1 <1>  -0.1500 
 17 C      -10.2820     4.0020     1.1470 C.ar  1 <1>  -0.1500 
 18 C       -7.1660     0.2370    -1.1900 C.3   1 <1>  -0.2400 
 19 C       -6.6070     0.8320     1.1800 C.3   1 <1>  -0.2400 
 20 C      -10.8750     5.8650    -0.8210 C.ar  1 <1>   0.0830 
 21 C      -11.4940     4.6620     1.1690 C.ar  1 <1>  -0.1500 
 22 O      -11.0240     6.7530    -1.8440 O.3   1 <1>  -0.3620 
 23 C      -11.8210     5.5970     0.1870 C.ar  1 <1>   0.0830 
 24 C      -11.8630     7.8830    -1.7420 C.3   1 <1>   0.0400 
 25 O      -13.0190     6.2220     0.1870 O.3   1 <1>  -0.3630 
 26 C      -14.0260     6.0030     1.1510 C.3   1 <1>   0.0400 
 27 H       -5.1470     9.3290     1.7640 H     1 <1>   0.0800 
 28 H       -4.3860     8.4110     0.4670 H     1 <1>   0.0800 
 29 H       -3.8910     8.1610     2.1490 H     1 <1>   0.0800 
 30 H       -7.6750     6.0280     1.1560 H     1 <1>   0.1500 
 31 H       -3.5390     3.7400    -0.1420 H     1 <1>   0.1500 
 32 H       -1.1660     6.2120     1.0050 H     1 <1>   0.0800 
 33 H       -1.8510     5.3390    -0.3610 H     1 <1>   0.0800 
 34 H       -1.8430     4.6080     1.2560 H     1 <1>   0.0800 
 35 H       -4.7770     1.7130    -0.5450 H     1 <1>   0.0800 
 36 H       -5.7770     2.3830    -1.7860 H     1 <1>   0.0800 
 37 H       -8.9690     1.7260    -0.2810 H     1 <1>   0.4000 
 38 H       -8.9700     5.4170    -1.6110 H     1 <1>   0.1500 
 39 H      -10.0620     3.2950     1.9290 H     1 <1>   0.1500 
 40 H       -7.4040     0.6040    -2.1730 H     1 <1>   0.0800 
 41 H       -7.9740    -0.3810    -0.8390 H     1 <1>   0.0800 
 42 H       -6.2930    -0.3870    -1.2760 H     1 <1>   0.0800 
 43 H       -6.4040     1.6240     1.8800 H     1 <1>   0.0800 
 44 H       -5.7430     0.1900     1.1560 H     1 <1>   0.0800 
 45 H       -7.4370     0.2510     1.5410 H     1 <1>   0.0800 
 46 H      -12.1820     4.4400     1.9640 H     1 <1>   0.1500 
 47 H      -11.5910     8.5730    -2.5200 H     1 <1>   0.0800 
 48 H      -11.7250     8.3400    -0.7780 H     1 <1>   0.0800 
 49 H      -12.8840     7.5720    -1.8760 H     1 <1>   0.0800 
 50 H      -14.8670     6.6260     0.9040 H     1 <1>   0.0800 
 51 H      -13.6470     6.2720     2.1210 H     1 <1>   0.0800 
 52 H      -14.3200     4.9690     1.1220 H     1 <1>   0.0800 
@<TRIPOS>BOND
  1   1   2  1   
  2   1   3  1   
  3   2   4  ar  
  4   2   5  ar  
  5   3  27  1   
  6   3  28  1   
  7   3  29  1   
  8   4   6  1   
  9   4   7  ar  
 10   5   8  ar  
 11   5  30  1   
 12   6   9  1   
 13   7  10  ar  
 14   7  31  1   
 15   8  10  ar  
 16   8  11  1   
 17   9  32  1   
 18   9  33  1   
 19   9  34  1   
 20  10  12  1   
 21  11  13  2   
 22  11  14  1   
 23  12  15  1   
 24  12  35  1   
 25  12  36  1   
 26  13  15  1   
 27  13  37  1   
 28  14  16  ar  
 29  14  17  ar  
 30  15  18  1   
 31  15  19  1   
 32  16  20  ar  
 33  16  38  1   
 34  17  21  ar  
 35  17  39  1   
 36  18  40  1   
 37  18  41  1   
 38  18  42  1   
 39  19  43  1   
 40  19  44  1   
 41  19  45  1   
 42  20  22  1   
 43  20  23  ar  
 44  21  23  ar  
 45  21  46  1   
 46  22  24  1   
 47  23  25  1   
 48  24  47  1   
 49  24  48  1   
 50  24  49  1   
 51  25  26  1   
 52  26  50  1   
 53  26  51  1   
 54  26  52  1   
@<TRIPOS>SUBSTRUCTURE
  1 ****   8 GROUP 4 **** **** 0

# MOE 2024.06 (io_trps.svl 2023.06)
