@<TRIPOS>MOLECULE
NONAME
41 42 1 0 0 
SMALL
USER_CHARGES


@<TRIPOS>ATOM
  1 I       -0.5530     0.3780     0.3960 I     1 <1>  -0.0810 
  2 C        1.4490     1.0700     0.1820 C.ar  1 <1>   0.0810 
  3 C        2.4850     0.2190     0.5200 C.ar  1 <1>  -0.1500 
  4 C        1.6610     2.3530    -0.2890 C.ar  1 <1>  -0.1500 
  5 C        3.7870     0.6730     0.3800 C.ar  1 <1>  -0.1500 
  6 C        2.9660     2.7930    -0.4240 C.ar  1 <1>  -0.1500 
  7 C        4.0300     1.9640    -0.0930 C.ar  1 <1>   0.0830 
  8 O        5.2730     2.4820    -0.2590 O.3   1 <1>  -0.3630 
  9 C        6.4250     1.7320     0.0450 C.3   1 <1>   0.1200 
 10 C        7.6440     2.6060    -0.2530 C.3   1 <1>  -0.1600 
 11 C        8.9550     1.8690     0.0520 C.3   1 <1>  -0.1600 
 12 C       10.1670     2.7600    -0.2540 C.3   1 <1>  -0.1600 
 13 C       11.4760     2.0280     0.0490 C.3   1 <1>   0.3430 
 14 N       12.6390     2.8730    -0.3310 N.4   1 <1>  -0.9590 
 15 C       13.9240     2.1350    -0.2790 C.3   1 <1>   0.3430 
 16 C       12.8290     4.0730     0.5230 C.3   1 <1>   0.3430 
 17 C       14.9850     3.2260    -0.2380 C.3   1 <1>  -0.1600 
 18 C       14.2800     4.4760     0.2960 C.3   1 <1>  -0.1600 
 19 H        2.2820    -0.7720     0.8840 H     1 <1>   0.1500 
 20 H        0.8330     2.9900    -0.5430 H     1 <1>   0.1500 
 21 H        4.5900     0.0120     0.6430 H     1 <1>   0.1500 
 22 H        3.1700     3.7850    -0.7870 H     1 <1>   0.1500 
 23 H        6.4260     0.8490    -0.5710 H     1 <1>   0.0800 
 24 H        6.3900     1.4650     1.0870 H     1 <1>   0.0800 
 25 H        7.5810     3.4990     0.3450 H     1 <1>   0.0800 
 26 H        7.6200     2.8870    -1.2930 H     1 <1>   0.0800 
 27 H        9.0030     0.9720    -0.5430 H     1 <1>   0.0800 
 28 H        8.9660     1.5840     1.0920 H     1 <1>   0.0800 
 29 H       10.0970     3.6530     0.3430 H     1 <1>   0.0800 
 30 H       10.1410     3.0350    -1.2940 H     1 <1>   0.0800 
 31 H       11.4990     1.1090    -0.5140 H     1 <1>   0.0800 
 32 H       11.5240     1.7820     1.0980 H     1 <1>   0.0800 
 33 H       12.5130     3.2000    -1.2990 H     1 <1>   0.4500 
 34 H       14.0500     1.4850    -1.1310 H     1 <1>   0.0800 
 35 H       13.9740     1.5520     0.6280 H     1 <1>   0.0800 
 36 H       12.6870     3.8100     1.5590 H     1 <1>   0.0800 
 37 H       12.1480     4.8660     0.2580 H     1 <1>   0.0800 
 38 H       15.3630     3.4030    -1.2310 H     1 <1>   0.0800 
 39 H       15.8060     2.9290     0.3910 H     1 <1>   0.0800 
 40 H       14.7200     4.8210     1.2160 H     1 <1>   0.0800 
 41 H       14.3300     5.2730    -0.4260 H     1 <1>   0.0800 
@<TRIPOS>BOND
  1   1   2  1   
  2   2   3  ar  
  3   2   4  ar  
  4   3   5  ar  
  5   3  19  1   
  6   4   6  ar  
  7   4  20  1   
  8   5   7  ar  
  9   5  21  1   
 10   6   7  ar  
 11   6  22  1   
 12   7   8  1   
 13   8   9  1   
 14   9  10  1   
 15   9  23  1   
 16   9  24  1   
 17  10  11  1   
 18  10  25  1   
 19  10  26  1   
 20  11  12  1   
 21  11  27  1   
 22  11  28  1   
 23  12  13  1   
 24  12  29  1   
 25  12  30  1   
 26  13  14  1   
 27  13  31  1   
 28  13  32  1   
 29  14  15  1   
 30  14  16  1   
 31  14  33  1   
 32  15  17  1   
 33  15  34  1   
 34  15  35  1   
 35  16  18  1   
 36  16  36  1   
 37  16  37  1   
 38  17  18  1   
 39  17  38  1   
 40  17  39  1   
 41  18  40  1   
 42  18  41  1   
@<TRIPOS>SUBSTRUCTURE
  1 ****  10 GROUP 4 **** **** 0

# MOE 2024.06 (io_trps.svl 2023.06)
