@<TRIPOS>MOLECULE
NONAME
50 52 1 0 0 
SMALL
USER_CHARGES


@<TRIPOS>ATOM
  1 CL       2.2680    -0.7210     3.1490 Cl    1 <1>  -0.1770 
  2 C        2.5660     0.3910     1.8360 C.ar  1 <1>   0.1770 
  3 C        3.7870     0.3680     1.1960 C.ar  1 <1>  -0.1500 
  4 C        1.5740     1.2750     1.4610 C.ar  1 <1>  -0.1500 
  5 C        4.0390     1.2470     0.1490 C.ar  1 <1>   0.1000 
  6 C        1.8170     2.1540     0.4190 C.ar  1 <1>  -0.1500 
  7 N        5.2720     1.2270    -0.5000 N.pl3 1 <1>  -0.8380 
  8 C        3.0390     2.1440    -0.2360 C.ar  1 <1>  -0.1430 
  9 C        5.5740     0.0890    -1.4170 C.3   1 <1>   0.2090 
 10 C        6.4610     1.7710     0.2180 C.3   1 <1>   0.2090 
 11 C        3.2850     3.1190    -1.3800 C.3   1 <1>  -0.0970 
 12 C        6.4850    -0.9670    -0.7600 C.3   1 <1>   0.1100 
 13 C        7.3410     0.6560     0.8170 C.3   1 <1>   0.1100 
 14 N        7.7150    -0.3760    -0.1850 N.3   1 <1>  -0.8100 
 15 C        8.5700    -1.4330     0.4360 C.3   1 <1>   0.1710 
 16 C       10.0020    -0.9740     0.7200 C.2   1 <1>   0.5690 
 17 O       10.6350    -1.5280     1.5860 O.2   1 <1>  -0.5700 
 18 N       10.4650     0.0600    -0.0430 N.am  1 <1>  -0.5470 
 19 C       11.6780     0.7650    -0.0810 C.ar  1 <1>   0.1170 
 20 C       11.7550     1.9040    -0.8750 C.ar  1 <1>  -0.1500 
 21 C       12.8090     0.3810     0.6330 C.ar  1 <1>  -0.1500 
 22 C       12.9230     2.6400    -0.9490 C.ar  1 <1>  -0.1500 
 23 C       13.9800     1.1150     0.5630 C.ar  1 <1>  -0.1500 
 24 C       14.0430     2.2550    -0.2320 C.ar  1 <1>   0.0830 
 25 O       15.1490     3.0340    -0.3580 O.3   1 <1>  -0.3630 
 26 C       16.3340     2.7260     0.3400 C.3   1 <1>   0.0400 
 27 H        4.5360    -0.3280     1.5090 H     1 <1>   0.1500 
 28 H        0.6300     1.2740     1.9760 H     1 <1>   0.1500 
 29 H        1.0470     2.8450     0.1220 H     1 <1>   0.1500 
 30 H        6.0590     0.4730    -2.2970 H     1 <1>   0.0800 
 31 H        4.6530    -0.3750    -1.7260 H     1 <1>   0.0800 
 32 H        6.1340     2.4290     1.0030 H     1 <1>   0.0800 
 33 H        7.0480     2.3500    -0.4730 H     1 <1>   0.0800 
 34 H        3.5040     2.5720    -2.2790 H     1 <1>   0.0800 
 35 H        4.1270     3.7440    -1.1460 H     1 <1>   0.0800 
 36 H        2.4280     3.7430    -1.5540 H     1 <1>   0.0800 
 37 H        6.7550    -1.6940    -1.5060 H     1 <1>   0.0800 
 38 H        5.9280    -1.4750     0.0090 H     1 <1>   0.0800 
 39 H        6.8080     0.1980     1.6320 H     1 <1>   0.0800 
 40 H        8.2290     1.1080     1.2230 H     1 <1>   0.0800 
 41 H        8.6390    -2.2720    -0.2330 H     1 <1>   0.0800 
 42 H        8.1260    -1.7780     1.3530 H     1 <1>   0.0800 
 43 H        9.7260     0.4070    -0.6630 H     1 <1>   0.3700 
 44 H       10.8970     2.2190    -1.4400 H     1 <1>   0.1500 
 45 H       12.7830    -0.4970     1.2510 H     1 <1>   0.1500 
 46 H       12.9760     3.5210    -1.5640 H     1 <1>   0.1500 
 47 H       14.8270     0.7820     1.1320 H     1 <1>   0.1500 
 48 H       17.0690     3.4720     0.0960 H     1 <1>   0.0800 
 49 H       16.6800     1.7560     0.0300 H     1 <1>   0.0800 
 50 H       16.1320     2.7440     1.3970 H     1 <1>   0.0800 
@<TRIPOS>BOND
  1   1   2  1   
  2   2   3  ar  
  3   2   4  ar  
  4   3   5  ar  
  5   3  27  1   
  6   4   6  ar  
  7   4  28  1   
  8   5   7  1   
  9   5   8  ar  
 10   6   8  ar  
 11   6  29  1   
 12   7   9  1   
 13   7  10  1   
 14   8  11  1   
 15   9  12  1   
 16   9  30  1   
 17   9  31  1   
 18  10  13  1   
 19  10  32  1   
 20  10  33  1   
 21  11  34  1   
 22  11  35  1   
 23  11  36  1   
 24  12  14  1   
 25  12  37  1   
 26  12  38  1   
 27  13  14  1   
 28  13  39  1   
 29  13  40  1   
 30  14  15  1   
 31  15  16  1   
 32  15  41  1   
 33  15  42  1   
 34  16  17  2   
 35  16  18  am  
 36  18  19  1   
 37  18  43  1   
 38  19  20  ar  
 39  19  21  ar  
 40  20  22  ar  
 41  20  44  1   
 42  21  23  ar  
 43  21  45  1   
 44  22  24  ar  
 45  22  46  1   
 46  23  24  ar  
 47  23  47  1   
 48  24  25  1   
 49  25  26  1   
 50  26  48  1   
 51  26  49  1   
 52  26  50  1   
@<TRIPOS>SUBSTRUCTURE
  1 ****  13 GROUP 4 **** **** 0

# MOE 2024.06 (io_trps.svl 2023.06)
