@<TRIPOS>MOLECULE
NONAME
36 37 1 0 0 
SMALL
USER_CHARGES


@<TRIPOS>ATOM
  1 S       -0.2510     0.3360    -0.3030 S.3   1 <1>  -0.0800 
  2 C       -1.6140    -0.7020    -0.0530 C.2   1 <1>   0.4420 
  3 C        0.7640    -1.0700    -0.2010 C.2   1 <1>   0.1980 
  4 N       -1.2660    -1.9290     0.0840 N.2   1 <1>  -0.3380 
  5 N       -2.8500    -0.0920    -0.0220 N.am  1 <1>  -0.4940 
  6 N        0.0840    -2.1290    -0.0010 N.2   1 <1>  -0.3380 
  7 C        2.2890    -0.9040    -0.3520 C.3   1 <1>   0.1800 
  8 C       -4.1060    -0.6420     0.0460 C.2   1 <1>   0.5440 
  9 C        2.9680    -2.2960    -0.2210 C.3   1 <1>  -0.1600 
 10 C        2.8120     0.0410     0.7470 C.3   1 <1>  -0.2400 
 11 C        2.6020    -0.2930    -1.7310 C.3   1 <1>  -0.2400 
 12 O       -4.2580    -1.8370    -0.0910 O.2   1 <1>  -0.5700 
 13 C       -5.2500     0.2280     0.2430 C.ar  1 <1>   0.0860 
 14 C        4.5020    -2.3470    -0.3430 C.3   1 <1>  -0.2400 
 15 C       -5.1800     1.3740     1.0400 C.ar  1 <1>  -0.1500 
 16 C       -6.4720    -0.0520    -0.3700 C.ar  1 <1>  -0.1500 
 17 C       -6.2720     2.2080     1.1990 C.ar  1 <1>  -0.1500 
 18 C       -7.5670     0.7780    -0.2140 C.ar  1 <1>  -0.1500 
 19 C       -7.4680     1.9130     0.5690 C.ar  1 <1>  -0.1500 
 20 H       -2.8270     0.9200    -0.0990 H     1 <1>   0.3700 
 21 H        2.5540    -2.9470    -0.9730 H     1 <1>   0.0800 
 22 H        2.6970    -2.7180     0.7320 H     1 <1>   0.0800 
 23 H        2.3290     1.0000     0.6910 H     1 <1>   0.0800 
 24 H        2.6200    -0.3800     1.7180 H     1 <1>   0.0800 
 25 H        3.8690     0.2050     0.6460 H     1 <1>   0.0800 
 26 H        2.2620    -0.9500    -2.5120 H     1 <1>   0.0800 
 27 H        3.6570    -0.1320    -1.8530 H     1 <1>   0.0800 
 28 H        2.1140     0.6570    -1.8510 H     1 <1>   0.0800 
 29 H        4.8300    -1.9970    -1.3050 H     1 <1>   0.0800 
 30 H        4.8330    -3.3650    -0.2350 H     1 <1>   0.0800 
 31 H        4.9760    -1.7650     0.4260 H     1 <1>   0.0800 
 32 H       -4.2670     1.6140     1.5550 H     1 <1>   0.1500 
 33 H       -6.5570    -0.9380    -0.9780 H     1 <1>   0.1500 
 34 H       -6.1980     3.0870     1.8170 H     1 <1>   0.1500 
 35 H       -8.4970     0.5390    -0.7010 H     1 <1>   0.1500 
 36 H       -8.3190     2.5600     0.6920 H     1 <1>   0.1500 
@<TRIPOS>BOND
  1   1   2  1   
  2   1   3  1   
  3   2   4  2   
  4   2   5  1   
  5   3   6  2   
  6   3   7  1   
  7   4   6  1   
  8   5   8  am  
  9   5  20  1   
 10   7   9  1   
 11   7  10  1   
 12   7  11  1   
 13   8  12  2   
 14   8  13  1   
 15   9  14  1   
 16   9  21  1   
 17   9  22  1   
 18  10  23  1   
 19  10  24  1   
 20  10  25  1   
 21  11  26  1   
 22  11  27  1   
 23  11  28  1   
 24  13  15  ar  
 25  13  16  ar  
 26  14  29  1   
 27  14  30  1   
 28  14  31  1   
 29  15  17  ar  
 30  15  32  1   
 31  16  18  ar  
 32  16  33  1   
 33  17  19  ar  
 34  17  34  1   
 35  18  19  ar  
 36  18  35  1   
 37  19  36  1   
@<TRIPOS>SUBSTRUCTURE
  1 ****   2 GROUP 4 **** **** 0

# MOE 2024.06 (io_trps.svl 2023.06)
