@<TRIPOS>MOLECULE
NONAME
47 49 1 0 0 
SMALL
USER_CHARGES


@<TRIPOS>ATOM
  1 O       -0.4970    -1.5020     0.1430 O.co2 1 <1>  -0.9000 
  2 C        0.4360    -1.5030     0.9480 C.2   1 <1>   0.9060 
  3 O        0.4280    -0.7930     1.9590 O.co2 1 <1>  -0.9000 
  4 C        1.6840    -2.3290     0.6940 C.3   1 <1>  -0.1860 
  5 C        3.0000    -1.4930     0.0350 C.3   1 <1>  -0.0190 
  6 C        1.3850    -3.6270    -0.2670 C.3   1 <1>  -0.0800 
  7 C        3.0570     0.0460    -0.0360 C.2   1 <1>   0.5690 
  8 C        3.3280    -2.1950    -1.4160 C.3   1 <1>  -0.0800 
  9 C        2.3720    -2.9230    -0.8280 C.3   1 <1>  -0.1600 
 10 C        1.7570    -4.3330    -1.6940 C.3   1 <1>  -0.1600 
 11 O        3.9640     0.5180    -0.6860 O.2   1 <1>  -0.5700 
 12 N        2.1870     0.8570     0.6380 N.am  1 <1>  -0.5470 
 13 C        3.0530    -3.5060    -2.3490 C.3   1 <1>  -0.1600 
 14 C        2.2050     2.2600     0.6840 C.ar  1 <1>   0.1170 
 15 C        1.2810     3.0350    -0.0350 C.ar  1 <1>  -0.1440 
 16 C        3.1690     2.8990     1.4740 C.ar  1 <1>  -0.1440 
 17 C        1.3600     4.4190     0.0430 C.ar  1 <1>  -0.1500 
 18 C        0.1500     2.4640    -0.9070 C.3   1 <1>   0.0630 
 19 C        3.2250     4.2800     1.5290 C.ar  1 <1>  -0.1500 
 20 C        4.1750     2.0980     2.2930 C.3   1 <1>  -0.0970 
 21 C        2.3230     5.0420     0.8130 C.ar  1 <1>  -0.1500 
 22 C       -0.9970     1.9460    -0.0360 C.3   1 <1>  -0.2400 
 23 C        0.5930     1.4100    -1.9300 C.3   1 <1>  -0.2400 
 24 H        1.9750    -2.6810     1.6690 H     1 <1>   0.0800 
 25 H        3.8350    -1.7160     0.6820 H     1 <1>   0.0800 
 26 H        1.5800    -4.4380     0.4200 H     1 <1>   0.0800 
 27 H        3.0780    -1.4010    -2.1090 H     1 <1>   0.0800 
 28 H        1.5650    -2.2720    -1.3880 H     1 <1>   0.0800 
 29 H        3.1660    -3.5710    -0.2550 H     1 <1>   0.0800 
 30 H        0.9060    -4.2730    -2.3570 H     1 <1>   0.0800 
 31 H        1.9970    -5.3750    -1.5620 H     1 <1>   0.0800 
 32 H        1.4110     0.3990     1.1540 H     1 <1>   0.3700 
 33 H        3.9280    -4.1380    -2.3680 H     1 <1>   0.0800 
 34 H        2.8380    -3.2150    -3.3650 H     1 <1>   0.0800 
 35 H        0.6630     5.0320    -0.4970 H     1 <1>   0.1500 
 36 H       -0.2520     3.2740    -1.4900 H     1 <1>   0.0800 
 37 H        3.9690     4.7700     2.1290 H     1 <1>   0.1500 
 38 H        3.6660     1.3370     2.8580 H     1 <1>   0.0800 
 39 H        4.7080     2.7290     2.9800 H     1 <1>   0.0800 
 40 H        4.8830     1.6280     1.6360 H     1 <1>   0.0800 
 41 H        2.3690     6.1150     0.8580 H     1 <1>   0.1500 
 42 H       -0.6580     1.1400     0.5900 H     1 <1>   0.0800 
 43 H       -1.8000     1.5760    -0.6470 H     1 <1>   0.0800 
 44 H       -1.3680     2.7290     0.5980 H     1 <1>   0.0800 
 45 H        0.7020     0.4470    -1.4650 H     1 <1>   0.0800 
 46 H        1.5300     1.6930    -2.3750 H     1 <1>   0.0800 
 47 H       -0.1470     1.3120    -2.7010 H     1 <1>   0.0800 
@<TRIPOS>BOND
  1   1   2  ar  
  2   2   3  ar  
  3   2   4  1   
  4   4   5  1   
  5   4   6  1   
  6   4  24  1   
  7   5   7  1   
  8   5   8  1   
  9   5  25  1   
 10   6   9  1   
 11   6  10  1   
 12   6  26  1   
 13   7  11  2   
 14   7  12  am  
 15   8   9  1   
 16   8  13  1   
 17   8  27  1   
 18   9  28  1   
 19   9  29  1   
 20  10  13  1   
 21  10  30  1   
 22  10  31  1   
 23  12  14  1   
 24  12  32  1   
 25  13  33  1   
 26  13  34  1   
 27  14  15  ar  
 28  14  16  ar  
 29  15  17  ar  
 30  15  18  1   
 31  16  19  ar  
 32  16  20  1   
 33  17  21  ar  
 34  17  35  1   
 35  18  22  1   
 36  18  23  1   
 37  18  36  1   
 38  19  21  ar  
 39  19  37  1   
 40  20  38  1   
 41  20  39  1   
 42  20  40  1   
 43  21  41  1   
 44  22  42  1   
 45  22  43  1   
 46  22  44  1   
 47  23  45  1   
 48  23  46  1   
 49  23  47  1   
@<TRIPOS>SUBSTRUCTURE
  1 ****  12 GROUP 4 **** **** 0

# MOE 2024.06 (io_trps.svl 2023.06)
