@<TRIPOS>MOLECULE
NONAME
59 62 1 0 0 
SMALL
USER_CHARGES


@<TRIPOS>ATOM
  1 N        0.0460     0.1920    -0.2080 N.pl3 1 <1>  -0.8380 
  2 C       -1.1650    -0.4850    -0.1210 C.ar  1 <1>   0.1000 
  3 C        1.2690    -0.6200     0.0120 C.3   1 <1>   0.2090 
  4 C        0.0860     1.5460     0.4000 C.3   1 <1>   0.2090 
  5 C       -1.6470    -0.9640     1.0930 C.ar  1 <1>  -0.1500 
  6 C       -1.9190    -0.6920    -1.2680 C.ar  1 <1>  -0.1500 
  7 C        2.5170     0.1590    -0.4540 C.3   1 <1>   0.3430 
  8 C        1.3450     2.3040    -0.0700 C.3   1 <1>   0.3430 
  9 C       -2.8540    -1.6350     1.1560 C.ar  1 <1>  -0.1500 
 10 C       -3.1260    -1.3630    -1.2090 C.ar  1 <1>  -0.1500 
 11 N        2.6440     1.5430     0.1740 N.4   1 <1>  -0.9590 
 12 C       -3.5960    -1.8360     0.0050 C.ar  1 <1>  -0.1500 
 13 C        3.8600     2.2920    -0.2940 C.3   1 <1>   0.4230 
 14 C        5.1400     1.4920    -0.0010 C.3   1 <1>  -0.1600 
 15 C        3.9510     3.6660     0.3900 C.3   1 <1>  -0.1600 
 16 C        6.4020     2.2700    -0.3780 C.3   1 <1>   0.3430 
 17 C        5.2290     4.4130     0.0040 C.3   1 <1>   0.3430 
 18 N        6.4260     3.5870     0.3210 N.4   1 <1>  -0.9590 
 19 C        7.6660     4.3680    -0.0160 C.3   1 <1>   0.3430 
 20 C        8.9320     3.7480     0.5800 C.3   1 <1>  -0.0170 
 21 C       10.0960     4.6680     0.2720 C.ar  1 <1>  -0.1430 
 22 C       10.4340     5.6850     1.1520 C.ar  1 <1>  -0.1500 
 23 C       10.8230     4.5090    -0.8990 C.ar  1 <1>  -0.1500 
 24 C       11.4840     6.5390     0.8610 C.ar  1 <1>  -0.1500 
 25 C       11.8720     5.3640    -1.1890 C.ar  1 <1>  -0.1500 
 26 C       12.2020     6.3800    -0.3100 C.ar  1 <1>  -0.1500 
 27 H        1.1880    -1.5370    -0.5480 H     1 <1>   0.0800 
 28 H        1.3550    -0.8770     1.0540 H     1 <1>   0.0800 
 29 H        0.0760     1.4660     1.4730 H     1 <1>   0.0800 
 30 H       -0.7950     2.0910     0.1010 H     1 <1>   0.0800 
 31 H       -1.0790    -0.8140     1.9910 H     1 <1>   0.1500 
 32 H       -1.5530    -0.3250    -2.2080 H     1 <1>   0.1500 
 33 H        2.4600     0.2540    -1.5260 H     1 <1>   0.0800 
 34 H        3.3830    -0.4360    -0.2210 H     1 <1>   0.0800 
 35 H        1.3670     3.2530     0.4390 H     1 <1>   0.0800 
 36 H        1.2340     2.4980    -1.1240 H     1 <1>   0.0800 
 37 H       -3.2210    -2.0030     2.0990 H     1 <1>   0.1500 
 38 H       -3.7020    -1.5180    -2.1050 H     1 <1>   0.1500 
 39 H        2.7050     1.3950     1.1900 H     1 <1>   0.4500 
 40 H       -4.5360    -2.3580     0.0520 H     1 <1>   0.1500 
 41 H        3.7860     2.4430    -1.3610 H     1 <1>   0.0800 
 42 H        5.1530     0.5850    -0.5760 H     1 <1>   0.0800 
 43 H        5.1910     1.2310     1.0420 H     1 <1>   0.0800 
 44 H        3.9200     3.5580     1.4600 H     1 <1>   0.0800 
 45 H        3.1280     4.2880     0.0890 H     1 <1>   0.0800 
 46 H        6.4300     2.4260    -1.4460 H     1 <1>   0.0800 
 47 H        7.2710     1.6910    -0.1050 H     1 <1>   0.0800 
 48 H        5.2750     5.3480     0.5430 H     1 <1>   0.0800 
 49 H        5.2140     4.6410    -1.0510 H     1 <1>   0.0800 
 50 H        6.4540     3.4280     1.3410 H     1 <1>   0.4500 
 51 H        7.5780     5.3710     0.3720 H     1 <1>   0.0800 
 52 H        7.7800     4.4450    -1.0860 H     1 <1>   0.0800 
 53 H        9.1300     2.7810     0.1540 H     1 <1>   0.0800 
 54 H        8.8360     3.6450     1.6460 H     1 <1>   0.0800 
 55 H        9.8940     5.8250     2.0720 H     1 <1>   0.1500 
 56 H       10.5900     3.7240    -1.5960 H     1 <1>   0.1500 
 57 H       11.7450     7.3270     1.5460 H     1 <1>   0.1500 
 58 H       12.4370     5.2390    -2.0970 H     1 <1>   0.1500 
 59 H       13.0190     7.0440    -0.5350 H     1 <1>   0.1500 
@<TRIPOS>BOND
  1   1   2  1   
  2   1   3  1   
  3   1   4  1   
  4   2   5  ar  
  5   2   6  ar  
  6   3   7  1   
  7   3  27  1   
  8   3  28  1   
  9   4   8  1   
 10   4  29  1   
 11   4  30  1   
 12   5   9  ar  
 13   5  31  1   
 14   6  10  ar  
 15   6  32  1   
 16   7  11  1   
 17   7  33  1   
 18   7  34  1   
 19   8  11  1   
 20   8  35  1   
 21   8  36  1   
 22   9  12  ar  
 23   9  37  1   
 24  10  12  ar  
 25  10  38  1   
 26  11  13  1   
 27  11  39  1   
 28  12  40  1   
 29  13  14  1   
 30  13  15  1   
 31  13  41  1   
 32  14  16  1   
 33  14  42  1   
 34  14  43  1   
 35  15  17  1   
 36  15  44  1   
 37  15  45  1   
 38  16  18  1   
 39  16  46  1   
 40  16  47  1   
 41  17  18  1   
 42  17  48  1   
 43  17  49  1   
 44  18  19  1   
 45  18  50  1   
 46  19  20  1   
 47  19  51  1   
 48  19  52  1   
 49  20  21  1   
 50  20  53  1   
 51  20  54  1   
 52  21  22  ar  
 53  21  23  ar  
 54  22  24  ar  
 55  22  55  1   
 56  23  25  ar  
 57  23  56  1   
 58  24  26  ar  
 59  24  57  1   
 60  25  26  ar  
 61  25  58  1   
 62  26  59  1   
@<TRIPOS>SUBSTRUCTURE
  1 ****  13 GROUP 4 **** **** 0

# MOE 2024.06 (io_trps.svl 2023.06)
