@<TRIPOS>MOLECULE
NONAME
42 44 1 0 0 
SMALL
USER_CHARGES


@<TRIPOS>ATOM
  1 O       -0.5710    -2.9150    -1.4260 O.2   1 <1>  -0.5700 
  2 C       -0.8870    -3.3830    -0.3560 C.2   1 <1>   0.6340 
  3 O       -0.0770    -3.2100     0.6920 O.3   1 <1>  -0.4300 
  4 C       -2.1150    -4.1300    -0.1480 C.ar  1 <1>   0.0860 
  5 C        1.1810    -2.5900     0.7250 C.3   1 <1>   0.5600 
  6 C       -3.0560    -4.2590    -1.1730 C.ar  1 <1>  -0.1500 
  7 C       -2.4130    -4.7490     1.0690 C.ar  1 <1>  -0.1500 
  8 O        1.3560    -2.4010     2.0680 O.3   1 <1>  -0.6800 
  9 C        2.3240    -3.5150     0.2530 C.3   1 <1>  -0.0800 
 10 C        1.2400    -1.1920     0.0920 C.3   1 <1>  -0.1600 
 11 C       -4.2310    -4.9650    -0.9950 C.ar  1 <1>  -0.1500 
 12 C       -3.5870    -5.4560     1.2540 C.ar  1 <1>  -0.1500 
 13 C        3.6450    -2.8040     0.5840 C.3   1 <1>   0.4230 
 14 C        2.2660    -3.9490    -1.2410 C.3   1 <1>  -0.1600 
 15 C        2.6250    -0.5800     0.2950 C.3   1 <1>   0.3430 
 16 C       -4.4990    -5.5660     0.2210 C.ar  1 <1>  -0.1500 
 17 N        3.6880    -1.5240    -0.1620 N.4   1 <1>  -0.9060 
 18 C        4.8840    -3.6530     0.2450 C.3   1 <1>  -0.1600 
 19 C        3.6230    -4.3600    -1.8420 C.3   1 <1>  -0.1600 
 20 C        4.6270    -4.7820    -0.7690 C.3   1 <1>  -0.1600 
 21 H       -2.8630    -3.7990    -2.1280 H     1 <1>   0.1500 
 22 H       -1.7200    -4.6830     1.8890 H     1 <1>   0.1500 
 23 H        0.4680    -2.2800     2.4590 H     1 <1>   0.4000 
 24 H        2.2830    -4.4080     0.8520 H     1 <1>   0.0800 
 25 H        0.4920    -0.5570     0.5330 H     1 <1>   0.0800 
 26 H        1.0570    -1.2230    -0.9640 H     1 <1>   0.0800 
 27 H       -4.9390    -5.0490    -1.8030 H     1 <1>   0.1500 
 28 H       -3.7940    -5.9250     2.2010 H     1 <1>   0.1500 
 29 H        3.6700    -2.5880     1.6420 H     1 <1>   0.0800 
 30 H        1.8690    -3.1680    -1.8630 H     1 <1>   0.0800 
 31 H        1.5860    -4.7820    -1.3210 H     1 <1>   0.0800 
 32 H        2.7630    -0.3660     1.3440 H     1 <1>   0.0800 
 33 H        2.6930     0.3490    -0.2490 H     1 <1>   0.0800 
 34 H       -5.4140    -6.1160     0.3620 H     1 <1>   0.1500 
 35 H        3.5700    -1.7440    -1.1580 H     1 <1>   0.4500 
 36 H        4.6140    -1.0990    -0.0460 H     1 <1>   0.4500 
 37 H        5.2290    -4.1150     1.1540 H     1 <1>   0.0800 
 38 H        5.6840    -3.0260    -0.1060 H     1 <1>   0.0800 
 39 H        4.0370    -3.5410    -2.4050 H     1 <1>   0.0800 
 40 H        3.4730    -5.1720    -2.5350 H     1 <1>   0.0800 
 41 H        4.2380    -5.6470    -0.2550 H     1 <1>   0.0800 
 42 H        5.5560    -5.0780    -1.2290 H     1 <1>   0.0800 
@<TRIPOS>BOND
  1   1   2  2   
  2   2   3  1   
  3   2   4  1   
  4   3   5  1   
  5   4   6  ar  
  6   4   7  ar  
  7   5   8  1   
  8   5   9  1   
  9   5  10  1   
 10   6  11  ar  
 11   6  21  1   
 12   7  12  ar  
 13   7  22  1   
 14   8  23  1   
 15   9  13  1   
 16   9  14  1   
 17   9  24  1   
 18  10  15  1   
 19  10  25  1   
 20  10  26  1   
 21  11  16  ar  
 22  11  27  1   
 23  12  16  ar  
 24  12  28  1   
 25  13  17  1   
 26  13  18  1   
 27  13  29  1   
 28  14  19  1   
 29  14  30  1   
 30  14  31  1   
 31  15  17  1   
 32  15  32  1   
 33  15  33  1   
 34  16  34  1   
 35  17  35  1   
 36  17  36  1   
 37  18  20  1   
 38  18  37  1   
 39  18  38  1   
 40  19  20  1   
 41  19  39  1   
 42  19  40  1   
 43  20  41  1   
 44  20  42  1   
@<TRIPOS>SUBSTRUCTURE
  1 ****   3 GROUP 4 **** **** 0

# MOE 2024.06 (io_trps.svl 2023.06)
