@<TRIPOS>MOLECULE
NONAME
32 34 1 0 0 
SMALL
USER_CHARGES


@<TRIPOS>ATOM
  1 O       -0.2890     0.0750    -0.3640 O.2   1 <1>  -0.5700 
  2 C       -0.7520     1.1730    -0.1190 C.2   1 <1>   0.6900 
  3 N       -2.0900     1.3080     0.1580 N.am  1 <1>  -0.6600 
  4 N        0.0370     2.2870    -0.1400 N.am  1 <1>  -0.5470 
  5 C       -3.0160     0.1420     0.0360 C.3   1 <1>   0.1400 
  6 C       -2.7170     2.4820     0.8350 C.3   1 <1>   0.1400 
  7 C        1.4300     2.4210    -0.2440 C.ar  1 <1>   0.1170 
  8 C       -4.3800     0.5820    -0.5200 C.3   1 <1>   0.1200 
  9 C       -4.0940     2.7900     0.2220 C.3   1 <1>   0.1200 
 10 C        2.3080     1.4330     0.2040 C.ar  1 <1>  -0.1500 
 11 C        1.9520     3.5970    -0.7940 C.ar  1 <1>  -0.1500 
 12 O       -4.9010     1.6480     0.2250 O.3   1 <1>  -0.5600 
 13 C        3.6640     1.6510     0.0850 C.ar  1 <1>   0.0820 
 14 C        3.3210     3.8010    -0.9060 C.ar  1 <1>  -0.1500 
 15 O        4.6700     0.8460     0.4480 O.3   1 <1>  -0.3630 
 16 C        4.1580     2.8020    -0.4540 C.ar  1 <1>   0.0820 
 17 C        5.8780     1.5220     0.1080 C.3   1 <1>   0.4000 
 18 O        5.4980     2.7750    -0.4590 O.3   1 <1>  -0.3630 
 19 H       -0.4920     3.1450    -0.2060 H     1 <1>   0.3700 
 20 H       -3.1530    -0.3050     1.0050 H     1 <1>   0.0800 
 21 H       -2.5970    -0.6050    -0.6160 H     1 <1>   0.0800 
 22 H       -2.0940     3.3540     0.7600 H     1 <1>   0.0800 
 23 H       -2.8440     2.2560     1.8800 H     1 <1>   0.0800 
 24 H       -5.0820    -0.2310    -0.4650 H     1 <1>   0.0800 
 25 H       -4.2870     0.8900    -1.5460 H     1 <1>   0.0800 
 26 H       -3.9910     3.1370    -0.7920 H     1 <1>   0.0800 
 27 H       -4.5970     3.5470     0.7970 H     1 <1>   0.0800 
 28 H        1.9480     0.5170     0.6350 H     1 <1>   0.1500 
 29 H        1.2810     4.3610    -1.1420 H     1 <1>   0.1500 
 30 H        3.7300     4.7000    -1.3300 H     1 <1>   0.1500 
 31 H        6.4180     0.9460    -0.6220 H     1 <1>   0.0800 
 32 H        6.4600     1.6890     0.9960 H     1 <1>   0.0800 
@<TRIPOS>BOND
  1   1   2  2   
  2   2   3  am  
  3   2   4  am  
  4   3   5  1   
  5   3   6  1   
  6   4   7  1   
  7   4  19  1   
  8   5   8  1   
  9   5  20  1   
 10   5  21  1   
 11   6   9  1   
 12   6  22  1   
 13   6  23  1   
 14   7  10  ar  
 15   7  11  ar  
 16   8  12  1   
 17   8  24  1   
 18   8  25  1   
 19   9  12  1   
 20   9  26  1   
 21   9  27  1   
 22  10  13  ar  
 23  10  28  1   
 24  11  14  ar  
 25  11  29  1   
 26  13  15  1   
 27  13  16  ar  
 28  14  16  ar  
 29  14  30  1   
 30  15  17  1   
 31  16  18  1   
 32  17  18  1   
 33  17  31  1   
 34  17  32  1   
@<TRIPOS>SUBSTRUCTURE
  1 ****   4 GROUP 4 **** **** 0

# MOE 2024.06 (io_trps.svl 2023.06)
