@<TRIPOS>MOLECULE
NONAME
36 36 1 0 0 
SMALL
USER_CHARGES


@<TRIPOS>ATOM
  1 O       -0.6810    -0.2850    -1.2890 O.2   1 <1>  -0.5700 
  2 C       -0.9320    -1.2940    -0.6760 C.2   1 <1>   0.5690 
  3 N        0.0140    -2.1900    -0.2680 N.am  1 <1>  -0.5470 
  4 C       -2.3930    -1.5910    -0.3290 C.3   1 <1>  -0.0190 
  5 C        1.4160    -2.2540    -0.3950 C.ar  1 <1>   0.1170 
  6 C       -2.6290    -1.6370     1.1910 C.3   1 <1>  -0.2400 
  7 C       -2.8880    -2.8950    -0.9810 C.3   1 <1>  -0.2400 
  8 C        2.0850    -3.3180     0.2200 C.ar  1 <1>   0.0820 
  9 C        2.1610    -1.3170    -1.1010 C.ar  1 <1>  -0.1500 
 10 O        1.3180    -4.2240     0.9020 O.3   1 <1>  -0.3620 
 11 C        3.4680    -3.4220     0.1250 C.ar  1 <1>  -0.1500 
 12 C        3.5360    -1.4280    -1.1910 C.ar  1 <1>  -0.1500 
 13 C        1.9020    -5.3120     1.5860 C.3   1 <1>   0.0400 
 14 C        4.2030    -2.4760    -0.5740 C.ar  1 <1>   0.1170 
 15 N        5.5960    -2.5990    -0.6560 N.am  1 <1>  -0.5470 
 16 C        6.5750    -1.7210    -0.3210 C.2   1 <1>   0.5690 
 17 O        7.7280    -2.0150    -0.4930 O.2   1 <1>  -0.5700 
 18 C        6.2430    -0.3780     0.2860 C.3   1 <1>  -0.1790 
 19 H       -0.3500    -2.9860     0.2580 H     1 <1>   0.3700 
 20 H       -2.9820    -0.7830    -0.7280 H     1 <1>   0.0800 
 21 H       -2.0940    -2.4530     1.6420 H     1 <1>   0.0800 
 22 H       -3.6770    -1.7540     1.4020 H     1 <1>   0.0800 
 23 H       -2.2940    -0.7170     1.6390 H     1 <1>   0.0800 
 24 H       -2.3580    -3.7470    -0.5920 H     1 <1>   0.0800 
 25 H       -2.7340    -2.8520    -2.0450 H     1 <1>   0.0800 
 26 H       -3.9390    -3.0290    -0.7950 H     1 <1>   0.0800 
 27 H        1.6740    -0.4940    -1.5910 H     1 <1>   0.1500 
 28 H        4.0010    -4.2270     0.5910 H     1 <1>   0.1500 
 29 H        4.0910    -0.6980    -1.7520 H     1 <1>   0.1500 
 30 H        1.1150    -5.8740     2.0550 H     1 <1>   0.0800 
 31 H        2.5760    -4.9340     2.3350 H     1 <1>   0.0800 
 32 H        2.4200    -5.9340     0.8780 H     1 <1>   0.0800 
 33 H        5.9630    -3.4920    -0.9850 H     1 <1>   0.3700 
 34 H        5.4340    -0.4730     0.9850 H     1 <1>   0.0800 
 35 H        5.9700     0.3120    -0.4900 H     1 <1>   0.0800 
 36 H        7.1040     0.0050     0.8030 H     1 <1>   0.0800 
@<TRIPOS>BOND
  1   1   2  2   
  2   2   3  am  
  3   2   4  1   
  4   3   5  1   
  5   3  19  1   
  6   4   6  1   
  7   4   7  1   
  8   4  20  1   
  9   5   8  ar  
 10   5   9  ar  
 11   6  21  1   
 12   6  22  1   
 13   6  23  1   
 14   7  24  1   
 15   7  25  1   
 16   7  26  1   
 17   8  10  1   
 18   8  11  ar  
 19   9  12  ar  
 20   9  27  1   
 21  10  13  1   
 22  11  14  ar  
 23  11  28  1   
 24  12  14  ar  
 25  12  29  1   
 26  13  30  1   
 27  13  31  1   
 28  13  32  1   
 29  14  15  1   
 30  15  16  am  
 31  15  33  1   
 32  16  17  2   
 33  16  18  1   
 34  18  34  1   
 35  18  35  1   
 36  18  36  1   
@<TRIPOS>SUBSTRUCTURE
  1 ****   5 GROUP 4 **** **** 0

# MOE 2024.06 (io_trps.svl 2023.06)
