@<TRIPOS>MOLECULE
NONAME
37 37 1 0 0 
SMALL
USER_CHARGES


@<TRIPOS>ATOM
  1 P       -0.5000     0.1290     0.2670 P.3   1 <1>   1.3490 
  2 O       -1.1230     0.2300     1.5920 O.2   1 <1>  -0.7000 
  3 O       -0.1560     1.5890    -0.3140 O.3   1 <1>  -0.5510 
  4 O       -1.4850    -0.4380    -0.8770 O.3   1 <1>  -0.5510 
  5 C        1.0670    -0.7970     0.1850 C.2   1 <1>   0.3770 
  6 C       -1.1350     2.5520    -0.4330 C.3   1 <1>   0.2000 
  7 C       -2.5000    -1.3700    -0.7150 C.3   1 <1>   0.2000 
  8 O        1.1310    -2.0010     0.0470 O.2   1 <1>  -0.5700 
  9 C        2.3110    -0.0730     0.3240 C.ar  1 <1>   0.0860 
 10 C       -0.8000     3.3700    -1.6760 C.3   1 <1>  -0.2400 
 11 C       -1.1150     3.4210     0.8230 C.3   1 <1>  -0.2400 
 12 C       -3.6910    -0.7210    -0.0100 C.3   1 <1>  -0.2400 
 13 C       -2.0070    -2.6320    -0.0070 C.3   1 <1>  -0.2400 
 14 C        3.4390    -0.4590    -0.4030 C.ar  1 <1>  -0.1500 
 15 C        2.4540     1.0210     1.1830 C.ar  1 <1>  -0.1500 
 16 C        4.6400     0.2170    -0.2980 C.ar  1 <1>  -0.1500 
 17 C        3.6520     1.7030     1.2920 C.ar  1 <1>  -0.1500 
 18 C        4.7480     1.3040     0.5500 C.ar  1 <1>  -0.1500 
 19 H       -2.0960     2.0760    -0.5570 H     1 <1>   0.0800 
 20 H       -2.8100    -1.6410    -1.7100 H     1 <1>   0.0800 
 21 H        0.1680     3.8270    -1.5760 H     1 <1>   0.0800 
 22 H       -1.5340     4.1430    -1.8160 H     1 <1>   0.0800 
 23 H       -0.8080     2.7360    -2.5440 H     1 <1>   0.0800 
 24 H       -0.1410     3.8550     0.9640 H     1 <1>   0.0800 
 25 H       -1.3760     2.8400     1.6890 H     1 <1>   0.0800 
 26 H       -1.8330     4.2150     0.7280 H     1 <1>   0.0800 
 27 H       -3.4700    -0.5050     1.0190 H     1 <1>   0.0800 
 28 H       -4.5290    -1.3930    -0.0310 H     1 <1>   0.0800 
 29 H       -3.9730     0.1840    -0.5160 H     1 <1>   0.0800 
 30 H       -1.7130    -2.4300     1.0080 H     1 <1>   0.0800 
 31 H       -1.1840    -3.0650    -0.5460 H     1 <1>   0.0800 
 32 H       -2.7990    -3.3580     0.0210 H     1 <1>   0.0800 
 33 H        3.3690    -1.3080    -1.0630 H     1 <1>   0.1500 
 34 H        1.6240     1.3520     1.7850 H     1 <1>   0.1500 
 35 H        5.4910    -0.1020    -0.8740 H     1 <1>   0.1500 
 36 H        3.7340     2.5460     1.9580 H     1 <1>   0.1500 
 37 H        5.6810     1.8340     0.6340 H     1 <1>   0.1500 
@<TRIPOS>BOND
  1   1   2  2   
  2   1   3  1   
  3   1   4  1   
  4   1   5  1   
  5   3   6  1   
  6   4   7  1   
  7   5   8  2   
  8   5   9  1   
  9   6  10  1   
 10   6  11  1   
 11   6  19  1   
 12   7  12  1   
 13   7  13  1   
 14   7  20  1   
 15   9  14  ar  
 16   9  15  ar  
 17  10  21  1   
 18  10  22  1   
 19  10  23  1   
 20  11  24  1   
 21  11  25  1   
 22  11  26  1   
 23  12  27  1   
 24  12  28  1   
 25  12  29  1   
 26  13  30  1   
 27  13  31  1   
 28  13  32  1   
 29  14  16  ar  
 30  14  33  1   
 31  15  17  ar  
 32  15  34  1   
 33  16  18  ar  
 34  16  35  1   
 35  17  18  ar  
 36  17  36  1   
 37  18  37  1   
@<TRIPOS>SUBSTRUCTURE
  1 ****   1 GROUP 4 **** **** 0

# MOE 2024.06 (io_trps.svl 2023.06)
