@<TRIPOS>MOLECULE
NONAME
36 37 1 0 0 
SMALL
USER_CHARGES


@<TRIPOS>ATOM
  1 CL      -3.0140     3.1180     2.7450 Cl    1 <1>  -0.1770 
  2 C       -2.9940     2.1500     1.2890 C.ar  1 <1>   0.1770 
  3 C       -1.9790     2.2910     0.3560 C.ar  1 <1>   0.1770 
  4 C       -4.0110     1.2360     1.0810 C.ar  1 <1>  -0.1500 
  5 CL      -0.6860     3.4400     0.6050 Cl    1 <1>  -0.1770 
  6 C       -1.9760     1.5200    -0.7920 C.ar  1 <1>  -0.1500 
  7 C       -4.0160     0.4550    -0.0670 C.ar  1 <1>  -0.1440 
  8 C       -2.9960     0.6050    -1.0010 C.ar  1 <1>  -0.1500 
  9 C       -5.1340    -0.5490    -0.2920 C.3   1 <1>   0.3530 
 10 N       -6.3840     0.2010    -0.5370 N.pl3 1 <1>  -0.8690 
 11 C       -7.6760    -0.1910    -0.2970 C.2   1 <1>  -0.0380 
 12 C       -8.7290     0.6470    -0.4630 C.2   1 <1>  -0.1360 
 13 C       -7.9220    -1.6200     0.1870 C.3   1 <1>  -0.0220 
 14 C      -10.0800     0.3220    -0.2020 C.2   1 <1>   0.4950 
 15 C       -9.3630    -2.1170    -0.0900 C.3   1 <1>   0.0000 
 16 O      -10.9970     1.0890    -0.3800 O.2   1 <1>  -0.5700 
 17 C      -10.3910    -1.0550     0.3560 C.3   1 <1>  -0.0990 
 18 C       -9.5360    -2.4110    -1.5930 C.3   1 <1>  -0.2400 
 19 C       -9.6140    -3.4230     0.6820 C.3   1 <1>  -0.2400 
 20 H       -4.7960     1.1420     1.8120 H     1 <1>   0.1500 
 21 H       -1.1850     1.6390    -1.5110 H     1 <1>   0.1500 
 22 H       -2.9920     0.0090    -1.8990 H     1 <1>   0.1500 
 23 H       -5.2410    -1.1740     0.5770 H     1 <1>   0.0800 
 24 H       -4.9200    -1.1720    -1.1440 H     1 <1>   0.0800 
 25 H       -6.1970     1.1530    -0.8770 H     1 <1>   0.4000 
 26 H       -8.5700     1.6490    -0.8130 H     1 <1>   0.1500 
 27 H       -7.7240    -1.6480     1.2440 H     1 <1>   0.0800 
 28 H       -7.2340    -2.2930    -0.2930 H     1 <1>   0.0800 
 29 H      -11.3790    -1.3420     0.0460 H     1 <1>   0.0800 
 30 H      -10.3950    -0.9740     1.4270 H     1 <1>   0.0800 
 31 H       -9.3490    -1.5340    -2.1870 H     1 <1>   0.0800 
 32 H      -10.5350    -2.7490    -1.8010 H     1 <1>   0.0800 
 33 H       -8.8500    -3.1770    -1.9100 H     1 <1>   0.0800 
 34 H       -9.5100    -3.2660     1.7410 H     1 <1>   0.0800 
 35 H       -8.9130    -4.1810     0.3820 H     1 <1>   0.0800 
 36 H      -10.6080    -3.7880     0.4920 H     1 <1>   0.0800 
@<TRIPOS>BOND
  1   1   2  1   
  2   2   3  ar  
  3   2   4  ar  
  4   3   5  1   
  5   3   6  ar  
  6   4   7  ar  
  7   4  20  1   
  8   6   8  ar  
  9   6  21  1   
 10   7   8  ar  
 11   7   9  1   
 12   8  22  1   
 13   9  10  1   
 14   9  23  1   
 15   9  24  1   
 16  10  11  1   
 17  10  25  1   
 18  11  12  2   
 19  11  13  1   
 20  12  14  1   
 21  12  26  1   
 22  13  15  1   
 23  13  27  1   
 24  13  28  1   
 25  14  16  2   
 26  14  17  1   
 27  15  17  1   
 28  15  18  1   
 29  15  19  1   
 30  17  29  1   
 31  17  30  1   
 32  18  31  1   
 33  18  32  1   
 34  18  33  1   
 35  19  34  1   
 36  19  35  1   
 37  19  36  1   
@<TRIPOS>SUBSTRUCTURE
  1 ****  10 GROUP 4 **** **** 0

# MOE 2024.06 (io_trps.svl 2023.06)
