@<TRIPOS>MOLECULE
NONAME
39 40 1 0 0 
SMALL
USER_CHARGES


@<TRIPOS>ATOM
  1 S       -0.0940    -0.3100     0.8120 S.o2  1 <1>   1.4470 
  2 O        0.2220    -1.2210     1.8890 O.2   1 <1>  -0.6500 
  3 O       -0.1230     1.1140     1.0520 O.2   1 <1>  -0.6500 
  4 N        1.0820    -0.4760    -0.3720 N.am  1 <1>  -0.9140 
  5 C       -1.6070    -0.8430    -0.0330 C.ar  1 <1>  -0.0090 
  6 C        2.4290    -0.5550     0.1520 C.3   1 <1>   0.2760 
  7 C       -2.7340    -0.0300    -0.0790 C.ar  1 <1>  -0.1500 
  8 C       -1.6760    -2.0860    -0.6520 C.ar  1 <1>  -0.1500 
  9 C        3.3160     0.3330    -0.7340 C.3   1 <1>  -0.1600 
 10 C        2.8340    -2.0370     0.1500 C.3   1 <1>  -0.1600 
 11 C       -3.8890    -0.4400    -0.7230 C.ar  1 <1>  -0.1500 
 12 C       -2.8270    -2.5050    -1.2980 C.ar  1 <1>  -0.1500 
 13 C        4.5780     0.8640    -0.0240 C.3   1 <1>  -0.1600 
 14 C        4.2110    -2.3470     0.7600 C.3   1 <1>  -0.1600 
 15 C       -3.9360    -1.6800    -1.3340 C.ar  1 <1>  -0.1500 
 16 C        5.8930     0.2900    -0.5730 C.3   1 <1>  -0.1600 
 17 C        5.3850    -2.2270    -0.2300 C.3   1 <1>  -0.1600 
 18 C        6.3240    -1.0450     0.0500 C.3   1 <1>  -0.1600 
 19 H        1.0240     0.4160    -0.8550 H     1 <1>   0.4200 
 20 H        2.4520    -0.1700     1.1610 H     1 <1>   0.0800 
 21 H       -2.7090     0.9370     0.3950 H     1 <1>   0.1500 
 22 H       -0.8160    -2.7340    -0.6260 H     1 <1>   0.1500 
 23 H        2.7490     1.2010    -1.0230 H     1 <1>   0.0800 
 24 H        3.5700    -0.1910    -1.6380 H     1 <1>   0.0800 
 25 H        2.7790    -2.4280    -0.8510 H     1 <1>   0.0800 
 26 H        2.1080    -2.5710     0.7370 H     1 <1>   0.0800 
 27 H       -4.7510     0.2050    -0.7480 H     1 <1>   0.1500 
 28 H       -2.8590    -3.4710    -1.7720 H     1 <1>   0.1500 
 29 H        4.5260     0.7150     1.0410 H     1 <1>   0.0800 
 30 H        4.6100     1.9290    -0.1800 H     1 <1>   0.0800 
 31 H        4.1810    -3.3710     1.0920 H     1 <1>   0.0800 
 32 H        4.3720    -1.7490     1.6400 H     1 <1>   0.0800 
 33 H       -4.8330    -2.0010    -1.8360 H     1 <1>   0.1500 
 34 H        6.6720     1.0030    -0.3620 H     1 <1>   0.0800 
 35 H        5.8420     0.1980    -1.6440 H     1 <1>   0.0800 
 36 H        5.0420    -2.1990    -1.2500 H     1 <1>   0.0800 
 37 H        5.9730    -3.1240    -0.1330 H     1 <1>   0.0800 
 38 H        6.4670    -0.9270     1.1100 H     1 <1>   0.0800 
 39 H        7.2870    -1.2890    -0.3650 H     1 <1>   0.0800 
@<TRIPOS>BOND
  1   1   2  2   
  2   1   3  2   
  3   1   4  am  
  4   1   5  1   
  5   4   6  1   
  6   4  19  1   
  7   5   7  ar  
  8   5   8  ar  
  9   6   9  1   
 10   6  10  1   
 11   6  20  1   
 12   7  11  ar  
 13   7  21  1   
 14   8  12  ar  
 15   8  22  1   
 16   9  13  1   
 17   9  23  1   
 18   9  24  1   
 19  10  14  1   
 20  10  25  1   
 21  10  26  1   
 22  11  15  ar  
 23  11  27  1   
 24  12  15  ar  
 25  12  28  1   
 26  13  16  1   
 27  13  29  1   
 28  13  30  1   
 29  14  17  1   
 30  14  31  1   
 31  14  32  1   
 32  15  33  1   
 33  16  18  1   
 34  16  34  1   
 35  16  35  1   
 36  17  18  1   
 37  17  36  1   
 38  17  37  1   
 39  18  38  1   
 40  18  39  1   
@<TRIPOS>SUBSTRUCTURE
  1 ****   4 GROUP 4 **** **** 0

# MOE 2024.06 (io_trps.svl 2023.06)
