@<TRIPOS>MOLECULE
NONAME
25 25 1 0 0 
SMALL
USER_CHARGES


@<TRIPOS>ATOM
  1 S       -0.0690    -0.1840     0.1130 S.3   1 <1>  -0.0800 
  2 C        1.2220     0.9910    -0.0370 C.2   1 <1>   0.1240 
  3 C       -1.3480     1.0600     0.0650 C.2   1 <1>  -0.0450 
  4 N        2.5250     0.5480    -0.0550 N.pl3 1 <1>  -0.8530 
  5 C        0.6910     2.2400    -0.1160 C.2   1 <1>   0.0190 
  6 C       -0.7370     2.2890    -0.0610 C.2   1 <1>   0.0830 
  7 C       -2.6880     0.6100     0.1580 C.2   1 <1>   0.5940 
  8 C        2.9490    -0.8600     0.0420 C.3   1 <1>   0.2090 
  9 C        1.4850     3.4180    -0.2460 C.1   1 <1>   0.5380 
 10 N       -1.4050     3.5010    -0.1320 N.pl3 1 <1>  -0.8830 
 11 O       -3.0050    -0.5570     0.2660 O.2   1 <1>  -0.5700 
 12 C       -3.8390     1.5930     0.1260 C.3   1 <1>  -0.1790 
 13 C        4.4690    -0.9050    -0.0180 C.3   1 <1>  -0.2400 
 14 N        2.0960     4.3760    -0.3500 N.1   1 <1>  -0.5570 
 15 H        3.3010     1.2150    -0.1420 H     1 <1>   0.4000 
 16 H        2.5260    -1.4210    -0.7750 H     1 <1>   0.0800 
 17 H        2.5990    -1.2790     0.9710 H     1 <1>   0.0800 
 18 H       -0.9060     4.3970    -0.2260 H     1 <1>   0.4000 
 19 H       -2.4240     3.5920    -0.0960 H     1 <1>   0.4000 
 20 H       -3.7580     2.2750     0.9510 H     1 <1>   0.0800 
 21 H       -4.7730     1.0660     0.2070 H     1 <1>   0.0800 
 22 H       -3.8310     2.1320    -0.8030 H     1 <1>   0.0800 
 23 H        4.8180    -0.4960    -0.9490 H     1 <1>   0.0800 
 24 H        4.8000    -1.9250     0.0520 H     1 <1>   0.0800 
 25 H        4.8920    -0.3540     0.8030 H     1 <1>   0.0800 
@<TRIPOS>BOND
  1   1   2  1   
  2   1   3  1   
  3   2   4  1   
  4   2   5  2   
  5   3   6  2   
  6   3   7  1   
  7   4   8  1   
  8   4  15  1   
  9   5   6  1   
 10   5   9  1   
 11   6  10  1   
 12   7  11  2   
 13   7  12  1   
 14   8  13  1   
 15   8  16  1   
 16   8  17  1   
 17   9  14  3   
 18  10  18  1   
 19  10  19  1   
 20  12  20  1   
 21  12  21  1   
 22  12  22  1   
 23  13  23  1   
 24  13  24  1   
 25  13  25  1   
@<TRIPOS>SUBSTRUCTURE
  1 ****   5 GROUP 4 **** **** 0

# MOE 2024.06 (io_trps.svl 2023.06)
