@<TRIPOS>MOLECULE
NONAME
48 50 1 0 0 
SMALL
USER_CHARGES


@<TRIPOS>ATOM
  1 O        0.9840    -1.0980    -0.0240 O.2   1 <1>  -0.5700 
  2 C        0.5240    -2.2120    -0.2100 C.2   1 <1>   0.6900 
  3 N       -0.7600    -2.5510     0.1850 N.am  1 <1>  -0.2940 
  4 N        1.3290    -3.1460    -0.7930 N.am  1 <1>  -0.7300 
  5 C       -1.2070    -3.8800     0.0860 C.ar  1 <1>   0.1170 
  6 C       -1.6720    -1.5820     0.6520 C.ar  1 <1>   0.1170 
  7 C        2.5710    -2.8890    -1.5810 C.3   1 <1>   0.1400 
  8 C       -0.7570    -4.8500     0.9750 C.ar  1 <1>  -0.1500 
  9 C       -2.0940    -4.2490    -0.9190 C.ar  1 <1>  -0.1500 
 10 C       -1.9710    -0.4510    -0.1030 C.ar  1 <1>  -0.1500 
 11 C       -2.3070    -1.7450     1.8800 C.ar  1 <1>  -0.1500 
 12 C        3.8160    -2.7210    -0.6840 C.3   1 <1>   0.3430 
 13 C       -1.1720    -6.1640     0.8540 C.ar  1 <1>  -0.1500 
 14 C       -2.5090    -5.5620    -1.0430 C.ar  1 <1>  -0.1500 
 15 C       -2.8710     0.4930     0.3580 C.ar  1 <1>  -0.1500 
 16 C       -3.2080    -0.8040     2.3440 C.ar  1 <1>  -0.1500 
 17 N        3.6650    -1.5630     0.2440 N.4   1 <1>  -0.9590 
 18 C       -2.0460    -6.5210    -0.1580 C.ar  1 <1>  -0.1500 
 19 C       -3.4900     0.3170     1.5830 C.ar  1 <1>  -0.1500 
 20 C        3.9790    -0.2400    -0.3930 C.3   1 <1>   0.3430 
 21 C        4.3900    -1.7290     1.5450 C.3   1 <1>   0.3430 
 22 C        3.7950     0.9120     0.6120 C.3   1 <1>   0.1200 
 23 C        4.1920    -0.4980     2.4510 C.3   1 <1>   0.1200 
 24 O        4.5470     0.6690     1.7680 O.3   1 <1>  -0.5600 
 25 H        0.8760    -4.0520    -0.9660 H     1 <1>   0.3700 
 26 H        2.4360    -2.0070    -2.1840 H     1 <1>   0.0800 
 27 H        2.7320    -3.7170    -2.2500 H     1 <1>   0.0800 
 28 H       -0.0840    -4.5730     1.7670 H     1 <1>   0.1500 
 29 H       -2.4600    -3.5030    -1.6030 H     1 <1>   0.1500 
 30 H       -1.4940    -0.3080    -1.0550 H     1 <1>   0.1500 
 31 H       -2.0970    -2.6150     2.4760 H     1 <1>   0.1500 
 32 H        4.6940    -2.5880    -1.2950 H     1 <1>   0.0800 
 33 H        3.9430    -3.6280    -0.1160 H     1 <1>   0.0800 
 34 H       -0.8210    -6.9110     1.5460 H     1 <1>   0.1500 
 35 H       -3.1950    -5.8390    -1.8250 H     1 <1>   0.1500 
 36 H       -3.0910     1.3640    -0.2350 H     1 <1>   0.1500 
 37 H       -3.6920    -0.9420     3.2950 H     1 <1>   0.1500 
 38 H        2.6460    -1.5050     0.4550 H     1 <1>   0.4500 
 39 H       -2.3710    -7.5430    -0.2540 H     1 <1>   0.1500 
 40 H       -4.1900     1.0510     1.9430 H     1 <1>   0.1500 
 41 H        3.3270    -0.0760    -1.2350 H     1 <1>   0.0800 
 42 H        4.9970    -0.2310    -0.7450 H     1 <1>   0.0800 
 43 H        5.4450    -1.8530     1.3630 H     1 <1>   0.0800 
 44 H        4.0320    -2.6070     2.0560 H     1 <1>   0.0800 
 45 H        2.7590     1.0230     0.8850 H     1 <1>   0.0800 
 46 H        4.1380     1.8380     0.1850 H     1 <1>   0.0800 
 47 H        4.8200    -0.5720     3.3220 H     1 <1>   0.0800 
 48 H        3.1680    -0.4150     2.7720 H     1 <1>   0.0800 
@<TRIPOS>BOND
  1   1   2  2   
  2   2   3  am  
  3   2   4  am  
  4   3   5  1   
  5   3   6  1   
  6   4   7  1   
  7   4  25  1   
  8   5   8  ar  
  9   5   9  ar  
 10   6  10  ar  
 11   6  11  ar  
 12   7  12  1   
 13   7  26  1   
 14   7  27  1   
 15   8  13  ar  
 16   8  28  1   
 17   9  14  ar  
 18   9  29  1   
 19  10  15  ar  
 20  10  30  1   
 21  11  16  ar  
 22  11  31  1   
 23  12  17  1   
 24  12  32  1   
 25  12  33  1   
 26  13  18  ar  
 27  13  34  1   
 28  14  18  ar  
 29  14  35  1   
 30  15  19  ar  
 31  15  36  1   
 32  16  19  ar  
 33  16  37  1   
 34  17  20  1   
 35  17  21  1   
 36  17  38  1   
 37  18  39  1   
 38  19  40  1   
 39  20  22  1   
 40  20  41  1   
 41  20  42  1   
 42  21  23  1   
 43  21  43  1   
 44  21  44  1   
 45  22  24  1   
 46  22  45  1   
 47  22  46  1   
 48  23  24  1   
 49  23  47  1   
 50  23  48  1   
@<TRIPOS>SUBSTRUCTURE
  1 ****   2 GROUP 4 **** **** 0

# MOE 2024.06 (io_trps.svl 2023.06)
