@<TRIPOS>MOLECULE
NONAME
36 37 1 0 0 
SMALL
USER_CHARGES


@<TRIPOS>ATOM
  1 F       -1.7940    -0.2430     2.0740 F     1 <1>  -0.3400 
  2 C       -2.6020    -0.6470     1.0990 C.3   1 <1>   1.1640 
  3 F       -3.7500    -0.9560     1.6910 F     1 <1>  -0.3400 
  4 F       -2.8340     0.4350     0.3600 F     1 <1>  -0.3400 
  5 C       -2.0170    -1.8110     0.2860 C.ar  1 <1>  -0.1440 
  6 C       -2.6700    -2.2650    -0.8610 C.ar  1 <1>   0.1000 
  7 C       -0.8330    -2.4330     0.6780 C.ar  1 <1>  -0.1500 
  8 N       -3.8650    -1.6970    -1.3130 N.pl3 1 <1>  -0.6000 
  9 C       -2.1240    -3.3150    -1.5900 C.ar  1 <1>  -0.1500 
 10 C       -0.3030    -3.4810    -0.0540 C.ar  1 <1>  -0.1500 
 11 C       -5.1540    -2.1550    -1.1250 C.2   1 <1>  -0.0380 
 12 C       -0.9490    -3.9220    -1.1930 C.ar  1 <1>  -0.1500 
 13 C       -6.2190    -1.4870    -1.5790 C.2   1 <1>  -0.1360 
 14 C       -5.3400    -3.4540    -0.3440 C.3   1 <1>  -0.0220 
 15 C       -7.5110    -1.9630    -1.3730 C.2   1 <1>   0.4950 
 16 C       -6.6610    -4.2960     0.0050 C.3   1 <1>   0.0000 
 17 O       -8.4920    -1.3590    -1.7370 O.2   1 <1>  -0.5700 
 18 C       -7.7100    -3.3050    -0.6940 C.3   1 <1>  -0.0990 
 19 C       -5.7280    -5.3930     0.7320 C.3   1 <1>  -0.2400 
 20 C       -7.8990    -5.2350     0.4370 C.3   1 <1>  -0.2400 
 21 H       -0.3050    -2.1120     1.5610 H     1 <1>   0.1500 
 22 H       -3.7560    -0.8030    -1.8090 H     1 <1>   0.4000 
 23 H       -2.6310    -3.6540    -2.4760 H     1 <1>   0.1500 
 24 H        0.6130    -3.9510     0.2610 H     1 <1>   0.1500 
 25 H       -0.5390    -4.7350    -1.7670 H     1 <1>   0.1500 
 26 H       -6.1360    -0.5600    -2.1140 H     1 <1>   0.1500 
 27 H       -4.8860    -3.1830     0.5960 H     1 <1>   0.0800 
 28 H       -4.6800    -4.1170    -0.8830 H     1 <1>   0.0800 
 29 H       -8.1860    -3.8530    -1.4900 H     1 <1>   0.0800 
 30 H       -8.4560    -3.0350     0.0380 H     1 <1>   0.0800 
 31 H       -4.6920    -5.1770     0.9480 H     1 <1>   0.0800 
 32 H       -5.6640    -6.2770     0.1180 H     1 <1>   0.0800 
 33 H       -6.0700    -5.6830     1.7150 H     1 <1>   0.0800 
 34 H       -8.8720    -5.0980    -0.0110 H     1 <1>   0.0800 
 35 H       -8.0930    -5.1110     1.4900 H     1 <1>   0.0800 
 36 H       -7.7560    -6.2880     0.2420 H     1 <1>   0.0800 
@<TRIPOS>BOND
  1   1   2  1   
  2   2   3  1   
  3   2   4  1   
  4   2   5  1   
  5   5   6  ar  
  6   5   7  ar  
  7   6   8  1   
  8   6   9  ar  
  9   7  10  ar  
 10   7  21  1   
 11   8  11  1   
 12   8  22  1   
 13   9  12  ar  
 14   9  23  1   
 15  10  12  ar  
 16  10  24  1   
 17  11  13  2   
 18  11  14  1   
 19  12  25  1   
 20  13  15  1   
 21  13  26  1   
 22  14  16  1   
 23  14  27  1   
 24  14  28  1   
 25  15  17  2   
 26  15  18  1   
 27  16  18  1   
 28  16  19  1   
 29  16  20  1   
 30  18  29  1   
 31  18  30  1   
 32  19  31  1   
 33  19  32  1   
 34  19  33  1   
 35  20  34  1   
 36  20  35  1   
 37  20  36  1   
@<TRIPOS>SUBSTRUCTURE
  1 ****  11 GROUP 4 **** **** 0

# MOE 2024.06 (io_trps.svl 2023.06)
