@<TRIPOS>MOLECULE
NONAME
47 48 1 0 0 
SMALL
USER_CHARGES


@<TRIPOS>ATOM
  1 S       -0.0670     0.4560    -0.0390 S.3   1 <1>  -0.3320 
  2 C       -1.4670    -0.6790    -0.0400 C.ar  1 <1>   0.1020 
  3 C        1.4360    -0.5670     0.2880 C.3   1 <1>   0.0700 
  4 C       -2.7160    -0.1360    -0.2760 C.ar  1 <1>  -0.1500 
  5 C       -1.3170    -2.0390     0.1820 C.ar  1 <1>  -0.1500 
  6 C        2.6460     0.3680     0.2960 C.3   1 <1>  -0.0990 
  7 C       -3.8290    -0.9590    -0.2890 C.ar  1 <1>  -0.1500 
  8 C       -2.4350    -2.8560     0.1670 C.ar  1 <1>  -0.1500 
  9 C        3.9560    -0.3690     0.5270 C.2   1 <1>   0.5690 
 10 C       -3.6930    -2.3210    -0.0660 C.ar  1 <1>  -0.1440 
 11 O        3.9130    -1.5320     0.8520 O.2   1 <1>  -0.5700 
 12 N        5.1490     0.2860     0.3650 N.am  1 <1>  -0.6600 
 13 C       -4.9150    -3.2220    -0.0830 C.3   1 <1>  -0.0970 
 14 C        5.2640     1.7420     0.0220 C.3   1 <1>   0.1400 
 15 C        6.4410    -0.4620     0.5180 C.3   1 <1>   0.1400 
 16 C        6.6200     2.3410     0.4310 C.3   1 <1>   0.1400 
 17 C        7.5530     0.1100    -0.3740 C.3   1 <1>   0.1400 
 18 N        7.7650     1.5720    -0.1440 N.am  1 <1>  -0.6600 
 19 C        8.9670     2.1550    -0.4340 C.2   1 <1>   0.7800 
 20 O        9.8930     1.5350    -0.9220 O.2   1 <1>  -0.5700 
 21 O        9.1070     3.4530    -0.1610 O.3   1 <1>  -0.4300 
 22 C       10.3180     4.1190    -0.4290 C.3   1 <1>   0.1200 
 23 C       10.1590     5.5780    -0.0110 C.3   1 <1>  -0.2400 
 24 H        1.5100    -1.3000    -0.4970 H     1 <1>   0.0800 
 25 H        1.3030    -1.0480     1.2410 H     1 <1>   0.0800 
 26 H       -2.8140     0.9200    -0.4460 H     1 <1>   0.1500 
 27 H       -0.3540    -2.4750     0.3650 H     1 <1>   0.1500 
 28 H        2.5190     1.0940     1.0770 H     1 <1>   0.0800 
 29 H        2.6930     0.8740    -0.6500 H     1 <1>   0.0800 
 30 H       -4.8010    -0.5340    -0.4730 H     1 <1>   0.1500 
 31 H       -2.3200    -3.9120     0.3380 H     1 <1>   0.1500 
 32 H       -5.7830    -2.6850     0.2570 H     1 <1>   0.0800 
 33 H       -4.7670    -4.0690     0.5630 H     1 <1>   0.0800 
 34 H       -5.0930    -3.5740    -1.0830 H     1 <1>   0.0800 
 35 H        4.4860     2.2960     0.5150 H     1 <1>   0.0800 
 36 H        5.1400     1.8610    -1.0400 H     1 <1>   0.0800 
 37 H        6.2950    -1.4980     0.2660 H     1 <1>   0.0800 
 38 H        6.7530    -0.4160     1.5470 H     1 <1>   0.0800 
 39 H        6.7010     2.3380     1.5040 H     1 <1>   0.0800 
 40 H        6.6630     3.3630     0.0980 H     1 <1>   0.0800 
 41 H        7.2950    -0.0480    -1.4070 H     1 <1>   0.0800 
 42 H        8.4690    -0.4210    -0.1790 H     1 <1>   0.0800 
 43 H       10.5270     4.0390    -1.4830 H     1 <1>   0.0800 
 44 H       11.1030     3.6390     0.1320 H     1 <1>   0.0800 
 45 H        9.3670     6.0400    -0.5730 H     1 <1>   0.0800 
 46 H       11.0720     6.1110    -0.2040 H     1 <1>   0.0800 
 47 H        9.9410     5.6410     1.0400 H     1 <1>   0.0800 
@<TRIPOS>BOND
  1   1   2  1   
  2   1   3  1   
  3   2   4  ar  
  4   2   5  ar  
  5   3   6  1   
  6   3  24  1   
  7   3  25  1   
  8   4   7  ar  
  9   4  26  1   
 10   5   8  ar  
 11   5  27  1   
 12   6   9  1   
 13   6  28  1   
 14   6  29  1   
 15   7  10  ar  
 16   7  30  1   
 17   8  10  ar  
 18   8  31  1   
 19   9  11  2   
 20   9  12  am  
 21  10  13  1   
 22  12  14  1   
 23  12  15  1   
 24  13  32  1   
 25  13  33  1   
 26  13  34  1   
 27  14  16  1   
 28  14  35  1   
 29  14  36  1   
 30  15  17  1   
 31  15  37  1   
 32  15  38  1   
 33  16  18  1   
 34  16  39  1   
 35  16  40  1   
 36  17  18  1   
 37  17  41  1   
 38  17  42  1   
 39  18  19  am  
 40  19  20  2   
 41  19  21  1   
 42  21  22  1   
 43  22  23  1   
 44  22  43  1   
 45  22  44  1   
 46  23  45  1   
 47  23  46  1   
 48  23  47  1   
@<TRIPOS>SUBSTRUCTURE
  1 ****   6 GROUP 4 **** **** 0

# MOE 2024.06 (io_trps.svl 2023.06)
