@<TRIPOS>MOLECULE
NONAME
38 40 1 0 0 
SMALL
USER_CHARGES


@<TRIPOS>ATOM
  1 F        0.3990     1.9260     2.2020 F     1 <1>  -0.1900 
  2 C       -0.5690     2.4940     1.5330 C.ar  1 <1>   0.1900 
  3 C       -0.3440     3.7120     0.9270 C.ar  1 <1>  -0.1500 
  4 C       -1.7860     1.8460     1.4590 C.ar  1 <1>  -0.1500 
  5 C       -1.3740     4.3170     0.2190 C.ar  1 <1>   0.1170 
  6 C       -2.8110     2.4440     0.7460 C.ar  1 <1>  -0.1500 
  7 N       -1.0990     5.5490    -0.3820 N.am  1 <1>  -0.5470 
  8 C       -2.6130     3.6690     0.1210 C.ar  1 <1>  -0.1430 
  9 C       -1.6250     6.7730    -0.0850 C.2   1 <1>   0.5690 
 10 C       -3.7650     4.2780    -0.6660 C.3   1 <1>  -0.0960 
 11 O       -2.5870     6.8950     0.6400 O.2   1 <1>  -0.5700 
 12 C       -1.0360     8.0330    -0.7520 C.3   1 <1>  -0.0190 
 13 C        0.6390     8.2600    -0.6860 C.3   1 <1>  -0.1860 
 14 C       -1.7250     9.3990    -0.1490 C.3   1 <1>  -0.0800 
 15 C        1.4280     7.0260    -0.2730 C.2   1 <1>   0.9060 
 16 C        0.9220     9.6420     0.1550 C.3   1 <1>  -0.0800 
 17 C       -0.4020     9.5270    -0.0160 C.3   1 <1>  -0.1600 
 18 C       -1.4350    10.7910     0.6570 C.3   1 <1>  -0.1600 
 19 O        1.4790     6.1050    -1.0970 O.co2 1 <1>  -0.9000 
 20 O        1.9210     6.9180     0.8490 O.co2 1 <1>  -0.9000 
 21 C        0.2210    10.9990     0.7340 C.3   1 <1>  -0.1600 
 22 H        0.6150     4.1980     1.0020 H     1 <1>   0.1500 
 23 H       -1.9230     0.8990     1.9470 H     1 <1>   0.1500 
 24 H       -3.7640     1.9520     0.6790 H     1 <1>   0.1500 
 25 H       -0.1480     5.5980    -0.8020 H     1 <1>   0.3700 
 26 H       -4.4740     3.5250    -0.9570 H     1 <1>   0.0800 
 27 H       -4.2680     5.0110    -0.0610 H     1 <1>   0.0800 
 28 H       -3.3990     4.7580    -1.5560 H     1 <1>   0.0800 
 29 H       -1.3040     7.9410    -1.7920 H     1 <1>   0.0800 
 30 H        0.9760     8.4330    -1.6960 H     1 <1>   0.0800 
 31 H       -2.2460     9.7680    -1.0210 H     1 <1>   0.0800 
 32 H        1.4120     9.2750     1.0480 H     1 <1>   0.0800 
 33 H       -0.4620     8.9740     1.0230 H     1 <1>   0.0800 
 34 H       -0.3490    10.0680    -1.0570 H     1 <1>   0.0800 
 35 H       -1.8460    10.7250     1.6540 H     1 <1>   0.0800 
 36 H       -1.9010    11.6300     0.1660 H     1 <1>   0.0800 
 37 H        0.5200    11.8510     0.1410 H     1 <1>   0.0800 
 38 H        0.5310    11.1850     1.7500 H     1 <1>   0.0800 
@<TRIPOS>BOND
  1   1   2  1   
  2   2   3  ar  
  3   2   4  ar  
  4   3   5  ar  
  5   3  22  1   
  6   4   6  ar  
  7   4  23  1   
  8   5   7  1   
  9   5   8  ar  
 10   6   8  ar  
 11   6  24  1   
 12   7   9  am  
 13   7  25  1   
 14   8  10  1   
 15   9  11  2   
 16   9  12  1   
 17  10  26  1   
 18  10  27  1   
 19  10  28  1   
 20  12  13  1   
 21  12  14  1   
 22  12  29  1   
 23  13  15  1   
 24  13  16  1   
 25  13  30  1   
 26  14  17  1   
 27  14  18  1   
 28  14  31  1   
 29  15  19  ar  
 30  15  20  ar  
 31  16  17  1   
 32  16  21  1   
 33  16  32  1   
 34  17  33  1   
 35  17  34  1   
 36  18  21  1   
 37  18  35  1   
 38  18  36  1   
 39  21  37  1   
 40  21  38  1   
@<TRIPOS>SUBSTRUCTURE
  1 ****   7 GROUP 4 **** **** 0

# MOE 2024.06 (io_trps.svl 2023.06)
