@<TRIPOS>MOLECULE
NONAME
50 52 1 0 0 
SMALL
USER_CHARGES


@<TRIPOS>ATOM
  1 S       -2.1430     1.7260     1.0170 S.3   1 <1>  -0.0800 
  2 C       -0.5320     1.9650     0.3540 C.2   1 <1>   0.1040 
  3 C       -2.7370     1.0800    -0.5010 C.2   1 <1>  -0.1100 
  4 N        0.4790     2.4730     1.1520 N.am  1 <1>  -0.4940 
  5 C       -0.4870     1.5730    -0.9560 C.2   1 <1>  -0.0860 
  6 C       -1.7550     1.0670    -1.4180 C.2   1 <1>  -0.1500 
  7 C        0.5030     3.1230     2.3560 C.2   1 <1>   0.5690 
  8 C        0.6740     1.6590    -1.7970 C.2   1 <1>   0.8060 
  9 O       -0.4760     3.4050     3.0020 O.2   1 <1>  -0.5700 
 10 C        1.8840     3.5200     2.8840 C.3   1 <1>   0.1710 
 11 O        1.7290     2.1460    -1.4350 O.2   1 <1>  -0.5700 
 12 O        0.5850     1.1840    -3.0470 O.3   1 <1>  -0.4300 
 13 N        2.9810     3.3720     1.8830 N.3   1 <1>  -0.8100 
 14 C        1.6800     1.2370    -3.9410 C.3   1 <1>   0.0400 
 15 C        4.3080     3.3270     2.5420 C.3   1 <1>   0.1100 
 16 C        2.9720     4.4700     0.8770 C.3   1 <1>   0.1100 
 17 C        5.4580     3.1680     1.5280 C.3   1 <1>   0.2090 
 18 C        4.1000     4.3130    -0.1600 C.3   1 <1>   0.2090 
 19 N        5.4280     4.2640     0.5170 N.pl3 1 <1>  -0.8380 
 20 C        6.5390     4.3330    -0.3360 C.ar  1 <1>   0.1000 
 21 C        6.8910     3.3420    -1.2730 C.ar  1 <1>   0.0830 
 22 C        7.3320     5.4670    -0.2390 C.ar  1 <1>  -0.1500 
 23 O        6.1070     2.2240    -1.3680 O.3   1 <1>  -0.3630 
 24 C        8.0170     3.5210    -2.0720 C.ar  1 <1>  -0.1500 
 25 C        8.4480     5.6380    -1.0370 C.ar  1 <1>  -0.1500 
 26 C        6.4140     1.1760    -2.2590 C.3   1 <1>   0.0400 
 27 C        8.7910     4.6630    -1.9550 C.ar  1 <1>  -0.1500 
 28 H       -3.7700     0.7780    -0.5370 H     1 <1>   0.1500 
 29 H        1.4310     2.4260     0.7550 H     1 <1>   0.3700 
 30 H       -1.8720     0.7150    -2.4290 H     1 <1>   0.1500 
 31 H        2.0860     2.8840     3.7270 H     1 <1>   0.0800 
 32 H        1.8440     4.5350     3.2400 H     1 <1>   0.0800 
 33 H        1.3780     0.7970    -4.8750 H     1 <1>   0.0800 
 34 H        2.5020     0.6840    -3.5200 H     1 <1>   0.0800 
 35 H        1.9610     2.2650    -4.0900 H     1 <1>   0.0800 
 36 H        4.3380     2.4960     3.2250 H     1 <1>   0.0800 
 37 H        4.4690     4.2310     3.1030 H     1 <1>   0.0800 
 38 H        3.0940     5.4190     1.3700 H     1 <1>   0.0800 
 39 H        2.0320     4.4850     0.3540 H     1 <1>   0.0800 
 40 H        5.3640     2.2150     1.0380 H     1 <1>   0.0800 
 41 H        6.4020     3.1900     2.0440 H     1 <1>   0.0800 
 42 H        4.0820     5.1430    -0.8440 H     1 <1>   0.0800 
 43 H        3.9420     3.4100    -0.7230 H     1 <1>   0.0800 
 44 H        7.0590     6.2200     0.4770 H     1 <1>   0.1500 
 45 H        8.3130     2.7870    -2.7950 H     1 <1>   0.1500 
 46 H        9.0460     6.5270    -0.9420 H     1 <1>   0.1500 
 47 H        5.6660     0.4130    -2.1430 H     1 <1>   0.0800 
 48 H        7.3820     0.7800    -2.0100 H     1 <1>   0.0800 
 49 H        6.3960     1.5570    -3.2640 H     1 <1>   0.0800 
 50 H        9.6590     4.7930    -2.5780 H     1 <1>   0.1500 
@<TRIPOS>BOND
  1   1   2  1   
  2   1   3  1   
  3   2   4  1   
  4   2   5  2   
  5   3   6  2   
  6   3  28  1   
  7   4   7  am  
  8   4  29  1   
  9   5   6  1   
 10   5   8  1   
 11   6  30  1   
 12   7   9  2   
 13   7  10  1   
 14   8  11  2   
 15   8  12  1   
 16  10  13  1   
 17  10  31  1   
 18  10  32  1   
 19  12  14  1   
 20  13  15  1   
 21  13  16  1   
 22  14  33  1   
 23  14  34  1   
 24  14  35  1   
 25  15  17  1   
 26  15  36  1   
 27  15  37  1   
 28  16  18  1   
 29  16  38  1   
 30  16  39  1   
 31  17  19  1   
 32  17  40  1   
 33  17  41  1   
 34  18  19  1   
 35  18  42  1   
 36  18  43  1   
 37  19  20  1   
 38  20  21  ar  
 39  20  22  ar  
 40  21  23  1   
 41  21  24  ar  
 42  22  25  ar  
 43  22  44  1   
 44  23  26  1   
 45  24  27  ar  
 46  24  45  1   
 47  25  27  ar  
 48  25  46  1   
 49  26  47  1   
 50  26  48  1   
 51  26  49  1   
 52  27  50  1   
@<TRIPOS>SUBSTRUCTURE
  1 ****  18 GROUP 4 **** **** 0

# MOE 2024.06 (io_trps.svl 2023.06)
