@<TRIPOS>MOLECULE
NONAME
52 54 1 0 0 
SMALL
USER_CHARGES


@<TRIPOS>ATOM
  1 N        0.3950     1.6130    -0.1600 N.pl3 1 <1>  -0.8380 
  2 C       -0.9700     1.3290    -0.1870 C.ar  1 <1>   0.1000 
  3 C        1.0130     1.8870     1.1690 C.3   1 <1>   0.2090 
  4 C        1.2540     0.9580    -1.1880 C.3   1 <1>   0.2090 
  5 C       -1.8870     2.2780    -0.6360 C.ar  1 <1>  -0.1440 
  6 C       -1.4370     0.0880     0.2370 C.ar  1 <1>  -0.1500 
  7 C        1.8090     0.6730     1.6920 C.3   1 <1>   0.3430 
  8 C        2.0480    -0.2290    -0.6040 C.3   1 <1>   0.3430 
  9 C       -3.2370     1.9740    -0.6530 C.ar  1 <1>  -0.1500 
 10 C       -1.4220     3.6480    -1.1100 C.3   1 <1>  -0.0970 
 11 C       -2.7860    -0.2150     0.2200 C.ar  1 <1>  -0.1440 
 12 N        2.7770     0.1260     0.6720 N.4   1 <1>  -0.9590 
 13 C       -3.6860     0.7360    -0.2280 C.ar  1 <1>  -0.1500 
 14 C       -3.2970    -1.5680     0.6820 C.3   1 <1>  -0.0970 
 15 C        3.5530    -1.0190     1.2290 C.3   1 <1>   0.3430 
 16 C        4.7350    -1.4150     0.3270 C.3   1 <1>  -0.0800 
 17 C        5.5110    -2.5670     0.9920 C.3   1 <1>  -0.1600 
 18 C        5.6830    -0.2300     0.0390 C.3   1 <1>  -0.1600 
 19 C        6.7110    -3.0040     0.1430 C.3   1 <1>  -0.1600 
 20 C        6.8880    -0.6670    -0.8060 C.3   1 <1>  -0.1600 
 21 C        7.6450    -1.8220    -0.1420 C.3   1 <1>  -0.1600 
 22 H        0.2390     2.1370     1.8770 H     1 <1>   0.0800 
 23 H        1.6610     2.7410     1.0850 H     1 <1>   0.0800 
 24 H        1.9340     1.6880    -1.5910 H     1 <1>   0.0800 
 25 H        0.6360     0.6090    -1.9990 H     1 <1>   0.0800 
 26 H       -0.7380    -0.6450     0.5830 H     1 <1>   0.1500 
 27 H        1.1040    -0.0940     1.9660 H     1 <1>   0.0800 
 28 H        2.3400     0.9640     2.5830 H     1 <1>   0.0800 
 29 H        2.7480    -0.5720    -1.3460 H     1 <1>   0.0800 
 30 H        1.3550    -1.0310    -0.4100 H     1 <1>   0.0800 
 31 H       -3.9530     2.6990    -0.9970 H     1 <1>   0.1500 
 32 H       -0.7440     3.5360    -1.9360 H     1 <1>   0.0800 
 33 H       -0.9130     4.1560    -0.3110 H     1 <1>   0.0800 
 34 H       -2.2520     4.2530    -1.4270 H     1 <1>   0.0800 
 35 H        3.4400     0.8780     0.4460 H     1 <1>   0.4500 
 36 H       -4.7400     0.5180    -0.2480 H     1 <1>   0.1500 
 37 H       -2.4870    -2.2110     0.9750 H     1 <1>   0.0800 
 38 H       -3.8420    -2.0440    -0.1140 H     1 <1>   0.0800 
 39 H       -3.9550    -1.4410     1.5230 H     1 <1>   0.0800 
 40 H        2.9050    -1.8700     1.3630 H     1 <1>   0.0800 
 41 H        3.9440    -0.7470     2.1960 H     1 <1>   0.0800 
 42 H        4.3540    -1.7890    -0.6070 H     1 <1>   0.0800 
 43 H        4.8630    -3.4150     1.1360 H     1 <1>   0.0800 
 44 H        5.8690    -2.2580     1.9600 H     1 <1>   0.0800 
 45 H        6.0450     0.1810     0.9670 H     1 <1>   0.0800 
 46 H        5.1710     0.5500    -0.4960 H     1 <1>   0.0800 
 47 H        6.3650    -3.4180    -0.7900 H     1 <1>   0.0800 
 48 H        7.2580    -3.7750     0.6590 H     1 <1>   0.0800 
 49 H        7.5580     0.1650    -0.9410 H     1 <1>   0.0800 
 50 H        6.5530    -0.9780    -1.7810 H     1 <1>   0.0800 
 51 H        8.4470    -2.1450    -0.7850 H     1 <1>   0.0800 
 52 H        8.0840    -1.4820     0.7810 H     1 <1>   0.0800 
@<TRIPOS>BOND
  1   1   2  1   
  2   1   3  1   
  3   1   4  1   
  4   2   5  ar  
  5   2   6  ar  
  6   3   7  1   
  7   3  22  1   
  8   3  23  1   
  9   4   8  1   
 10   4  24  1   
 11   4  25  1   
 12   5   9  ar  
 13   5  10  1   
 14   6  11  ar  
 15   6  26  1   
 16   7  12  1   
 17   7  27  1   
 18   7  28  1   
 19   8  12  1   
 20   8  29  1   
 21   8  30  1   
 22   9  13  ar  
 23   9  31  1   
 24  10  32  1   
 25  10  33  1   
 26  10  34  1   
 27  11  13  ar  
 28  11  14  1   
 29  12  15  1   
 30  12  35  1   
 31  13  36  1   
 32  14  37  1   
 33  14  38  1   
 34  14  39  1   
 35  15  16  1   
 36  15  40  1   
 37  15  41  1   
 38  16  17  1   
 39  16  18  1   
 40  16  42  1   
 41  17  19  1   
 42  17  43  1   
 43  17  44  1   
 44  18  20  1   
 45  18  45  1   
 46  18  46  1   
 47  19  21  1   
 48  19  47  1   
 49  19  48  1   
 50  20  21  1   
 51  20  49  1   
 52  20  50  1   
 53  21  51  1   
 54  21  52  1   
@<TRIPOS>SUBSTRUCTURE
  1 ****   8 GROUP 4 **** **** 0

# MOE 2024.06 (io_trps.svl 2023.06)
