@<TRIPOS>MOLECULE
NONAME
47 49 1 0 0 
SMALL
USER_CHARGES


@<TRIPOS>ATOM
  1 F        0.6420    -0.5620     0.8670 F     1 <1>  -0.1900 
  2 C        1.7630    -1.1820     0.5990 C.ar  1 <1>   0.1900 
  3 C        2.6290    -1.4710     1.6360 C.ar  1 <1>  -0.1500 
  4 C        2.0380    -1.5250    -0.7110 C.ar  1 <1>  -0.1500 
  5 C        3.8130    -2.1270     1.3460 C.ar  1 <1>  -0.1500 
  6 C        3.2260    -2.1800    -0.9850 C.ar  1 <1>  -0.1500 
  7 C        4.1210    -2.4870     0.0350 C.ar  1 <1>   0.1000 
  8 N        5.3050    -3.1470    -0.2750 N.pl3 1 <1>  -0.8380 
  9 C        5.4060    -4.5650     0.1740 C.3   1 <1>   0.2090 
 10 C        6.5630    -2.3590    -0.1200 C.3   1 <1>   0.2090 
 11 C        6.5940    -5.2720    -0.5130 C.3   1 <1>   0.3430 
 12 C        7.7470    -3.0790    -0.8010 C.3   1 <1>   0.3430 
 13 N        7.8910    -4.5170    -0.3530 N.4   1 <1>  -0.9590 
 14 C        9.0180    -5.1950    -1.0480 C.3   1 <1>   0.4860 
 15 C       10.3030    -4.4860    -0.6720 C.ar  1 <1>  -0.1430 
 16 C       10.8360    -4.6320     0.6010 C.ar  1 <1>  -0.1500 
 17 C       10.9520    -3.6770    -1.5940 C.ar  1 <1>  -0.1500 
 18 C       11.9950    -3.9670     0.9620 C.ar  1 <1>  -0.1430 
 19 C       12.1120    -3.0120    -1.2420 C.ar  1 <1>  -0.1500 
 20 C       12.6390    -3.1490     0.0390 C.ar  1 <1>   0.0830 
 21 C       12.5650    -4.1390     2.3640 C.3   1 <1>  -0.0970 
 22 O       13.7720    -2.5160     0.4410 O.3   1 <1>  -0.3630 
 23 C       14.5580    -1.7520    -0.4470 C.3   1 <1>   0.0400 
 24 H        2.3760    -1.1860     2.6420 H     1 <1>   0.1500 
 25 H        1.3390    -1.2820    -1.4900 H     1 <1>   0.1500 
 26 H        4.4990    -2.3590     2.1380 H     1 <1>   0.1500 
 27 H        3.4680    -2.4590    -1.9950 H     1 <1>   0.1500 
 28 H        4.4920    -5.0790    -0.0740 H     1 <1>   0.0800 
 29 H        5.5250    -4.6000     1.2430 H     1 <1>   0.0800 
 30 H        6.7760    -2.2140     0.9250 H     1 <1>   0.0800 
 31 H        6.4300    -1.3890    -0.5680 H     1 <1>   0.0800 
 32 H        6.3600    -5.3660    -1.5610 H     1 <1>   0.0800 
 33 H        6.6930    -6.2650    -0.1060 H     1 <1>   0.0800 
 34 H        8.6530    -2.5350    -0.5890 H     1 <1>   0.0800 
 35 H        7.5850    -3.0480    -1.8650 H     1 <1>   0.0800 
 36 H        8.1350    -4.4880     0.6440 H     1 <1>   0.4500 
 37 H        8.8750    -5.1620    -2.1150 H     1 <1>   0.0800 
 38 H        9.0800    -6.2270    -0.7410 H     1 <1>   0.0800 
 39 H       10.3570    -5.2700     1.3230 H     1 <1>   0.1500 
 40 H       10.5690    -3.5570    -2.5930 H     1 <1>   0.1500 
 41 H       12.5940    -2.3920    -1.9740 H     1 <1>   0.1500 
 42 H       11.9630    -4.8000     2.9600 H     1 <1>   0.0800 
 43 H       12.6180    -3.1840     2.8570 H     1 <1>   0.0800 
 44 H       13.5600    -4.5450     2.3040 H     1 <1>   0.0800 
 45 H       15.4150    -1.3920     0.0930 H     1 <1>   0.0800 
 46 H       13.9770    -0.9210    -0.8040 H     1 <1>   0.0800 
 47 H       14.8780    -2.3800    -1.2600 H     1 <1>   0.0800 
@<TRIPOS>BOND
  1   1   2  1   
  2   2   3  ar  
  3   2   4  ar  
  4   3   5  ar  
  5   3  24  1   
  6   4   6  ar  
  7   4  25  1   
  8   5   7  ar  
  9   5  26  1   
 10   6   7  ar  
 11   6  27  1   
 12   7   8  1   
 13   8   9  1   
 14   8  10  1   
 15   9  11  1   
 16   9  28  1   
 17   9  29  1   
 18  10  12  1   
 19  10  30  1   
 20  10  31  1   
 21  11  13  1   
 22  11  32  1   
 23  11  33  1   
 24  12  13  1   
 25  12  34  1   
 26  12  35  1   
 27  13  14  1   
 28  13  36  1   
 29  14  15  1   
 30  14  37  1   
 31  14  38  1   
 32  15  16  ar  
 33  15  17  ar  
 34  16  18  ar  
 35  16  39  1   
 36  17  19  ar  
 37  17  40  1   
 38  18  20  ar  
 39  18  21  1   
 40  19  20  ar  
 41  19  41  1   
 42  20  22  1   
 43  21  42  1   
 44  21  43  1   
 45  21  44  1   
 46  22  23  1   
 47  23  45  1   
 48  23  46  1   
 49  23  47  1   
@<TRIPOS>SUBSTRUCTURE
  1 ****  12 GROUP 4 **** **** 0

# MOE 2024.06 (io_trps.svl 2023.06)
