@<TRIPOS>MOLECULE
NONAME
27 27 1 0 0 
SMALL
USER_CHARGES


@<TRIPOS>ATOM
  1 O        0.2800    -0.3350     0.5140 O.2   1 <1>  -0.5700 
  2 C        1.4500    -0.6140     0.4510 C.2   1 <1>   0.5690 
  3 N        2.4490     0.2760     0.1780 N.am  1 <1>  -0.5470 
  4 C        1.8580    -2.0440     0.7010 C.3   1 <1>  -0.1790 
  5 C        2.4200     1.6520    -0.1100 C.ar  1 <1>   0.1170 
  6 C        3.6010     2.3750    -0.0060 C.ar  1 <1>  -0.1500 
  7 C        1.2670     2.3240    -0.5080 C.ar  1 <1>  -0.1500 
  8 C        3.6500     3.7340    -0.2850 C.ar  1 <1>   0.1000 
  9 C        1.2990     3.6790    -0.7860 C.ar  1 <1>  -0.1500 
 10 N        4.8320     4.4620    -0.1740 N.pl3 1 <1>  -0.8380 
 11 C        2.4850     4.3780    -0.6750 C.ar  1 <1>  -0.1500 
 12 C        6.0360     3.9610    -0.8830 C.3   1 <1>   0.1290 
 13 C        5.0970     5.0910     1.1450 C.3   1 <1>   0.1290 
 14 H        3.3860    -0.1150     0.2180 H     1 <1>   0.3700 
 15 H        2.4830    -2.0980     1.5720 H     1 <1>   0.0800 
 16 H        2.3870    -2.4280    -0.1510 H     1 <1>   0.0800 
 17 H        0.9830    -2.6460     0.8650 H     1 <1>   0.0800 
 18 H        4.5010     1.8850     0.3050 H     1 <1>   0.1500 
 19 H        0.3370     1.7950    -0.6060 H     1 <1>   0.1500 
 20 H        0.4000     4.1860    -1.0910 H     1 <1>   0.1500 
 21 H        2.5250     5.4300    -0.8900 H     1 <1>   0.1500 
 22 H        5.7410     3.4200    -1.7660 H     1 <1>   0.0800 
 23 H        6.6020     3.3080    -0.2420 H     1 <1>   0.0800 
 24 H        6.6530     4.7920    -1.1790 H     1 <1>   0.0800 
 25 H        5.6560     6.0000     1.0070 H     1 <1>   0.0800 
 26 H        5.6550     4.4180     1.7700 H     1 <1>   0.0800 
 27 H        4.1660     5.3280     1.6310 H     1 <1>   0.0800 
@<TRIPOS>BOND
  1   1   2  2   
  2   2   3  am  
  3   2   4  1   
  4   3   5  1   
  5   3  14  1   
  6   4  15  1   
  7   4  16  1   
  8   4  17  1   
  9   5   6  ar  
 10   5   7  ar  
 11   6   8  ar  
 12   6  18  1   
 13   7   9  ar  
 14   7  19  1   
 15   8  10  1   
 16   8  11  ar  
 17   9  11  ar  
 18   9  20  1   
 19  10  12  1   
 20  10  13  1   
 21  11  21  1   
 22  12  22  1   
 23  12  23  1   
 24  12  24  1   
 25  13  25  1   
 26  13  26  1   
 27  13  27  1   
@<TRIPOS>SUBSTRUCTURE
  1 ****   5 GROUP 4 **** **** 0

# MOE 2024.06 (io_trps.svl 2023.06)
