@<TRIPOS>MOLECULE
NONAME
40 40 1 0 0 
SMALL
USER_CHARGES


@<TRIPOS>ATOM
  1 O        7.5770    -1.0090     0.5310 O.3   1 <1>  -0.3630 
  2 C        8.5210    -0.1420     0.0950 C.ar  1 <1>   0.0830 
  3 C        7.4870    -2.2880    -0.0480 C.3   1 <1>   0.1200 
  4 C        8.2170     1.2100    -0.1400 C.ar  1 <1>  -0.1440 
  5 C        9.8120    -0.6260    -0.1100 C.ar  1 <1>  -0.1500 
  6 C        6.0830    -2.8210     0.2510 C.3   1 <1>   0.3430 
  7 C        9.2580     2.0140    -0.6050 C.ar  1 <1>  -0.1500 
  8 C        6.8410     1.9130     0.0660 C.3   1 <1>   0.1440 
  9 C       10.8150     0.2000    -0.5720 C.ar  1 <1>  -0.1500 
 10 N        5.8180    -4.1590    -0.3790 N.4   1 <1>  -0.9590 
 11 C       10.5330     1.5260    -0.8230 C.ar  1 <1>  -0.1500 
 12 C        7.0000     3.0410     1.1010 C.3   1 <1>  -0.2400 
 13 C        6.3700     2.5170    -1.2690 C.3   1 <1>  -0.2400 
 14 C        5.6880     1.0270     0.5680 C.3   1 <1>  -0.2400 
 15 C        4.3670    -4.5030    -0.2540 C.3   1 <1>   0.2630 
 16 C        6.6600    -5.2450     0.2190 C.3   1 <1>   0.2630 
 17 H        8.2440    -2.9080     0.3950 H     1 <1>   0.0800 
 18 H        7.6420    -2.1860    -1.1090 H     1 <1>   0.0800 
 19 H       10.0580    -1.6480     0.1000 H     1 <1>   0.1500 
 20 H        5.3710    -2.1040    -0.1240 H     1 <1>   0.0800 
 21 H        5.9590    -2.8910     1.3200 H     1 <1>   0.0800 
 22 H        9.0950     3.0560    -0.8080 H     1 <1>   0.1500 
 23 H       11.8090    -0.1800    -0.7310 H     1 <1>   0.1500 
 24 H        6.0370    -4.0880    -1.3860 H     1 <1>   0.4500 
 25 H       11.3060     2.1820    -1.1850 H     1 <1>   0.1500 
 26 H        7.3620     2.6360     2.0290 H     1 <1>   0.0800 
 27 H        6.0590     3.5270     1.2850 H     1 <1>   0.0800 
 28 H        7.6940     3.7890     0.7680 H     1 <1>   0.0800 
 29 H        7.0480     3.2690    -1.6250 H     1 <1>   0.0800 
 30 H        5.4040     2.9770    -1.1600 H     1 <1>   0.0800 
 31 H        6.3010     1.7470    -2.0160 H     1 <1>   0.0800 
 32 H        5.4820     0.2450    -0.1380 H     1 <1>   0.0800 
 33 H        4.7890     1.6050     0.6890 H     1 <1>   0.0800 
 34 H        5.9320     0.5990     1.5240 H     1 <1>   0.0800 
 35 H        4.0880    -4.5820     0.7850 H     1 <1>   0.0800 
 36 H        4.1620    -5.4450    -0.7380 H     1 <1>   0.0800 
 37 H        3.7590    -3.7420    -0.7160 H     1 <1>   0.0800 
 38 H        6.4650    -5.3310     1.2760 H     1 <1>   0.0800 
 39 H        7.7070    -5.0340     0.0770 H     1 <1>   0.0800 
 40 H        6.4380    -6.1910    -0.2500 H     1 <1>   0.0800 
@<TRIPOS>BOND
  1   1   2  1   
  2   1   3  1   
  3   2   4  ar  
  4   2   5  ar  
  5   3   6  1   
  6   3  17  1   
  7   3  18  1   
  8   4   7  ar  
  9   4   8  1   
 10   5   9  ar  
 11   5  19  1   
 12   6  10  1   
 13   6  20  1   
 14   6  21  1   
 15   7  11  ar  
 16   7  22  1   
 17   8  12  1   
 18   8  13  1   
 19   8  14  1   
 20   9  11  ar  
 21   9  23  1   
 22  10  15  1   
 23  10  16  1   
 24  10  24  1   
 25  11  25  1   
 26  12  26  1   
 27  12  27  1   
 28  12  28  1   
 29  13  29  1   
 30  13  30  1   
 31  13  31  1   
 32  14  32  1   
 33  14  33  1   
 34  14  34  1   
 35  15  35  1   
 36  15  36  1   
 37  15  37  1   
 38  16  38  1   
 39  16  39  1   
 40  16  40  1   
@<TRIPOS>SUBSTRUCTURE
  1 ****   1 GROUP 4 **** **** 0

# MOE 2024.06 (io_trps.svl 2023.06)
