@<TRIPOS>MOLECULE
NONAME
48 49 1 0 0 
SMALL
USER_CHARGES


@<TRIPOS>ATOM
  1 S       -0.1510     0.1890     0.0240 S.o2  1 <1>   1.3330 
  2 O       -0.4290     0.4790    -1.3630 O.2   1 <1>  -0.6500 
  3 O       -0.0450     1.2630     0.9830 O.2   1 <1>  -0.6500 
  4 N        1.3530    -0.6020     0.0320 N.am  1 <1>  -0.8490 
  5 C       -1.2970    -1.0450     0.6500 C.3   1 <1>  -0.0550 
  6 C        1.5620    -1.4460    -1.1660 C.3   1 <1>   0.1960 
  7 C        2.4510     0.3890     0.1460 C.3   1 <1>   0.1960 
  8 C       -2.7480    -0.5470     0.7350 C.3   1 <1>  -0.1600 
  9 C        2.9070    -2.2160    -1.1200 C.3   1 <1>   0.3430 
 10 C        3.8630    -0.2290    -0.0050 C.3   1 <1>   0.3430 
 11 C       -3.6820    -1.6380     1.2730 C.3   1 <1>  -0.1600 
 12 N        3.8140    -1.7340    -0.0170 N.4   1 <1>  -0.9590 
 13 C       -5.1240    -1.1310     1.3540 C.3   1 <1>  -0.2400 
 14 C        5.1550    -2.3960    -0.0690 C.3   1 <1>   0.3430 
 15 C        5.9670    -2.1590     1.2060 C.3   1 <1>  -0.0170 
 16 C        7.2660    -2.9330     1.0960 C.ar  1 <1>  -0.1440 
 17 C        7.3480    -4.2340     1.5700 C.ar  1 <1>  -0.1500 
 18 C        8.3810    -2.3500     0.5110 C.ar  1 <1>  -0.1500 
 19 C        8.5290    -4.9460     1.4530 C.ar  1 <1>  -0.1500 
 20 C        9.5610    -3.0630     0.3940 C.ar  1 <1>  -0.1500 
 21 C        9.6350    -4.3620     0.8630 C.ar  1 <1>  -0.1500 
 22 H       -0.9800    -1.3470     1.6300 H     1 <1>   0.0800 
 23 H       -1.2700    -1.9080     0.0140 H     1 <1>   0.0800 
 24 H        1.5510    -0.8310    -2.0530 H     1 <1>   0.0800 
 25 H        0.7570    -2.1540    -1.2640 H     1 <1>   0.0800 
 26 H        2.3940     0.8690     1.1100 H     1 <1>   0.0800 
 27 H        2.3260     1.1620    -0.5960 H     1 <1>   0.0800 
 28 H       -3.0770    -0.2400    -0.2440 H     1 <1>   0.0800 
 29 H       -2.7900     0.3150     1.3820 H     1 <1>   0.0800 
 30 H        3.3980    -2.1090    -2.0740 H     1 <1>   0.0800 
 31 H        2.7000    -3.2640    -0.9820 H     1 <1>   0.0800 
 32 H        4.4800     0.1210     0.8060 H     1 <1>   0.0800 
 33 H        4.3010     0.1270    -0.9230 H     1 <1>   0.0800 
 34 H       -3.3610    -1.9410     2.2560 H     1 <1>   0.0800 
 35 H       -3.6480    -2.4990     0.6280 H     1 <1>   0.0800 
 36 H        3.3300    -1.9940     0.8570 H     1 <1>   0.4500 
 37 H       -5.1900    -0.2820     2.0120 H     1 <1>   0.0800 
 38 H       -5.7670    -1.9060     1.7330 H     1 <1>   0.0800 
 39 H       -5.4780    -0.8410     0.3800 H     1 <1>   0.0800 
 40 H        5.7130    -2.0340    -0.9170 H     1 <1>   0.0800 
 41 H        5.0270    -3.4590    -0.1900 H     1 <1>   0.0800 
 42 H        5.4200    -2.5020     2.0670 H     1 <1>   0.0800 
 43 H        6.1920    -1.1160     1.3320 H     1 <1>   0.0800 
 44 H        6.5020    -4.7080     2.0370 H     1 <1>   0.1500 
 45 H        8.3490    -1.3390     0.1430 H     1 <1>   0.1500 
 46 H        8.5900    -5.9560     1.8220 H     1 <1>   0.1500 
 47 H       10.4250    -2.6090    -0.0600 H     1 <1>   0.1500 
 48 H       10.5540    -4.9160     0.7730 H     1 <1>   0.1500 
@<TRIPOS>BOND
  1   1   2  2   
  2   1   3  2   
  3   1   4  am  
  4   1   5  1   
  5   4   6  1   
  6   4   7  1   
  7   5   8  1   
  8   5  22  1   
  9   5  23  1   
 10   6   9  1   
 11   6  24  1   
 12   6  25  1   
 13   7  10  1   
 14   7  26  1   
 15   7  27  1   
 16   8  11  1   
 17   8  28  1   
 18   8  29  1   
 19   9  12  1   
 20   9  30  1   
 21   9  31  1   
 22  10  12  1   
 23  10  32  1   
 24  10  33  1   
 25  11  13  1   
 26  11  34  1   
 27  11  35  1   
 28  12  14  1   
 29  12  36  1   
 30  13  37  1   
 31  13  38  1   
 32  13  39  1   
 33  14  15  1   
 34  14  40  1   
 35  14  41  1   
 36  15  16  1   
 37  15  42  1   
 38  15  43  1   
 39  16  17  ar  
 40  16  18  ar  
 41  17  19  ar  
 42  17  44  1   
 43  18  20  ar  
 44  18  45  1   
 45  19  21  ar  
 46  19  46  1   
 47  20  21  ar  
 48  20  47  1   
 49  21  48  1   
@<TRIPOS>SUBSTRUCTURE
  1 ****  12 GROUP 4 **** **** 0

# MOE 2024.06 (io_trps.svl 2023.06)
