@<TRIPOS>MOLECULE
NONAME
57 60 1 0 0 
SMALL
USER_CHARGES


@<TRIPOS>ATOM
  1 O        0.2990    -0.9100    -1.4400 O.2   1 <1>  -0.5700 
  2 C       -0.5280    -1.6340    -1.9360 C.2   1 <1>   0.6590 
  3 O       -0.3310    -2.9310    -2.1210 O.3   1 <1>  -0.4300 
  4 C       -1.8600    -1.0780    -2.3690 C.3   1 <1>   0.1570 
  5 C        0.8610    -3.5770    -1.7200 C.3   1 <1>   0.0400 
  6 N       -2.6450    -0.6980    -1.1750 N.pl3 1 <1>   0.0480 
  7 C       -3.6040    -1.5200    -0.6280 C.ar  1 <1>  -0.1520 
  8 C       -2.7550     0.5340    -0.5630 C.2   1 <1>  -0.3320 
  9 C       -4.3540    -0.7880     0.2830 C.ar  1 <1>   0.0000 
 10 C       -3.8920    -2.8710    -0.8520 C.ar  1 <1>  -0.1500 
 11 C       -3.8090     0.5100     0.2830 C.2   1 <1>  -0.1810 
 12 C       -1.8750     1.7530    -0.7760 C.3   1 <1>   0.6030 
 13 C       -5.4080    -1.3970     0.9720 C.ar  1 <1>  -0.1500 
 14 C       -4.9300    -3.4580    -0.1670 C.ar  1 <1>  -0.1500 
 15 C       -4.3270     1.7040     1.0490 C.3   1 <1>   0.0210 
 16 N       -0.6060     1.3980    -0.1440 N.4   1 <1>  -0.9060 
 17 C       -2.4470     3.0100    -0.0680 C.3   1 <1>  -0.1600 
 18 C       -5.6950    -2.7240     0.7480 C.ar  1 <1>  -0.1440 
 19 C       -3.9550     2.9640     0.2560 C.3   1 <1>  -0.1600 
 20 C        0.6610     1.9840    -0.6030 C.3   1 <1>   0.5660 
 21 C       -6.8310    -3.4150     1.4790 C.3   1 <1>  -0.0970 
 22 C        1.6880     1.6290     0.4570 C.ar  1 <1>  -0.1440 
 23 C        0.5920     3.4930    -0.8380 C.3   1 <1>  -0.2400 
 24 C        1.6770     2.2170     1.7180 C.ar  1 <1>  -0.1500 
 25 C        2.6560     0.6780     0.1670 C.ar  1 <1>  -0.1500 
 26 C        2.6190     1.8570     2.6660 C.ar  1 <1>  -0.1500 
 27 C        3.5970     0.3200     1.1150 C.ar  1 <1>  -0.1500 
 28 C        3.5790     0.9090     2.3660 C.ar  1 <1>  -0.1500 
 29 H       -2.3980    -1.8140    -2.9350 H     1 <1>   0.0800 
 30 H       -1.7080    -0.2150    -2.9880 H     1 <1>   0.0800 
 31 H        0.7830    -4.6210    -1.9690 H     1 <1>   0.0800 
 32 H        0.9810    -3.4620    -0.6560 H     1 <1>   0.0800 
 33 H        1.6930    -3.1350    -2.2400 H     1 <1>   0.0800 
 34 H       -3.3110    -3.4510    -1.5470 H     1 <1>   0.1500 
 35 H       -1.7540     1.9320    -1.8320 H     1 <1>   0.0800 
 36 H       -5.9790    -0.8130     1.6700 H     1 <1>   0.1500 
 37 H       -5.1640    -4.4960    -0.3300 H     1 <1>   0.1500 
 38 H       -3.8960     1.7230     2.0350 H     1 <1>   0.0800 
 39 H       -5.3980     1.6420     1.1460 H     1 <1>   0.0800 
 40 H       -0.4830     0.3830    -0.2650 H     1 <1>   0.4500 
 41 H       -0.6900     1.5180     0.8650 H     1 <1>   0.4500 
 42 H       -2.2690     3.8670    -0.6910 H     1 <1>   0.0800 
 43 H       -1.9370     3.1730     0.8650 H     1 <1>   0.0800 
 44 H       -4.2400     3.8380     0.8160 H     1 <1>   0.0800 
 45 H       -4.5170     2.9680    -0.6640 H     1 <1>   0.0800 
 46 H        0.9500     1.5110    -1.5290 H     1 <1>   0.0800 
 47 H       -7.3290    -2.7350     2.1460 H     1 <1>   0.0800 
 48 H       -6.4480    -4.2400     2.0530 H     1 <1>   0.0800 
 49 H       -7.5490    -3.7870     0.7700 H     1 <1>   0.0800 
 50 H        0.2450     4.0190     0.0310 H     1 <1>   0.0800 
 51 H       -0.0320     3.7220    -1.6820 H     1 <1>   0.0800 
 52 H        1.5810     3.8520    -1.0640 H     1 <1>   0.0800 
 53 H        0.9480     2.9620     1.9860 H     1 <1>   0.1500 
 54 H        2.6900     0.2000    -0.7990 H     1 <1>   0.1500 
 55 H        2.6110     2.3150     3.6410 H     1 <1>   0.1500 
 56 H        4.3470    -0.4180     0.8830 H     1 <1>   0.1500 
 57 H        4.3120     0.6300     3.1040 H     1 <1>   0.1500 
@<TRIPOS>BOND
  1   1   2  2   
  2   2   3  1   
  3   2   4  1   
  4   3   5  1   
  5   4   6  1   
  6   4  29  1   
  7   4  30  1   
  8   5  31  1   
  9   5  32  1   
 10   5  33  1   
 11   6   7  1   
 12   6   8  1   
 13   7   9  ar  
 14   7  10  ar  
 15   8  11  2   
 16   8  12  1   
 17   9  11  1   
 18   9  13  ar  
 19  10  14  ar  
 20  10  34  1   
 21  11  15  1   
 22  12  16  1   
 23  12  17  1   
 24  12  35  1   
 25  13  18  ar  
 26  13  36  1   
 27  14  18  ar  
 28  14  37  1   
 29  15  19  1   
 30  15  38  1   
 31  15  39  1   
 32  16  20  1   
 33  16  40  1   
 34  16  41  1   
 35  17  19  1   
 36  17  42  1   
 37  17  43  1   
 38  18  21  1   
 39  19  44  1   
 40  19  45  1   
 41  20  22  1   
 42  20  23  1   
 43  20  46  1   
 44  21  47  1   
 45  21  48  1   
 46  21  49  1   
 47  22  24  ar  
 48  22  25  ar  
 49  23  50  1   
 50  23  51  1   
 51  23  52  1   
 52  24  26  ar  
 53  24  53  1   
 54  25  27  ar  
 55  25  54  1   
 56  26  28  ar  
 57  26  55  1   
 58  27  28  ar  
 59  27  56  1   
 60  28  57  1   
@<TRIPOS>SUBSTRUCTURE
  1 ****   8 GROUP 4 **** **** 0

# MOE 2024.06 (io_trps.svl 2023.06)
