@<TRIPOS>MOLECULE
NONAME
33 33 1 0 0 
SMALL
USER_CHARGES


@<TRIPOS>ATOM
  1 S       -0.4980     0.0950    -1.4690 S.2   1 <1>  -0.3800 
  2 C       -1.8490     0.7540    -0.8460 C.2   1 <1>   0.5000 
  3 N       -2.2940     1.9040    -1.3850 N.am  1 <1>  -0.5390 
  4 N       -2.5400     0.1850     0.1870 N.am  1 <1>  -0.4200 
  5 C       -3.4180     2.5610    -0.9750 C.2   1 <1>  -0.0410 
  6 C       -3.7160     0.8120     0.6520 C.2   1 <1>   0.6160 
  7 C       -2.0840    -1.0760     0.8370 C.3   1 <1>   0.1400 
  8 O       -3.6460     3.5930    -1.6020 O.3   1 <1>  -0.8500 
  9 C       -4.1590     2.0090     0.0700 C.2   1 <1>  -0.1240 
 10 O       -4.3220     0.2520     1.5870 O.2   1 <1>  -0.5700 
 11 C       -2.7250    -2.2810     0.1470 C.3   1 <1>  -0.2400 
 12 C       -5.4400     2.6880     0.5800 C.3   1 <1>   0.0580 
 13 C       -6.5050     2.7500    -0.5320 C.3   1 <1>  -0.1600 
 14 C       -5.1190     4.0690     1.1710 C.3   1 <1>  -0.2400 
 15 C       -7.8950     3.1780    -0.0360 C.3   1 <1>  -0.1600 
 16 C       -8.9240     3.1170    -1.1690 C.3   1 <1>  -0.2400 
 17 H       -1.8140     2.3640    -2.1530 H     1 <1>   0.3700 
 18 H       -2.3530    -1.0660     1.8800 H     1 <1>   0.0800 
 19 H       -1.0130    -1.1520     0.7920 H     1 <1>   0.0800 
 20 H       -3.7960    -2.2240     0.2270 H     1 <1>   0.0800 
 21 H       -2.3930    -3.1880     0.6180 H     1 <1>   0.0800 
 22 H       -2.4440    -2.3080    -0.8900 H     1 <1>   0.0800 
 23 H       -5.8540     2.0980     1.3780 H     1 <1>   0.0800 
 24 H       -6.5740     1.7750    -0.9800 H     1 <1>   0.0800 
 25 H       -6.1690     3.4280    -1.2990 H     1 <1>   0.0800 
 26 H       -4.7990     4.7350     0.3890 H     1 <1>   0.0800 
 27 H       -4.3200     3.9800     1.8840 H     1 <1>   0.0800 
 28 H       -5.9750     4.4900     1.6630 H     1 <1>   0.0800 
 29 H       -7.8520     4.1850     0.3410 H     1 <1>   0.0800 
 30 H       -8.2070     2.5300     0.7640 H     1 <1>   0.0800 
 31 H       -8.6260     3.7680    -1.9730 H     1 <1>   0.0800 
 32 H       -9.8880     3.4290    -0.8100 H     1 <1>   0.0800 
 33 H       -9.0020     2.1140    -1.5480 H     1 <1>   0.0800 
@<TRIPOS>BOND
  1   1   2  2   
  2   2   3  am  
  3   2   4  am  
  4   3   5  1   
  5   3  17  1   
  6   4   6  am  
  7   4   7  1   
  8   5   8  1   
  9   5   9  2   
 10   6   9  1   
 11   6  10  2   
 12   7  11  1   
 13   7  18  1   
 14   7  19  1   
 15   9  12  1   
 16  11  20  1   
 17  11  21  1   
 18  11  22  1   
 19  12  13  1   
 20  12  14  1   
 21  12  23  1   
 22  13  15  1   
 23  13  24  1   
 24  13  25  1   
 25  14  26  1   
 26  14  27  1   
 27  14  28  1   
 28  15  16  1   
 29  15  29  1   
 30  15  30  1   
 31  16  31  1   
 32  16  32  1   
 33  16  33  1   
@<TRIPOS>SUBSTRUCTURE
  1 ****   9 GROUP 4 **** **** 0

# MOE 2024.06 (io_trps.svl 2023.06)
