@<TRIPOS>MOLECULE
NONAME
47 48 1 0 0 
SMALL
USER_CHARGES


@<TRIPOS>ATOM
  1 CL       0.4860    -1.1850     3.2030 Cl    1 <1>  -0.1770 
  2 C       -0.1890    -2.0440     1.8400 C.ar  1 <1>   0.1770 
  3 C       -1.3660    -2.7480     1.9990 C.ar  1 <1>  -0.1500 
  4 C        0.4710    -2.0030     0.6270 C.ar  1 <1>  -0.1500 
  5 C       -1.9120    -3.4350     0.9220 C.ar  1 <1>   0.1170 
  6 C       -0.0610    -2.6840    -0.4550 C.ar  1 <1>  -0.1500 
  7 N       -3.1000    -4.1800     1.0280 N.am  1 <1>  -0.5470 
  8 C       -1.2470    -3.4000    -0.3120 C.ar  1 <1>   0.0830 
  9 C       -4.1880    -4.0480     1.8460 C.2   1 <1>   0.5690 
 10 O       -1.8130    -4.0840    -1.3480 O.3   1 <1>  -0.3620 
 11 O       -4.2270    -3.2640     2.7650 O.2   1 <1>  -0.5700 
 12 C       -5.4240    -4.9230     1.5900 C.3   1 <1>   0.2570 
 13 C       -1.0440    -4.4800    -2.4620 C.3   1 <1>   0.0400 
 14 N       -6.2140    -4.5390     0.3870 N.am  1 <1>  -0.8490 
 15 S       -5.5820    -5.0640    -1.1000 S.o2  1 <1>   1.3330 
 16 C       -7.6620    -4.4920     0.6240 C.3   1 <1>   0.2760 
 17 O       -6.6070    -5.6570    -1.9240 O.2   1 <1>  -0.6500 
 18 O       -4.3840    -5.8240    -0.8190 O.2   1 <1>  -0.6500 
 19 C       -5.0880    -3.5260    -1.8490 C.3   1 <1>  -0.1350 
 20 C       -8.3030    -5.8860     0.7130 C.3   1 <1>  -0.1600 
 21 C       -8.3920    -3.5810    -0.3750 C.3   1 <1>  -0.1600 
 22 C       -9.7980    -5.7760     1.0540 C.3   1 <1>  -0.1600 
 23 C       -9.8830    -3.4770    -0.0230 C.3   1 <1>  -0.1600 
 24 C      -10.5300    -4.8670     0.0550 C.3   1 <1>  -0.1600 
 25 H       -1.8430    -2.7570     2.9600 H     1 <1>   0.1500 
 26 H        1.3850    -1.4440     0.5360 H     1 <1>   0.1500 
 27 H        0.4560    -2.6400    -1.3950 H     1 <1>   0.1500 
 28 H       -3.2190    -4.8550     0.2560 H     1 <1>   0.3700 
 29 H       -6.0390    -4.8410     2.4680 H     1 <1>   0.0800 
 30 H       -5.1240    -5.9540     1.5210 H     1 <1>   0.0800 
 31 H       -1.6400    -5.1500    -3.0560 H     1 <1>   0.0800 
 32 H       -0.1620    -4.9890    -2.1160 H     1 <1>   0.0800 
 33 H       -0.7870    -3.6100    -3.0400 H     1 <1>   0.0800 
 34 H       -7.8070    -4.0260     1.5850 H     1 <1>   0.0800 
 35 H       -5.9440    -2.9030    -2.0160 H     1 <1>   0.0800 
 36 H       -4.6090    -3.7150    -2.7900 H     1 <1>   0.0800 
 37 H       -4.4000    -3.0060    -1.2130 H     1 <1>   0.0800 
 38 H       -7.8140    -6.4710     1.4710 H     1 <1>   0.0800 
 39 H       -8.2110    -6.4040    -0.2240 H     1 <1>   0.0800 
 40 H       -8.3150    -3.9690    -1.3730 H     1 <1>   0.0800 
 41 H       -7.9530    -2.5990    -0.3510 H     1 <1>   0.0800 
 42 H       -9.9120    -5.3770     2.0480 H     1 <1>   0.0800 
 43 H      -10.2420    -6.7560     1.0400 H     1 <1>   0.0800 
 44 H      -10.3880    -2.8870    -0.7690 H     1 <1>   0.0800 
 45 H       -9.9960    -2.9760     0.9240 H     1 <1>   0.0800 
 46 H      -11.5610    -4.7690     0.3470 H     1 <1>   0.0800 
 47 H      -10.5070    -5.3240    -0.9200 H     1 <1>   0.0800 
@<TRIPOS>BOND
  1   1   2  1   
  2   2   3  ar  
  3   2   4  ar  
  4   3   5  ar  
  5   3  25  1   
  6   4   6  ar  
  7   4  26  1   
  8   5   7  1   
  9   5   8  ar  
 10   6   8  ar  
 11   6  27  1   
 12   7   9  am  
 13   7  28  1   
 14   8  10  1   
 15   9  11  2   
 16   9  12  1   
 17  10  13  1   
 18  12  14  1   
 19  12  29  1   
 20  12  30  1   
 21  13  31  1   
 22  13  32  1   
 23  13  33  1   
 24  14  15  am  
 25  14  16  1   
 26  15  17  2   
 27  15  18  2   
 28  15  19  1   
 29  16  20  1   
 30  16  21  1   
 31  16  34  1   
 32  19  35  1   
 33  19  36  1   
 34  19  37  1   
 35  20  22  1   
 36  20  38  1   
 37  20  39  1   
 38  21  23  1   
 39  21  40  1   
 40  21  41  1   
 41  22  24  1   
 42  22  42  1   
 43  22  43  1   
 44  23  24  1   
 45  23  44  1   
 46  23  45  1   
 47  24  46  1   
 48  24  47  1   
@<TRIPOS>SUBSTRUCTURE
  1 ****   7 GROUP 4 **** **** 0

# MOE 2024.06 (io_trps.svl 2023.06)
