@<TRIPOS>MOLECULE
NONAME
44 46 1 0 0 
SMALL
USER_CHARGES


@<TRIPOS>ATOM
  1 CL       0.5250     1.2030     1.4940 Cl    1 <1>  -0.1770 
  2 C       -0.6050     2.2960     0.7420 C.ar  1 <1>   0.1770 
  3 C       -1.1870     3.2970     1.4960 C.ar  1 <1>  -0.1500 
  4 C       -0.9040     2.1500    -0.5990 C.ar  1 <1>  -0.1500 
  5 C       -2.0870     4.1600     0.8940 C.ar  1 <1>  -0.1500 
  6 C       -1.8050     3.0190    -1.1900 C.ar  1 <1>  -0.1500 
  7 C       -2.4230     4.0340    -0.4570 C.ar  1 <1>   0.0860 
  8 C       -3.3750     4.9280    -1.0910 C.2   1 <1>   0.5440 
  9 O       -3.0650     5.4920    -2.1230 O.2   1 <1>  -0.5700 
 10 N       -4.6290     5.1500    -0.5650 N.am  1 <1>  -0.6600 
 11 C       -5.2580     4.2650     0.4700 C.3   1 <1>   0.1400 
 12 C       -5.5240     6.1980    -1.1560 C.3   1 <1>   0.1400 
 13 C       -6.7840     4.1630     0.3060 C.3   1 <1>   0.2090 
 14 C       -6.6340     6.6460    -0.1880 C.3   1 <1>   0.2090 
 15 N       -7.4450     5.5030     0.3430 N.pl3 1 <1>  -0.8380 
 16 C       -8.8040     5.5140     0.0300 C.ar  1 <1>   0.1000 
 17 C       -9.7670     5.7430     1.0140 C.ar  1 <1>  -0.1430 
 18 C       -9.2230     5.2940    -1.2770 C.ar  1 <1>  -0.1500 
 19 C      -11.1110     5.7470     0.6770 C.ar  1 <1>  -0.1500 
 20 C       -9.3490     5.9900     2.4560 C.3   1 <1>  -0.0970 
 21 C      -10.5650     5.3000    -1.6060 C.ar  1 <1>  -0.1500 
 22 C      -11.5190     5.5280    -0.6290 C.ar  1 <1>  -0.1430 
 23 C      -12.9950     5.5340    -0.9800 C.3   1 <1>  -0.0970 
 24 H       -0.9330     3.3960     2.5360 H     1 <1>   0.1500 
 25 H       -0.4330     1.3690    -1.1700 H     1 <1>   0.1500 
 26 H       -2.5360     4.9500     1.4720 H     1 <1>   0.1500 
 27 H       -2.0400     2.9210    -2.2360 H     1 <1>   0.1500 
 28 H       -5.0470     4.6620     1.4480 H     1 <1>   0.0800 
 29 H       -4.8380     3.2770     0.4100 H     1 <1>   0.0800 
 30 H       -5.9740     5.8070    -2.0510 H     1 <1>   0.0800 
 31 H       -4.9340     7.0550    -1.4340 H     1 <1>   0.0800 
 32 H       -7.1890     3.5590     1.1000 H     1 <1>   0.0800 
 33 H       -7.0070     3.6750    -0.6260 H     1 <1>   0.0800 
 34 H       -7.2810     7.3440    -0.6920 H     1 <1>   0.0800 
 35 H       -6.1860     7.1640     0.6410 H     1 <1>   0.0800 
 36 H       -8.4870     5.1170    -2.0380 H     1 <1>   0.1500 
 37 H      -11.8500     5.9230     1.4370 H     1 <1>   0.1500 
 38 H       -8.8160     5.1350     2.8280 H     1 <1>   0.0800 
 39 H      -10.2010     6.1690     3.0840 H     1 <1>   0.0800 
 40 H       -8.7000     6.8460     2.5010 H     1 <1>   0.0800 
 41 H      -10.8630     5.1250    -2.6240 H     1 <1>   0.1500 
 42 H      -13.1360     5.7910    -2.0150 H     1 <1>   0.0800 
 43 H      -13.5190     6.2540    -0.3780 H     1 <1>   0.0800 
 44 H      -13.4140     4.5600    -0.8030 H     1 <1>   0.0800 
@<TRIPOS>BOND
  1   1   2  1   
  2   2   3  ar  
  3   2   4  ar  
  4   3   5  ar  
  5   3  24  1   
  6   4   6  ar  
  7   4  25  1   
  8   5   7  ar  
  9   5  26  1   
 10   6   7  ar  
 11   6  27  1   
 12   7   8  1   
 13   8   9  2   
 14   8  10  am  
 15  10  11  1   
 16  10  12  1   
 17  11  13  1   
 18  11  28  1   
 19  11  29  1   
 20  12  14  1   
 21  12  30  1   
 22  12  31  1   
 23  13  15  1   
 24  13  32  1   
 25  13  33  1   
 26  14  15  1   
 27  14  34  1   
 28  14  35  1   
 29  15  16  1   
 30  16  17  ar  
 31  16  18  ar  
 32  17  19  ar  
 33  17  20  1   
 34  18  21  ar  
 35  18  36  1   
 36  19  22  ar  
 37  19  37  1   
 38  20  38  1   
 39  20  39  1   
 40  20  40  1   
 41  21  22  ar  
 42  21  41  1   
 43  22  23  1   
 44  23  42  1   
 45  23  43  1   
 46  23  44  1   
@<TRIPOS>SUBSTRUCTURE
  1 ****  11 GROUP 4 **** **** 0

# MOE 2024.06 (io_trps.svl 2023.06)
