@<TRIPOS>MOLECULE
NONAME
49 50 1 0 0 
SMALL
USER_CHARGES


@<TRIPOS>ATOM
  1 O       -0.5500     1.1880    -0.3940 O.2   1 <1>  -0.5700 
  2 C       -1.5440     1.4400     0.2530 C.2   1 <1>   0.6590 
  3 O       -1.4540     1.5820     1.5800 O.3   1 <1>  -0.4300 
  4 C       -2.9440     1.6810    -0.4130 C.3   1 <1>   0.6620 
  5 C       -0.2380     1.5120     2.2900 C.3   1 <1>   0.1200 
  6 N       -4.1310     1.4420     0.5120 N.3   1 <1>  -0.8100 
  7 N       -3.0940     3.1470    -0.8100 N.3   1 <1>  -0.8100 
  8 C       -2.9850     0.6630    -1.6110 C.2   1 <1>   0.6590 
  9 C        0.4240     2.8890     2.2630 C.3   1 <1>  -0.2400 
 10 C       -4.1880     0.1260     1.1800 C.3   1 <1>   0.1100 
 11 C       -5.4450     1.7710    -0.1120 C.3   1 <1>   0.1100 
 12 C       -2.1080     3.6050    -1.8210 C.3   1 <1>   0.1100 
 13 C       -3.0370     4.0770     0.3500 C.3   1 <1>   0.1100 
 14 O       -3.3560     0.9430    -2.7300 O.2   1 <1>  -0.5700 
 15 O       -2.6350    -0.5980    -1.3360 O.3   1 <1>  -0.4300 
 16 C       -5.3110     0.0980     2.2410 C.3   1 <1>   0.1200 
 17 C       -6.6380     1.0020     0.4960 C.3   1 <1>   0.1200 
 18 C       -2.3540     5.0750    -2.2030 C.3   1 <1>   0.1200 
 19 C       -3.2590     5.5310    -0.0990 C.3   1 <1>   0.1200 
 20 C       -2.6260    -1.6060    -2.3200 C.3   1 <1>   0.1200 
 21 O       -6.4650     0.8100     1.8690 O.3   1 <1>  -0.5600 
 22 O       -2.3180     5.8910    -1.0680 O.3   1 <1>  -0.5600 
 23 C       -2.1960    -2.9080    -1.6530 C.3   1 <1>  -0.2400 
 24 H        0.3940     0.7610     1.8450 H     1 <1>   0.0800 
 25 H       -0.4660     1.2250     3.3020 H     1 <1>   0.0800 
 26 H        0.6570     3.1720     1.2520 H     1 <1>   0.0800 
 27 H        1.3390     2.8600     2.8260 H     1 <1>   0.0800 
 28 H       -0.2270     3.6230     2.7040 H     1 <1>   0.0800 
 29 H       -3.2570    -0.1060     1.6640 H     1 <1>   0.0800 
 30 H       -4.3840    -0.6480     0.4580 H     1 <1>   0.0800 
 31 H       -5.4250     1.5770    -1.1700 H     1 <1>   0.0800 
 32 H       -5.6260     2.8240     0.0080 H     1 <1>   0.0800 
 33 H       -2.1790     3.0170    -2.7170 H     1 <1>   0.0800 
 34 H       -1.1040     3.5160    -1.4420 H     1 <1>   0.0800 
 35 H       -2.0810     4.0150     0.8380 H     1 <1>   0.0800 
 36 H       -3.7940     3.8280     1.0730 H     1 <1>   0.0800 
 37 H       -4.9520     0.5400     3.1540 H     1 <1>   0.0800 
 38 H       -5.5980    -0.9170     2.4480 H     1 <1>   0.0800 
 39 H       -6.7440     0.0380     0.0310 H     1 <1>   0.0800 
 40 H       -7.5500     1.5530     0.3490 H     1 <1>   0.0800 
 41 H       -3.3130     5.1850    -2.6780 H     1 <1>   0.0800 
 42 H       -1.5900     5.4180    -2.8780 H     1 <1>   0.0800 
 43 H       -3.1460     6.2000     0.7350 H     1 <1>   0.0800 
 44 H       -4.2460     5.6510    -0.5120 H     1 <1>   0.0800 
 45 H       -1.9330    -1.3190    -3.0930 H     1 <1>   0.0800 
 46 H       -3.6170    -1.6900    -2.7340 H     1 <1>   0.0800 
 47 H       -1.2110    -2.8000    -1.2340 H     1 <1>   0.0800 
 48 H       -2.1720    -3.6970    -2.3830 H     1 <1>   0.0800 
 49 H       -2.8910    -3.1780    -0.8790 H     1 <1>   0.0800 
@<TRIPOS>BOND
  1   1   2  2   
  2   2   3  1   
  3   2   4  1   
  4   3   5  1   
  5   4   6  1   
  6   4   7  1   
  7   4   8  1   
  8   5   9  1   
  9   5  24  1   
 10   5  25  1   
 11   6  10  1   
 12   6  11  1   
 13   7  12  1   
 14   7  13  1   
 15   8  14  2   
 16   8  15  1   
 17   9  26  1   
 18   9  27  1   
 19   9  28  1   
 20  10  16  1   
 21  10  29  1   
 22  10  30  1   
 23  11  17  1   
 24  11  31  1   
 25  11  32  1   
 26  12  18  1   
 27  12  33  1   
 28  12  34  1   
 29  13  19  1   
 30  13  35  1   
 31  13  36  1   
 32  15  20  1   
 33  16  21  1   
 34  16  37  1   
 35  16  38  1   
 36  17  21  1   
 37  17  39  1   
 38  17  40  1   
 39  18  22  1   
 40  18  41  1   
 41  18  42  1   
 42  19  22  1   
 43  19  43  1   
 44  19  44  1   
 45  20  23  1   
 46  20  45  1   
 47  20  46  1   
 48  23  47  1   
 49  23  48  1   
 50  23  49  1   
@<TRIPOS>SUBSTRUCTURE
  1 ****   4 GROUP 4 **** **** 0

# MOE 2024.06 (io_trps.svl 2023.06)
