@<TRIPOS>MOLECULE
NONAME
44 46 1 0 0 
SMALL
USER_CHARGES


@<TRIPOS>ATOM
  1 O       -0.6820    -0.5330     1.9740 O.2   1 <1>  -0.5700 
  2 C       -0.6490    -1.3310     1.0690 C.2   1 <1>   0.5690 
  3 N        0.4150    -2.0580     0.5760 N.am  1 <1>  -0.0840 
  4 C       -1.8030    -1.6590     0.1720 C.3   1 <1>  -0.0190 
  5 O        1.7350    -1.9300     1.0220 O.3   1 <1>  -0.3160 
  6 C       -0.0060    -3.0100    -0.3300 C.2   1 <1>   0.5690 
  7 C       -3.3230    -1.6620     0.0560 C.3   1 <1>   0.3380 
  8 C       -1.4900    -3.1260    -0.1380 C.3   1 <1>  -0.0190 
  9 C        2.4350    -1.0240     0.2000 C.3   1 <1>   0.1200 
 10 O        0.6450    -3.6600    -1.1110 O.2   1 <1>  -0.5700 
 11 O       -3.3370    -2.2820    -1.1970 O.3   1 <1>  -0.5600 
 12 C       -4.0360    -2.7630     0.8210 C.2   1 <1>  -0.2880 
 13 C       -2.7680    -3.5220    -0.9040 C.3   1 <1>   0.3380 
 14 C        3.8660    -0.9120     0.7260 C.3   1 <1>  -0.1600 
 15 C       -3.7440    -3.9000     0.1930 C.2   1 <1>  -0.2880 
 16 C        4.6940     0.0620    -0.1230 C.3   1 <1>  -0.1600 
 17 C        6.1290     0.1710     0.4060 C.3   1 <1>  -0.1600 
 18 C        6.9590     1.1430    -0.4410 C.3   1 <1>  -0.1600 
 19 C        8.3940     1.2510     0.0880 C.3   1 <1>  -0.1600 
 20 C        9.2250     2.2230    -0.7580 C.3   1 <1>  -0.1600 
 21 C       10.6570     2.3290    -0.2280 C.3   1 <1>  -0.2400 
 22 H       -1.5370    -1.0530    -0.6830 H     1 <1>   0.0800 
 23 H       -3.8170    -0.7070     0.0040 H     1 <1>   0.0800 
 24 H       -1.5230    -3.7090     0.7700 H     1 <1>   0.0800 
 25 H        1.9410    -0.0680     0.2430 H     1 <1>   0.0800 
 26 H        2.4310    -1.4010    -0.8090 H     1 <1>   0.0800 
 27 H       -4.6460    -2.5410     1.6790 H     1 <1>   0.1500 
 28 H       -2.7000    -4.1600    -1.7690 H     1 <1>   0.0800 
 29 H        4.3240    -1.8860     0.7030 H     1 <1>   0.0800 
 30 H        3.8390    -0.5660     1.7440 H     1 <1>   0.0800 
 31 H       -4.0360    -4.9220     0.3600 H     1 <1>   0.1500 
 32 H        4.2330     1.0350    -0.1060 H     1 <1>   0.0800 
 33 H        4.7170    -0.2820    -1.1440 H     1 <1>   0.0800 
 34 H        6.5920    -0.8010     0.3900 H     1 <1>   0.0800 
 35 H        6.1090     0.5140     1.4270 H     1 <1>   0.0800 
 36 H        6.4980     2.1160    -0.4240 H     1 <1>   0.0800 
 37 H        6.9800     0.8000    -1.4620 H     1 <1>   0.0800 
 38 H        8.8560     0.2790     0.0720 H     1 <1>   0.0800 
 39 H        8.3740     1.5940     1.1090 H     1 <1>   0.0800 
 40 H        8.7680     3.1980    -0.7420 H     1 <1>   0.0800 
 41 H        9.2500     1.8820    -1.7800 H     1 <1>   0.0800 
 42 H       10.6570     2.6890     0.7860 H     1 <1>   0.0800 
 43 H       11.2230     3.0140    -0.8340 H     1 <1>   0.0800 
 44 H       11.1410     1.3690    -0.2560 H     1 <1>   0.0800 
@<TRIPOS>BOND
  1   1   2  2   
  2   2   3  am  
  3   2   4  1   
  4   3   5  1   
  5   3   6  am  
  6   4   7  1   
  7   4   8  1   
  8   4  22  1   
  9   5   9  1   
 10   6   8  1   
 11   6  10  2   
 12   7  11  1   
 13   7  12  1   
 14   7  23  1   
 15   8  13  1   
 16   8  24  1   
 17   9  14  1   
 18   9  25  1   
 19   9  26  1   
 20  11  13  1   
 21  12  15  2   
 22  12  27  1   
 23  13  15  1   
 24  13  28  1   
 25  14  16  1   
 26  14  29  1   
 27  14  30  1   
 28  15  31  1   
 29  16  17  1   
 30  16  32  1   
 31  16  33  1   
 32  17  18  1   
 33  17  34  1   
 34  17  35  1   
 35  18  19  1   
 36  18  36  1   
 37  18  37  1   
 38  19  20  1   
 39  19  38  1   
 40  19  39  1   
 41  20  21  1   
 42  20  40  1   
 43  20  41  1   
 44  21  42  1   
 45  21  43  1   
 46  21  44  1   
@<TRIPOS>SUBSTRUCTURE
  1 ****   9 GROUP 4 **** **** 0

# MOE 2024.06 (io_trps.svl 2023.06)
