@<TRIPOS>MOLECULE
NONAME
43 43 1 0 0 
SMALL
USER_CHARGES


@<TRIPOS>ATOM
  1 O        0.9920     0.9040    -2.4950 O.2   1 <1>  -0.5700 
  2 C        1.1990     1.6190    -1.5390 C.2   1 <1>   0.5440 
  3 N        2.5000     1.7680    -1.1770 N.am  1 <1>  -0.7300 
  4 C        0.1050     2.2490    -0.8240 C.ar  1 <1>   0.0860 
  5 C        3.0470     2.3170     0.1020 C.3   1 <1>   0.2810 
  6 C       -1.0000     1.5060    -0.4140 C.ar  1 <1>  -0.1500 
  7 C        0.1120     3.6080    -0.5170 C.ar  1 <1>  -0.1500 
  8 C        3.7210     3.6910    -0.0650 C.2   1 <1>   0.6590 
  9 C        3.9520     1.2470     0.7460 C.3   1 <1>  -0.1600 
 10 C       -2.0470     2.0740     0.2920 C.ar  1 <1>  -0.1430 
 11 C       -0.9240     4.1880     0.1890 C.ar  1 <1>  -0.1500 
 12 O        3.6190     4.5460     0.7790 O.2   1 <1>  -0.5700 
 13 O        4.4050     3.9010    -1.1900 O.3   1 <1>  -0.4300 
 14 C        5.2610     0.9220    -0.0100 C.3   1 <1>  -0.0800 
 15 C       -2.0080     3.4290     0.6020 C.ar  1 <1>  -0.1430 
 16 C       -3.2190     1.1970     0.7100 C.3   1 <1>  -0.0970 
 17 C        5.0390     5.1330    -1.4580 C.3   1 <1>   0.0400 
 18 C        5.6150    -0.5600     0.1640 C.3   1 <1>  -0.2400 
 19 C        6.4360     1.7700     0.4980 C.3   1 <1>  -0.2400 
 20 C       -3.1310     4.1030     1.3780 C.3   1 <1>  -0.0970 
 21 H        3.1830     1.3420    -1.8040 H     1 <1>   0.3700 
 22 H        2.2250     2.4700     0.7790 H     1 <1>   0.0800 
 23 H       -1.0220     0.4600    -0.6650 H     1 <1>   0.1500 
 24 H        0.9370     4.2180    -0.8380 H     1 <1>   0.1500 
 25 H        3.3570     0.3550     0.8410 H     1 <1>   0.0800 
 26 H        4.1890     1.5570     1.7480 H     1 <1>   0.0800 
 27 H       -0.8820     5.2390     0.4140 H     1 <1>   0.1500 
 28 H        5.1330     1.1050    -1.0640 H     1 <1>   0.0800 
 29 H       -3.0800     0.1840     0.3790 H     1 <1>   0.0800 
 30 H       -4.1300     1.5690     0.2770 H     1 <1>   0.0800 
 31 H       -3.3140     1.1930     1.7800 H     1 <1>   0.0800 
 32 H        5.5250     5.0650    -2.4150 H     1 <1>   0.0800 
 33 H        5.7640     5.3280    -0.6860 H     1 <1>   0.0800 
 34 H        4.2950     5.9110    -1.4740 H     1 <1>   0.0800 
 35 H        5.7460    -0.8010     1.2040 H     1 <1>   0.0800 
 36 H        6.5260    -0.7920    -0.3590 H     1 <1>   0.0800 
 37 H        4.8330    -1.1820    -0.2380 H     1 <1>   0.0800 
 38 H        6.6260     1.5710     1.5390 H     1 <1>   0.0800 
 39 H        6.2440     2.8200     0.3850 H     1 <1>   0.0800 
 40 H        7.3280     1.5370    -0.0570 H     1 <1>   0.0800 
 41 H       -3.2430     3.6380     2.3410 H     1 <1>   0.0800 
 42 H       -4.0550     4.0180     0.8360 H     1 <1>   0.0800 
 43 H       -2.9230     5.1460     1.5300 H     1 <1>   0.0800 
@<TRIPOS>BOND
  1   1   2  2   
  2   2   3  am  
  3   2   4  1   
  4   3   5  1   
  5   3  21  1   
  6   4   6  ar  
  7   4   7  ar  
  8   5   8  1   
  9   5   9  1   
 10   5  22  1   
 11   6  10  ar  
 12   6  23  1   
 13   7  11  ar  
 14   7  24  1   
 15   8  12  2   
 16   8  13  1   
 17   9  14  1   
 18   9  25  1   
 19   9  26  1   
 20  10  15  ar  
 21  10  16  1   
 22  11  15  ar  
 23  11  27  1   
 24  13  17  1   
 25  14  18  1   
 26  14  19  1   
 27  14  28  1   
 28  15  20  1   
 29  16  29  1   
 30  16  30  1   
 31  16  31  1   
 32  17  32  1   
 33  17  33  1   
 34  17  34  1   
 35  18  35  1   
 36  18  36  1   
 37  18  37  1   
 38  19  38  1   
 39  19  39  1   
 40  19  40  1   
 41  20  41  1   
 42  20  42  1   
 43  20  43  1   
@<TRIPOS>SUBSTRUCTURE
  1 ****   5 GROUP 4 **** **** 0

# MOE 2024.06 (io_trps.svl 2023.06)
