@<TRIPOS>MOLECULE
NONAME
42 44 1 0 0 
SMALL
USER_CHARGES


@<TRIPOS>ATOM
  1 S        0.5830     0.7470    -0.2630 S.3   1 <1>  -0.3320 
  2 C        0.1400     2.4200     0.2450 C.ar  1 <1>   0.1020 
  3 C        0.7430    -0.1340     1.3480 C.3   1 <1>  -0.0100 
  4 C       -1.1490     2.9190     0.0500 C.ar  1 <1>   0.1170 
  5 C        1.1340     3.1940     0.8180 C.ar  1 <1>  -0.1500 
  6 N       -2.2020     2.1780    -0.4980 N.am  1 <1>  -0.5470 
  7 C       -1.4040     4.2310     0.4230 C.ar  1 <1>  -0.1500 
  8 C        0.8550     4.4970     1.1940 C.ar  1 <1>  -0.1500 
  9 C       -2.8910     1.1590     0.0930 C.2   1 <1>   0.5690 
 10 C       -0.4150     5.0150     0.9920 C.ar  1 <1>  -0.1500 
 11 O       -2.5080     0.6670     1.1330 O.2   1 <1>  -0.5700 
 12 C       -4.1200     0.5650    -0.6330 C.3   1 <1>  -0.0190 
 13 C       -5.2520     1.5400    -1.1170 C.3   1 <1>  -0.1860 
 14 C       -4.7780    -0.6180     0.1400 C.3   1 <1>  -0.0800 
 15 C       -4.9340     3.0280    -1.0450 C.2   1 <1>   0.9060 
 16 C       -6.6210     1.1390    -0.5070 C.3   1 <1>  -0.0800 
 17 C       -5.8560    -1.2650    -0.7590 C.3   1 <1>  -0.1600 
 18 C       -5.4940    -0.0890     1.4030 C.3   1 <1>  -0.1600 
 19 O       -5.4130     3.7580    -0.1750 O.co2 1 <1>  -0.9000 
 20 O       -4.1450     3.4680    -1.8910 O.co2 1 <1>  -0.9000 
 21 C       -6.9890    -0.2560    -1.0560 C.3   1 <1>  -0.1600 
 22 C       -6.4940     1.0220     1.0260 C.3   1 <1>  -0.1600 
 23 H        0.9010    -1.1760     1.1380 H     1 <1>   0.0800 
 24 H       -0.1730     0.0140     1.8920 H     1 <1>   0.0800 
 25 H        1.5760     0.2900     1.8770 H     1 <1>   0.0800 
 26 H        2.1150     2.7810     0.9580 H     1 <1>   0.1500 
 27 H       -2.7540     2.6950    -1.2100 H     1 <1>   0.3700 
 28 H       -2.3960     4.6280     0.2660 H     1 <1>   0.1500 
 29 H        1.6210     5.1070     1.6390 H     1 <1>   0.1500 
 30 H       -0.6400     6.0280     1.2770 H     1 <1>   0.1500 
 31 H       -3.6960     0.1400    -1.5250 H     1 <1>   0.0800 
 32 H       -5.3520     1.3760    -2.1740 H     1 <1>   0.0800 
 33 H       -4.0350    -1.3490     0.4090 H     1 <1>   0.0800 
 34 H       -7.3740     1.8640    -0.7670 H     1 <1>   0.0800 
 35 H       -6.2630    -2.1330    -0.2710 H     1 <1>   0.0800 
 36 H       -5.4060    -1.5880    -1.6820 H     1 <1>   0.0800 
 37 H       -4.7830     0.2990     2.1120 H     1 <1>   0.0800 
 38 H       -6.0150    -0.8970     1.8840 H     1 <1>   0.0800 
 39 H       -7.1590    -0.1980    -2.1160 H     1 <1>   0.0800 
 40 H       -7.9030    -0.5890    -0.5950 H     1 <1>   0.0800 
 41 H       -7.4560     0.8110     1.4590 H     1 <1>   0.0800 
 42 H       -6.1570     1.9610     1.4310 H     1 <1>   0.0800 
@<TRIPOS>BOND
  1   1   2  1   
  2   1   3  1   
  3   2   4  ar  
  4   2   5  ar  
  5   3  23  1   
  6   3  24  1   
  7   3  25  1   
  8   4   6  1   
  9   4   7  ar  
 10   5   8  ar  
 11   5  26  1   
 12   6   9  am  
 13   6  27  1   
 14   7  10  ar  
 15   7  28  1   
 16   8  10  ar  
 17   8  29  1   
 18   9  11  2   
 19   9  12  1   
 20  10  30  1   
 21  12  13  1   
 22  12  14  1   
 23  12  31  1   
 24  13  15  1   
 25  13  16  1   
 26  13  32  1   
 27  14  17  1   
 28  14  18  1   
 29  14  33  1   
 30  15  19  ar  
 31  15  20  ar  
 32  16  21  1   
 33  16  22  1   
 34  16  34  1   
 35  17  21  1   
 36  17  35  1   
 37  17  36  1   
 38  18  22  1   
 39  18  37  1   
 40  18  38  1   
 41  21  39  1   
 42  21  40  1   
 43  22  41  1   
 44  22  42  1   
@<TRIPOS>SUBSTRUCTURE
  1 ****   9 GROUP 4 **** **** 0

# MOE 2024.06 (io_trps.svl 2023.06)
