@<TRIPOS>MOLECULE
NONAME
59 63 1 0 0 
SMALL
USER_CHARGES


@<TRIPOS>ATOM
  1 O       -0.4210     0.4920     0.5550 O.2   1 <1>  -0.5700 
  2 C       -0.5060    -0.3400    -0.3190 C.2   1 <1>   0.5690 
  3 N       -0.9380     0.0230    -1.5590 N.am  1 <1>  -0.6600 
  4 C       -0.2200    -1.7930    -0.0090 C.3   1 <1>  -0.0990 
  5 C       -0.4930     1.3510    -2.1000 C.3   1 <1>   0.1400 
  6 C       -2.3710    -0.2440    -1.8830 C.3   1 <1>   0.1400 
  7 C        1.2730    -2.0280     0.2370 C.3   1 <1>  -0.0160 
  8 C       -1.5020     2.4790    -1.7720 C.3   1 <1>   0.3430 
  9 C       -3.2820     0.8440    -1.2530 C.3   1 <1>   0.3430 
 10 C        1.5270    -3.5000     0.5130 C.ar  1 <1>  -0.1440 
 11 N       -2.4980     2.0300    -0.7350 N.4   1 <1>  -0.9590 
 12 C        1.8140    -4.3690    -0.5290 C.ar  1 <1>  -0.1500 
 13 C        1.4670    -3.9890     1.8090 C.ar  1 <1>  -0.1500 
 14 C       -3.2970     3.1060    -0.0780 C.3   1 <1>   0.5030 
 15 C        2.0350    -5.7120    -0.2790 C.ar  1 <1>  -0.1500 
 16 C        1.6880    -5.3330     2.0600 C.ar  1 <1>  -0.1500 
 17 C       -2.3450     4.1230     0.5920 C.3   1 <1>  -0.1600 
 18 C       -4.1950     2.4930     1.0220 C.3   1 <1>  -0.1600 
 19 C       -4.1870     3.8450    -1.1000 C.3   1 <1>  -0.1600 
 20 C        1.9720    -6.1950     1.0160 C.ar  1 <1>  -0.1500 
 21 C       -3.1460     5.2300     1.3010 C.3   1 <1>  -0.0800 
 22 C       -5.0070     3.5900     1.7340 C.3   1 <1>  -0.0800 
 23 C       -4.9980     4.9510    -0.3940 C.3   1 <1>  -0.0800 
 24 C       -4.0410     4.5970     2.3800 C.3   1 <1>  -0.1600 
 25 C       -4.0300     5.9510     0.2660 C.3   1 <1>  -0.1600 
 26 C       -5.8830     4.3190     0.6970 C.3   1 <1>  -0.1600 
 27 H       -0.5440    -2.4100    -0.8280 H     1 <1>   0.0800 
 28 H       -0.7750    -2.0780     0.8660 H     1 <1>   0.0800 
 29 H       -0.3550     1.2820    -3.1650 H     1 <1>   0.0800 
 30 H        0.4630     1.6040    -1.6710 H     1 <1>   0.0800 
 31 H       -2.6620    -1.2140    -1.5170 H     1 <1>   0.0800 
 32 H       -2.4990    -0.2510    -2.9520 H     1 <1>   0.0800 
 33 H        1.6030    -1.4400     1.0760 H     1 <1>   0.0800 
 34 H        1.8410    -1.7180    -0.6230 H     1 <1>   0.0800 
 35 H       -2.0200     2.7670    -2.6710 H     1 <1>   0.0800 
 36 H       -0.9470     3.3330    -1.4260 H     1 <1>   0.0800 
 37 H       -3.8240     0.3910    -0.4410 H     1 <1>   0.0800 
 38 H       -4.0040     1.1660    -1.9850 H     1 <1>   0.0800 
 39 H       -1.8900     1.6330     0.0120 H     1 <1>   0.4500 
 40 H        1.8670    -4.0060    -1.5410 H     1 <1>   0.1500 
 41 H        1.2480    -3.3280     2.6290 H     1 <1>   0.1500 
 42 H        2.2570    -6.3820    -1.0920 H     1 <1>   0.1500 
 43 H        1.6400    -5.7060     3.0680 H     1 <1>   0.1500 
 44 H       -1.7130     4.6010    -0.1320 H     1 <1>   0.0800 
 45 H       -1.7190     3.6240     1.3120 H     1 <1>   0.0800 
 46 H       -3.5900     1.9770     1.7470 H     1 <1>   0.0800 
 47 H       -4.8980     1.7960     0.6060 H     1 <1>   0.0800 
 48 H       -3.5860     4.3000    -1.8660 H     1 <1>   0.0800 
 49 H       -4.8730     3.1620    -1.5660 H     1 <1>   0.0800 
 50 H        2.1440    -7.2390     1.2110 H     1 <1>   0.1500 
 51 H       -2.4720     5.9370     1.7590 H     1 <1>   0.0800 
 52 H       -5.6330     3.1520     2.4940 H     1 <1>   0.0800 
 53 H       -5.6190     5.4660    -1.1090 H     1 <1>   0.0800 
 54 H       -3.4340     4.1050     3.1200 H     1 <1>   0.0800 
 55 H       -4.6010     5.3660     2.8840 H     1 <1>   0.0800 
 56 H       -3.4150     6.4200    -0.4830 H     1 <1>   0.0800 
 57 H       -4.5920     6.7310     0.7520 H     1 <1>   0.0800 
 58 H       -6.4580     5.0870     1.1860 H     1 <1>   0.0800 
 59 H       -6.5810     3.6300     0.2540 H     1 <1>   0.0800 
@<TRIPOS>BOND
  1   1   2  2   
  2   2   3  am  
  3   2   4  1   
  4   3   5  1   
  5   3   6  1   
  6   4   7  1   
  7   4  27  1   
  8   4  28  1   
  9   5   8  1   
 10   5  29  1   
 11   5  30  1   
 12   6   9  1   
 13   6  31  1   
 14   6  32  1   
 15   7  10  1   
 16   7  33  1   
 17   7  34  1   
 18   8  11  1   
 19   8  35  1   
 20   8  36  1   
 21   9  11  1   
 22   9  37  1   
 23   9  38  1   
 24  10  12  ar  
 25  10  13  ar  
 26  11  14  1   
 27  11  39  1   
 28  12  15  ar  
 29  12  40  1   
 30  13  16  ar  
 31  13  41  1   
 32  14  17  1   
 33  14  18  1   
 34  14  19  1   
 35  15  20  ar  
 36  15  42  1   
 37  16  20  ar  
 38  16  43  1   
 39  17  21  1   
 40  17  44  1   
 41  17  45  1   
 42  18  22  1   
 43  18  46  1   
 44  18  47  1   
 45  19  23  1   
 46  19  48  1   
 47  19  49  1   
 48  20  50  1   
 49  21  24  1   
 50  21  25  1   
 51  21  51  1   
 52  22  24  1   
 53  22  26  1   
 54  22  52  1   
 55  23  25  1   
 56  23  26  1   
 57  23  53  1   
 58  24  54  1   
 59  24  55  1   
 60  25  56  1   
 61  25  57  1   
 62  26  58  1   
 63  26  59  1   
@<TRIPOS>SUBSTRUCTURE
  1 ****   1 GROUP 4 **** **** 0

# MOE 2024.06 (io_trps.svl 2023.06)
