@<TRIPOS>MOLECULE
NONAME
41 42 1 0 0 
SMALL
USER_CHARGES


@<TRIPOS>ATOM
  1 O        0.4120     3.0770     2.4030 O.2   1 <1>  -0.5700 
  2 C       -0.2620     2.3110     1.7580 C.2   1 <1>   0.5690 
  3 N        0.3020     1.4270     0.8940 N.am  1 <1>  -0.7300 
  4 C       -1.7750     2.3410     1.9040 C.3   1 <1>   0.0440 
  5 C        1.7380     1.2900     0.6480 C.3   1 <1>   0.2200 
  6 C       -2.4730     1.4560     0.8670 C.ar  1 <1>  -0.1440 
  7 C        2.0830     1.9780    -0.6690 C.3   1 <1>  -0.1600 
  8 C        2.1010    -0.1920     0.6040 C.3   1 <1>  -0.1600 
  9 C       -2.7090     1.8890    -0.4350 C.ar  1 <1>  -0.1440 
 10 C       -2.8500     0.1740     1.2400 C.ar  1 <1>  -0.1500 
 11 C        3.5570     1.7740    -1.0040 C.3   1 <1>   0.3430 
 12 C        3.5750    -0.3660     0.2480 C.3   1 <1>   0.3430 
 13 C       -3.3170     1.0300    -1.3390 C.ar  1 <1>  -0.1500 
 14 C       -2.3230     3.2870    -0.9030 C.3   1 <1>  -0.0960 
 15 C       -3.4550    -0.6760     0.3320 C.ar  1 <1>  -0.1500 
 16 N        3.8670     0.3130    -1.0500 N.4   1 <1>  -0.9590 
 17 C       -3.6870    -0.2470    -0.9600 C.ar  1 <1>  -0.1500 
 18 C        5.2870     0.0870    -1.4580 C.3   1 <1>   0.2630 
 19 H       -0.3410     0.8510     0.3390 H     1 <1>   0.3700 
 20 H       -2.1120     3.3570     1.8200 H     1 <1>   0.0800 
 21 H       -2.0200     2.0100     2.8960 H     1 <1>   0.0800 
 22 H        2.2820     1.7650     1.4510 H     1 <1>   0.0800 
 23 H        1.8900     3.0330    -0.5740 H     1 <1>   0.0800 
 24 H        1.4730     1.5950    -1.4680 H     1 <1>   0.0800 
 25 H        1.4930    -0.7100    -0.1160 H     1 <1>   0.0800 
 26 H        1.9220    -0.6280     1.5720 H     1 <1>   0.0800 
 27 H       -2.6770    -0.1750     2.2440 H     1 <1>   0.1500 
 28 H        4.1640     2.2530    -0.2520 H     1 <1>   0.0800 
 29 H        3.7750     2.2300    -1.9570 H     1 <1>   0.0800 
 30 H        3.8050    -1.4170     0.1770 H     1 <1>   0.0800 
 31 H        4.1850     0.0620     1.0290 H     1 <1>   0.0800 
 32 H       -3.5120     1.3510    -2.3470 H     1 <1>   0.1500 
 33 H       -1.2820     3.4750    -0.7140 H     1 <1>   0.0800 
 34 H       -2.9120     4.0220    -0.3850 H     1 <1>   0.0800 
 35 H       -2.4980     3.4030    -1.9580 H     1 <1>   0.0800 
 36 H       -3.7470    -1.6680     0.6310 H     1 <1>   0.1500 
 37 H        3.2540    -0.1090    -1.7640 H     1 <1>   0.4500 
 38 H       -4.1600    -0.9040    -1.6690 H     1 <1>   0.1500 
 39 H        5.9590     0.5170    -0.7330 H     1 <1>   0.0800 
 40 H        5.4780     0.5420    -2.4170 H     1 <1>   0.0800 
 41 H        5.4920    -0.9690    -1.5340 H     1 <1>   0.0800 
@<TRIPOS>BOND
  1   1   2  2   
  2   2   3  am  
  3   2   4  1   
  4   3   5  1   
  5   3  19  1   
  6   4   6  1   
  7   4  20  1   
  8   4  21  1   
  9   5   7  1   
 10   5   8  1   
 11   5  22  1   
 12   6   9  ar  
 13   6  10  ar  
 14   7  11  1   
 15   7  23  1   
 16   7  24  1   
 17   8  12  1   
 18   8  25  1   
 19   8  26  1   
 20   9  13  ar  
 21   9  14  1   
 22  10  15  ar  
 23  10  27  1   
 24  11  16  1   
 25  11  28  1   
 26  11  29  1   
 27  12  16  1   
 28  12  30  1   
 29  12  31  1   
 30  13  17  ar  
 31  13  32  1   
 32  14  33  1   
 33  14  34  1   
 34  14  35  1   
 35  15  17  ar  
 36  15  36  1   
 37  16  18  1   
 38  16  37  1   
 39  17  38  1   
 40  18  39  1   
 41  18  40  1   
 42  18  41  1   
@<TRIPOS>SUBSTRUCTURE
  1 ****   3 GROUP 4 **** **** 0

# MOE 2024.06 (io_trps.svl 2023.06)
