@<TRIPOS>MOLECULE
NONAME
46 47 1 0 0 
SMALL
USER_CHARGES


@<TRIPOS>ATOM
  1 S       -0.0420    -0.1170    -0.6930 S.o2  1 <1>   1.3330 
  2 O        0.9090     0.8340    -0.1670 O.2   1 <1>  -0.6500 
  3 O       -1.4300     0.2620    -0.8090 O.2   1 <1>  -0.6500 
  4 N        0.0850    -1.5450     0.2850 N.am  1 <1>  -0.6930 
  5 C        0.5410    -0.6530    -2.2900 C.3   1 <1>  -0.1350 
  6 C        1.3030    -2.1950     0.4360 C.ar  1 <1>   0.1990 
  7 C       -1.1540    -2.2230     0.7810 C.3   1 <1>   0.3370 
  8 C        1.5100    -3.4500    -0.1240 C.ar  1 <1>  -0.1500 
  9 C        2.3410    -1.6070     1.1480 C.ar  1 <1>  -0.1500 
 10 C       -2.0590    -2.8390    -0.3270 C.2   1 <1>   0.5690 
 11 C       -1.8650    -1.2780     1.7680 C.3   1 <1>  -0.2400 
 12 C        2.7200    -4.1030     0.0290 C.ar  1 <1>  -0.1500 
 13 C        3.5520    -2.2560     1.3010 C.ar  1 <1>  -0.1500 
 14 O       -1.6980    -2.7470    -1.4820 O.2   1 <1>  -0.5700 
 15 N       -3.2100    -3.5390    -0.0230 N.am  1 <1>  -0.6600 
 16 C        3.7490    -3.5090     0.7420 C.ar  1 <1>  -0.1430 
 17 C       -4.1120    -4.0200    -1.1090 C.3   1 <1>   0.1400 
 18 C       -3.5870    -4.0090     1.3470 C.3   1 <1>   0.1400 
 19 C        5.0770    -4.2230     0.9120 C.3   1 <1>  -0.0970 
 20 C       -4.0620    -5.5540    -1.1880 C.3   1 <1>  -0.1600 
 21 C       -4.4140    -5.3060     1.3130 C.3   1 <1>  -0.1600 
 22 C       -3.9510    -6.2400     0.1870 C.3   1 <1>  -0.1600 
 23 H        0.5580     0.1770    -2.9670 H     1 <1>   0.0800 
 24 H       -0.1000    -1.4070    -2.6970 H     1 <1>   0.0800 
 25 H        1.5330    -1.0490    -2.2070 H     1 <1>   0.0800 
 26 H       -0.8180    -3.0600     1.3660 H     1 <1>   0.0800 
 27 H        0.7210    -3.9130    -0.6890 H     1 <1>   0.1500 
 28 H        2.1920    -0.6330     1.5810 H     1 <1>   0.1500 
 29 H       -2.5100    -0.5950     1.2470 H     1 <1>   0.0800 
 30 H       -1.1430    -0.7190     2.3370 H     1 <1>   0.0800 
 31 H       -2.4660    -1.8320     2.4610 H     1 <1>   0.0800 
 32 H        2.8590    -5.0750    -0.4120 H     1 <1>   0.1500 
 33 H        4.3410    -1.7810     1.8580 H     1 <1>   0.1500 
 34 H       -3.8440    -3.5940    -2.0610 H     1 <1>   0.0800 
 35 H       -5.1150    -3.7000    -0.8850 H     1 <1>   0.0800 
 36 H       -4.1550    -3.2410     1.8440 H     1 <1>   0.0800 
 37 H       -2.6920    -4.1960     1.9130 H     1 <1>   0.0800 
 38 H        5.2700    -4.8640     0.0710 H     1 <1>   0.0800 
 39 H        5.0580    -4.8200     1.8060 H     1 <1>   0.0800 
 40 H        5.8800    -3.5120     0.9860 H     1 <1>   0.0800 
 41 H       -3.2230    -5.8430    -1.7970 H     1 <1>   0.0800 
 42 H       -4.9510    -5.8910    -1.6910 H     1 <1>   0.0800 
 43 H       -5.4520    -5.0600     1.1710 H     1 <1>   0.0800 
 44 H       -4.3310    -5.8040     2.2630 H     1 <1>   0.0800 
 45 H       -2.9220    -6.5040     0.3620 H     1 <1>   0.0800 
 46 H       -4.5290    -7.1490     0.1920 H     1 <1>   0.0800 
@<TRIPOS>BOND
  1   1   2  2   
  2   1   3  2   
  3   1   4  am  
  4   1   5  1   
  5   4   6  1   
  6   4   7  1   
  7   5  23  1   
  8   5  24  1   
  9   5  25  1   
 10   6   8  ar  
 11   6   9  ar  
 12   7  10  1   
 13   7  11  1   
 14   7  26  1   
 15   8  12  ar  
 16   8  27  1   
 17   9  13  ar  
 18   9  28  1   
 19  10  14  2   
 20  10  15  am  
 21  11  29  1   
 22  11  30  1   
 23  11  31  1   
 24  12  16  ar  
 25  12  32  1   
 26  13  16  ar  
 27  13  33  1   
 28  15  17  1   
 29  15  18  1   
 30  16  19  1   
 31  17  20  1   
 32  17  34  1   
 33  17  35  1   
 34  18  21  1   
 35  18  36  1   
 36  18  37  1   
 37  19  38  1   
 38  19  39  1   
 39  19  40  1   
 40  20  22  1   
 41  20  41  1   
 42  20  42  1   
 43  21  22  1   
 44  21  43  1   
 45  21  44  1   
 46  22  45  1   
 47  22  46  1   
@<TRIPOS>SUBSTRUCTURE
  1 ****   7 GROUP 4 **** **** 0

# MOE 2024.06 (io_trps.svl 2023.06)
