@<TRIPOS>MOLECULE
NONAME
37 37 1 0 0 
SMALL
USER_CHARGES


@<TRIPOS>ATOM
  1 S        0.4080     0.4030     1.1760 S.o2  1 <1>   1.3330 
  2 O        1.7270     0.0100     1.6180 O.2   1 <1>  -0.6500 
  3 O       -0.5590    -0.5960     0.7960 O.2   1 <1>  -0.6500 
  4 N        0.6280     1.4670    -0.1650 N.am  1 <1>  -0.6930 
  5 C       -0.3040     1.4750     2.4050 C.3   1 <1>  -0.1350 
  6 C       -0.4730     1.9890    -0.8480 C.ar  1 <1>   0.1990 
  7 C        1.9580     2.1320    -0.3330 C.3   1 <1>   0.2570 
  8 C       -0.9840     3.2660    -0.5720 C.ar  1 <1>   0.0830 
  9 C       -1.0800     1.2180    -1.8280 C.ar  1 <1>  -0.1500 
 10 C        2.9700     1.3100    -1.1390 C.2   1 <1>   0.5690 
 11 O       -0.3780     3.9950     0.4150 O.3   1 <1>  -0.3630 
 12 C       -2.0770     3.7410    -1.2900 C.ar  1 <1>  -0.1500 
 13 C       -2.1670     1.6950    -2.5370 C.ar  1 <1>  -0.1500 
 14 O        3.4210     1.7810    -2.1580 O.2   1 <1>  -0.5700 
 15 N        3.3580     0.0870    -0.6840 N.am  1 <1>  -0.7300 
 16 C       -0.7090     5.3460     0.6350 C.3   1 <1>   0.1200 
 17 C       -2.6640     2.9570    -2.2690 C.ar  1 <1>  -0.1500 
 18 C        4.3010    -0.8370    -1.3570 C.3   1 <1>   0.0600 
 19 C        0.2150     5.8830     1.7240 C.3   1 <1>  -0.2400 
 20 H       -0.4640     0.9350     3.3170 H     1 <1>   0.0800 
 21 H       -1.2470     1.8540     2.0610 H     1 <1>   0.0800 
 22 H        0.3490     2.3020     2.6000 H     1 <1>   0.0800 
 23 H        2.3800     2.3450     0.6320 H     1 <1>   0.0800 
 24 H        1.8220     3.0700    -0.8410 H     1 <1>   0.0800 
 25 H       -0.6920     0.2350    -2.0300 H     1 <1>   0.1500 
 26 H       -2.4930     4.7130    -1.1060 H     1 <1>   0.1500 
 27 H       -2.6240     1.0820    -3.2950 H     1 <1>   0.1500 
 28 H        2.9330    -0.2550     0.1940 H     1 <1>   0.3700 
 29 H       -1.7370     5.4010     0.9500 H     1 <1>   0.0800 
 30 H       -0.5690     5.8880    -0.2840 H     1 <1>   0.0800 
 31 H       -3.5100     3.3280    -2.8220 H     1 <1>   0.1500 
 32 H        4.6710    -0.3960    -2.2670 H     1 <1>   0.0800 
 33 H        3.7970    -1.7580    -1.5950 H     1 <1>   0.0800 
 34 H        5.1320    -1.0440    -0.7060 H     1 <1>   0.0800 
 35 H        0.0780     5.3280     2.6350 H     1 <1>   0.0800 
 36 H       -0.0110     6.9160     1.9150 H     1 <1>   0.0800 
 37 H        1.2410     5.8110     1.4080 H     1 <1>   0.0800 
@<TRIPOS>BOND
  1   1   2  2   
  2   1   3  2   
  3   1   4  am  
  4   1   5  1   
  5   4   6  1   
  6   4   7  1   
  7   5  20  1   
  8   5  21  1   
  9   5  22  1   
 10   6   8  ar  
 11   6   9  ar  
 12   7  10  1   
 13   7  23  1   
 14   7  24  1   
 15   8  11  1   
 16   8  12  ar  
 17   9  13  ar  
 18   9  25  1   
 19  10  14  2   
 20  10  15  am  
 21  11  16  1   
 22  12  17  ar  
 23  12  26  1   
 24  13  17  ar  
 25  13  27  1   
 26  15  18  1   
 27  15  28  1   
 28  16  19  1   
 29  16  29  1   
 30  16  30  1   
 31  17  31  1   
 32  18  32  1   
 33  18  33  1   
 34  18  34  1   
 35  19  35  1   
 36  19  36  1   
 37  19  37  1   
@<TRIPOS>SUBSTRUCTURE
  1 ****   4 GROUP 4 **** **** 0

# MOE 2024.06 (io_trps.svl 2023.06)
