@<TRIPOS>MOLECULE
NONAME
32 32 1 0 0 
SMALL
USER_CHARGES


@<TRIPOS>ATOM
  1 CL       0.5910    -0.0690     0.0050 Cl    1 <1>  -0.1770 
  2 C        0.3110     1.6590    -0.0010 C.ar  1 <1>   0.1770 
  3 C        1.3900     2.5370    -0.0040 C.ar  1 <1>   0.0820 
  4 C       -0.9930     2.1160    -0.0030 C.ar  1 <1>  -0.1500 
  5 O        2.6430     2.0080    -0.0010 O.3   1 <1>  -0.3630 
  6 C        1.1350     3.9080    -0.0080 C.ar  1 <1>  -0.1500 
  7 C       -1.2340     3.4800    -0.0070 C.ar  1 <1>  -0.1500 
  8 C        3.7960     2.8090    -0.0030 C.3   1 <1>   0.1200 
  9 C       -0.1720     4.3700    -0.0100 C.ar  1 <1>  -0.1500 
 10 C        4.9910     1.8530     0.0010 C.3   1 <1>   0.3430 
 11 N        6.2960     2.5820     0.0010 N.4   1 <1>  -0.9060 
 12 C        7.4440     1.6240     0.0050 C.3   1 <1>   0.3430 
 13 C        8.7950     2.3450     0.0050 C.3   1 <1>   0.1200 
 14 O        9.7720     1.3650     0.0090 O.3   1 <1>  -0.5600 
 15 C       11.0800     1.8490     0.0100 C.3   1 <1>   0.0400 
 16 H       -1.8060     1.4130     0.0000 H     1 <1>   0.1500 
 17 H        1.9280     4.6310    -0.0110 H     1 <1>   0.1500 
 18 H       -2.2460     3.8480    -0.0090 H     1 <1>   0.1500 
 19 H        3.7790     3.4180     0.8840 H     1 <1>   0.0800 
 20 H        3.7810     3.4130    -0.8930 H     1 <1>   0.0800 
 21 H       -0.3680     5.4290    -0.0140 H     1 <1>   0.1500 
 22 H        4.9280     1.2220    -0.8710 H     1 <1>   0.0800 
 23 H        4.9260     1.2270     0.8770 H     1 <1>   0.0800 
 24 H        6.3580     3.1870     0.8300 H     1 <1>   0.4500 
 25 H        6.3600     3.1820    -0.8320 H     1 <1>   0.4500 
 26 H        7.3950     0.9920    -0.8680 H     1 <1>   0.0800 
 27 H        7.3920     0.9970     0.8810 H     1 <1>   0.0800 
 28 H        8.9150     2.9470     0.8900 H     1 <1>   0.0800 
 29 H        8.9170     2.9410    -0.8840 H     1 <1>   0.0800 
 30 H       11.7500     1.0060     0.0130 H     1 <1>   0.0800 
 31 H       11.2450     2.4410     0.8940 H     1 <1>   0.0800 
 32 H       11.2470     2.4360    -0.8770 H     1 <1>   0.0800 
@<TRIPOS>BOND
  1   1   2  1   
  2   2   3  ar  
  3   2   4  ar  
  4   3   5  1   
  5   3   6  ar  
  6   4   7  ar  
  7   4  16  1   
  8   5   8  1   
  9   6   9  ar  
 10   6  17  1   
 11   7   9  ar  
 12   7  18  1   
 13   8  10  1   
 14   8  19  1   
 15   8  20  1   
 16   9  21  1   
 17  10  11  1   
 18  10  22  1   
 19  10  23  1   
 20  11  12  1   
 21  11  24  1   
 22  11  25  1   
 23  12  13  1   
 24  12  26  1   
 25  12  27  1   
 26  13  14  1   
 27  13  28  1   
 28  13  29  1   
 29  14  15  1   
 30  15  30  1   
 31  15  31  1   
 32  15  32  1   
@<TRIPOS>SUBSTRUCTURE
  1 ****   8 GROUP 4 **** **** 0

# MOE 2024.06 (io_trps.svl 2023.06)
