@<TRIPOS>MOLECULE
NONAME
19 21 1 0 0 
SMALL
USER_CHARGES


@<TRIPOS>ATOM
  1 O       -0.1560    -0.5240     1.2400 O.2   1 <1>  -0.5700 
  2 C       -0.4430    -1.5170     0.6310 C.2   1 <1>   0.5690 
  3 N        0.3510    -2.6050     0.4180 N.am  1 <1>  -0.4900 
  4 C       -1.7140    -1.7820    -0.1190 C.3   1 <1>  -0.0190 
  5 C       -0.3570    -3.6410    -0.1160 C.2   1 <1>   0.5690 
  6 C       -3.1900    -1.4190    -0.2520 C.3   1 <1>   0.3380 
  7 C       -1.8090    -3.2990     0.0630 C.3   1 <1>  -0.0190 
  8 O        0.0920    -4.6570    -0.5710 O.2   1 <1>  -0.5700 
  9 O       -3.4530    -2.3730    -1.2410 O.3   1 <1>  -0.5600 
 10 C       -4.1060    -1.9950     0.8140 C.2   1 <1>  -0.2880 
 11 C       -3.1970    -3.5620    -0.5560 C.3   1 <1>   0.3380 
 12 C       -4.1590    -3.3060     0.5880 C.2   1 <1>  -0.2880 
 13 H        1.3460    -2.6370     0.6250 H     1 <1>   0.3700 
 14 H       -1.3660    -1.5690    -1.1200 H     1 <1>   0.0800 
 15 H       -3.4250    -0.4330    -0.6150 H     1 <1>   0.0800 
 16 H       -1.9290    -3.5340     1.1090 H     1 <1>   0.0800 
 17 H       -4.5770    -1.3620     1.5460 H     1 <1>   0.1500 
 18 H       -3.3540    -4.4330    -1.1690 H     1 <1>   0.0800 
 19 H       -4.6900    -4.1090     1.0690 H     1 <1>   0.1500 
@<TRIPOS>BOND
  1   1   2  2   
  2   2   3  am  
  3   2   4  1   
  4   3   5  am  
  5   3  13  1   
  6   4   6  1   
  7   4   7  1   
  8   4  14  1   
  9   5   7  1   
 10   5   8  2   
 11   6   9  1   
 12   6  10  1   
 13   6  15  1   
 14   7  11  1   
 15   7  16  1   
 16   9  11  1   
 17  10  12  2   
 18  10  17  1   
 19  11  12  1   
 20  11  18  1   
 21  12  19  1   
@<TRIPOS>SUBSTRUCTURE
  1 ****   7 GROUP 4 **** **** 0

# MOE 2024.06 (io_trps.svl 2023.06)
