@<TRIPOS>MOLECULE
NONAME
46 48 1 0 0 
SMALL
USER_CHARGES


@<TRIPOS>ATOM
  1 O       -6.0960    -6.2810     0.0830 O.3   1 <1>  -0.5600 
  2 C       -7.2790    -6.6580     0.7180 C.3   1 <1>   0.2640 
  3 C       -5.4380    -5.1920     0.6520 C.3   1 <1>   0.1200 
  4 C       -7.7950    -7.9170     0.0450 C.ar  1 <1>  -0.1440 
  5 C       -4.1660    -4.9270    -0.1670 C.3   1 <1>   0.2000 
  6 C       -7.6020    -9.1590     0.6340 C.ar  1 <1>  -0.1500 
  7 C       -8.4640    -7.8370    -1.1670 C.ar  1 <1>  -0.1500 
  8 O       -3.5380    -6.1440    -0.4110 O.3   1 <1>  -0.6800 
  9 C       -3.1850    -3.9500     0.5230 C.3   1 <1>   0.3430 
 10 C       -8.0780   -10.3050     0.0200 C.ar  1 <1>  -0.1500 
 11 C       -8.9400    -8.9820    -1.7810 C.ar  1 <1>  -0.1500 
 12 N       -1.7720    -4.1660     0.0710 N.4   1 <1>  -0.9590 
 13 C       -8.7470   -10.2170    -1.1880 C.ar  1 <1>  -0.1500 
 14 C       -1.0460    -5.1060     0.9730 C.3   1 <1>   0.4860 
 15 C       -0.9990    -2.9110    -0.1400 C.3   1 <1>   0.3430 
 16 C        0.3850    -5.3170     0.5020 C.ar  1 <1>  -0.1430 
 17 C        0.2890    -3.2100    -0.9090 C.3   1 <1>  -0.0170 
 18 C        1.0170    -4.4290    -0.3630 C.ar  1 <1>  -0.1430 
 19 C        1.0770    -6.4280     0.9630 C.ar  1 <1>  -0.1500 
 20 C        2.3270    -4.6590    -0.7510 C.ar  1 <1>  -0.1500 
 21 C        2.3850    -6.6520     0.5730 C.ar  1 <1>  -0.1500 
 22 C        3.0110    -5.7660    -0.2840 C.ar  1 <1>  -0.1500 
 23 H       -7.9960    -5.8600     0.6220 H     1 <1>   0.0800 
 24 H       -7.0780    -6.8420     1.7590 H     1 <1>   0.0800 
 25 H       -5.1900    -5.4370     1.6720 H     1 <1>   0.0800 
 26 H       -6.0930    -4.3370     0.6320 H     1 <1>   0.0800 
 27 H       -4.4540    -4.5220    -1.1230 H     1 <1>   0.0800 
 28 H       -7.0800    -9.2420     1.5700 H     1 <1>   0.1500 
 29 H       -8.6130    -6.8810    -1.6380 H     1 <1>   0.1500 
 30 H       -4.2550    -6.8030    -0.5950 H     1 <1>   0.4000 
 31 H       -3.2470    -4.0780     1.5910 H     1 <1>   0.0800 
 32 H       -3.4970    -2.9440     0.2990 H     1 <1>   0.0800 
 33 H       -7.9260   -11.2650     0.4810 H     1 <1>   0.1500 
 34 H       -9.4580    -8.9130    -2.7210 H     1 <1>   0.1500 
 35 H       -1.8320    -4.6920    -0.8170 H     1 <1>   0.4500 
 36 H       -9.1160   -11.1070    -1.6650 H     1 <1>   0.1500 
 37 H       -1.5550    -6.0560     0.9910 H     1 <1>   0.0800 
 38 H       -1.0270    -4.7110     1.9750 H     1 <1>   0.0800 
 39 H       -0.7490    -2.4780     0.8150 H     1 <1>   0.0800 
 40 H       -1.5850    -2.1980    -0.6960 H     1 <1>   0.0800 
 41 H        0.9320    -2.3500    -0.8580 H     1 <1>   0.0800 
 42 H        0.0530    -3.3790    -1.9450 H     1 <1>   0.0800 
 43 H        0.6100    -7.1320     1.6310 H     1 <1>   0.1500 
 44 H        2.8280    -3.9800    -1.4210 H     1 <1>   0.1500 
 45 H        2.9180    -7.5150     0.9340 H     1 <1>   0.1500 
 46 H        4.0290    -5.9400    -0.5880 H     1 <1>   0.1500 
@<TRIPOS>BOND
  1   1   2  1   
  2   1   3  1   
  3   2   4  1   
  4   2  23  1   
  5   2  24  1   
  6   3   5  1   
  7   3  25  1   
  8   3  26  1   
  9   4   6  ar  
 10   4   7  ar  
 11   5   8  1   
 12   5   9  1   
 13   5  27  1   
 14   6  10  ar  
 15   6  28  1   
 16   7  11  ar  
 17   7  29  1   
 18   8  30  1   
 19   9  12  1   
 20   9  31  1   
 21   9  32  1   
 22  10  13  ar  
 23  10  33  1   
 24  11  13  ar  
 25  11  34  1   
 26  12  14  1   
 27  12  15  1   
 28  12  35  1   
 29  13  36  1   
 30  14  16  1   
 31  14  37  1   
 32  14  38  1   
 33  15  17  1   
 34  15  39  1   
 35  15  40  1   
 36  16  18  ar  
 37  16  19  ar  
 38  17  18  1   
 39  17  41  1   
 40  17  42  1   
 41  18  20  ar  
 42  19  21  ar  
 43  19  43  1   
 44  20  22  ar  
 45  20  44  1   
 46  21  22  ar  
 47  21  45  1   
 48  22  46  1   
@<TRIPOS>SUBSTRUCTURE
  1 ****   8 GROUP 4 **** **** 0

# MOE 2024.06 (io_trps.svl 2023.06)
