@<TRIPOS>MOLECULE
NONAME
28 28 1 0 0 
SMALL
USER_CHARGES


@<TRIPOS>ATOM
  1 CL      -0.0090     0.3920    -1.4180 Cl    1 <1>  -0.1770 
  2 C        1.4710     1.0270    -0.7510 C.ar  1 <1>   0.1770 
  3 C        2.4900     1.4100    -1.6000 C.ar  1 <1>  -0.1500 
  4 C        1.6060     1.1400     0.6190 C.ar  1 <1>  -0.1500 
  5 C        3.6640     1.9130    -1.0630 C.ar  1 <1>  -0.1500 
  6 C        2.7860     1.6440     1.1430 C.ar  1 <1>  -0.1500 
  7 C        3.8350     2.0350     0.3140 C.ar  1 <1>  -0.0090 
  8 S        5.3790     2.7040     0.9990 S.o2  1 <1>   1.4470 
  9 O        5.5270     2.2590     2.3700 O.2   1 <1>  -0.6500 
 10 O        5.4160     4.1230     0.7160 O.2   1 <1>  -0.6500 
 11 N        6.5550     1.9310     0.0570 N.am  1 <1>  -0.8490 
 12 C        7.8450     2.7070    -0.0010 C.3   1 <1>   0.0900 
 13 C        6.7890     0.5360     0.4340 C.3   1 <1>   0.1960 
 14 C        9.0450     2.1250    -0.7680 C.2   1 <1>   0.9060 
 15 C        6.8160    -0.3220    -0.8280 C.3   1 <1>  -0.2400 
 16 O        9.2480     2.4730    -1.9380 O.co2 1 <1>  -0.9000 
 17 O        9.7970     1.3320    -0.1830 O.co2 1 <1>  -0.9000 
 18 H        2.3680     1.3170    -2.6650 H     1 <1>   0.1500 
 19 H        0.7990     0.8380     1.2630 H     1 <1>   0.1500 
 20 H        4.4670     2.2140    -1.7170 H     1 <1>   0.1500 
 21 H        2.8990     1.7350     2.2110 H     1 <1>   0.1500 
 22 H        8.1860     2.8820     1.0030 H     1 <1>   0.0800 
 23 H        7.6470     3.6660    -0.4430 H     1 <1>   0.0800 
 24 H        5.9950     0.1730     1.0640 H     1 <1>   0.0800 
 25 H        7.7120     0.4350     0.9830 H     1 <1>   0.0800 
 26 H        5.8860    -0.2370    -1.3580 H     1 <1>   0.0800 
 27 H        6.9730    -1.3500    -0.5600 H     1 <1>   0.0800 
 28 H        7.6220    -0.0200    -1.4740 H     1 <1>   0.0800 
@<TRIPOS>BOND
  1   1   2  1   
  2   2   3  ar  
  3   2   4  ar  
  4   3   5  ar  
  5   3  18  1   
  6   4   6  ar  
  7   4  19  1   
  8   5   7  ar  
  9   5  20  1   
 10   6   7  ar  
 11   6  21  1   
 12   7   8  1   
 13   8   9  2   
 14   8  10  2   
 15   8  11  am  
 16  11  12  1   
 17  11  13  1   
 18  12  14  1   
 19  12  22  1   
 20  12  23  1   
 21  13  15  1   
 22  13  24  1   
 23  13  25  1   
 24  14  16  ar  
 25  14  17  ar  
 26  15  26  1   
 27  15  27  1   
 28  15  28  1   
@<TRIPOS>SUBSTRUCTURE
  1 ****  11 GROUP 4 **** **** 0

# MOE 2024.06 (io_trps.svl 2023.06)
