@<TRIPOS>MOLECULE
NONAME
44 45 1 0 0 
SMALL
USER_CHARGES


@<TRIPOS>ATOM
  1 O       -0.0120    -0.2230     1.2990 O.2   1 <1>  -0.5700 
  2 C        0.6470    -1.1100     0.7890 C.2   1 <1>   0.6900 
  3 N        0.1220    -2.3570     0.6300 N.am  1 <1>  -0.6600 
  4 N        1.9340    -0.9360     0.3860 N.am  1 <1>  -0.5470 
  5 C       -1.2220    -2.5580     0.0020 C.3   1 <1>   0.2200 
  6 C        0.4760    -3.3360     1.6900 C.3   1 <1>   0.1400 
  7 C        2.8430     0.1360     0.4080 C.ar  1 <1>   0.1170 
  8 C       -1.3450    -4.0160    -0.4890 C.3   1 <1>  -0.1600 
  9 C       -1.4460    -1.5680    -1.1660 C.3   1 <1>  -0.1600 
 10 C        0.4010    -4.7630     1.1500 C.3   1 <1>  -0.1600 
 11 C        4.1070    -0.0590    -0.1640 C.ar  1 <1>   0.0830 
 12 C        2.5480     1.3730     0.9690 C.ar  1 <1>  -0.1500 
 13 C       -0.9920    -5.0500     0.5860 C.3   1 <1>  -0.1600 
 14 C       -2.7990    -1.7200    -1.8780 C.3   1 <1>  -0.2400 
 15 O        4.3620    -1.2900    -0.7040 O.3   1 <1>  -0.3630 
 16 C        5.0400     0.9740    -0.1650 C.ar  1 <1>  -0.1500 
 17 C        3.4790     2.3970     0.9650 C.ar  1 <1>  -0.1500 
 18 C        5.5860    -1.5720    -1.3420 C.3   1 <1>   0.1200 
 19 C        4.7240     2.1980     0.3990 C.ar  1 <1>  -0.1500 
 20 C        5.5310    -3.0090    -1.8490 C.3   1 <1>  -0.2400 
 21 H        2.3090    -1.7620    -0.0750 H     1 <1>   0.3700 
 22 H       -1.9710    -2.3770     0.7560 H     1 <1>   0.0800 
 23 H       -0.2090    -3.2190     2.5120 H     1 <1>   0.0800 
 24 H        1.4710    -3.1380     2.0530 H     1 <1>   0.0800 
 25 H       -0.6970    -4.1520    -1.3380 H     1 <1>   0.0800 
 26 H       -2.3520    -4.2040    -0.8140 H     1 <1>   0.0800 
 27 H       -0.6550    -1.6830    -1.8860 H     1 <1>   0.0800 
 28 H       -1.4060    -0.5620    -0.7880 H     1 <1>   0.0800 
 29 H        0.6200    -5.4560     1.9440 H     1 <1>   0.0800 
 30 H        1.1450    -4.8910     0.3830 H     1 <1>   0.0800 
 31 H        1.5870     1.5490     1.4150 H     1 <1>   0.1500 
 32 H       -1.0190    -6.0400     0.1640 H     1 <1>   0.0800 
 33 H       -1.7190    -5.0040     1.3800 H     1 <1>   0.0800 
 34 H       -2.8510    -2.6450    -2.4240 H     1 <1>   0.0800 
 35 H       -2.9300    -0.9140    -2.5790 H     1 <1>   0.0800 
 36 H       -3.6050    -1.6830    -1.1660 H     1 <1>   0.0800 
 37 H        6.0140     0.8500    -0.5950 H     1 <1>   0.1500 
 38 H        3.2290     3.3470     1.4050 H     1 <1>   0.1500 
 39 H        6.3800    -1.4510    -0.6260 H     1 <1>   0.0800 
 40 H        5.7100    -0.8840    -2.1610 H     1 <1>   0.0800 
 41 H        5.4470     2.9960     0.3970 H     1 <1>   0.1500 
 42 H        5.3900    -3.6870    -1.0250 H     1 <1>   0.0800 
 43 H        6.4530    -3.2570    -2.3420 H     1 <1>   0.0800 
 44 H        4.7240    -3.1230    -2.5510 H     1 <1>   0.0800 
@<TRIPOS>BOND
  1   1   2  2   
  2   2   3  am  
  3   2   4  am  
  4   3   5  1   
  5   3   6  1   
  6   4   7  1   
  7   4  21  1   
  8   5   8  1   
  9   5   9  1   
 10   5  22  1   
 11   6  10  1   
 12   6  23  1   
 13   6  24  1   
 14   7  11  ar  
 15   7  12  ar  
 16   8  13  1   
 17   8  25  1   
 18   8  26  1   
 19   9  14  1   
 20   9  27  1   
 21   9  28  1   
 22  10  13  1   
 23  10  29  1   
 24  10  30  1   
 25  11  15  1   
 26  11  16  ar  
 27  12  17  ar  
 28  12  31  1   
 29  13  32  1   
 30  13  33  1   
 31  14  34  1   
 32  14  35  1   
 33  14  36  1   
 34  15  18  1   
 35  16  19  ar  
 36  16  37  1   
 37  17  19  ar  
 38  17  38  1   
 39  18  20  1   
 40  18  39  1   
 41  18  40  1   
 42  19  41  1   
 43  20  42  1   
 44  20  43  1   
 45  20  44  1   
@<TRIPOS>SUBSTRUCTURE
  1 ****   4 GROUP 4 **** **** 0

# MOE 2024.06 (io_trps.svl 2023.06)
