@<TRIPOS>MOLECULE
NONAME
35 37 1 0 0 
SMALL
USER_CHARGES


@<TRIPOS>ATOM
  1 S       -0.0920    -0.2670     0.2870 S.3   1 <1>  -0.3320 
  2 C       -1.8100     0.2220     0.1750 C.ar  1 <1>   0.7220 
  3 C        0.8620     1.3040     0.0900 C.3   1 <1>   0.0700 
  4 N       -2.0390     1.5450    -0.0160 N.ar  1 <1>  -0.3100 
  5 N       -2.6840    -0.7440     0.2890 N.ar  1 <1>  -0.5670 
  6 C        2.3510     0.9660     0.1740 C.3   1 <1>  -0.1600 
  7 N       -3.2620     1.9830    -0.1090 N.ar  1 <1>  -0.2560 
  8 C       -3.9320    -0.2790     0.1910 C.ar  1 <1>   0.1050 
  9 C        3.2140     2.2230     0.0190 C.3   1 <1>  -0.2400 
 10 C       -4.2230     1.0590    -0.0040 C.ar  1 <1>   0.2560 
 11 N       -5.1010    -0.9920     0.2600 N.pl3 1 <1>   0.0480 
 12 C       -5.6380     1.1770    -0.0570 C.ar  1 <1>   0.0000 
 13 C       -6.1550    -0.1060     0.1080 C.ar  1 <1>  -0.1520 
 14 C       -5.2060    -2.4540     0.4580 C.3   1 <1>   0.0960 
 15 C       -6.5010     2.2590    -0.2310 C.ar  1 <1>  -0.1500 
 16 C       -7.5340    -0.3200     0.1000 C.ar  1 <1>  -0.1500 
 17 C       -5.3740    -3.1690    -0.8860 C.3   1 <1>  -0.2400 
 18 C       -7.8620     2.0440    -0.2370 C.ar  1 <1>  -0.1500 
 19 C       -8.3770     0.7560    -0.0720 C.ar  1 <1>  -0.1500 
 20 H        0.5580     1.9670     0.8820 H     1 <1>   0.0800 
 21 H        0.6020     1.7220    -0.8670 H     1 <1>   0.0800 
 22 H        2.6010     0.2630    -0.6020 H     1 <1>   0.0800 
 23 H        2.5580     0.5070     1.1250 H     1 <1>   0.0800 
 24 H        3.0350     2.6870    -0.9350 H     1 <1>   0.0800 
 25 H        4.2560     1.9620     0.0810 H     1 <1>   0.0800 
 26 H        2.9920     2.9310     0.7970 H     1 <1>   0.0800 
 27 H       -6.0450    -2.6580     1.0980 H     1 <1>   0.0800 
 28 H       -4.3130    -2.8010     0.9480 H     1 <1>   0.0800 
 29 H       -6.0900     3.2450    -0.3570 H     1 <1>   0.1500 
 30 H       -7.9310    -1.3110     0.2260 H     1 <1>   0.1500 
 31 H       -6.2660    -2.8320    -1.3830 H     1 <1>   0.0800 
 32 H       -5.4500    -4.2290    -0.7270 H     1 <1>   0.0800 
 33 H       -4.5210    -2.9790    -1.5150 H     1 <1>   0.0800 
 34 H       -8.5400     2.8700    -0.3700 H     1 <1>   0.1500 
 35 H       -9.4440     0.6120    -0.0810 H     1 <1>   0.1500 
@<TRIPOS>BOND
  1   1   2  1   
  2   1   3  1   
  3   2   4  ar  
  4   2   5  ar  
  5   3   6  1   
  6   3  20  1   
  7   3  21  1   
  8   4   7  ar  
  9   5   8  ar  
 10   6   9  1   
 11   6  22  1   
 12   6  23  1   
 13   7  10  ar  
 14   8  10  ar  
 15   8  11  1   
 16   9  24  1   
 17   9  25  1   
 18   9  26  1   
 19  10  12  1   
 20  11  13  1   
 21  11  14  1   
 22  12  13  ar  
 23  12  15  ar  
 24  13  16  ar  
 25  14  17  1   
 26  14  27  1   
 27  14  28  1   
 28  15  18  ar  
 29  15  29  1   
 30  16  19  ar  
 31  16  30  1   
 32  17  31  1   
 33  17  32  1   
 34  17  33  1   
 35  18  19  ar  
 36  18  34  1   
 37  19  35  1   
@<TRIPOS>SUBSTRUCTURE
  1 ****   8 GROUP 4 **** **** 0

# MOE 2024.06 (io_trps.svl 2023.06)
