@<TRIPOS>MOLECULE
NONAME
50 52 1 0 0 
SMALL
USER_CHARGES


@<TRIPOS>ATOM
  1 O        0.0460    -1.6140     2.3950 O.2   1 <1>  -0.5700 
  2 C        0.4670    -1.4920     1.2700 C.2   1 <1>   0.5690 
  3 N       -0.2670    -1.0510     0.2060 N.am  1 <1>  -0.5470 
  4 C        1.9270    -1.8460     0.9790 C.3   1 <1>   0.1710 
  5 C       -1.5970    -0.6350     0.0520 C.ar  1 <1>   0.1170 
  6 N        2.4740    -1.1750    -0.2390 N.3   1 <1>  -0.8100 
  7 C       -2.5470    -0.7130     1.0650 C.ar  1 <1>  -0.1500 
  8 C       -1.9900    -0.1190    -1.1770 C.ar  1 <1>  -0.1500 
  9 C        2.7550     0.2590     0.0300 C.3   1 <1>   0.1100 
 10 C        3.7200    -1.8360    -0.6880 C.3   1 <1>   0.1100 
 11 C       -3.8460    -0.2850     0.8560 C.ar  1 <1>  -0.1500 
 12 C       -3.2880     0.3100    -1.3890 C.ar  1 <1>  -0.1500 
 13 C        3.3170     0.9940    -1.2040 C.3   1 <1>   0.2090 
 14 C        4.3150    -1.1790    -1.9500 C.3   1 <1>   0.2090 
 15 C       -4.2250     0.2310    -0.3720 C.ar  1 <1>  -0.1440 
 16 N        4.4950     0.2950    -1.7960 N.pl3 1 <1>  -0.8380 
 17 C       -5.6510     0.6980    -0.6000 C.3   1 <1>  -0.0970 
 18 C        5.7630     0.7660    -1.4710 C.ar  1 <1>   0.1000 
 19 C        6.3160     0.5790    -0.2110 C.ar  1 <1>  -0.1500 
 20 C        6.5040     1.4420    -2.4300 C.ar  1 <1>  -0.1500 
 21 C        7.5790     1.0540     0.0930 C.ar  1 <1>   0.0820 
 22 C        7.7670     1.9230    -2.1400 C.ar  1 <1>  -0.1500 
 23 O        8.0330     0.8220     1.3520 O.3   1 <1>  -0.3620 
 24 C        8.3100     1.7320    -0.8800 C.ar  1 <1>  -0.1500 
 25 C        9.3080     1.2650     1.7600 C.3   1 <1>   0.0400 
 26 H        0.3250    -0.9760    -0.6280 H     1 <1>   0.3700 
 27 H        1.9670    -2.9120     0.8450 H     1 <1>   0.0800 
 28 H        2.5250    -1.5990     1.8380 H     1 <1>   0.0800 
 29 H       -2.2800    -1.1110     2.0260 H     1 <1>   0.1500 
 30 H       -1.2770    -0.0510    -1.9770 H     1 <1>   0.1500 
 31 H        3.4650     0.3480     0.8340 H     1 <1>   0.0800 
 32 H        1.8520     0.7560     0.3380 H     1 <1>   0.0800 
 33 H        3.5150    -2.8690    -0.9090 H     1 <1>   0.0800 
 34 H        4.4550    -1.8070     0.0970 H     1 <1>   0.0800 
 35 H       -4.5610    -0.3580     1.6570 H     1 <1>   0.1500 
 36 H       -3.5680     0.7050    -2.3500 H     1 <1>   0.1500 
 37 H        3.6000     1.9940    -0.9240 H     1 <1>   0.0800 
 38 H        2.5470     1.0680    -1.9510 H     1 <1>   0.0800 
 39 H        3.6600    -1.3620    -2.7840 H     1 <1>   0.0800 
 40 H        5.2650    -1.6320    -2.1740 H     1 <1>   0.0800 
 41 H       -5.6780     1.4790    -1.3390 H     1 <1>   0.0800 
 42 H       -6.0700     1.0820     0.3130 H     1 <1>   0.0800 
 43 H       -6.2530    -0.1250    -0.9400 H     1 <1>   0.0800 
 44 H        5.7610     0.0610     0.5440 H     1 <1>   0.1500 
 45 H        6.0740     1.5850    -3.4040 H     1 <1>   0.1500 
 46 H        8.3280     2.4460    -2.8950 H     1 <1>   0.1500 
 47 H        9.2920     2.1140    -0.6790 H     1 <1>   0.1500 
 48 H        9.4520     0.9710     2.7840 H     1 <1>   0.0800 
 49 H        9.3480     2.3360     1.6780 H     1 <1>   0.0800 
 50 H       10.0540     0.8010     1.1390 H     1 <1>   0.0800 
@<TRIPOS>BOND
  1   1   2  2   
  2   2   3  am  
  3   2   4  1   
  4   3   5  1   
  5   3  26  1   
  6   4   6  1   
  7   4  27  1   
  8   4  28  1   
  9   5   7  ar  
 10   5   8  ar  
 11   6   9  1   
 12   6  10  1   
 13   7  11  ar  
 14   7  29  1   
 15   8  12  ar  
 16   8  30  1   
 17   9  13  1   
 18   9  31  1   
 19   9  32  1   
 20  10  14  1   
 21  10  33  1   
 22  10  34  1   
 23  11  15  ar  
 24  11  35  1   
 25  12  15  ar  
 26  12  36  1   
 27  13  16  1   
 28  13  37  1   
 29  13  38  1   
 30  14  16  1   
 31  14  39  1   
 32  14  40  1   
 33  15  17  1   
 34  16  18  1   
 35  17  41  1   
 36  17  42  1   
 37  17  43  1   
 38  18  19  ar  
 39  18  20  ar  
 40  19  21  ar  
 41  19  44  1   
 42  20  22  ar  
 43  20  45  1   
 44  21  23  1   
 45  21  24  ar  
 46  22  24  ar  
 47  22  46  1   
 48  23  25  1   
 49  24  47  1   
 50  25  48  1   
 51  25  49  1   
 52  25  50  1   
@<TRIPOS>SUBSTRUCTURE
  1 ****   9 GROUP 4 **** **** 0

# MOE 2024.06 (io_trps.svl 2023.06)
