@<TRIPOS>MOLECULE
NONAME
44 46 1 0 0 
SMALL
USER_CHARGES


@<TRIPOS>ATOM
  1 O       -0.6940     0.4300     0.1020 O.3   1 <1>  -0.1650 
  2 C       -1.7800     0.8350     0.8090 C.ar  1 <1>   0.0830 
  3 C       -0.5030    -0.8750    -0.2150 C.ar  1 <1>   0.0830 
  4 C       -3.0120     0.1990     0.7000 C.ar  1 <1>  -0.1500 
  5 C       -1.6420     1.9310     1.6450 C.ar  1 <1>  -0.1500 
  6 C       -0.7080    -1.8870     0.7150 C.ar  1 <1>  -0.1500 
  7 C       -0.0830    -1.1880    -1.4980 C.ar  1 <1>  -0.1500 
  8 C       -4.1000     0.6510     1.4310 C.ar  1 <1>  -0.1430 
  9 C       -2.7250     2.3840     2.3770 C.ar  1 <1>  -0.1500 
 10 C       -0.5120    -3.2080     0.3510 C.ar  1 <1>  -0.1500 
 11 C        0.1140    -2.5100    -1.8590 C.ar  1 <1>  -0.1500 
 12 C       -3.9490     1.7450     2.2700 C.ar  1 <1>  -0.1500 
 13 C       -5.4500    -0.0390     1.3060 C.3   1 <1>   0.2530 
 14 C       -0.1030    -3.5190    -0.9360 C.ar  1 <1>  -0.1500 
 15 N       -6.4020     0.8170     0.5690 N.3   1 <1>  -0.8100 
 16 C       -5.9220     1.1370    -0.8020 C.3   1 <1>   0.1100 
 17 C       -7.7540     0.2170     0.5230 C.3   1 <1>   0.1100 
 18 C       -6.9440     1.9700    -1.6130 C.3   1 <1>   0.3430 
 19 C       -8.7780     1.1360    -0.1910 C.3   1 <1>   0.3430 
 20 N       -8.1140     2.3570    -0.7600 N.4   1 <1>  -0.9590 
 21 C       -9.0590     3.2950    -1.4310 C.3   1 <1>   0.2630 
 22 H       -3.1170    -0.6420     0.0400 H     1 <1>   0.1500 
 23 H       -0.6880     2.4230     1.7210 H     1 <1>   0.1500 
 24 H       -1.0160    -1.6430     1.7160 H     1 <1>   0.1500 
 25 H        0.0860    -0.3980    -2.2080 H     1 <1>   0.1500 
 26 H       -2.6150     3.2330     3.0300 H     1 <1>   0.1500 
 27 H       -0.6730    -3.9940     1.0690 H     1 <1>   0.1500 
 28 H        0.4370    -2.7530    -2.8570 H     1 <1>   0.1500 
 29 H       -4.7880     2.1040     2.8390 H     1 <1>   0.1500 
 30 H       -5.8300    -0.2310     2.2950 H     1 <1>   0.0800 
 31 H       -5.3360    -0.9850     0.8030 H     1 <1>   0.0800 
 32 H        0.0490    -4.5460    -1.2170 H     1 <1>   0.1500 
 33 H       -5.6990     0.2300    -1.3380 H     1 <1>   0.0800 
 34 H       -5.0080     1.7040    -0.7380 H     1 <1>   0.0800 
 35 H       -8.0990     0.0300     1.5260 H     1 <1>   0.0800 
 36 H       -7.7160    -0.7310     0.0120 H     1 <1>   0.0800 
 37 H       -7.2800     1.3920    -2.4580 H     1 <1>   0.0800 
 38 H       -6.4520     2.8510    -1.9920 H     1 <1>   0.0800 
 39 H       -9.5330     1.4310     0.5190 H     1 <1>   0.0800 
 40 H       -9.2650     0.5800    -0.9750 H     1 <1>   0.0800 
 41 H       -7.6730     2.8030     0.0630 H     1 <1>   0.4500 
 42 H       -9.5100     2.8220    -2.2880 H     1 <1>   0.0800 
 43 H       -8.5370     4.1800    -1.7580 H     1 <1>   0.0800 
 44 H       -9.8390     3.5900    -0.7480 H     1 <1>   0.0800 
@<TRIPOS>BOND
  1   1   2  1   
  2   1   3  1   
  3   2   4  ar  
  4   2   5  ar  
  5   3   6  ar  
  6   3   7  ar  
  7   4   8  ar  
  8   4  22  1   
  9   5   9  ar  
 10   5  23  1   
 11   6  10  ar  
 12   6  24  1   
 13   7  11  ar  
 14   7  25  1   
 15   8  12  ar  
 16   8  13  1   
 17   9  12  ar  
 18   9  26  1   
 19  10  14  ar  
 20  10  27  1   
 21  11  14  ar  
 22  11  28  1   
 23  12  29  1   
 24  13  15  1   
 25  13  30  1   
 26  13  31  1   
 27  14  32  1   
 28  15  16  1   
 29  15  17  1   
 30  16  18  1   
 31  16  33  1   
 32  16  34  1   
 33  17  19  1   
 34  17  35  1   
 35  17  36  1   
 36  18  20  1   
 37  18  37  1   
 38  18  38  1   
 39  19  20  1   
 40  19  39  1   
 41  19  40  1   
 42  20  21  1   
 43  20  41  1   
 44  21  42  1   
 45  21  43  1   
 46  21  44  1   
@<TRIPOS>SUBSTRUCTURE
  1 ****   4 GROUP 4 **** **** 0

# MOE 2024.06 (io_trps.svl 2023.06)
