@<TRIPOS>MOLECULE
NONAME
34 35 1 0 0 
SMALL
USER_CHARGES


@<TRIPOS>ATOM
  1 O       -0.0300     0.3810    -0.9060 O.2   1 <1>  -0.5700 
  2 C       -0.1700     1.5550    -0.6150 C.2   1 <1>   0.6900 
  3 N        0.8900     2.3090    -0.1870 N.am  1 <1>  -0.6600 
  4 N       -1.3960     2.1170    -0.6980 N.am  1 <1>  -0.7300 
  5 C        0.8400     3.7990    -0.0910 C.3   1 <1>   0.1400 
  6 C        2.1950     1.6460     0.1060 C.3   1 <1>   0.1400 
  7 C       -2.6270     1.3650    -0.9690 C.3   1 <1>   0.2840 
  8 C        2.2250     4.4060    -0.3350 C.3   1 <1>  -0.1600 
  9 C        2.9880     2.4550     1.1370 C.3   1 <1>  -0.1600 
 10 C       -3.7900     2.1670    -0.4170 C.ar  1 <1>  -0.1440 
 11 C        3.2770     3.8900     0.6630 C.3   1 <1>  -0.1600 
 12 C       -4.1520     2.0410     0.9160 C.ar  1 <1>  -0.1500 
 13 C       -4.4940     3.0390    -1.2340 C.ar  1 <1>  -0.1500 
 14 C       -5.2090     2.7750     1.4260 C.ar  1 <1>  -0.1500 
 15 C       -5.5510     3.7740    -0.7240 C.ar  1 <1>  -0.1500 
 16 C       -5.9090     3.6420     0.6060 C.ar  1 <1>  -0.1500 
 17 H       -1.5440     3.0100    -0.2370 H     1 <1>   0.3700 
 18 H        0.4920     4.0740     0.8900 H     1 <1>   0.0800 
 19 H        0.1530     4.1900    -0.8220 H     1 <1>   0.0800 
 20 H        2.7560     1.5620    -0.8090 H     1 <1>   0.0800 
 21 H        2.0190     0.6530     0.4850 H     1 <1>   0.0800 
 22 H       -2.5780     0.3980    -0.4960 H     1 <1>   0.0800 
 23 H       -2.7310     1.2210    -2.0310 H     1 <1>   0.0800 
 24 H        2.1670     5.4780    -0.2770 H     1 <1>   0.0800 
 25 H        2.5270     4.1550    -1.3380 H     1 <1>   0.0800 
 26 H        3.9130     1.9530     1.3550 H     1 <1>   0.0800 
 27 H        2.4150     2.4840     2.0480 H     1 <1>   0.0800 
 28 H        3.3080     4.5370     1.5230 H     1 <1>   0.0800 
 29 H        4.2440     3.9280     0.1920 H     1 <1>   0.0800 
 30 H       -3.6100     1.3700     1.5610 H     1 <1>   0.1500 
 31 H       -4.2210     3.1490    -2.2690 H     1 <1>   0.1500 
 32 H       -5.4850     2.6720     2.4610 H     1 <1>   0.1500 
 33 H       -6.0950     4.4480    -1.3630 H     1 <1>   0.1500 
 34 H       -6.7310     4.2130     1.0020 H     1 <1>   0.1500 
@<TRIPOS>BOND
  1   1   2  2   
  2   2   3  am  
  3   2   4  am  
  4   3   5  1   
  5   3   6  1   
  6   4   7  1   
  7   4  17  1   
  8   5   8  1   
  9   5  18  1   
 10   5  19  1   
 11   6   9  1   
 12   6  20  1   
 13   6  21  1   
 14   7  10  1   
 15   7  22  1   
 16   7  23  1   
 17   8  11  1   
 18   8  24  1   
 19   8  25  1   
 20   9  11  1   
 21   9  26  1   
 22   9  27  1   
 23  10  12  ar  
 24  10  13  ar  
 25  11  28  1   
 26  11  29  1   
 27  12  14  ar  
 28  12  30  1   
 29  13  15  ar  
 30  13  31  1   
 31  14  16  ar  
 32  14  32  1   
 33  15  16  ar  
 34  15  33  1   
 35  16  34  1   
@<TRIPOS>SUBSTRUCTURE
  1 ****   4 GROUP 4 **** **** 0

# MOE 2024.06 (io_trps.svl 2023.06)
