@<TRIPOS>MOLECULE
NONAME
37 38 1 0 0 
SMALL
USER_CHARGES


@<TRIPOS>ATOM
  1 BR       0.1960     1.2320     1.9480 Br    1 <1>  -0.1110 
  2 C        1.0530     2.5190     0.7940 C.ar  1 <1>   0.1110 
  3 C        0.3580     3.6460     0.3820 C.ar  1 <1>   0.0820 
  4 C        2.3550     2.2610     0.4060 C.ar  1 <1>  -0.1500 
  5 O       -0.9240     3.8210     0.7860 O.3   1 <1>  -0.3630 
  6 C        1.0190     4.5620    -0.4450 C.ar  1 <1>   0.0830 
  7 C        2.9990     3.1640    -0.4290 C.ar  1 <1>  -0.1440 
  8 C       -1.9130     3.4040    -0.1270 C.3   1 <1>   0.2580 
  9 O        0.4850     5.7250    -0.9030 O.3   1 <1>  -0.3630 
 10 C        2.3200     4.3010    -0.8510 C.ar  1 <1>  -0.1500 
 11 C        4.4270     2.9250    -0.8680 C.3   1 <1>   0.4870 
 12 C       -3.2510     3.9060     0.3760 C.2   1 <1>  -0.2880 
 13 C       -0.3440     6.5080    -0.0660 C.3   1 <1>   0.0400 
 14 N        5.2920     3.6640     0.0700 N.4   1 <1>  -0.7990 
 15 C       -4.0830     4.7060    -0.2990 C.2   1 <1>  -0.3000 
 16 C        6.7200     3.5180    -0.2270 C.3   1 <1>   0.2960 
 17 C        7.4370     2.3410     0.3400 C.3   1 <1>  -0.2000 
 18 C        7.6820     3.7150     0.8930 C.3   1 <1>  -0.2000 
 19 H        2.8320     1.3620     0.7580 H     1 <1>   0.1500 
 20 H       -1.9000     2.3290    -0.1760 H     1 <1>   0.0800 
 21 H       -1.6880     3.8160    -1.0960 H     1 <1>   0.0800 
 22 H        2.7860     5.0170    -1.5070 H     1 <1>   0.1500 
 23 H        4.5680     3.2840    -1.8750 H     1 <1>   0.0800 
 24 H        4.6540     1.8710    -0.8390 H     1 <1>   0.0800 
 25 H       -3.4700     3.5430     1.3670 H     1 <1>   0.1500 
 26 H       -0.3160     7.5230    -0.4200 H     1 <1>   0.0800 
 27 H        0.0220     6.4600     0.9440 H     1 <1>   0.0800 
 28 H       -1.3510     6.1380    -0.1200 H     1 <1>   0.0800 
 29 H        5.1010     3.3320     1.0210 H     1 <1>   0.4500 
 30 H        5.0240     4.6550     0.0540 H     1 <1>   0.4500 
 31 H       -5.0280     5.0480     0.0860 H     1 <1>   0.1500 
 32 H       -3.8930     5.0860    -1.2890 H     1 <1>   0.1500 
 33 H        7.0050     3.8740    -1.2070 H     1 <1>   0.1000 
 34 H        8.2330     1.8860    -0.2270 H     1 <1>   0.1000 
 35 H        6.9220     1.6290     0.9610 H     1 <1>   0.1000 
 36 H        7.3270     3.9380     1.8840 H     1 <1>   0.1000 
 37 H        8.6370     4.1700     0.6900 H     1 <1>   0.1000 
@<TRIPOS>BOND
  1   1   2  1   
  2   2   3  ar  
  3   2   4  ar  
  4   3   5  1   
  5   3   6  ar  
  6   4   7  ar  
  7   4  19  1   
  8   5   8  1   
  9   6   9  1   
 10   6  10  ar  
 11   7  10  ar  
 12   7  11  1   
 13   8  12  1   
 14   8  20  1   
 15   8  21  1   
 16   9  13  1   
 17  10  22  1   
 18  11  14  1   
 19  11  23  1   
 20  11  24  1   
 21  12  15  2   
 22  12  25  1   
 23  13  26  1   
 24  13  27  1   
 25  13  28  1   
 26  14  16  1   
 27  14  29  1   
 28  14  30  1   
 29  15  31  1   
 30  15  32  1   
 31  16  17  1   
 32  16  18  1   
 33  16  33  1   
 34  17  18  1   
 35  17  34  1   
 36  17  35  1   
 37  18  36  1   
 38  18  37  1   
@<TRIPOS>SUBSTRUCTURE
  1 ****  10 GROUP 4 **** **** 0

# MOE 2024.06 (io_trps.svl 2023.06)
