@<TRIPOS>MOLECULE
NONAME
43 46 1 0 0 
SMALL
USER_CHARGES


@<TRIPOS>ATOM
  1 F       -0.9010    -2.0080    -2.3260 F     1 <1>  -0.1900 
  2 C       -1.6730    -1.9040    -1.2690 C.ar  1 <1>   0.1900 
  3 C       -1.2380    -2.4260    -0.0440 C.ar  1 <1>   0.1000 
  4 C       -2.8910    -1.2740    -1.4250 C.ar  1 <1>  -0.1500 
  5 N       -0.0090    -3.0720     0.1540 N.pl3 1 <1>  -0.8380 
  6 C       -2.0970    -2.2850     1.0380 C.ar  1 <1>  -0.1500 
  7 C       -3.7250    -1.1500    -0.3250 C.ar  1 <1>  -0.1500 
  8 C        1.1930    -2.1910     0.0340 C.3   1 <1>   0.2090 
  9 C        0.1330    -4.3870    -0.5400 C.3   1 <1>   0.2090 
 10 C       -3.3250    -1.6560     0.9020 C.ar  1 <1>  -0.1500 
 11 C        2.4730    -2.9330     0.4700 C.3   1 <1>   0.3430 
 12 C        1.4190    -5.1140    -0.0950 C.3   1 <1>   0.3430 
 13 N        2.6490    -4.2540    -0.2440 N.4   1 <1>  -0.9590 
 14 C        3.8780    -4.9620     0.2010 C.3   1 <1>   0.4860 
 15 C        5.0800    -4.1180    -0.1740 C.ar  1 <1>  -0.1430 
 16 C        5.7360    -3.3770     0.8060 C.ar  1 <1>  -0.1500 
 17 C        5.5270    -4.0770    -1.4970 C.ar  1 <1>  -0.1500 
 18 C        6.8120    -2.6030     0.4250 C.ar  1 <1>   0.0830 
 19 C        6.6160    -3.2930    -1.8570 C.ar  1 <1>  -0.1500 
 20 O        7.5720    -1.8140     1.1890 O.3   1 <1>  -0.3620 
 21 C        7.2410    -2.5600    -0.8680 C.ar  1 <1>   0.0830 
 22 C        8.5630    -1.2460     0.3320 C.3   1 <1>   0.4000 
 23 O        8.2920    -1.7430    -0.9780 O.3   1 <1>  -0.3620 
 24 H       -3.1830    -0.8880    -2.3850 H     1 <1>   0.1500 
 25 H       -1.7980    -2.6740     1.9950 H     1 <1>   0.1500 
 26 H       -4.6800    -0.6630    -0.4230 H     1 <1>   0.1500 
 27 H        1.0560    -1.3220     0.6560 H     1 <1>   0.0800 
 28 H        1.3000    -1.8530    -0.9820 H     1 <1>   0.0800 
 29 H        0.1520    -4.2380    -1.6060 H     1 <1>   0.0800 
 30 H       -0.7210    -5.0000    -0.3090 H     1 <1>   0.0800 
 31 H       -3.9740    -1.5590     1.7560 H     1 <1>   0.1500 
 32 H        2.4150    -3.1020     1.5320 H     1 <1>   0.0800 
 33 H        3.3230    -2.2970     0.2830 H     1 <1>   0.0800 
 34 H        1.5270    -6.0160    -0.6740 H     1 <1>   0.0800 
 35 H        1.2990    -5.3950     0.9380 H     1 <1>   0.0800 
 36 H        2.7720    -4.0330    -1.2400 H     1 <1>   0.4500 
 37 H        3.9530    -5.9220    -0.2860 H     1 <1>   0.0800 
 38 H        3.8550    -5.1190     1.2670 H     1 <1>   0.0800 
 39 H        5.4400    -3.3850     1.8410 H     1 <1>   0.1500 
 40 H        5.0410    -4.6570    -2.2640 H     1 <1>   0.1500 
 41 H        6.9780    -3.2470    -2.8690 H     1 <1>   0.1500 
 42 H        9.5400    -1.5680     0.6450 H     1 <1>   0.0800 
 43 H        8.4770    -0.1730     0.3370 H     1 <1>   0.0800 
@<TRIPOS>BOND
  1   1   2  1   
  2   2   3  ar  
  3   2   4  ar  
  4   3   5  1   
  5   3   6  ar  
  6   4   7  ar  
  7   4  24  1   
  8   5   8  1   
  9   5   9  1   
 10   6  10  ar  
 11   6  25  1   
 12   7  10  ar  
 13   7  26  1   
 14   8  11  1   
 15   8  27  1   
 16   8  28  1   
 17   9  12  1   
 18   9  29  1   
 19   9  30  1   
 20  10  31  1   
 21  11  13  1   
 22  11  32  1   
 23  11  33  1   
 24  12  13  1   
 25  12  34  1   
 26  12  35  1   
 27  13  14  1   
 28  13  36  1   
 29  14  15  1   
 30  14  37  1   
 31  14  38  1   
 32  15  16  ar  
 33  15  17  ar  
 34  16  18  ar  
 35  16  39  1   
 36  17  19  ar  
 37  17  40  1   
 38  18  20  1   
 39  18  21  ar  
 40  19  21  ar  
 41  19  41  1   
 42  20  22  1   
 43  21  23  1   
 44  22  23  1   
 45  22  42  1   
 46  22  43  1   
@<TRIPOS>SUBSTRUCTURE
  1 ****  11 GROUP 4 **** **** 0

# MOE 2024.06 (io_trps.svl 2023.06)
