@<TRIPOS>MOLECULE
NONAME
47 49 1 0 0 
SMALL
USER_CHARGES


@<TRIPOS>ATOM
  1 O       -0.0170    -0.0660    -0.7150 O.2   1 <1>  -0.5700 
  2 C       -0.0150    -1.1840    -0.2400 C.2   1 <1>   0.5440 
  3 N        1.0980    -1.6480     0.4250 N.am  1 <1>  -0.5470 
  4 C       -1.1930    -2.0250    -0.3370 C.ar  1 <1>   0.0860 
  5 C        2.3730    -1.0860     0.5780 C.ar  1 <1>   0.1170 
  6 C       -2.4720    -1.4650    -0.3670 C.ar  1 <1>  -0.1500 
  7 C       -1.1060    -3.4180    -0.4010 C.ar  1 <1>  -0.1500 
  8 C        3.1350    -1.4320     1.6870 C.ar  1 <1>  -0.1500 
  9 C        2.9220    -0.2010    -0.3440 C.ar  1 <1>  -0.1500 
 10 C       -3.6100    -2.2470    -0.4390 C.ar  1 <1>  -0.1500 
 11 C       -2.2380    -4.2070    -0.4720 C.ar  1 <1>  -0.1500 
 12 C        4.4010    -0.9090     1.8760 C.ar  1 <1>  -0.1500 
 13 C        4.1850     0.3300    -0.1600 C.ar  1 <1>  -0.1500 
 14 C       -3.4980    -3.6330    -0.4880 C.ar  1 <1>   0.0830 
 15 C        4.9370    -0.0240     0.9500 C.ar  1 <1>  -0.1430 
 16 O       -4.5540    -4.4740    -0.5560 O.3   1 <1>  -0.3630 
 17 C        6.3290     0.5460     1.1460 C.3   1 <1>   0.4870 
 18 C       -5.8810    -3.9980    -0.6000 C.3   1 <1>   0.0400 
 19 N        7.2360    -0.0460     0.1290 N.4   1 <1>  -0.9590 
 20 C        7.3020    -1.5470     0.1760 C.3   1 <1>   0.3430 
 21 C        8.6110     0.5550     0.1220 C.3   1 <1>   0.3430 
 22 C        8.2100    -2.1010    -0.9480 C.3   1 <1>   0.1200 
 23 C        9.5390    -0.1560    -0.8910 C.3   1 <1>   0.1200 
 24 O        8.8190    -1.0680    -1.6760 O.3   1 <1>  -0.5600 
 25 H        0.9270    -2.4850     0.9790 H     1 <1>   0.3700 
 26 H       -2.5670    -0.3920    -0.3320 H     1 <1>   0.1500 
 27 H       -0.1420    -3.8950    -0.4080 H     1 <1>   0.1500 
 28 H        2.7280    -2.1110     2.4150 H     1 <1>   0.1500 
 29 H        2.3540     0.0810    -1.2140 H     1 <1>   0.1500 
 30 H       -4.5690    -1.7660    -0.4570 H     1 <1>   0.1500 
 31 H       -2.1570    -5.2790    -0.5200 H     1 <1>   0.1500 
 32 H        4.9560    -1.1950     2.7530 H     1 <1>   0.1500 
 33 H        4.5610     1.0220    -0.8940 H     1 <1>   0.1500 
 34 H        6.6820     0.3190     2.1390 H     1 <1>   0.0800 
 35 H        6.2920     1.6180     1.0320 H     1 <1>   0.0800 
 36 H       -6.5390    -4.8470    -0.6570 H     1 <1>   0.0800 
 37 H       -6.0020    -3.3820    -1.4730 H     1 <1>   0.0800 
 38 H       -6.0820    -3.4400     0.2970 H     1 <1>   0.0800 
 39 H        6.8400     0.1550    -0.8000 H     1 <1>   0.4500 
 40 H        6.3150    -1.9660     0.0650 H     1 <1>   0.0800 
 41 H        7.6860    -1.8690     1.1290 H     1 <1>   0.0800 
 42 H        9.0530     0.4860     1.1030 H     1 <1>   0.0800 
 43 H        8.5520     1.6000    -0.1350 H     1 <1>   0.0800 
 44 H        7.6260    -2.6850    -1.6380 H     1 <1>   0.0800 
 45 H        8.9780    -2.7350    -0.5390 H     1 <1>   0.0800 
 46 H       10.3260    -0.6860    -0.3830 H     1 <1>   0.0800 
 47 H        9.9910     0.5640    -1.5510 H     1 <1>   0.0800 
@<TRIPOS>BOND
  1   1   2  2   
  2   2   3  am  
  3   2   4  1   
  4   3   5  1   
  5   3  25  1   
  6   4   6  ar  
  7   4   7  ar  
  8   5   8  ar  
  9   5   9  ar  
 10   6  10  ar  
 11   6  26  1   
 12   7  11  ar  
 13   7  27  1   
 14   8  12  ar  
 15   8  28  1   
 16   9  13  ar  
 17   9  29  1   
 18  10  14  ar  
 19  10  30  1   
 20  11  14  ar  
 21  11  31  1   
 22  12  15  ar  
 23  12  32  1   
 24  13  15  ar  
 25  13  33  1   
 26  14  16  1   
 27  15  17  1   
 28  16  18  1   
 29  17  19  1   
 30  17  34  1   
 31  17  35  1   
 32  18  36  1   
 33  18  37  1   
 34  18  38  1   
 35  19  20  1   
 36  19  21  1   
 37  19  39  1   
 38  20  22  1   
 39  20  40  1   
 40  20  41  1   
 41  21  23  1   
 42  21  42  1   
 43  21  43  1   
 44  22  24  1   
 45  22  44  1   
 46  22  45  1   
 47  23  24  1   
 48  23  46  1   
 49  23  47  1   
@<TRIPOS>SUBSTRUCTURE
  1 ****   5 GROUP 4 **** **** 0

# MOE 2024.06 (io_trps.svl 2023.06)
