@<TRIPOS>MOLECULE
NONAME
27 27 1 0 0 
SMALL
USER_CHARGES


@<TRIPOS>ATOM
  1 S       -0.1380     0.2950    -0.5120 S.3   1 <1>  -0.4600 
  2 C        1.6140     0.1800    -0.0670 C.3   1 <1>   0.0700 
  3 C       -0.8340    -1.2400     0.1530 C.3   1 <1>   0.0700 
  4 C        2.3180     1.4340    -0.5810 C.3   1 <1>  -0.0170 
  5 C       -2.3290    -1.2520    -0.1670 C.3   1 <1>  -0.1600 
  6 C        3.7960     1.3880    -0.2330 C.ar  1 <1>  -0.1440 
  7 C       -3.0010    -2.5230     0.3620 C.3   1 <1>  -0.2400 
  8 C        4.2830     1.9040     0.9510 C.ar  1 <1>  -0.1500 
  9 C        4.7270     0.8220    -1.0800 C.ar  1 <1>  -0.1500 
 10 C        5.6390     1.8300     1.2230 C.ar  1 <1>   0.1600 
 11 C        6.0620     0.7990    -0.7130 C.ar  1 <1>   0.1600 
 12 N        6.5400     1.2890     0.4200 N.ar  1 <1>  -0.6200 
 13 H        2.0090    -0.7090    -0.5260 H     1 <1>   0.0800 
 14 H        1.6750     0.1060     1.0040 H     1 <1>   0.0800 
 15 H       -0.6550    -1.2440     1.2140 H     1 <1>   0.0800 
 16 H       -0.3200    -2.0590    -0.3190 H     1 <1>   0.0800 
 17 H        1.8670     2.3050    -0.1390 H     1 <1>   0.0800 
 18 H        2.1960     1.5020    -1.6480 H     1 <1>   0.0800 
 19 H       -2.4640    -1.1940    -1.2340 H     1 <1>   0.0800 
 20 H       -2.7940    -0.3890     0.2780 H     1 <1>   0.0800 
 21 H       -2.5610    -3.3970    -0.0870 H     1 <1>   0.0800 
 22 H       -4.0500    -2.5090     0.1250 H     1 <1>   0.0800 
 23 H       -2.8930    -2.5890     1.4310 H     1 <1>   0.0800 
 24 H        3.6210     2.3620     1.6630 H     1 <1>   0.1500 
 25 H        4.4270     0.4000    -2.0220 H     1 <1>   0.1500 
 26 H        6.0010     2.2390     2.1510 H     1 <1>   0.1500 
 27 H        6.7740     0.3550    -1.3860 H     1 <1>   0.1500 
@<TRIPOS>BOND
  1   1   2  1   
  2   1   3  1   
  3   2   4  1   
  4   2  13  1   
  5   2  14  1   
  6   3   5  1   
  7   3  15  1   
  8   3  16  1   
  9   4   6  1   
 10   4  17  1   
 11   4  18  1   
 12   5   7  1   
 13   5  19  1   
 14   5  20  1   
 15   6   8  ar  
 16   6   9  ar  
 17   7  21  1   
 18   7  22  1   
 19   7  23  1   
 20   8  10  ar  
 21   8  24  1   
 22   9  11  ar  
 23   9  25  1   
 24  10  12  ar  
 25  10  26  1   
 26  11  12  ar  
 27  11  27  1   
@<TRIPOS>SUBSTRUCTURE
  1 ****   2 GROUP 4 **** **** 0

# MOE 2024.06 (io_trps.svl 2023.06)
