@<TRIPOS>MOLECULE
NONAME
55 57 1 0 0 
SMALL
USER_CHARGES


@<TRIPOS>ATOM
  1 O       -8.6530     5.3430     0.4740 O.2   1 <1>  -0.5700 
  2 C       -7.5680     5.7550     0.1500 C.2   1 <1>   0.4230 
  3 C       -6.3820     4.9210     0.1160 C.ar  1 <1>   0.0860 
  4 C       -7.4910     7.2260    -0.2330 C.3   1 <1>  -0.0990 
  5 C       -5.1100     5.4240    -0.1640 C.ar  1 <1>  -0.1500 
  6 C       -6.4770     3.5530     0.3730 C.ar  1 <1>  -0.1500 
  7 C       -8.8950     7.8390    -0.2690 C.3   1 <1>   0.3430 
  8 C       -3.9880     4.6190    -0.1980 C.ar  1 <1>   0.0820 
  9 C       -5.3680     2.7150     0.3400 C.ar  1 <1>   0.0820 
 10 N       -8.8580     9.2790    -0.6620 N.4   1 <1>  -0.9590 
 11 O       -2.8240     5.2720    -0.4720 O.3   1 <1>  -0.3620 
 12 C       -4.1110     3.2440     0.0330 C.ar  1 <1>   0.0820 
 13 O       -5.4610     1.3780     0.6010 O.3   1 <1>  -0.3630 
 14 C       -8.2370    10.1850     0.3560 C.3   1 <1>   0.3430 
 15 C      -10.2120     9.8230    -0.9220 C.3   1 <1>   0.3430 
 16 C       -1.6120     4.8610     0.1260 C.3   1 <1>   0.0400 
 17 O       -3.0330     2.4230    -0.0370 O.3   1 <1>  -0.3630 
 18 C       -6.6360     0.8030     1.1300 C.3   1 <1>   0.0400 
 19 C       -9.0280    11.4990     0.3380 C.3   1 <1>   0.0630 
 20 C      -10.0150    11.3230    -0.8220 C.3   1 <1>  -0.1600 
 21 C       -2.9340     1.6100    -1.1850 C.3   1 <1>   0.0400 
 22 C       -8.1110    12.7230     0.2580 C.ar  1 <1>  -0.1430 
 23 C       -8.3640    13.7920    -0.5950 C.ar  1 <1>  -0.1500 
 24 C       -6.9930    12.7870     1.0830 C.ar  1 <1>  -0.1500 
 25 C       -7.5060    14.8760    -0.6450 C.ar  1 <1>  -0.1500 
 26 C       -6.1350    13.8720     1.0340 C.ar  1 <1>  -0.1500 
 27 C       -6.3890    14.9160     0.1660 C.ar  1 <1>  -0.1500 
 28 H       -7.0400     7.3060    -1.2050 H     1 <1>   0.0800 
 29 H       -6.8840     7.7310     0.4950 H     1 <1>   0.0800 
 30 H       -4.9580     6.4680    -0.3590 H     1 <1>   0.1500 
 31 H       -7.4490     3.1550     0.5960 H     1 <1>   0.1500 
 32 H       -9.3570     7.7310     0.7000 H     1 <1>   0.0800 
 33 H       -9.4920     7.2840    -0.9760 H     1 <1>   0.0800 
 34 H       -8.3230     9.3810    -1.5370 H     1 <1>   0.4500 
 35 H       -7.2030    10.3660     0.1100 H     1 <1>   0.0800 
 36 H       -8.2930     9.7480     1.3400 H     1 <1>   0.0800 
 37 H      -10.8980     9.4930    -0.1570 H     1 <1>   0.0800 
 38 H      -10.5850     9.5300    -1.8920 H     1 <1>   0.0800 
 39 H       -1.8000     4.5650     1.1430 H     1 <1>   0.0800 
 40 H       -0.9280     5.6900     0.1030 H     1 <1>   0.0800 
 41 H       -1.2050     4.0410    -0.4380 H     1 <1>   0.0800 
 42 H       -6.4350    -0.2330     1.3390 H     1 <1>   0.0800 
 43 H       -7.4240     0.8810     0.4020 H     1 <1>   0.0800 
 44 H       -6.8980     1.3140     2.0400 H     1 <1>   0.0800 
 45 H       -9.5810    11.5620     1.2590 H     1 <1>   0.0800 
 46 H      -10.9430    11.8390    -0.6470 H     1 <1>   0.0800 
 47 H       -9.5910    11.6630    -1.7500 H     1 <1>   0.0800 
 48 H       -2.0110     1.0630    -1.1300 H     1 <1>   0.0800 
 49 H       -2.9390     2.2400    -2.0570 H     1 <1>   0.0800 
 50 H       -3.7630     0.9270    -1.2090 H     1 <1>   0.0800 
 51 H       -9.2290    13.8150    -1.2320 H     1 <1>   0.1500 
 52 H       -6.7690    12.0040     1.7850 H     1 <1>   0.1500 
 53 H       -7.7100    15.6950    -1.3130 H     1 <1>   0.1500 
 54 H       -5.2700    13.9100     1.6750 H     1 <1>   0.1500 
 55 H       -5.7220    15.7610     0.1260 H     1 <1>   0.1500 
@<TRIPOS>BOND
  1   1   2  2   
  2   2   3  1   
  3   2   4  1   
  4   3   5  ar  
  5   3   6  ar  
  6   4   7  1   
  7   4  28  1   
  8   4  29  1   
  9   5   8  ar  
 10   5  30  1   
 11   6   9  ar  
 12   6  31  1   
 13   7  10  1   
 14   7  32  1   
 15   7  33  1   
 16   8  11  1   
 17   8  12  ar  
 18   9  12  ar  
 19   9  13  1   
 20  10  14  1   
 21  10  15  1   
 22  10  34  1   
 23  11  16  1   
 24  12  17  1   
 25  13  18  1   
 26  14  19  1   
 27  14  35  1   
 28  14  36  1   
 29  15  20  1   
 30  15  37  1   
 31  15  38  1   
 32  16  39  1   
 33  16  40  1   
 34  16  41  1   
 35  17  21  1   
 36  18  42  1   
 37  18  43  1   
 38  18  44  1   
 39  19  20  1   
 40  19  22  1   
 41  19  45  1   
 42  20  46  1   
 43  20  47  1   
 44  21  48  1   
 45  21  49  1   
 46  21  50  1   
 47  22  23  ar  
 48  22  24  ar  
 49  23  25  ar  
 50  23  51  1   
 51  24  26  ar  
 52  24  52  1   
 53  25  27  ar  
 54  25  53  1   
 55  26  27  ar  
 56  26  54  1   
 57  27  55  1   
@<TRIPOS>SUBSTRUCTURE
  1 ****   4 GROUP 4 **** **** 0

# MOE 2024.06 (io_trps.svl 2023.06)
