@<TRIPOS>MOLECULE
NONAME
46 48 1 0 0 
SMALL
USER_CHARGES


@<TRIPOS>ATOM
  1 F        1.9550     1.2100    -1.0510 F     1 <1>  -0.3400 
  2 C        3.2230     1.4370    -0.7260 C.3   1 <1>   1.1640 
  3 F        3.5360     2.6120    -1.2570 F     1 <1>  -0.3400 
  4 F        3.2400     1.6080     0.5920 F     1 <1>  -0.3400 
  5 C        4.1570     0.3190    -1.2110 C.ar  1 <1>  -0.1440 
  6 C        5.1390    -0.2160    -0.3850 C.ar  1 <1>  -0.1500 
  7 C        4.0370    -0.1770    -2.5070 C.ar  1 <1>  -0.1500 
  8 C        5.9840    -1.2250    -0.8230 C.ar  1 <1>   0.1000 
  9 C        4.8750    -1.1830    -2.9570 C.ar  1 <1>  -0.1500 
 10 N        6.9440    -1.7310     0.0410 N.pl3 1 <1>  -0.8380 
 11 C        5.8420    -1.7040    -2.1190 C.ar  1 <1>  -0.1500 
 12 C        6.7000    -3.1120     0.5540 C.3   1 <1>   0.2090 
 13 C        8.3710    -1.5350    -0.3560 C.3   1 <1>   0.2090 
 14 C        7.6900    -3.4740     1.6780 C.3   1 <1>   0.1100 
 15 C        9.3220    -1.9280     0.7880 C.3   1 <1>   0.1100 
 16 N        9.0970    -3.3240     1.2470 N.3   1 <1>  -0.8100 
 17 C       10.0380    -3.6910     2.3470 C.3   1 <1>   0.1710 
 18 C       11.5000    -3.8030     1.9000 C.2   1 <1>   0.5690 
 19 O       12.3910    -3.5990     2.6910 O.2   1 <1>  -0.5700 
 20 N       11.7390    -4.0970     0.6020 N.am  1 <1>  -0.7300 
 21 C       13.0080    -3.8700    -0.1020 C.3   1 <1>   0.3200 
 22 C       12.8140    -2.7090    -1.0600 C.2   1 <1>  -0.0400 
 23 O       11.9250    -2.8170    -2.0320 O.3   1 <1>  -0.2800 
 24 C       13.4110    -1.4970    -1.1010 C.2   1 <1>  -0.1500 
 25 C       11.9380    -1.6880    -2.7110 C.2   1 <1>  -0.0100 
 26 C       12.8350    -0.8270    -2.1880 C.2   1 <1>  -0.1500 
 27 H        5.2740     0.1360     0.6220 H     1 <1>   0.1500 
 28 H        3.2880     0.2190    -3.1730 H     1 <1>   0.1500 
 29 H        4.7730    -1.5610    -3.9600 H     1 <1>   0.1500 
 30 H        6.4910    -2.4870    -2.4640 H     1 <1>   0.1500 
 31 H        6.8050    -3.8190    -0.2500 H     1 <1>   0.0800 
 32 H        5.6930    -3.1760     0.9280 H     1 <1>   0.0800 
 33 H        8.5280    -0.5020    -0.6140 H     1 <1>   0.0800 
 34 H        8.5950    -2.1350    -1.2200 H     1 <1>   0.0800 
 35 H        7.5140    -4.4920     1.9760 H     1 <1>   0.0800 
 36 H        7.4960    -2.8370     2.5250 H     1 <1>   0.0800 
 37 H        9.1740    -1.2450     1.6070 H     1 <1>   0.0800 
 38 H       10.3340    -1.8120     0.4400 H     1 <1>   0.0800 
 39 H        9.7570    -4.6470     2.7490 H     1 <1>   0.0800 
 40 H        9.9750    -2.9660     3.1390 H     1 <1>   0.0800 
 41 H       10.9110    -4.1060    -0.0050 H     1 <1>   0.3700 
 42 H       13.2800    -4.7550    -0.6490 H     1 <1>   0.0800 
 43 H       13.7900    -3.6430     0.6030 H     1 <1>   0.0800 
 44 H       14.1680    -1.0980    -0.4500 H     1 <1>   0.1500 
 45 H       11.2780    -1.5820    -3.5550 H     1 <1>   0.1500 
 46 H       13.0820     0.1690    -2.5100 H     1 <1>   0.1500 
@<TRIPOS>BOND
  1   1   2  1   
  2   2   3  1   
  3   2   4  1   
  4   2   5  1   
  5   5   6  ar  
  6   5   7  ar  
  7   6   8  ar  
  8   6  27  1   
  9   7   9  ar  
 10   7  28  1   
 11   8  10  1   
 12   8  11  ar  
 13   9  11  ar  
 14   9  29  1   
 15  10  12  1   
 16  10  13  1   
 17  11  30  1   
 18  12  14  1   
 19  12  31  1   
 20  12  32  1   
 21  13  15  1   
 22  13  33  1   
 23  13  34  1   
 24  14  16  1   
 25  14  35  1   
 26  14  36  1   
 27  15  16  1   
 28  15  37  1   
 29  15  38  1   
 30  16  17  1   
 31  17  18  1   
 32  17  39  1   
 33  17  40  1   
 34  18  19  2   
 35  18  20  am  
 36  20  21  1   
 37  20  41  1   
 38  21  22  1   
 39  21  42  1   
 40  21  43  1   
 41  22  23  1   
 42  22  24  2   
 43  23  25  1   
 44  24  26  1   
 45  24  44  1   
 46  25  26  2   
 47  25  45  1   
 48  26  46  1   
@<TRIPOS>SUBSTRUCTURE
  1 ****  13 GROUP 4 **** **** 0

# MOE 2024.06 (io_trps.svl 2023.06)
