@<TRIPOS>MOLECULE
NONAME
35 37 1 0 0 
SMALL
USER_CHARGES


@<TRIPOS>ATOM
  1 F       -1.0260    -0.4930    -1.1240 F     1 <1>  -0.1900 
  2 C       -2.2560    -0.2960    -0.7360 C.ar  1 <1>   0.1900 
  3 C       -2.6910    -0.8860     0.4340 C.ar  1 <1>  -0.1500 
  4 C       -3.0820     0.4960    -1.5060 C.ar  1 <1>  -0.1500 
  5 C       -3.9980    -0.6720     0.8380 C.ar  1 <1>  -0.1500 
  6 C       -4.3850     0.6990    -1.0870 C.ar  1 <1>  -0.1500 
  7 C       -4.8760     0.1230     0.0920 C.ar  1 <1>   0.0540 
  8 C       -6.2470     0.3400     0.5270 C.2   1 <1>   0.4620 
  9 N       -6.7750    -0.1540     1.5970 N.2   1 <1>  -0.4100 
 10 N       -7.1130     1.0990    -0.1710 N.2   1 <1>  -0.5650 
 11 O       -7.9730     0.2860     1.5890 O.3   1 <1>  -0.0190 
 12 C       -8.1870     1.0320     0.5420 C.2   1 <1>   0.3930 
 13 C       -9.5030     1.6270     0.3480 C.2   1 <1>   0.7150 
 14 O       -9.7530     2.3300    -0.6150 O.2   1 <1>  -0.5700 
 15 N      -10.5190     1.4040     1.2470 N.am  1 <1>  -0.7300 
 16 C      -11.8920     1.9780     1.1500 C.3   1 <1>   0.1400 
 17 C      -12.7240     1.3030     0.0490 C.3   1 <1>   0.2000 
 18 O      -14.0470     1.7060     0.1670 O.3   1 <1>  -0.5600 
 19 C      -12.7990    -0.2180     0.1310 C.3   1 <1>  -0.1600 
 20 C      -14.8750     0.8140    -0.5060 C.3   1 <1>   0.1200 
 21 C      -14.1500    -0.5300    -0.4940 C.3   1 <1>  -0.1600 
 22 H       -2.0200    -1.4980     1.0100 H     1 <1>   0.1500 
 23 H       -2.7120     0.9410    -2.4120 H     1 <1>   0.1500 
 24 H       -4.3420    -1.1300     1.7490 H     1 <1>   0.1500 
 25 H       -5.0340     1.3170    -1.6850 H     1 <1>   0.1500 
 26 H      -10.3490     0.7970     2.0510 H     1 <1>   0.3700 
 27 H      -11.8220     3.0310     0.9330 H     1 <1>   0.0800 
 28 H      -12.3910     1.8550     2.0950 H     1 <1>   0.0800 
 29 H      -12.3770     1.6140    -0.9220 H     1 <1>   0.0800 
 30 H      -12.7880    -0.5290     1.1610 H     1 <1>   0.0800 
 31 H      -11.9830    -0.6830    -0.3930 H     1 <1>   0.0800 
 32 H      -15.0110     1.1760    -1.5110 H     1 <1>   0.0800 
 33 H      -15.8220     0.7730     0.0040 H     1 <1>   0.0800 
 34 H      -14.6940    -1.2570     0.0830 H     1 <1>   0.0800 
 35 H      -14.0400    -0.8910    -1.5010 H     1 <1>   0.0800 
@<TRIPOS>BOND
  1   1   2  1   
  2   2   3  ar  
  3   2   4  ar  
  4   3   5  ar  
  5   3  22  1   
  6   4   6  ar  
  7   4  23  1   
  8   5   7  ar  
  9   5  24  1   
 10   6   7  ar  
 11   6  25  1   
 12   7   8  1   
 13   8   9  2   
 14   8  10  1   
 15   9  11  1   
 16  10  12  2   
 17  11  12  1   
 18  12  13  1   
 19  13  14  2   
 20  13  15  am  
 21  15  16  1   
 22  15  26  1   
 23  16  17  1   
 24  16  27  1   
 25  16  28  1   
 26  17  18  1   
 27  17  19  1   
 28  17  29  1   
 29  18  20  1   
 30  19  21  1   
 31  19  30  1   
 32  19  31  1   
 33  20  21  1   
 34  20  32  1   
 35  20  33  1   
 36  21  34  1   
 37  21  35  1   
@<TRIPOS>SUBSTRUCTURE
  1 ****  12 GROUP 4 **** **** 0

# MOE 2024.06 (io_trps.svl 2023.06)
