@<TRIPOS>MOLECULE
NONAME
59 61 1 0 0 
SMALL
USER_CHARGES


@<TRIPOS>ATOM
  1 O       -0.6040    -2.7040     0.1130 O.2   1 <1>  -0.5700 
  2 C       -0.5490    -1.8450    -0.7350 C.2   1 <1>   0.5690 
  3 N        0.5650    -1.0860    -0.9180 N.am  1 <1>  -0.7300 
  4 C       -1.7830    -1.5810    -1.6140 C.3   1 <1>   0.1710 
  5 C        1.8190    -1.2190    -0.1540 C.3   1 <1>   0.2200 
  6 N       -2.9480    -0.9250    -0.9390 N.3   1 <1>  -0.8100 
  7 C        2.0770     0.1120     0.5630 C.3   1 <1>  -0.1600 
  8 C        2.9160    -1.6480    -1.1350 C.3   1 <1>  -0.1600 
  9 C       -3.6160    -1.8590     0.0080 C.3   1 <1>   0.1100 
 10 C       -2.5680     0.3270    -0.2400 C.3   1 <1>   0.1100 
 11 C        3.1630    -0.0070     1.6430 C.3   1 <1>  -0.1600 
 12 C        4.3240    -1.7590    -0.5270 C.3   1 <1>  -0.1600 
 13 C       -4.8190    -1.2130     0.7360 C.3   1 <1>   0.3430 
 14 C       -3.7800     1.0140     0.4370 C.3   1 <1>   0.3430 
 15 C        4.6010     0.2020     1.1420 C.3   1 <1>  -0.1600 
 16 C        4.9470    -0.3870    -0.2350 C.3   1 <1>  -0.1600 
 17 N       -5.0280     0.2010     0.2790 N.4   1 <1>  -0.9590 
 18 C       -6.2530     0.8400     0.8210 C.3   1 <1>   0.4860 
 19 C       -7.4550    -0.0110     0.4520 C.ar  1 <1>  -0.1440 
 20 C       -7.9600    -0.0530    -0.8470 C.ar  1 <1>  -0.1440 
 21 C       -8.0520    -0.7730     1.4470 C.ar  1 <1>  -0.1500 
 22 C       -9.0430    -0.8720    -1.1250 C.ar  1 <1>  -0.1500 
 23 C       -7.3750     0.7710    -1.9880 C.3   1 <1>  -0.0970 
 24 C       -9.1330    -1.5840     1.1580 C.ar  1 <1>  -0.1500 
 25 C       -9.6270    -1.6360    -0.1310 C.ar  1 <1>  -0.1500 
 26 H        0.6070    -0.4000    -1.6710 H     1 <1>   0.3700 
 27 H       -2.1010    -2.5230    -2.0250 H     1 <1>   0.0800 
 28 H       -1.4810    -0.9660    -2.4420 H     1 <1>   0.0800 
 29 H        1.6990    -1.9940     0.5860 H     1 <1>   0.0800 
 30 H        1.1670     0.3970     1.0600 H     1 <1>   0.0800 
 31 H        2.3300     0.8860    -0.1400 H     1 <1>   0.0800 
 32 H        2.9470    -0.9660    -1.9660 H     1 <1>   0.0800 
 33 H        2.6470    -2.6170    -1.5190 H     1 <1>   0.0800 
 34 H       -2.9180    -2.2020     0.7530 H     1 <1>   0.0800 
 35 H       -3.9600    -2.7270    -0.5280 H     1 <1>   0.0800 
 36 H       -2.1270     1.0110    -0.9450 H     1 <1>   0.0800 
 37 H       -1.8280     0.1180     0.5150 H     1 <1>   0.0800 
 38 H        3.0880    -0.9700     2.1200 H     1 <1>   0.0800 
 39 H        2.9740     0.7280     2.4060 H     1 <1>   0.0800 
 40 H        4.9490    -2.2570    -1.2490 H     1 <1>   0.0800 
 41 H        4.3120    -2.3720     0.3580 H     1 <1>   0.0800 
 42 H       -4.6450    -1.2380     1.7990 H     1 <1>   0.0800 
 43 H       -5.7000    -1.8010     0.5340 H     1 <1>   0.0800 
 44 H       -3.9190     1.9870    -0.0050 H     1 <1>   0.0800 
 45 H       -3.5620     1.1570     1.4830 H     1 <1>   0.0800 
 46 H        5.2680    -0.2190     1.8740 H     1 <1>   0.0800 
 47 H        4.8050     1.2590     1.1080 H     1 <1>   0.0800 
 48 H        4.6620     0.3090    -1.0050 H     1 <1>   0.0800 
 49 H        6.0190    -0.4800    -0.2880 H     1 <1>   0.0800 
 50 H       -5.1500     0.0920    -0.7380 H     1 <1>   0.4500 
 51 H       -6.3740     1.8270     0.4070 H     1 <1>   0.0800 
 52 H       -6.1830     0.9260     1.8930 H     1 <1>   0.0800 
 53 H       -7.6870    -0.7470     2.4590 H     1 <1>   0.1500 
 54 H       -9.4470    -0.9240    -2.1220 H     1 <1>   0.1500 
 55 H       -6.4890     0.3000    -2.3740 H     1 <1>   0.0800 
 56 H       -7.1410     1.7700    -1.6660 H     1 <1>   0.0800 
 57 H       -8.0840     0.8530    -2.7930 H     1 <1>   0.0800 
 58 H       -9.5940    -2.1740     1.9320 H     1 <1>   0.1500 
 59 H      -10.4690    -2.2660    -0.3610 H     1 <1>   0.1500 
@<TRIPOS>BOND
  1   1   2  2   
  2   2   3  am  
  3   2   4  1   
  4   3   5  1   
  5   3  26  1   
  6   4   6  1   
  7   4  27  1   
  8   4  28  1   
  9   5   7  1   
 10   5   8  1   
 11   5  29  1   
 12   6   9  1   
 13   6  10  1   
 14   7  11  1   
 15   7  30  1   
 16   7  31  1   
 17   8  12  1   
 18   8  32  1   
 19   8  33  1   
 20   9  13  1   
 21   9  34  1   
 22   9  35  1   
 23  10  14  1   
 24  10  36  1   
 25  10  37  1   
 26  11  15  1   
 27  11  38  1   
 28  11  39  1   
 29  12  16  1   
 30  12  40  1   
 31  12  41  1   
 32  13  17  1   
 33  13  42  1   
 34  13  43  1   
 35  14  17  1   
 36  14  44  1   
 37  14  45  1   
 38  15  16  1   
 39  15  46  1   
 40  15  47  1   
 41  16  48  1   
 42  16  49  1   
 43  17  18  1   
 44  17  50  1   
 45  18  19  1   
 46  18  51  1   
 47  18  52  1   
 48  19  20  ar  
 49  19  21  ar  
 50  20  22  ar  
 51  20  23  1   
 52  21  24  ar  
 53  21  53  1   
 54  22  25  ar  
 55  22  54  1   
 56  23  55  1   
 57  23  56  1   
 58  23  57  1   
 59  24  25  ar  
 60  24  58  1   
 61  25  59  1   
@<TRIPOS>SUBSTRUCTURE
  1 ****   6 GROUP 4 **** **** 0

# MOE 2024.06 (io_trps.svl 2023.06)
