@<TRIPOS>MOLECULE
NONAME
41 41 1 0 0 
SMALL
USER_CHARGES


@<TRIPOS>ATOM
  1 O        0.1660    -0.2550     0.0280 O.3   1 <1>  -0.3630 
  2 C       -1.0660    -0.8260     0.0390 C.ar  1 <1>   0.0820 
  3 C        1.3340    -1.0360     0.0030 C.3   1 <1>   0.1200 
  4 C       -2.1490     0.0370     0.0560 C.ar  1 <1>  -0.1500 
  5 C       -1.2850    -2.2010     0.0340 C.ar  1 <1>  -0.1500 
  6 C        2.5230    -0.0740    -0.0090 C.3   1 <1>  -0.1600 
  7 C       -3.4430    -0.4550     0.0680 C.ar  1 <1>  -0.1440 
  8 C       -2.5760    -2.7010     0.0460 C.ar  1 <1>  -0.1430 
  9 C        3.8650    -0.8200    -0.0370 C.3   1 <1>  -0.1600 
 10 C       -3.6500    -1.8240     0.0610 C.ar  1 <1>  -0.1500 
 11 C       -4.6300     0.4920     0.0840 C.3   1 <1>  -0.0970 
 12 C       -2.8200    -4.2000     0.0370 C.3   1 <1>  -0.0970 
 13 C        5.0240     0.1740    -0.0500 C.3   1 <1>   0.3430 
 14 N        6.3050    -0.5710    -0.0780 N.4   1 <1>  -0.9060 
 15 C        7.4780     0.3530    -0.0920 C.3   1 <1>   0.3430 
 16 C        8.8080    -0.4110    -0.1220 C.3   1 <1>   0.1200 
 17 O        9.8210     0.5280    -0.1330 O.3   1 <1>  -0.6800 
 18 H        1.3150    -1.6430    -0.8860 H     1 <1>   0.0800 
 19 H        1.3430    -1.6560     0.8830 H     1 <1>   0.0800 
 20 H       -1.9660     1.0950     0.0590 H     1 <1>   0.1500 
 21 H       -0.4660    -2.8920     0.0190 H     1 <1>   0.1500 
 22 H        2.4680     0.5440     0.8720 H     1 <1>   0.0800 
 23 H        2.4390     0.5590    -0.8770 H     1 <1>   0.0800 
 24 H        3.9010    -1.4360    -0.9200 H     1 <1>   0.0800 
 25 H        3.9310    -1.4500     0.8340 H     1 <1>   0.0800 
 26 H       -4.6540    -2.2100     0.0660 H     1 <1>   0.1500 
 27 H       -4.3220     1.4850     0.3580 H     1 <1>   0.0800 
 28 H       -5.3620     0.1540     0.7960 H     1 <1>   0.0800 
 29 H       -5.0810     0.5260    -0.8910 H     1 <1>   0.0800 
 30 H       -2.0100    -4.7170     0.5180 H     1 <1>   0.0800 
 31 H       -2.9020    -4.5480    -0.9770 H     1 <1>   0.0800 
 32 H       -3.7290    -4.4350     0.5600 H     1 <1>   0.0800 
 33 H        4.9760     0.7960     0.8310 H     1 <1>   0.0800 
 34 H        4.9450     0.8100    -0.9180 H     1 <1>   0.0800 
 35 H        6.3270    -1.1720    -0.9120 H     1 <1>   0.4500 
 36 H        6.3560    -1.1850     0.7450 H     1 <1>   0.4500 
 37 H        7.4610     0.9760     0.7880 H     1 <1>   0.0800 
 38 H        7.4300     0.9900    -0.9610 H     1 <1>   0.0800 
 39 H        8.8980    -1.0070    -1.0140 H     1 <1>   0.0800 
 40 H        8.9300    -1.0210     0.7570 H     1 <1>   0.0800 
 41 H       10.7100     0.1100    -0.1520 H     1 <1>   0.4000 
@<TRIPOS>BOND
  1   1   2  1   
  2   1   3  1   
  3   2   4  ar  
  4   2   5  ar  
  5   3   6  1   
  6   3  18  1   
  7   3  19  1   
  8   4   7  ar  
  9   4  20  1   
 10   5   8  ar  
 11   5  21  1   
 12   6   9  1   
 13   6  22  1   
 14   6  23  1   
 15   7  10  ar  
 16   7  11  1   
 17   8  10  ar  
 18   8  12  1   
 19   9  13  1   
 20   9  24  1   
 21   9  25  1   
 22  10  26  1   
 23  11  27  1   
 24  11  28  1   
 25  11  29  1   
 26  12  30  1   
 27  12  31  1   
 28  12  32  1   
 29  13  14  1   
 30  13  33  1   
 31  13  34  1   
 32  14  15  1   
 33  14  35  1   
 34  14  36  1   
 35  15  16  1   
 36  15  37  1   
 37  15  38  1   
 38  16  17  1   
 39  16  39  1   
 40  16  40  1   
 41  17  41  1   
@<TRIPOS>SUBSTRUCTURE
  1 ****   3 GROUP 4 **** **** 0

# MOE 2024.06 (io_trps.svl 2023.06)
