@<TRIPOS>MOLECULE
NONAME
54 56 1 0 0 
SMALL
USER_CHARGES


@<TRIPOS>ATOM
  1 O       -0.1240    -0.7030    -1.0080 O.2   1 <1>  -0.5700 
  2 C        0.1820    -1.7710    -0.5340 C.2   1 <1>   0.5690 
  3 N        1.3700    -2.0590     0.0730 N.am  1 <1>  -0.2370 
  4 C       -0.7150    -3.0180    -0.6100 C.3   1 <1>   0.2510 
  5 C        2.3330    -1.1020     0.4460 C.ar  1 <1>   0.1170 
  6 C        1.4660    -3.4040     0.2870 C.2   1 <1>   0.5690 
  7 N       -1.8850    -3.0450     0.3190 N.3   1 <1>  -0.8100 
  8 C        0.2560    -4.1420    -0.2220 C.3   1 <1>  -0.0990 
  9 C        3.5120    -0.9190    -0.2810 C.ar  1 <1>  -0.1440 
 10 C        2.0990    -0.3150     1.5670 C.ar  1 <1>  -0.1500 
 11 O        2.3920    -3.9840     0.7890 O.2   1 <1>  -0.5700 
 12 C       -2.8130    -4.1540    -0.0290 C.3   1 <1>   0.1100 
 13 C       -2.6300    -1.7580     0.3320 C.3   1 <1>   0.1100 
 14 C        4.4270     0.0370     0.1300 C.ar  1 <1>  -0.1500 
 15 C        3.8160    -1.7520    -1.5200 C.3   1 <1>  -0.0970 
 16 C        3.0170     0.6370     1.9700 C.ar  1 <1>  -0.1500 
 17 C       -4.0010    -4.2390     0.9420 C.3   1 <1>   0.1400 
 18 C       -3.8330    -1.7860     1.2900 C.3   1 <1>   0.1400 
 19 C        4.1830     0.8130     1.2490 C.ar  1 <1>  -0.1500 
 20 N       -4.7220    -2.9390     0.9790 N.am  1 <1>  -0.6600 
 21 C       -6.0260    -2.8150     0.5850 C.2   1 <1>   0.7800 
 22 O       -6.6850    -3.7750     0.2340 O.2   1 <1>  -0.5700 
 23 O       -6.5480    -1.5860     0.5880 O.3   1 <1>  -0.4300 
 24 C       -7.8520    -1.2060     0.2070 C.3   1 <1>   0.2800 
 25 C       -7.8980     0.3090     0.4050 C.3   1 <1>  -0.2400 
 26 C       -8.0870    -1.5290    -1.2740 C.3   1 <1>  -0.2400 
 27 C       -8.8870    -1.8680     1.1240 C.3   1 <1>  -0.2400 
 28 H       -1.0510    -3.1330    -1.6260 H     1 <1>   0.0800 
 29 H        0.5360    -4.7220    -1.0810 H     1 <1>   0.0800 
 30 H       -0.1230    -4.7830     0.5520 H     1 <1>   0.0800 
 31 H        1.1930    -0.4490     2.1290 H     1 <1>   0.1500 
 32 H       -2.2930    -5.0940    -0.0040 H     1 <1>   0.0800 
 33 H       -3.1960    -4.0130    -1.0260 H     1 <1>   0.0800 
 34 H       -2.9760    -1.5210    -0.6610 H     1 <1>   0.0800 
 35 H       -1.9830    -0.9620     0.6560 H     1 <1>   0.0800 
 36 H        5.3400     0.1860    -0.4190 H     1 <1>   0.1500 
 37 H        2.9980    -1.6920    -2.2160 H     1 <1>   0.0800 
 38 H        3.9700    -2.7790    -1.2410 H     1 <1>   0.0800 
 39 H        4.7030    -1.3990    -2.0130 H     1 <1>   0.0800 
 40 H        2.8240     1.2400     2.8400 H     1 <1>   0.1500 
 41 H       -3.6420    -4.4740     1.9290 H     1 <1>   0.0800 
 42 H       -4.6620    -5.0300     0.6320 H     1 <1>   0.0800 
 43 H       -4.3670    -0.8550     1.2150 H     1 <1>   0.0800 
 44 H       -3.4770    -1.8800     2.3010 H     1 <1>   0.0800 
 45 H        4.9010     1.5530     1.5590 H     1 <1>   0.1500 
 46 H       -7.7110     0.5560     1.4340 H     1 <1>   0.0800 
 47 H       -8.8650     0.6920     0.1340 H     1 <1>   0.0800 
 48 H       -7.1590     0.7880    -0.2120 H     1 <1>   0.0800 
 49 H       -7.3020    -1.1100    -1.8770 H     1 <1>   0.0800 
 50 H       -9.0240    -1.1130    -1.5950 H     1 <1>   0.0800 
 51 H       -8.1310    -2.5900    -1.4370 H     1 <1>   0.0800 
 52 H       -8.6480    -1.6800     2.1540 H     1 <1>   0.0800 
 53 H       -8.9310    -2.9280     0.9590 H     1 <1>   0.0800 
 54 H       -9.8640    -1.4680     0.9220 H     1 <1>   0.0800 
@<TRIPOS>BOND
  1   1   2  2   
  2   2   3  am  
  3   2   4  1   
  4   3   5  1   
  5   3   6  am  
  6   4   7  1   
  7   4   8  1   
  8   4  28  1   
  9   5   9  ar  
 10   5  10  ar  
 11   6   8  1   
 12   6  11  2   
 13   7  12  1   
 14   7  13  1   
 15   8  29  1   
 16   8  30  1   
 17   9  14  ar  
 18   9  15  1   
 19  10  16  ar  
 20  10  31  1   
 21  12  17  1   
 22  12  32  1   
 23  12  33  1   
 24  13  18  1   
 25  13  34  1   
 26  13  35  1   
 27  14  19  ar  
 28  14  36  1   
 29  15  37  1   
 30  15  38  1   
 31  15  39  1   
 32  16  19  ar  
 33  16  40  1   
 34  17  20  1   
 35  17  41  1   
 36  17  42  1   
 37  18  20  1   
 38  18  43  1   
 39  18  44  1   
 40  19  45  1   
 41  20  21  am  
 42  21  22  2   
 43  21  23  1   
 44  23  24  1   
 45  24  25  1   
 46  24  26  1   
 47  24  27  1   
 48  25  46  1   
 49  25  47  1   
 50  25  48  1   
 51  26  49  1   
 52  26  50  1   
 53  26  51  1   
 54  27  52  1   
 55  27  53  1   
 56  27  54  1   
@<TRIPOS>SUBSTRUCTURE
  1 ****  13 GROUP 4 **** **** 0

# MOE 2024.06 (io_trps.svl 2023.06)
