@<TRIPOS>MOLECULE
NONAME
37 40 1 0 0 
SMALL
USER_CHARGES


@<TRIPOS>ATOM
  1 BR      -1.3010    -2.2010     0.6960 Br    1 <1>  -0.1100 
  2 C       -2.4910    -0.7520     0.2440 C.2   1 <1>   0.1240 
  3 C       -1.9050     0.5050    -0.0820 C.2   1 <1>   0.3760 
  4 C       -3.8310    -0.9420     0.2420 C.2   1 <1>  -0.1810 
  5 N       -2.6220     1.5350    -0.3980 N.2   1 <1>  -0.5760 
  6 N       -4.6020     0.1500    -0.0940 N.pl3 1 <1>   0.6010 
  7 C       -3.9930     1.3450    -0.4030 C.2   1 <1>  -0.0260 
  8 N       -5.9370     0.2330    -0.1680 N.2   1 <1>  -0.7070 
  9 C       -5.0020     2.2000    -0.6870 C.2   1 <1>  -0.1500 
 10 C       -6.1930     1.4880    -0.5320 C.2   1 <1>   0.2030 
 11 C       -7.5050     2.0990    -0.7720 C.2   1 <1>   0.7160 
 12 O       -7.5560     3.1420    -1.4050 O.2   1 <1>  -0.5700 
 13 N       -8.7050     1.5710    -0.3150 N.am  1 <1>  -0.6600 
 14 C       -8.7660     0.4860     0.7120 C.3   1 <1>   0.1400 
 15 C      -10.0080     2.1040    -0.8190 C.3   1 <1>   0.1400 
 16 C      -10.0870     0.5360     1.4760 C.3   1 <1>  -0.1600 
 17 C      -11.0480     0.9860    -0.8680 C.3   1 <1>  -0.1600 
 18 C      -11.2730     0.3810     0.5240 C.3   1 <1>   0.5600 
 19 O      -11.5760    -0.9670     0.4020 O.3   1 <1>  -0.5600 
 20 O      -12.3860     0.9580     1.1210 O.3   1 <1>  -0.5600 
 21 C      -12.9430    -1.1030     0.2730 C.3   1 <1>   0.1200 
 22 C      -13.4960     0.1610     0.8990 C.3   1 <1>   0.1200 
 23 H       -0.8330     0.5860    -0.0600 H     1 <1>   0.0600 
 24 H       -4.3420    -1.8560     0.4750 H     1 <1>   0.1500 
 25 H       -4.9170     3.2310    -0.9790 H     1 <1>   0.1500 
 26 H       -7.9560     0.5990     1.4120 H     1 <1>   0.0800 
 27 H       -8.6630    -0.4690     0.2240 H     1 <1>   0.0800 
 28 H       -9.8820     2.5150    -1.8070 H     1 <1>   0.0800 
 29 H      -10.3440     2.8930    -0.1670 H     1 <1>   0.0800 
 30 H      -10.1490     1.4850     1.9770 H     1 <1>   0.0800 
 31 H      -10.1160    -0.2390     2.2180 H     1 <1>   0.0800 
 32 H      -10.6810     0.2270    -1.5350 H     1 <1>   0.0800 
 33 H      -11.9710     1.3680    -1.2620 H     1 <1>   0.0800 
 34 H      -13.2630    -1.9910     0.7870 H     1 <1>   0.0800 
 35 H      -13.1900    -1.1650    -0.7730 H     1 <1>   0.0800 
 36 H      -14.1760     0.6720     0.2410 H     1 <1>   0.0800 
 37 H      -13.9700    -0.0390     1.8440 H     1 <1>   0.0800 
@<TRIPOS>BOND
  1   1   2  1   
  2   2   3  1   
  3   2   4  2   
  4   3   5  2   
  5   3  23  1   
  6   4   6  1   
  7   4  24  1   
  8   5   7  1   
  9   6   7  1   
 10   6   8  1   
 11   7   9  2   
 12   8  10  2   
 13   9  10  1   
 14   9  25  1   
 15  10  11  1   
 16  11  12  2   
 17  11  13  am  
 18  13  14  1   
 19  13  15  1   
 20  14  16  1   
 21  14  26  1   
 22  14  27  1   
 23  15  17  1   
 24  15  28  1   
 25  15  29  1   
 26  16  18  1   
 27  16  30  1   
 28  16  31  1   
 29  17  18  1   
 30  17  32  1   
 31  17  33  1   
 32  18  19  1   
 33  18  20  1   
 34  19  21  1   
 35  20  22  1   
 36  21  22  1   
 37  21  34  1   
 38  21  35  1   
 39  22  36  1   
 40  22  37  1   
@<TRIPOS>SUBSTRUCTURE
  1 ****  14 GROUP 4 **** **** 0

# MOE 2024.06 (io_trps.svl 2023.06)
