@<TRIPOS>MOLECULE
NONAME
59 62 1 0 0 
SMALL
USER_CHARGES


@<TRIPOS>ATOM
  1 BR       3.8200     0.8690    -4.1650 Br    1 <1>  -0.1110 
  2 C        3.1540    -0.2200    -2.7260 C.ar  1 <1>   0.1110 
  3 C        3.9990    -1.1490    -2.1510 C.ar  1 <1>  -0.1500 
  4 C        1.8510    -0.0430    -2.3020 C.ar  1 <1>  -0.1500 
  5 C        3.5300    -1.9300    -1.1050 C.ar  1 <1>  -0.1440 
  6 C        1.3840    -0.8290    -1.2620 C.ar  1 <1>  -0.1500 
  7 C        2.2190    -1.7660    -0.6700 C.ar  1 <1>  -0.1500 
  8 C        4.4500    -2.9440    -0.4440 C.3   1 <1>   0.2540 
  9 N        5.5790    -2.2500     0.2080 N.3   1 <1>  -0.8100 
 10 C        5.1260    -1.3570     1.3050 C.3   1 <1>   0.1100 
 11 C        6.5990    -3.1960     0.7110 C.3   1 <1>   0.1100 
 12 C        6.3140    -0.6290     1.9790 C.3   1 <1>   0.3430 
 13 C        7.8090    -2.4470     1.3270 C.3   1 <1>   0.3430 
 14 N        7.6050    -0.9510     1.2640 N.4   1 <1>  -0.9590 
 15 C        8.7820    -0.1000     1.6180 C.3   1 <1>   0.4230 
 16 C        8.4520     1.3820     1.3730 C.3   1 <1>  -0.1600 
 17 C       10.0030    -0.5090     0.7780 C.3   1 <1>  -0.1600 
 18 C        9.6660     2.2900     1.5740 C.3   1 <1>   0.3430 
 19 C       11.1920     0.4270     0.9910 C.3   1 <1>   0.3430 
 20 N       10.7850     1.8320     0.7120 N.4   1 <1>  -0.9590 
 21 C       11.9560     2.7580     0.8060 C.3   1 <1>   0.4860 
 22 C       12.9460     2.3710    -0.2740 C.ar  1 <1>  -0.1430 
 23 C       14.1260     1.7220     0.0610 C.ar  1 <1>  -0.1500 
 24 C       12.6750     2.6520    -1.6060 C.ar  1 <1>  -0.1500 
 25 C       15.0160     1.3420    -0.9280 C.ar  1 <1>  -0.1500 
 26 C       13.5670     2.2710    -2.5930 C.ar  1 <1>  -0.1500 
 27 C       14.7350     1.6140    -2.2540 C.ar  1 <1>  -0.1500 
 28 H        5.0050    -1.2550    -2.5140 H     1 <1>   0.1500 
 29 H        1.2200     0.6880    -2.7750 H     1 <1>   0.1500 
 30 H        0.3710    -0.7140    -0.9160 H     1 <1>   0.1500 
 31 H        1.8370    -2.3680     0.1360 H     1 <1>   0.1500 
 32 H        4.8250    -3.6110    -1.2030 H     1 <1>   0.0800 
 33 H        3.9060    -3.5310     0.2770 H     1 <1>   0.0800 
 34 H        4.5840    -1.9220     2.0450 H     1 <1>   0.0800 
 35 H        4.4520    -0.6130     0.9130 H     1 <1>   0.0800 
 36 H        6.9470    -3.8140    -0.1000 H     1 <1>   0.0800 
 37 H        6.1650    -3.8480     1.4520 H     1 <1>   0.0800 
 38 H        6.3760    -0.9270     3.0130 H     1 <1>   0.0800 
 39 H        6.1140     0.4280     1.9510 H     1 <1>   0.0800 
 40 H        8.6890    -2.7310     0.7760 H     1 <1>   0.0800 
 41 H        7.9430    -2.7640     2.3480 H     1 <1>   0.0800 
 42 H        7.3390    -0.8100     0.2730 H     1 <1>   0.4500 
 43 H        9.0170    -0.2380     2.6620 H     1 <1>   0.0800 
 44 H        7.6980     1.7110     2.0640 H     1 <1>   0.0800 
 45 H        8.0770     1.5210     0.3740 H     1 <1>   0.0800 
 46 H        9.7530    -0.5170    -0.2680 H     1 <1>   0.0800 
 47 H       10.3290    -1.4950     1.0550 H     1 <1>   0.0800 
 48 H        9.9710     2.2700     2.6090 H     1 <1>   0.0800 
 49 H        9.4000     3.3060     1.3240 H     1 <1>   0.0800 
 50 H       11.9950     0.1360     0.3300 H     1 <1>   0.0800 
 51 H       11.5500     0.3430     2.0060 H     1 <1>   0.0800 
 52 H       10.5030     1.8810    -0.2780 H     1 <1>   0.4500 
 53 H       12.4210     2.6880     1.7760 H     1 <1>   0.0800 
 54 H       11.6430     3.7780     0.6470 H     1 <1>   0.0800 
 55 H       14.3750     1.5050     1.0860 H     1 <1>   0.1500 
 56 H       11.7790     3.1740    -1.8990 H     1 <1>   0.1500 
 57 H       15.9330     0.8380    -0.6700 H     1 <1>   0.1500 
 58 H       13.3590     2.4890    -3.6280 H     1 <1>   0.1500 
 59 H       15.4300     1.3190    -3.0240 H     1 <1>   0.1500 
@<TRIPOS>BOND
  1   1   2  1   
  2   2   3  ar  
  3   2   4  ar  
  4   3   5  ar  
  5   3  28  1   
  6   4   6  ar  
  7   4  29  1   
  8   5   7  ar  
  9   5   8  1   
 10   6   7  ar  
 11   6  30  1   
 12   7  31  1   
 13   8   9  1   
 14   8  32  1   
 15   8  33  1   
 16   9  10  1   
 17   9  11  1   
 18  10  12  1   
 19  10  34  1   
 20  10  35  1   
 21  11  13  1   
 22  11  36  1   
 23  11  37  1   
 24  12  14  1   
 25  12  38  1   
 26  12  39  1   
 27  13  14  1   
 28  13  40  1   
 29  13  41  1   
 30  14  15  1   
 31  14  42  1   
 32  15  16  1   
 33  15  17  1   
 34  15  43  1   
 35  16  18  1   
 36  16  44  1   
 37  16  45  1   
 38  17  19  1   
 39  17  46  1   
 40  17  47  1   
 41  18  20  1   
 42  18  48  1   
 43  18  49  1   
 44  19  20  1   
 45  19  50  1   
 46  19  51  1   
 47  20  21  1   
 48  20  52  1   
 49  21  22  1   
 50  21  53  1   
 51  21  54  1   
 52  22  23  ar  
 53  22  24  ar  
 54  23  25  ar  
 55  23  55  1   
 56  24  26  ar  
 57  24  56  1   
 58  25  27  ar  
 59  25  57  1   
 60  26  27  ar  
 61  26  58  1   
 62  27  59  1   
@<TRIPOS>SUBSTRUCTURE
  1 ****  14 GROUP 4 **** **** 0

# MOE 2024.06 (io_trps.svl 2023.06)
