@<TRIPOS>MOLECULE
NONAME
36 37 1 0 0 
SMALL
USER_CHARGES


@<TRIPOS>ATOM
  1 BR      -0.1160    -0.4420     0.4980 Br    1 <1>  -0.1110 
  2 C       -1.6530     0.6910     0.2590 C.ar  1 <1>   0.1110 
  3 C       -2.9110     0.1420     0.4030 C.ar  1 <1>  -0.1500 
  4 C       -1.4540     2.0230    -0.0500 C.ar  1 <1>  -0.1500 
  5 C       -4.0320     0.9470     0.2310 C.ar  1 <1>   0.1170 
  6 C       -2.5660     2.8280    -0.2180 C.ar  1 <1>  -0.1500 
  7 N       -5.3020     0.3690     0.3930 N.am  1 <1>  -0.5470 
  8 C       -3.8370     2.2940    -0.0760 C.ar  1 <1>  -0.1500 
  9 C       -6.5210     0.7630    -0.0840 C.2   1 <1>   0.5690 
 10 O       -6.6920     1.7250    -0.7890 O.2   1 <1>  -0.5700 
 11 C       -7.7330    -0.0670     0.2820 C.3   1 <1>  -0.0990 
 12 C       -9.0030     0.6680    -0.1580 C.3   1 <1>   0.3430 
 13 N      -10.2480    -0.0730     0.2130 N.4   1 <1>  -0.9590 
 14 C      -10.4330    -1.3350    -0.5910 C.3   1 <1>   0.3430 
 15 C      -11.4450     0.8230     0.0320 C.3   1 <1>   0.3430 
 16 C      -11.7960    -1.9960    -0.3070 C.3   1 <1>   0.1200 
 17 C      -12.7650     0.0700     0.2900 C.3   1 <1>   0.1200 
 18 O      -12.8300    -1.0770    -0.5060 O.3   1 <1>  -0.5600 
 19 H       -3.0060    -0.9000     0.6410 H     1 <1>   0.1500 
 20 H       -0.4580     2.4150    -0.1560 H     1 <1>   0.1500 
 21 H       -2.4460     3.8710    -0.4590 H     1 <1>   0.1500 
 22 H       -5.2850    -0.5050     0.9150 H     1 <1>   0.3700 
 23 H       -4.6820     2.9450    -0.2060 H     1 <1>   0.1500 
 24 H       -7.7420    -0.2110     1.3460 H     1 <1>   0.0800 
 25 H       -7.6510    -1.0130    -0.2170 H     1 <1>   0.0800 
 26 H       -8.9720     0.8240    -1.2260 H     1 <1>   0.0800 
 27 H       -9.0090     1.6410     0.3080 H     1 <1>   0.0800 
 28 H      -10.2080    -0.3270     1.2090 H     1 <1>   0.4500 
 29 H       -9.6480    -2.0380    -0.3670 H     1 <1>   0.0800 
 30 H      -10.3830    -1.1070    -1.6430 H     1 <1>   0.0800 
 31 H      -11.4670     1.2030    -0.9770 H     1 <1>   0.0800 
 32 H      -11.3810     1.6660     0.7000 H     1 <1>   0.0800 
 33 H      -11.8500    -2.3660     0.7030 H     1 <1>   0.0800 
 34 H      -11.9580    -2.8190    -0.9810 H     1 <1>   0.0800 
 35 H      -13.6040     0.6940     0.0320 H     1 <1>   0.0800 
 36 H      -12.8570    -0.2170     1.3230 H     1 <1>   0.0800 
@<TRIPOS>BOND
  1   1   2  1   
  2   2   3  ar  
  3   2   4  ar  
  4   3   5  ar  
  5   3  19  1   
  6   4   6  ar  
  7   4  20  1   
  8   5   7  1   
  9   5   8  ar  
 10   6   8  ar  
 11   6  21  1   
 12   7   9  am  
 13   7  22  1   
 14   8  23  1   
 15   9  10  2   
 16   9  11  1   
 17  11  12  1   
 18  11  24  1   
 19  11  25  1   
 20  12  13  1   
 21  12  26  1   
 22  12  27  1   
 23  13  14  1   
 24  13  15  1   
 25  13  28  1   
 26  14  16  1   
 27  14  29  1   
 28  14  30  1   
 29  15  17  1   
 30  15  31  1   
 31  15  32  1   
 32  16  18  1   
 33  16  33  1   
 34  16  34  1   
 35  17  18  1   
 36  17  35  1   
 37  17  36  1   
@<TRIPOS>SUBSTRUCTURE
  1 ****   9 GROUP 4 **** **** 0

# MOE 2024.06 (io_trps.svl 2023.06)
