@<TRIPOS>MOLECULE
NONAME
37 38 1 0 0 
SMALL
USER_CHARGES


@<TRIPOS>ATOM
  1 O        0.9480     0.8010    -0.0460 O.2   1 <1>  -0.5700 
  2 C        0.3860     1.5360    -0.8330 C.2   1 <1>   0.6900 
  3 N       -0.9170     1.8980    -0.6910 N.am  1 <1>  -0.5470 
  4 N        1.0940     2.0640    -1.8640 N.am  1 <1>  -0.7300 
  5 C       -1.8610     1.5020     0.2670 C.ar  1 <1>   0.1170 
  6 C        2.4590     1.6270    -2.2900 C.3   1 <1>   0.1400 
  7 C       -2.8660     2.3920     0.6270 C.ar  1 <1>  -0.1500 
  8 C       -1.8450     0.2450     0.8640 C.ar  1 <1>  -0.1500 
  9 C        3.5800     2.2440    -1.4240 C.3   1 <1>   0.3430 
 10 C       -3.8230     2.0430     1.5640 C.ar  1 <1>  -0.1500 
 11 C       -2.7990    -0.1080     1.8020 C.ar  1 <1>  -0.1500 
 12 N        3.5040     1.7780    -0.0100 N.4   1 <1>  -0.9590 
 13 C       -3.7890     0.7920     2.1540 C.ar  1 <1>  -0.1500 
 14 C        4.0570     2.7070     0.9970 C.3   1 <1>   0.3430 
 15 C        4.1040     0.4520     0.2490 C.3   1 <1>   0.3430 
 16 C        4.2550     1.8480     2.2400 C.3   1 <1>  -0.1600 
 17 C        4.2120     0.3920     1.7640 C.3   1 <1>  -0.1600 
 18 H       -1.2340     2.6340    -1.3130 H     1 <1>   0.3700 
 19 H        0.5600     2.5590    -2.5810 H     1 <1>   0.3700 
 20 H        2.6100     1.9250    -3.3140 H     1 <1>   0.0800 
 21 H        2.5200     0.5530    -2.2530 H     1 <1>   0.0800 
 22 H       -2.9040     3.3680     0.1790 H     1 <1>   0.1500 
 23 H       -1.0880    -0.4680     0.5960 H     1 <1>   0.1500 
 24 H        3.4790     3.3160    -1.4590 H     1 <1>   0.0800 
 25 H        4.5410     1.9870    -1.8380 H     1 <1>   0.0800 
 26 H       -4.5940     2.7430     1.8360 H     1 <1>   0.1500 
 27 H       -2.7720    -1.0830     2.2570 H     1 <1>   0.1500 
 28 H        2.4910     1.6450     0.2040 H     1 <1>   0.4500 
 29 H       -4.5310     0.5190     2.8840 H     1 <1>   0.1500 
 30 H        3.3870     3.5310     1.1860 H     1 <1>   0.0800 
 31 H        5.0100     3.0850     0.6640 H     1 <1>   0.0800 
 32 H        5.0870     0.3980    -0.1910 H     1 <1>   0.0800 
 33 H        3.4840    -0.3440    -0.1350 H     1 <1>   0.0800 
 34 H        3.4630     2.0350     2.9450 H     1 <1>   0.0800 
 35 H        5.1940     2.0850     2.7100 H     1 <1>   0.0800 
 36 H        5.0860    -0.1600     2.0650 H     1 <1>   0.0800 
 37 H        3.3410    -0.1020     2.1610 H     1 <1>   0.0800 
@<TRIPOS>BOND
  1   1   2  2   
  2   2   3  am  
  3   2   4  am  
  4   3   5  1   
  5   3  18  1   
  6   4   6  1   
  7   4  19  1   
  8   5   7  ar  
  9   5   8  ar  
 10   6   9  1   
 11   6  20  1   
 12   6  21  1   
 13   7  10  ar  
 14   7  22  1   
 15   8  11  ar  
 16   8  23  1   
 17   9  12  1   
 18   9  24  1   
 19   9  25  1   
 20  10  13  ar  
 21  10  26  1   
 22  11  13  ar  
 23  11  27  1   
 24  12  14  1   
 25  12  15  1   
 26  12  28  1   
 27  13  29  1   
 28  14  16  1   
 29  14  30  1   
 30  14  31  1   
 31  15  17  1   
 32  15  32  1   
 33  15  33  1   
 34  16  17  1   
 35  16  34  1   
 36  16  35  1   
 37  17  36  1   
 38  17  37  1   
@<TRIPOS>SUBSTRUCTURE
  1 ****   1 GROUP 4 **** **** 0

# MOE 2024.06 (io_trps.svl 2023.06)
