@<TRIPOS>MOLECULE
NONAME
44 46 1 0 0 
SMALL
USER_CHARGES


@<TRIPOS>ATOM
  1 CL       0.2630    -0.0010    -0.7430 Cl    1 <1>  -0.1770 
  2 C       -1.4910     0.0020    -0.6660 C.ar  1 <1>   0.1770 
  3 C       -2.1920     1.1770    -0.3730 C.ar  1 <1>   0.1000 
  4 C       -2.1200    -1.2070    -0.8880 C.ar  1 <1>  -0.1500 
  5 N       -1.4950     2.3940    -0.1970 N.pl3 1 <1>  -0.8380 
  6 C       -3.5980     1.0810    -0.2680 C.ar  1 <1>   0.1170 
  7 C       -3.4960    -1.2800    -0.8090 C.ar  1 <1>  -0.1500 
  8 C       -1.3730     3.0610     1.1350 C.3   1 <1>   0.2090 
  9 C       -0.7760     3.0040    -1.3660 C.3   1 <1>   0.2090 
 10 N       -4.4510     2.1410     0.1080 N.am  1 <1>  -0.5470 
 11 C       -4.2180    -0.1420    -0.4970 C.ar  1 <1>  -0.1500 
 12 C       -1.5770     4.5980     1.0530 C.3   1 <1>   0.3430 
 13 C       -0.5270     4.5180    -1.1880 C.3   1 <1>   0.3430 
 14 C       -4.5540     3.4310    -0.3360 C.2   1 <1>   0.7150 
 15 N       -1.6080     5.1360    -0.3550 N.4   1 <1>  -0.9590 
 16 O       -3.8960     3.8190    -1.2850 O.2   1 <1>  -0.5700 
 17 C       -5.4170     4.3350     0.3800 C.2   1 <1>  -0.0450 
 18 C       -1.6960     6.6130    -0.4130 C.3   1 <1>   0.3430 
 19 S       -5.3210     6.0620     0.0130 S.3   1 <1>  -0.0800 
 20 C       -6.3440     4.1540     1.3580 C.2   1 <1>  -0.1500 
 21 C       -2.1150     7.0500    -1.8120 C.3   1 <1>  -0.2400 
 22 C       -6.5450     6.4600     1.1970 C.2   1 <1>  -0.1100 
 23 C       -6.9770     5.3470     1.8150 C.2   1 <1>  -0.1500 
 24 H       -1.5350    -2.0810    -1.1170 H     1 <1>   0.1500 
 25 H       -4.0000    -2.2150    -0.9850 H     1 <1>   0.1500 
 26 H       -0.3930     2.8570     1.5300 H     1 <1>   0.0800 
 27 H       -2.0870     2.6380     1.8200 H     1 <1>   0.0800 
 28 H       -1.3730     2.8520    -2.2500 H     1 <1>   0.0800 
 29 H        0.1670     2.5120    -1.5220 H     1 <1>   0.0800 
 30 H       -5.1950     1.8650     0.7440 H     1 <1>   0.3700 
 31 H       -5.2890    -0.2160    -0.4350 H     1 <1>   0.1500 
 32 H       -0.7860     5.0750     1.6070 H     1 <1>   0.0800 
 33 H       -2.5040     4.8430     1.5420 H     1 <1>   0.0800 
 34 H       -0.4880     4.9750    -2.1620 H     1 <1>   0.0800 
 35 H        0.4270     4.6650    -0.7120 H     1 <1>   0.0800 
 36 H       -2.4780     4.7400    -0.7730 H     1 <1>   0.4500 
 37 H       -0.7480     7.0560    -0.1520 H     1 <1>   0.0800 
 38 H       -2.4380     6.9550     0.2910 H     1 <1>   0.0800 
 39 H       -6.6220     3.2090     1.7900 H     1 <1>   0.1500 
 40 H       -1.3460     6.8500    -2.5350 H     1 <1>   0.0800 
 41 H       -2.2940     8.1110    -1.8100 H     1 <1>   0.0800 
 42 H       -3.0270     6.5600    -2.1070 H     1 <1>   0.0800 
 43 H       -6.8210     7.4950     1.3070 H     1 <1>   0.1500 
 44 H       -7.7320     5.3200     2.5840 H     1 <1>   0.1500 
@<TRIPOS>BOND
  1   1   2  1   
  2   2   3  ar  
  3   2   4  ar  
  4   3   5  1   
  5   3   6  ar  
  6   4   7  ar  
  7   4  24  1   
  8   5   8  1   
  9   5   9  1   
 10   6  10  1   
 11   6  11  ar  
 12   7  11  ar  
 13   7  25  1   
 14   8  12  1   
 15   8  26  1   
 16   8  27  1   
 17   9  13  1   
 18   9  28  1   
 19   9  29  1   
 20  10  14  am  
 21  10  30  1   
 22  11  31  1   
 23  12  15  1   
 24  12  32  1   
 25  12  33  1   
 26  13  15  1   
 27  13  34  1   
 28  13  35  1   
 29  14  16  2   
 30  14  17  1   
 31  15  18  1   
 32  15  36  1   
 33  17  19  1   
 34  17  20  2   
 35  18  21  1   
 36  18  37  1   
 37  18  38  1   
 38  19  22  1   
 39  20  23  1   
 40  20  39  1   
 41  21  40  1   
 42  21  41  1   
 43  21  42  1   
 44  22  23  2   
 45  22  43  1   
 46  23  44  1   
@<TRIPOS>SUBSTRUCTURE
  1 ****  14 GROUP 4 **** **** 0

# MOE 2024.06 (io_trps.svl 2023.06)
