@<TRIPOS>MOLECULE
NONAME
47 49 1 0 0 
SMALL
USER_CHARGES


@<TRIPOS>ATOM
  1 F        0.2840     0.4270    -1.7030 F     1 <1>  -0.3400 
  2 C        0.4280     1.4710    -0.8970 C.3   1 <1>   1.1640 
  3 F       -0.3980     1.2750     0.1210 F     1 <1>  -0.3400 
  4 F       -0.0360     2.5200    -1.5640 F     1 <1>  -0.3400 
  5 C        1.8840     1.6490    -0.4270 C.ar  1 <1>  -0.1440 
  6 C        2.4400     2.9120    -0.2710 C.ar  1 <1>  -0.1500 
  7 C        2.6710     0.5390    -0.1380 C.ar  1 <1>  -0.1500 
  8 C        3.7530     3.0980     0.1550 C.ar  1 <1>   0.0860 
  9 C        3.9850     0.6770     0.2960 C.ar  1 <1>  -0.1440 
 10 C        4.3130     4.4310     0.2920 C.2   1 <1>   0.5440 
 11 C        4.5020     1.9580     0.4440 C.ar  1 <1>  -0.1500 
 12 C        4.8460    -0.5580     0.6220 C.3   1 <1>   1.1630 
 13 O        3.6080     5.3530     0.6400 O.2   1 <1>  -0.5700 
 14 N        5.6420     4.6320    -0.0060 N.am  1 <1>  -0.5470 
 15 F        6.1390    -0.3420     0.4100 F     1 <1>  -0.3400 
 16 F        4.7290    -0.9220     1.8900 F     1 <1>  -0.3400 
 17 F        4.5220    -1.6170    -0.1080 F     1 <1>  -0.3400 
 18 C        6.5050     5.7220     0.1900 C.ar  1 <1>   0.1170 
 19 C        7.7630     5.6690    -0.3940 C.ar  1 <1>  -0.1500 
 20 C        6.1810     6.8420     0.9500 C.ar  1 <1>  -0.1500 
 21 C        8.7020     6.6860    -0.2340 C.ar  1 <1>   0.0860 
 22 C        7.0860     7.8750     1.1080 C.ar  1 <1>  -0.1500 
 23 C       10.0190     6.5850    -0.8310 C.2   1 <1>   0.5440 
 24 C        8.3340     7.7980     0.5180 C.ar  1 <1>  -0.1500 
 25 O       10.3860     7.4380    -1.6150 O.2   1 <1>  -0.5700 
 26 N       10.8660     5.5390    -0.5350 N.am  1 <1>  -0.6600 
 27 C       10.7290     4.6370     0.6460 C.3   1 <1>   0.1400 
 28 C       12.1210     5.2960    -1.3070 C.3   1 <1>   0.1400 
 29 C       10.9540     3.1740     0.2300 C.3   1 <1>   0.1200 
 30 C       12.2840     3.7960    -1.6080 C.3   1 <1>   0.1200 
 31 O       12.1750     3.0330    -0.4370 O.3   1 <1>  -0.5600 
 32 H        1.8500     3.7930    -0.4790 H     1 <1>   0.1500 
 33 H        2.2500    -0.4500    -0.2500 H     1 <1>   0.1500 
 34 H        5.5100     2.0810     0.8050 H     1 <1>   0.1500 
 35 H        6.0650     3.8590    -0.5140 H     1 <1>   0.3700 
 36 H        8.0370     4.8220    -0.9940 H     1 <1>   0.1500 
 37 H        5.2200     6.9200     1.4240 H     1 <1>   0.1500 
 38 H        6.8160     8.7390     1.6900 H     1 <1>   0.1500 
 39 H        9.0380     8.6040     0.6350 H     1 <1>   0.1500 
 40 H        9.7630     4.7380     1.1050 H     1 <1>   0.0800 
 41 H       11.4700     4.9070     1.3790 H     1 <1>   0.0800 
 42 H       12.9630     5.6400    -0.7330 H     1 <1>   0.0800 
 43 H       12.1050     5.8430    -2.2340 H     1 <1>   0.0800 
 44 H       10.1660     2.8370    -0.4210 H     1 <1>   0.0800 
 45 H       10.9810     2.5400     1.0980 H     1 <1>   0.0800 
 46 H       13.2540     3.6080    -2.0340 H     1 <1>   0.0800 
 47 H       11.5320     3.4690    -2.3050 H     1 <1>   0.0800 
@<TRIPOS>BOND
  1   1   2  1   
  2   2   3  1   
  3   2   4  1   
  4   2   5  1   
  5   5   6  ar  
  6   5   7  ar  
  7   6   8  ar  
  8   6  32  1   
  9   7   9  ar  
 10   7  33  1   
 11   8  10  1   
 12   8  11  ar  
 13   9  11  ar  
 14   9  12  1   
 15  10  13  2   
 16  10  14  am  
 17  11  34  1   
 18  12  15  1   
 19  12  16  1   
 20  12  17  1   
 21  14  18  1   
 22  14  35  1   
 23  18  19  ar  
 24  18  20  ar  
 25  19  21  ar  
 26  19  36  1   
 27  20  22  ar  
 28  20  37  1   
 29  21  23  1   
 30  21  24  ar  
 31  22  24  ar  
 32  22  38  1   
 33  23  25  2   
 34  23  26  am  
 35  24  39  1   
 36  26  27  1   
 37  26  28  1   
 38  27  29  1   
 39  27  40  1   
 40  27  41  1   
 41  28  30  1   
 42  28  42  1   
 43  28  43  1   
 44  29  31  1   
 45  29  44  1   
 46  29  45  1   
 47  30  31  1   
 48  30  46  1   
 49  30  47  1   
@<TRIPOS>SUBSTRUCTURE
  1 ****  14 GROUP 4 **** **** 0

# MOE 2024.06 (io_trps.svl 2023.06)
