@<TRIPOS>MOLECULE
NONAME
61 64 1 0 0 
SMALL
USER_CHARGES


@<TRIPOS>ATOM
  1 O        1.9240    -0.8610     0.2310 O.3   1 <1>  -0.5600 
  2 C        2.8760    -1.7860     0.6810 C.3   1 <1>   0.1200 
  3 C        0.6060    -1.3140     0.3640 C.3   1 <1>   0.1200 
  4 C        2.7850    -3.1130    -0.0910 C.3   1 <1>   0.2090 
  5 C        0.3710    -2.5860    -0.4680 C.3   1 <1>   0.2090 
  6 N        1.3810    -3.6380    -0.1390 N.pl3 1 <1>  -0.8380 
  7 C        1.0990    -4.9870    -0.2190 C.ar  1 <1>   0.7200 
  8 N       -0.1600    -5.3390    -0.2520 N.ar  1 <1>  -0.6200 
  9 N        2.1120    -5.8110    -0.2550 N.ar  1 <1>  -0.6200 
 10 C       -0.3660    -6.6300    -0.3180 C.ar  1 <1>   0.7200 
 11 C        1.7710    -7.0660    -0.3140 C.ar  1 <1>   0.7200 
 12 N        0.5670    -7.5470    -0.3500 N.ar  1 <1>  -0.6200 
 13 N       -1.6780    -7.0590    -0.3550 N.pl3 1 <1>  -0.8380 
 14 N        2.7540    -8.0000    -0.3360 N.pl3 1 <1>  -0.8690 
 15 C       -2.8430    -6.1280    -0.2320 C.3   1 <1>   0.2090 
 16 C       -2.0740    -8.4490    -0.7460 C.3   1 <1>   0.2090 
 17 C        4.1480    -7.7450     0.1030 C.3   1 <1>   0.2090 
 18 C       -3.9780    -6.7700     0.5840 C.3   1 <1>   0.1200 
 19 C       -3.2580    -8.9440     0.1040 C.3   1 <1>   0.1200 
 20 C        5.0440    -7.4590    -1.1070 C.3   1 <1>  -0.0170 
 21 O       -4.3190    -8.0300     0.0760 O.3   1 <1>  -0.5600 
 22 C        6.0140    -6.3360    -0.7790 C.ar  1 <1>  -0.1430 
 23 C        5.6130    -5.0270    -0.9760 C.ar  1 <1>  -0.1500 
 24 C        7.2760    -6.5860    -0.2690 C.ar  1 <1>  -0.1500 
 25 C        6.4380    -3.9630    -0.6550 C.ar  1 <1>   0.0830 
 26 C        8.1180    -5.5350     0.0560 C.ar  1 <1>  -0.1500 
 27 O        5.9110    -2.7270    -0.8820 O.3   1 <1>  -0.3630 
 28 C        7.7120    -4.2130    -0.1190 C.ar  1 <1>   0.0830 
 29 C        6.7190    -1.6960    -1.4050 C.3   1 <1>   0.0400 
 30 O        8.5120    -3.1660     0.2360 O.3   1 <1>  -0.3630 
 31 C        9.7170    -3.3550     0.9450 C.3   1 <1>   0.0400 
 32 H        2.7190    -1.9570     1.7320 H     1 <1>   0.0800 
 33 H        3.8510    -1.3520     0.5450 H     1 <1>   0.0800 
 34 H       -0.0460    -0.5280     0.0290 H     1 <1>   0.0800 
 35 H        0.4120    -1.5070     1.4040 H     1 <1>   0.0800 
 36 H        3.4380    -3.8210     0.3880 H     1 <1>   0.0800 
 37 H        3.1400    -2.9600    -1.0950 H     1 <1>   0.0800 
 38 H        0.4450    -2.3430    -1.5130 H     1 <1>   0.0800 
 39 H       -0.6270    -2.9380    -0.2780 H     1 <1>   0.0800 
 40 H        2.4030    -8.9510    -0.2430 H     1 <1>   0.4000 
 41 H       -3.2050    -5.8850    -1.2150 H     1 <1>   0.0800 
 42 H       -2.5530    -5.2120     0.2520 H     1 <1>   0.0800 
 43 H       -1.2560    -9.1360    -0.6270 H     1 <1>   0.0800 
 44 H       -2.3600    -8.4530    -1.7830 H     1 <1>   0.0800 
 45 H        4.5220    -8.5950     0.6470 H     1 <1>   0.0800 
 46 H        4.1600    -6.9000     0.7720 H     1 <1>   0.0800 
 47 H       -4.8570    -6.1510     0.5450 H     1 <1>   0.0800 
 48 H       -3.6800    -6.8820     1.6120 H     1 <1>   0.0800 
 49 H       -2.9500    -9.0850     1.1250 H     1 <1>   0.0800 
 50 H       -3.6210    -9.8810    -0.2800 H     1 <1>   0.0800 
 51 H        4.4410    -7.1590    -1.9460 H     1 <1>   0.0800 
 52 H        5.5790    -8.3490    -1.3830 H     1 <1>   0.0800 
 53 H        4.6380    -4.8270    -1.3830 H     1 <1>   0.1500 
 54 H        7.6070    -7.5990    -0.1170 H     1 <1>   0.1500 
 55 H        9.0860    -5.7740     0.4490 H     1 <1>   0.1500 
 56 H        6.0790    -0.9780    -1.8850 H     1 <1>   0.0800 
 57 H        7.4070    -2.1140    -2.1180 H     1 <1>   0.0800 
 58 H        7.2480    -1.2250    -0.5960 H     1 <1>   0.0800 
 59 H       10.1260    -2.3860     1.1710 H     1 <1>   0.0800 
 60 H       10.4040    -3.9050     0.3270 H     1 <1>   0.0800 
 61 H        9.5060    -3.8840     1.8570 H     1 <1>   0.0800 
@<TRIPOS>BOND
  1   1   2  1   
  2   1   3  1   
  3   2   4  1   
  4   2  32  1   
  5   2  33  1   
  6   3   5  1   
  7   3  34  1   
  8   3  35  1   
  9   4   6  1   
 10   4  36  1   
 11   4  37  1   
 12   5   6  1   
 13   5  38  1   
 14   5  39  1   
 15   6   7  1   
 16   7   8  ar  
 17   7   9  ar  
 18   8  10  ar  
 19   9  11  ar  
 20  10  12  ar  
 21  10  13  1   
 22  11  12  ar  
 23  11  14  1   
 24  13  15  1   
 25  13  16  1   
 26  14  17  1   
 27  14  40  1   
 28  15  18  1   
 29  15  41  1   
 30  15  42  1   
 31  16  19  1   
 32  16  43  1   
 33  16  44  1   
 34  17  20  1   
 35  17  45  1   
 36  17  46  1   
 37  18  21  1   
 38  18  47  1   
 39  18  48  1   
 40  19  21  1   
 41  19  49  1   
 42  19  50  1   
 43  20  22  1   
 44  20  51  1   
 45  20  52  1   
 46  22  23  ar  
 47  22  24  ar  
 48  23  25  ar  
 49  23  53  1   
 50  24  26  ar  
 51  24  54  1   
 52  25  27  1   
 53  25  28  ar  
 54  26  28  ar  
 55  26  55  1   
 56  27  29  1   
 57  28  30  1   
 58  29  56  1   
 59  29  57  1   
 60  29  58  1   
 61  30  31  1   
 62  31  59  1   
 63  31  60  1   
 64  31  61  1   
@<TRIPOS>SUBSTRUCTURE
  1 ****   9 GROUP 4 **** **** 0

# MOE 2024.06 (io_trps.svl 2023.06)
