@<TRIPOS>MOLECULE
NONAME
29 28 1 0 0 
SMALL
USER_CHARGES


@<TRIPOS>ATOM
  1 O       -2.6780    -2.8270    -1.5320 O.co2 1 <1>  -0.9000 
  2 C       -2.0160    -2.0360    -0.8130 C.2   1 <1>   0.9060 
  3 O       -0.7670    -1.9450    -0.7960 O.co2 1 <1>  -0.9000 
  4 C       -2.8280    -1.1000     0.1340 C.3   1 <1>   0.1140 
  5 N       -4.2290    -1.5250     0.2480 N.am  1 <1>  -0.7300 
  6 C       -2.8110     0.3610    -0.3380 C.3   1 <1>  -0.2400 
  7 C       -5.0930    -1.2740     1.2580 C.2   1 <1>   0.5690 
  8 O       -4.8300    -0.5510     2.1900 O.2   1 <1>  -0.5700 
  9 C       -6.4530    -1.9400     1.2070 C.3   1 <1>  -0.0990 
 10 C       -7.4100    -1.2160     0.2470 C.3   1 <1>  -0.1600 
 11 C       -8.7860    -1.8940     0.2100 C.3   1 <1>  -0.1600 
 12 C       -9.7350    -1.1630    -0.7470 C.3   1 <1>  -0.1600 
 13 C      -11.1080    -1.8390    -0.7840 C.3   1 <1>  -0.2400 
 14 H       -2.3540    -1.1560     1.1140 H     1 <1>   0.0800 
 15 H       -4.4560    -2.2110    -0.4650 H     1 <1>   0.3700 
 16 H       -3.2880     0.4320    -1.3150 H     1 <1>   0.0800 
 17 H       -1.7770     0.6960    -0.4180 H     1 <1>   0.0800 
 18 H       -3.3410     0.9870     0.3790 H     1 <1>   0.0800 
 19 H       -6.8660    -1.9430     2.1990 H     1 <1>   0.0800 
 20 H       -6.3220    -2.9610     0.8970 H     1 <1>   0.0800 
 21 H       -6.9820    -1.2110    -0.7420 H     1 <1>   0.0800 
 22 H       -7.5170    -0.1930     0.5670 H     1 <1>   0.0800 
 23 H       -9.2090    -1.8980     1.2000 H     1 <1>   0.0800 
 24 H       -8.6720    -2.9160    -0.1110 H     1 <1>   0.0800 
 25 H       -9.3150    -1.1590    -1.7390 H     1 <1>   0.0800 
 26 H       -9.8520    -0.1410    -0.4290 H     1 <1>   0.0800 
 27 H      -11.0170    -2.8570    -1.1210 H     1 <1>   0.0800 
 28 H      -11.7590    -1.3130    -1.4600 H     1 <1>   0.0800 
 29 H      -11.5560    -1.8360     0.1940 H     1 <1>   0.0800 
@<TRIPOS>BOND
  1   1   2  ar  
  2   2   3  ar  
  3   2   4  1   
  4   4   5  1   
  5   4   6  1   
  6   4  14  1   
  7   5   7  am  
  8   5  15  1   
  9   6  16  1   
 10   6  17  1   
 11   6  18  1   
 12   7   8  2   
 13   7   9  1   
 14   9  10  1   
 15   9  19  1   
 16   9  20  1   
 17  10  11  1   
 18  10  21  1   
 19  10  22  1   
 20  11  12  1   
 21  11  23  1   
 22  11  24  1   
 23  12  13  1   
 24  12  25  1   
 25  12  26  1   
 26  13  27  1   
 27  13  28  1   
 28  13  29  1   
@<TRIPOS>SUBSTRUCTURE
  1 ****   5 GROUP 4 **** **** 0

# MOE 2024.06 (io_trps.svl 2023.06)
