@<TRIPOS>MOLECULE
NONAME
50 51 1 0 0 
SMALL
USER_CHARGES


@<TRIPOS>ATOM
  1 O        2.6230    -7.9690    -0.2640 O.2   1 <1>  -0.5700 
  2 C        2.2970    -6.8150    -0.1730 C.2   1 <1>   0.6590 
  3 O        1.0550    -6.4380     0.0820 O.3   1 <1>  -0.4300 
  4 C        3.3060    -5.6930    -0.3500 C.3   1 <1>  -0.0190 
  5 C        0.0230    -7.3780     0.2760 C.3   1 <1>   0.1200 
  6 C        4.5520    -6.2370    -1.0750 C.3   1 <1>   0.3430 
  7 C        3.6670    -5.0270     0.9930 C.3   1 <1>  -0.1600 
  8 C       -1.2670    -6.6130     0.5520 C.3   1 <1>  -0.2400 
  9 N        5.8200    -5.5570    -0.6480 N.4   1 <1>  -0.9590 
 10 C        4.6980    -3.8970     0.7950 C.3   1 <1>  -0.1600 
 11 C        5.6430    -4.0990    -0.3980 C.3   1 <1>   0.3430 
 12 C        6.9460    -5.8500    -1.5740 C.3   1 <1>   0.4860 
 13 C        8.2340    -5.4290    -0.8940 C.ar  1 <1>  -0.1430 
 14 C        8.8180    -6.1930     0.1130 C.ar  1 <1>  -0.1430 
 15 C        8.8290    -4.2390    -1.2880 C.ar  1 <1>  -0.1500 
 16 C        9.9750    -5.7360     0.7230 C.ar  1 <1>  -0.1500 
 17 C        8.2380    -7.5270     0.5720 C.3   1 <1>  -0.0970 
 18 C        9.9850    -3.7850    -0.6790 C.ar  1 <1>  -0.1430 
 19 C       10.5630    -4.5340     0.3390 C.ar  1 <1>   0.0820 
 20 C       10.6190    -2.4750    -1.1270 C.3   1 <1>  -0.0970 
 21 O       11.6930    -4.0470     0.9140 O.3   1 <1>  -0.3620 
 22 C       12.3980    -4.7610     1.9050 C.3   1 <1>   0.0400 
 23 H        2.8460    -4.9580    -0.9850 H     1 <1>   0.0800 
 24 H        0.2840    -8.0080     1.1100 H     1 <1>   0.0800 
 25 H       -0.0680    -7.9780    -0.6140 H     1 <1>   0.0800 
 26 H        4.4070    -6.1190    -2.1370 H     1 <1>   0.0800 
 27 H        4.6510    -7.2930    -0.8780 H     1 <1>   0.0800 
 28 H        4.0750    -5.7730     1.6550 H     1 <1>   0.0800 
 29 H        2.7810    -4.6310     1.4630 H     1 <1>   0.0800 
 30 H       -1.1620    -6.0130     1.4380 H     1 <1>   0.0800 
 31 H       -2.0740    -7.3070     0.7050 H     1 <1>   0.0800 
 32 H       -1.5140    -5.9830    -0.2840 H     1 <1>   0.0800 
 33 H        6.1090    -5.9520     0.2560 H     1 <1>   0.4500 
 34 H        5.2810    -3.7890     1.6930 H     1 <1>   0.0800 
 35 H        4.1820    -2.9630     0.6500 H     1 <1>   0.0800 
 36 H        5.2240    -3.6330    -1.2750 H     1 <1>   0.0800 
 37 H        6.5910    -3.6300    -0.1840 H     1 <1>   0.0800 
 38 H        6.8210    -5.3130    -2.5000 H     1 <1>   0.0800 
 39 H        6.9870    -6.9040    -1.7920 H     1 <1>   0.0800 
 40 H        8.3960    -3.6510    -2.0790 H     1 <1>   0.1500 
 41 H       10.4190    -6.3250     1.5030 H     1 <1>   0.1500 
 42 H        7.3800    -7.3720     1.1990 H     1 <1>   0.0800 
 43 H        8.9670    -8.0780     1.1420 H     1 <1>   0.0800 
 44 H        7.9640    -8.1380    -0.2690 H     1 <1>   0.0800 
 45 H       10.0640    -2.0180    -1.9260 H     1 <1>   0.0800 
 46 H       11.6230    -2.6570    -1.4690 H     1 <1>   0.0800 
 47 H       10.6610    -1.7890    -0.3000 H     1 <1>   0.0800 
 48 H       13.2630    -4.1840     2.1790 H     1 <1>   0.0800 
 49 H       12.7050    -5.7090     1.5000 H     1 <1>   0.0800 
 50 H       11.7610    -4.8920     2.7610 H     1 <1>   0.0800 
@<TRIPOS>BOND
  1   1   2  2   
  2   2   3  1   
  3   2   4  1   
  4   3   5  1   
  5   4   6  1   
  6   4   7  1   
  7   4  23  1   
  8   5   8  1   
  9   5  24  1   
 10   5  25  1   
 11   6   9  1   
 12   6  26  1   
 13   6  27  1   
 14   7  10  1   
 15   7  28  1   
 16   7  29  1   
 17   8  30  1   
 18   8  31  1   
 19   8  32  1   
 20   9  11  1   
 21   9  12  1   
 22   9  33  1   
 23  10  11  1   
 24  10  34  1   
 25  10  35  1   
 26  11  36  1   
 27  11  37  1   
 28  12  13  1   
 29  12  38  1   
 30  12  39  1   
 31  13  14  ar  
 32  13  15  ar  
 33  14  16  ar  
 34  14  17  1   
 35  15  18  ar  
 36  15  40  1   
 37  16  19  ar  
 38  16  41  1   
 39  17  42  1   
 40  17  43  1   
 41  17  44  1   
 42  18  19  ar  
 43  18  20  1   
 44  19  21  1   
 45  20  45  1   
 46  20  46  1   
 47  20  47  1   
 48  21  22  1   
 49  22  48  1   
 50  22  49  1   
 51  22  50  1   
@<TRIPOS>SUBSTRUCTURE
  1 ****   9 GROUP 4 **** **** 0

# MOE 2024.06 (io_trps.svl 2023.06)
