@<TRIPOS>MOLECULE
NONAME
53 55 1 0 0 
SMALL
USER_CHARGES


@<TRIPOS>ATOM
  1 S       -0.1510     0.0260     0.3060 S.o2  1 <1>   1.4470 
  2 O       -0.1430    -0.4030     1.6860 O.2   1 <1>  -0.6500 
  3 O       -0.2350    -0.9510    -0.7550 O.2   1 <1>  -0.6500 
  4 N       -1.5570     0.9710     0.1580 N.am  1 <1>  -0.8490 
  5 C        1.1990     1.1920    -0.0240 C.ar  1 <1>  -0.0090 
  6 C       -2.7450     0.0940     0.0280 C.3   1 <1>   0.1960 
  7 C       -1.7370     1.9040     1.2920 C.3   1 <1>   0.1960 
  8 C        2.0490     1.6230     0.9900 C.ar  1 <1>  -0.1500 
  9 C        1.4130     1.6970    -1.3020 C.ar  1 <1>  -0.1500 
 10 C       -4.0880     0.8670     0.0440 C.3   1 <1>   0.3430 
 11 C       -2.9910     2.8020     1.1260 C.3   1 <1>   0.3430 
 12 C        3.0730     2.5180     0.7370 C.ar  1 <1>  -0.1500 
 13 C        2.4370     2.5910    -1.5600 C.ar  1 <1>  -0.1500 
 14 N       -3.8780     2.3550    -0.0110 N.4   1 <1>  -0.9590 
 15 C        3.2860     3.0080    -0.5450 C.ar  1 <1>   0.1170 
 16 C       -5.1720     3.0990    -0.1100 C.3   1 <1>   0.3430 
 17 N        4.3170     3.9090    -0.8260 N.am  1 <1>  -0.5470 
 18 C       -4.9660     4.5740    -0.4610 C.3   1 <1>  -0.0170 
 19 C        5.6460     3.8570    -0.5470 C.2   1 <1>   0.5690 
 20 C       -6.3270     5.2170    -0.6400 C.ar  1 <1>  -0.1430 
 21 O        6.3600     4.7700    -0.8660 O.2   1 <1>  -0.5700 
 22 C        6.2550     2.6580     0.1410 C.3   1 <1>  -0.1790 
 23 C       -6.9330     5.2340    -1.8870 C.ar  1 <1>  -0.1500 
 24 C       -6.9830     5.7840     0.4440 C.ar  1 <1>  -0.1500 
 25 C       -8.1830     5.8050    -2.0480 C.ar  1 <1>  -0.1500 
 26 C       -8.2330     6.3550     0.2820 C.ar  1 <1>  -0.1500 
 27 C       -8.8350     6.3640    -0.9640 C.ar  1 <1>  -0.1500 
 28 H       -2.7540    -0.6350     0.8230 H     1 <1>   0.0800 
 29 H       -2.6800    -0.4530    -0.8980 H     1 <1>   0.0800 
 30 H       -0.8690     2.5360     1.3880 H     1 <1>   0.0800 
 31 H       -1.8310     1.3500     2.2130 H     1 <1>   0.0800 
 32 H        1.9130     1.2490     1.9920 H     1 <1>   0.1500 
 33 H        0.7750     1.3770    -2.1090 H     1 <1>   0.1500 
 34 H       -4.6250     0.6090     0.9420 H     1 <1>   0.0800 
 35 H       -4.6840     0.5450    -0.7940 H     1 <1>   0.0800 
 36 H       -2.6670     3.8150     0.9530 H     1 <1>   0.0800 
 37 H       -3.5450     2.7940     2.0510 H     1 <1>   0.0800 
 38 H        3.7090     2.8420     1.5410 H     1 <1>   0.1500 
 39 H        2.5880     2.9610    -2.5600 H     1 <1>   0.1500 
 40 H       -3.3230     2.5080    -0.8680 H     1 <1>   0.4500 
 41 H       -5.7120     3.0280     0.8200 H     1 <1>   0.0800 
 42 H       -5.7840     2.6550    -0.8790 H     1 <1>   0.0800 
 43 H        4.0760     4.7230    -1.3920 H     1 <1>   0.3700 
 44 H       -4.4070     4.6660    -1.3750 H     1 <1>   0.0800 
 45 H       -4.4370     5.0850     0.3230 H     1 <1>   0.0800 
 46 H        6.1220     2.7430     1.2020 H     1 <1>   0.0800 
 47 H        7.3070     2.6190    -0.0740 H     1 <1>   0.0800 
 48 H        5.7990     1.7510    -0.2110 H     1 <1>   0.0800 
 49 H       -6.4440     4.8110    -2.7470 H     1 <1>   0.1500 
 50 H       -6.5330     5.7940     1.4210 H     1 <1>   0.1500 
 51 H       -8.6510     5.8180    -3.0180 H     1 <1>   0.1500 
 52 H       -8.7400     6.7950     1.1230 H     1 <1>   0.1500 
 53 H       -9.8070     6.8090    -1.0890 H     1 <1>   0.1500 
@<TRIPOS>BOND
  1   1   2  2   
  2   1   3  2   
  3   1   4  am  
  4   1   5  1   
  5   4   6  1   
  6   4   7  1   
  7   5   8  ar  
  8   5   9  ar  
  9   6  10  1   
 10   6  28  1   
 11   6  29  1   
 12   7  11  1   
 13   7  30  1   
 14   7  31  1   
 15   8  12  ar  
 16   8  32  1   
 17   9  13  ar  
 18   9  33  1   
 19  10  14  1   
 20  10  34  1   
 21  10  35  1   
 22  11  14  1   
 23  11  36  1   
 24  11  37  1   
 25  12  15  ar  
 26  12  38  1   
 27  13  15  ar  
 28  13  39  1   
 29  14  16  1   
 30  14  40  1   
 31  15  17  1   
 32  16  18  1   
 33  16  41  1   
 34  16  42  1   
 35  17  19  am  
 36  17  43  1   
 37  18  20  1   
 38  18  44  1   
 39  18  45  1   
 40  19  21  2   
 41  19  22  1   
 42  20  23  ar  
 43  20  24  ar  
 44  22  46  1   
 45  22  47  1   
 46  22  48  1   
 47  23  25  ar  
 48  23  49  1   
 49  24  26  ar  
 50  24  50  1   
 51  25  27  ar  
 52  25  51  1   
 53  26  27  ar  
 54  26  52  1   
 55  27  53  1   
@<TRIPOS>SUBSTRUCTURE
  1 ****   7 GROUP 4 **** **** 0

# MOE 2024.06 (io_trps.svl 2023.06)
