@<TRIPOS>MOLECULE
NONAME
46 47 1 0 0 
SMALL
USER_CHARGES


@<TRIPOS>ATOM
  1 O       -0.9720     1.0760    -0.2740 O.2   1 <1>  -0.5700 
  2 C       -0.4880     2.0300    -0.8510 C.2   1 <1>   0.6900 
  3 N        0.8470     2.2890    -0.8500 N.am  1 <1>  -0.5470 
  4 N       -1.3060     2.8900    -1.5110 N.am  1 <1>  -0.7300 
  5 C        1.9210     1.5440    -0.3420 C.ar  1 <1>   0.1170 
  6 C       -2.7730     2.7000    -1.6800 C.3   1 <1>   0.1400 
  7 C        1.8870     0.1590    -0.2140 C.ar  1 <1>  -0.1500 
  8 C        3.0830     2.2090     0.0310 C.ar  1 <1>  -0.1500 
  9 C       -3.4990     2.6080    -0.3180 C.3   1 <1>   0.3430 
 10 C        2.9760    -0.5360     0.2790 C.ar  1 <1>  -0.1500 
 11 C        4.1740     1.5160     0.5230 C.ar  1 <1>  -0.1500 
 12 N       -4.4420     1.4430    -0.2170 N.4   1 <1>  -0.9590 
 13 C        4.1280     0.1380     0.6530 C.ar  1 <1>  -0.1430 
 14 C       -5.2980     1.5790     0.9960 C.3   1 <1>   0.3430 
 15 C       -3.6870     0.1490    -0.1860 C.3   1 <1>   0.3430 
 16 C        5.3250    -0.6260     1.1960 C.3   1 <1>  -0.0170 
 17 C       -6.3240     0.4450     1.0340 C.3   1 <1>  -0.1600 
 18 C       -4.6680    -1.0240    -0.1730 C.3   1 <1>  -0.1600 
 19 C        6.2670    -1.0280     0.0600 C.3   1 <1>  -0.2400 
 20 C       -5.6470    -0.9320     1.0040 C.3   1 <1>  -0.1600 
 21 H        1.1000     3.2150    -1.1790 H     1 <1>   0.3700 
 22 H       -0.8670     3.5400    -2.1660 H     1 <1>   0.3700 
 23 H       -2.9360     1.8090    -2.2600 H     1 <1>   0.0800 
 24 H       -3.1690     3.5360    -2.2310 H     1 <1>   0.0800 
 25 H        1.0080    -0.3860    -0.5040 H     1 <1>   0.1500 
 26 H        3.1400     3.2780    -0.0590 H     1 <1>   0.1500 
 27 H       -4.0430     3.5240    -0.1620 H     1 <1>   0.0800 
 28 H       -2.7590     2.5270     0.4620 H     1 <1>   0.0800 
 29 H        2.9260    -1.6070     0.3690 H     1 <1>   0.1500 
 30 H        5.0630     2.0520     0.8060 H     1 <1>   0.1500 
 31 H       -5.0620     1.4230    -1.0350 H     1 <1>   0.4500 
 32 H       -5.8110     2.5270     0.9840 H     1 <1>   0.0800 
 33 H       -4.6830     1.5360     1.8810 H     1 <1>   0.0800 
 34 H       -3.0640     0.1120     0.6940 H     1 <1>   0.0800 
 35 H       -3.0420     0.0690    -1.0460 H     1 <1>   0.0800 
 36 H        4.9880    -1.5070     1.7150 H     1 <1>   0.0800 
 37 H        5.8540    -0.0140     1.9050 H     1 <1>   0.0800 
 38 H       -6.9980     0.5420     0.2010 H     1 <1>   0.0800 
 39 H       -6.9100     0.5310     1.9330 H     1 <1>   0.0800 
 40 H       -4.1110    -1.9420    -0.1020 H     1 <1>   0.0800 
 41 H       -5.2090    -1.0480    -1.1030 H     1 <1>   0.0800 
 42 H        5.7490    -1.6550    -0.6450 H     1 <1>   0.0800 
 43 H        7.1100    -1.5690     0.4500 H     1 <1>   0.0800 
 44 H        6.6220    -0.1530    -0.4550 H     1 <1>   0.0800 
 45 H       -6.3920    -1.7070     0.9240 H     1 <1>   0.0800 
 46 H       -5.1110    -1.0870     1.9260 H     1 <1>   0.0800 
@<TRIPOS>BOND
  1   1   2  2   
  2   2   3  am  
  3   2   4  am  
  4   3   5  1   
  5   3  21  1   
  6   4   6  1   
  7   4  22  1   
  8   5   7  ar  
  9   5   8  ar  
 10   6   9  1   
 11   6  23  1   
 12   6  24  1   
 13   7  10  ar  
 14   7  25  1   
 15   8  11  ar  
 16   8  26  1   
 17   9  12  1   
 18   9  27  1   
 19   9  28  1   
 20  10  13  ar  
 21  10  29  1   
 22  11  13  ar  
 23  11  30  1   
 24  12  14  1   
 25  12  15  1   
 26  12  31  1   
 27  13  16  1   
 28  14  17  1   
 29  14  32  1   
 30  14  33  1   
 31  15  18  1   
 32  15  34  1   
 33  15  35  1   
 34  16  19  1   
 35  16  36  1   
 36  16  37  1   
 37  17  20  1   
 38  17  38  1   
 39  17  39  1   
 40  18  20  1   
 41  18  40  1   
 42  18  41  1   
 43  19  42  1   
 44  19  43  1   
 45  19  44  1   
 46  20  45  1   
 47  20  46  1   
@<TRIPOS>SUBSTRUCTURE
  1 ****   1 GROUP 4 **** **** 0

# MOE 2024.06 (io_trps.svl 2023.06)
