@<TRIPOS>MOLECULE
NONAME
51 53 1 0 0 
SMALL
USER_CHARGES


@<TRIPOS>ATOM
  1 S        0.0510     0.1390     1.9790 S.o2  1 <1>   1.4470 
  2 O        0.7930    -0.8100     2.7800 O.2   1 <1>  -0.6500 
  3 O       -0.1860     1.4690     2.5010 O.2   1 <1>  -0.6500 
  4 N        0.8930     0.3330     0.5200 N.am  1 <1>  -0.8490 
  5 C       -1.5180    -0.6130     1.4620 C.ar  1 <1>  -0.0090 
  6 C        0.2960     1.3730    -0.3240 C.3   1 <1>   0.1960 
  7 C        2.3130     0.6060     0.7600 C.3   1 <1>   0.1960 
  8 C       -1.5400    -1.7280     0.6320 C.ar  1 <1>  -0.1500 
  9 C       -2.7400    -0.1010     1.8830 C.ar  1 <1>  -0.1500 
 10 C        0.9860     1.4060    -1.6920 C.3   1 <1>  -0.1600 
 11 C        3.0840     0.6250    -0.5650 C.3   1 <1>  -0.1600 
 12 C       -2.7330    -2.3020     0.2310 C.ar  1 <1>  -0.1500 
 13 C       -3.9360    -0.6730     1.4860 C.ar  1 <1>  -0.1500 
 14 C        2.4930     1.6440    -1.5460 C.3   1 <1>  -0.1600 
 15 C       -3.9490    -1.7810     0.6480 C.ar  1 <1>   0.1000 
 16 N       -5.1330    -2.3920     0.2170 N.pl3 1 <1>  -0.6000 
 17 C       -6.4210    -1.9420     0.2320 C.2   1 <1>  -0.0500 
 18 C       -7.5350    -2.6300    -0.2100 C.2   1 <1>   0.0140 
 19 C       -7.4370    -3.9720    -0.7610 C.2   1 <1>   0.6160 
 20 C       -8.8570    -2.0550    -0.1460 C.2   1 <1>  -0.1380 
 21 O       -6.3560    -4.5180    -0.9330 O.2   1 <1>  -0.5700 
 22 N       -8.5740    -4.6790    -1.1190 N.am  1 <1>  -0.4200 
 23 C       -9.9550    -2.7630    -0.5570 C.2   1 <1>   0.0790 
 24 C       -8.9930    -0.6220     0.3950 C.3   1 <1>  -0.1020 
 25 C       -9.8240    -4.0970    -1.0600 C.2   1 <1>   0.6160 
 26 C       -8.4350    -6.0820    -1.6290 C.3   1 <1>   0.0600 
 27 C      -11.2940    -2.2550    -0.5210 C.1   1 <1>   0.4920 
 28 O      -10.7890    -4.7350    -1.4450 O.2   1 <1>  -0.5700 
 29 N      -12.3310    -1.7840    -0.4620 N.1   1 <1>  -0.5570 
 30 H       -0.7520     1.1700    -0.4690 H     1 <1>   0.0800 
 31 H        0.3890     2.3350     0.1540 H     1 <1>   0.0800 
 32 H        2.4230     1.5500     1.2690 H     1 <1>   0.0800 
 33 H        2.7320    -0.1640     1.3890 H     1 <1>   0.0800 
 34 H       -0.6060    -2.1480     0.2960 H     1 <1>   0.1500 
 35 H       -2.7550     0.7570     2.5340 H     1 <1>   0.1500 
 36 H        0.8090     0.4690    -2.1910 H     1 <1>   0.0800 
 37 H        0.5530     2.1860    -2.2920 H     1 <1>   0.0800 
 38 H        4.1150     0.8620    -0.3730 H     1 <1>   0.0800 
 39 H        3.0480    -0.3600    -0.9970 H     1 <1>   0.0800 
 40 H       -2.7180    -3.1630    -0.4140 H     1 <1>   0.1500 
 41 H       -4.8590    -0.2550     1.8390 H     1 <1>   0.1500 
 42 H        2.6650     2.6390    -1.1740 H     1 <1>   0.0800 
 43 H        2.9750     1.5550    -2.5050 H     1 <1>   0.0800 
 44 H       -5.0060    -3.3320    -0.2020 H     1 <1>   0.4000 
 45 H       -6.5300    -0.9510     0.6290 H     1 <1>   0.1500 
 46 H       -8.4080     0.0550    -0.2030 H     1 <1>   0.0800 
 47 H       -8.6450    -0.5770     1.4120 H     1 <1>   0.0800 
 48 H      -10.0020    -0.2520     0.3910 H     1 <1>   0.0800 
 49 H       -7.6310    -6.5880    -1.1230 H     1 <1>   0.0800 
 50 H       -8.2260    -6.0600    -2.6840 H     1 <1>   0.0800 
 51 H       -9.3370    -6.6450    -1.4620 H     1 <1>   0.0800 
@<TRIPOS>BOND
  1   1   2  2   
  2   1   3  2   
  3   1   4  am  
  4   1   5  1   
  5   4   6  1   
  6   4   7  1   
  7   5   8  ar  
  8   5   9  ar  
  9   6  10  1   
 10   6  30  1   
 11   6  31  1   
 12   7  11  1   
 13   7  32  1   
 14   7  33  1   
 15   8  12  ar  
 16   8  34  1   
 17   9  13  ar  
 18   9  35  1   
 19  10  14  1   
 20  10  36  1   
 21  10  37  1   
 22  11  14  1   
 23  11  38  1   
 24  11  39  1   
 25  12  15  ar  
 26  12  40  1   
 27  13  15  ar  
 28  13  41  1   
 29  14  42  1   
 30  14  43  1   
 31  15  16  1   
 32  16  17  1   
 33  16  44  1   
 34  17  18  2   
 35  17  45  1   
 36  18  19  1   
 37  18  20  1   
 38  19  21  2   
 39  19  22  am  
 40  20  23  2   
 41  20  24  1   
 42  22  25  am  
 43  22  26  1   
 44  23  25  1   
 45  23  27  1   
 46  24  46  1   
 47  24  47  1   
 48  24  48  1   
 49  25  28  2   
 50  26  49  1   
 51  26  50  1   
 52  26  51  1   
 53  27  29  3   
@<TRIPOS>SUBSTRUCTURE
  1 ****  15 GROUP 4 **** **** 0

# MOE 2024.06 (io_trps.svl 2023.06)
