@<TRIPOS>MOLECULE
NONAME
44 45 1 0 0 
SMALL
USER_CHARGES


@<TRIPOS>ATOM
  1 O        0.9120    -2.0790     1.4270 O.2   1 <1>  -0.5700 
  2 C        0.5670    -1.9630     0.2760 C.2   1 <1>   0.5690 
  3 N        1.3400    -1.3440    -0.6580 N.am  1 <1>  -0.7300 
  4 C       -0.7850    -2.5250    -0.1650 C.3   1 <1>  -0.0190 
  5 C        2.6610    -0.7020    -0.4440 C.3   1 <1>   0.2200 
  6 C       -1.9470    -1.8210     0.5620 C.3   1 <1>  -0.1600 
  7 C       -0.8570    -4.0500     0.0490 C.3   1 <1>  -0.1600 
  8 C        3.6780    -1.7520     0.0460 C.3   1 <1>  -0.0160 
  9 C        2.4820     0.5100     0.4920 C.3   1 <1>  -0.1600 
 10 C       -3.3080    -2.3880     0.1320 C.3   1 <1>  -0.1600 
 11 C       -2.2170    -4.6170    -0.3820 C.3   1 <1>  -0.1600 
 12 C        5.1250    -1.2870    -0.0570 C.ar  1 <1>  -0.1440 
 13 C        3.5250     1.6170     0.2770 C.3   1 <1>  -0.2400 
 14 C       -3.3670    -3.9060     0.3430 C.3   1 <1>  -0.1600 
 15 C        5.8650    -1.0420     1.0900 C.ar  1 <1>  -0.1500 
 16 C        5.7190    -1.1110    -1.2980 C.ar  1 <1>  -0.1500 
 17 C        7.1790    -0.6180     0.9980 C.ar  1 <1>  -0.1500 
 18 C        7.0330    -0.6860    -1.3910 C.ar  1 <1>  -0.1500 
 19 C        7.7640    -0.4380    -0.2430 C.ar  1 <1>  -0.1500 
 20 H        0.9780    -1.2540    -1.6060 H     1 <1>   0.3700 
 21 H       -0.8960    -2.3370    -1.2170 H     1 <1>   0.0800 
 22 H        2.9900    -0.3400    -1.4020 H     1 <1>   0.0800 
 23 H       -1.9140    -0.7660     0.3570 H     1 <1>   0.0800 
 24 H       -1.8290    -1.9520     1.6250 H     1 <1>   0.0800 
 25 H       -0.6960    -4.2690     1.0910 H     1 <1>   0.0800 
 26 H       -0.0720    -4.5300    -0.5100 H     1 <1>   0.0800 
 27 H        3.5760    -2.6410    -0.5510 H     1 <1>   0.0800 
 28 H        3.4580    -2.0200     1.0630 H     1 <1>   0.0800 
 29 H        2.5100     0.1820     1.5160 H     1 <1>   0.0800 
 30 H        1.5130     0.9450     0.3170 H     1 <1>   0.0800 
 31 H       -3.4770    -2.1650    -0.9080 H     1 <1>   0.0800 
 32 H       -4.0900    -1.9150     0.7010 H     1 <1>   0.0800 
 33 H       -2.2520    -5.6710    -0.1650 H     1 <1>   0.0800 
 34 H       -2.3360    -4.4950    -1.4450 H     1 <1>   0.0800 
 35 H        3.3020     2.4550     0.9120 H     1 <1>   0.0800 
 36 H        4.5140     1.2730     0.5170 H     1 <1>   0.0800 
 37 H        3.5160     1.9520    -0.7450 H     1 <1>   0.0800 
 38 H       -4.3090    -4.2840    -0.0160 H     1 <1>   0.0800 
 39 H       -3.3070    -4.1200     1.3970 H     1 <1>   0.0800 
 40 H        5.4190    -1.1780     2.0600 H     1 <1>   0.1500 
 41 H        5.1620    -1.3050    -2.1970 H     1 <1>   0.1500 
 42 H        7.7460    -0.4280     1.8930 H     1 <1>   0.1500 
 43 H        7.4870    -0.5490    -2.3570 H     1 <1>   0.1500 
 44 H        8.7850    -0.1080    -0.3150 H     1 <1>   0.1500 
@<TRIPOS>BOND
  1   1   2  2   
  2   2   3  am  
  3   2   4  1   
  4   3   5  1   
  5   3  20  1   
  6   4   6  1   
  7   4   7  1   
  8   4  21  1   
  9   5   8  1   
 10   5   9  1   
 11   5  22  1   
 12   6  10  1   
 13   6  23  1   
 14   6  24  1   
 15   7  11  1   
 16   7  25  1   
 17   7  26  1   
 18   8  12  1   
 19   8  27  1   
 20   8  28  1   
 21   9  13  1   
 22   9  29  1   
 23   9  30  1   
 24  10  14  1   
 25  10  31  1   
 26  10  32  1   
 27  11  14  1   
 28  11  33  1   
 29  11  34  1   
 30  12  15  ar  
 31  12  16  ar  
 32  13  35  1   
 33  13  36  1   
 34  13  37  1   
 35  14  38  1   
 36  14  39  1   
 37  15  17  ar  
 38  15  40  1   
 39  16  18  ar  
 40  16  41  1   
 41  17  19  ar  
 42  17  42  1   
 43  18  19  ar  
 44  18  43  1   
 45  19  44  1   
@<TRIPOS>SUBSTRUCTURE
  1 ****   3 GROUP 4 **** **** 0

# MOE 2024.06 (io_trps.svl 2023.06)
