@<TRIPOS>MOLECULE
NONAME
54 56 1 0 0 
SMALL
USER_CHARGES


@<TRIPOS>ATOM
  1 O       -1.4980    -0.4260     1.2970 O.3   1 <1>  -0.3630 
  2 C       -2.2010     0.3270     0.4150 C.ar  1 <1>   0.0830 
  3 C       -0.4240    -1.1820     0.7770 C.3   1 <1>   0.0400 
  4 C       -1.6350     1.3580    -0.3430 C.ar  1 <1>   0.0830 
  5 C       -3.5470     0.0370     0.2770 C.ar  1 <1>  -0.1500 
  6 O       -0.3400     1.7370    -0.2240 O.3   1 <1>  -0.3630 
  7 C       -2.4170     2.0410    -1.2580 C.ar  1 <1>  -0.1500 
  8 C       -4.3360     0.7390    -0.6230 C.ar  1 <1>  -0.1430 
  9 C        0.0250     2.3450     0.9960 C.3   1 <1>   0.0400 
 10 C       -3.7600     1.7350    -1.3990 C.ar  1 <1>  -0.1500 
 11 C       -5.8150     0.4140    -0.7440 C.3   1 <1>  -0.0170 
 12 C       -6.5840     0.9860     0.4640 C.3   1 <1>   0.4230 
 13 N       -7.9710     0.4490     0.5860 N.4   1 <1>  -0.9590 
 14 C       -6.6640     2.5120     0.4270 C.3   1 <1>  -0.2400 
 15 C       -7.9740    -0.9820     1.0770 C.3   1 <1>   0.3430 
 16 C       -8.8100     0.5860    -0.6700 C.3   1 <1>   0.3430 
 17 C       -9.3990    -1.5440     1.2670 C.3   1 <1>   0.2090 
 18 C      -10.2410     0.0380    -0.4920 C.3   1 <1>   0.2090 
 19 N      -10.2060    -1.3580     0.0290 N.pl3 1 <1>  -0.8380 
 20 C      -11.3980    -2.0690    -0.0390 C.ar  1 <1>   0.1000 
 21 C      -11.5130    -3.1330    -0.9230 C.ar  1 <1>  -0.1500 
 22 C      -12.4880    -1.7420     0.7620 C.ar  1 <1>  -0.1500 
 23 C      -12.6880    -3.8560    -1.0100 C.ar  1 <1>  -0.1500 
 24 C      -13.6650    -2.4630     0.6780 C.ar  1 <1>  -0.1500 
 25 C      -13.7670    -3.5220    -0.2080 C.ar  1 <1>  -0.1500 
 26 H       -0.0880    -1.8580     1.5420 H     1 <1>   0.0800 
 27 H        0.3770    -0.5220     0.4990 H     1 <1>   0.0800 
 28 H       -0.7670    -1.7340    -0.0790 H     1 <1>   0.0800 
 29 H       -3.9550    -0.7530     0.8800 H     1 <1>   0.1500 
 30 H       -1.9670     2.8150    -1.8540 H     1 <1>   0.1500 
 31 H        1.0550     2.6450     0.9280 H     1 <1>   0.0800 
 32 H       -0.1000     1.6400     1.7980 H     1 <1>   0.0800 
 33 H       -0.6000     3.2060     1.1540 H     1 <1>   0.0800 
 34 H       -4.3440     2.2850    -2.1170 H     1 <1>   0.1500 
 35 H       -5.9140    -0.6550    -0.7840 H     1 <1>   0.0800 
 36 H       -6.1950     0.8210    -1.6640 H     1 <1>   0.0800 
 37 H       -6.0370     0.7130     1.3530 H     1 <1>   0.0800 
 38 H       -8.4370     1.0060     1.3120 H     1 <1>   0.4500 
 39 H       -7.1180     2.8650    -0.4810 H     1 <1>   0.0800 
 40 H       -5.6710     2.9240     0.4780 H     1 <1>   0.0800 
 41 H       -7.2100     2.8870     1.2740 H     1 <1>   0.0800 
 42 H       -7.4440    -1.0520     2.0120 H     1 <1>   0.0800 
 43 H       -7.4680    -1.6110     0.3640 H     1 <1>   0.0800 
 44 H       -8.3480     0.0400    -1.4740 H     1 <1>   0.0800 
 45 H       -8.8680     1.6210    -0.9640 H     1 <1>   0.0800 
 46 H       -9.8830    -1.0520     2.0930 H     1 <1>   0.0800 
 47 H       -9.3420    -2.5950     1.4960 H     1 <1>   0.0800 
 48 H      -10.7490     0.0470    -1.4420 H     1 <1>   0.0800 
 49 H      -10.7950     0.6650     0.1840 H     1 <1>   0.0800 
 50 H      -10.6750    -3.3890    -1.5440 H     1 <1>   0.1500 
 51 H      -12.4170    -0.9230     1.4510 H     1 <1>   0.1500 
 52 H      -12.7660    -4.6790    -1.6990 H     1 <1>   0.1500 
 53 H      -14.5040    -2.2050     1.3010 H     1 <1>   0.1500 
 54 H      -14.6820    -4.0850    -0.2740 H     1 <1>   0.1500 
@<TRIPOS>BOND
  1   1   2  1   
  2   1   3  1   
  3   2   4  ar  
  4   2   5  ar  
  5   3  26  1   
  6   3  27  1   
  7   3  28  1   
  8   4   6  1   
  9   4   7  ar  
 10   5   8  ar  
 11   5  29  1   
 12   6   9  1   
 13   7  10  ar  
 14   7  30  1   
 15   8  10  ar  
 16   8  11  1   
 17   9  31  1   
 18   9  32  1   
 19   9  33  1   
 20  10  34  1   
 21  11  12  1   
 22  11  35  1   
 23  11  36  1   
 24  12  13  1   
 25  12  14  1   
 26  12  37  1   
 27  13  15  1   
 28  13  16  1   
 29  13  38  1   
 30  14  39  1   
 31  14  40  1   
 32  14  41  1   
 33  15  17  1   
 34  15  42  1   
 35  15  43  1   
 36  16  18  1   
 37  16  44  1   
 38  16  45  1   
 39  17  19  1   
 40  17  46  1   
 41  17  47  1   
 42  18  19  1   
 43  18  48  1   
 44  18  49  1   
 45  19  20  1   
 46  20  21  ar  
 47  20  22  ar  
 48  21  23  ar  
 49  21  50  1   
 50  22  24  ar  
 51  22  51  1   
 52  23  25  ar  
 53  23  52  1   
 54  24  25  ar  
 55  24  53  1   
 56  25  54  1   
@<TRIPOS>SUBSTRUCTURE
  1 ****  12 GROUP 4 **** **** 0

# MOE 2024.06 (io_trps.svl 2023.06)
