@<TRIPOS>MOLECULE
NONAME
46 48 1 0 0 
SMALL
USER_CHARGES


@<TRIPOS>ATOM
  1 O       -5.1510     6.6240     1.2530 O.3   1 <1>  -0.3630 
  2 C       -4.4680     5.8460     0.3720 C.ar  1 <1>   0.0830 
  3 C       -6.0410     7.5920     0.7280 C.3   1 <1>   0.2640 
  4 C       -3.5110     6.3780    -0.4990 C.ar  1 <1>   0.0830 
  5 C       -4.7360     4.4840     0.3740 C.ar  1 <1>  -0.1440 
  6 C       -7.2910     6.8720     0.2400 C.ar  1 <1>  -0.1440 
  7 O       -3.2460     7.7130    -0.4400 O.3   1 <1>  -0.3630 
  8 C       -2.8570     5.5270    -1.3840 C.ar  1 <1>  -0.1500 
  9 C       -4.0670     3.6470    -0.5070 C.ar  1 <1>  -0.1500 
 10 C       -5.7560     3.9280     1.3400 C.3   1 <1>   0.4870 
 11 C       -8.3570     6.6560     1.0990 C.ar  1 <1>  -0.1500 
 12 C       -7.3710     6.4240    -1.0690 C.ar  1 <1>  -0.1500 
 13 C       -2.1370     8.2770    -1.1070 C.3   1 <1>   0.0400 
 14 C       -3.1360     4.1710    -1.3860 C.ar  1 <1>  -0.1500 
 15 N       -7.0280     3.7730     0.6110 N.4   1 <1>  -0.7990 
 16 C       -9.4890     5.9960     0.6530 C.ar  1 <1>  -0.1500 
 17 C       -8.5020     5.7630    -1.5130 C.ar  1 <1>  -0.1500 
 18 C       -8.0290     3.0120     1.3550 C.3   1 <1>   0.2960 
 19 C       -9.5660     5.5440    -0.6540 C.ar  1 <1>  -0.1430 
 20 C       -7.9580     1.5240     1.3090 C.3   1 <1>  -0.2000 
 21 C       -9.0430     2.2540     0.5720 C.3   1 <1>  -0.2000 
 22 C      -10.8190     4.8480    -1.1550 C.3   1 <1>  -0.0970 
 23 H       -5.5690     8.1370    -0.0680 H     1 <1>   0.0800 
 24 H       -6.2800     8.2790     1.5200 H     1 <1>   0.0800 
 25 H       -2.1250     5.8960    -2.0780 H     1 <1>   0.1500 
 26 H       -4.2510     2.5860    -0.5190 H     1 <1>   0.1500 
 27 H       -5.8830     4.5960     2.1760 H     1 <1>   0.0800 
 28 H       -5.4190     2.9730     1.7070 H     1 <1>   0.0800 
 29 H       -8.3150     7.0120     2.1160 H     1 <1>   0.1500 
 30 H       -6.5530     6.5990    -1.7510 H     1 <1>   0.1500 
 31 H       -2.0760     9.3160    -0.8350 H     1 <1>   0.0800 
 32 H       -2.2820     8.1880    -2.1690 H     1 <1>   0.0800 
 33 H       -1.2430     7.7670    -0.7940 H     1 <1>   0.0800 
 34 H       -2.6170     3.5220    -2.0730 H     1 <1>   0.1500 
 35 H       -6.8410     3.3380    -0.2940 H     1 <1>   0.4500 
 36 H       -7.3970     4.7180     0.3900 H     1 <1>   0.4500 
 37 H      -10.3200     5.8530     1.3240 H     1 <1>   0.1500 
 38 H       -8.5580     5.4350    -2.5390 H     1 <1>   0.1500 
 39 H       -8.3490     3.4910     2.2700 H     1 <1>   0.1000 
 40 H       -8.2410     0.9580     2.1800 H     1 <1>   0.1000 
 41 H       -7.1940     1.0320     0.7310 H     1 <1>   0.1000 
 42 H       -9.0150     2.2750    -0.5030 H     1 <1>   0.1000 
 43 H      -10.0460     2.1790     0.9550 H     1 <1>   0.1000 
 44 H      -11.4770     5.5710    -1.6060 H     1 <1>   0.0800 
 45 H      -11.3420     4.3700    -0.3460 H     1 <1>   0.0800 
 46 H      -10.5740     4.1040    -1.8910 H     1 <1>   0.0800 
@<TRIPOS>BOND
  1   1   2  1   
  2   1   3  1   
  3   2   4  ar  
  4   2   5  ar  
  5   3   6  1   
  6   3  23  1   
  7   3  24  1   
  8   4   7  1   
  9   4   8  ar  
 10   5   9  ar  
 11   5  10  1   
 12   6  11  ar  
 13   6  12  ar  
 14   7  13  1   
 15   8  14  ar  
 16   8  25  1   
 17   9  14  ar  
 18   9  26  1   
 19  10  15  1   
 20  10  27  1   
 21  10  28  1   
 22  11  16  ar  
 23  11  29  1   
 24  12  17  ar  
 25  12  30  1   
 26  13  31  1   
 27  13  32  1   
 28  13  33  1   
 29  14  34  1   
 30  15  18  1   
 31  15  35  1   
 32  15  36  1   
 33  16  19  ar  
 34  16  37  1   
 35  17  19  ar  
 36  17  38  1   
 37  18  20  1   
 38  18  21  1   
 39  18  39  1   
 40  19  22  1   
 41  20  21  1   
 42  20  40  1   
 43  20  41  1   
 44  21  42  1   
 45  21  43  1   
 46  22  44  1   
 47  22  45  1   
 48  22  46  1   
@<TRIPOS>SUBSTRUCTURE
  1 ****   5 GROUP 4 **** **** 0

# MOE 2024.06 (io_trps.svl 2023.06)
