@<TRIPOS>MOLECULE
NONAME
48 49 1 0 0 
SMALL
USER_CHARGES


@<TRIPOS>ATOM
  1 O        3.4450     6.5320    -0.2720 O.3   1 <1>  -0.5600 
  2 C        2.6780     6.0110     0.7790 C.3   1 <1>   0.2000 
  3 C        3.6270     7.9250    -0.3220 C.3   1 <1>   0.2000 
  4 C        1.2410     6.6000     0.7500 C.3   1 <1>   0.3430 
  5 C        3.4060     6.2370     2.1110 C.3   1 <1>  -0.2400 
  6 C        2.3240     8.6850     0.0440 C.3   1 <1>   0.3430 
  7 C        4.0830     8.2390    -1.7450 C.3   1 <1>  -0.2400 
  8 N        1.1230     7.8090    -0.1460 N.4   1 <1>  -0.9590 
  9 C       -0.1610     8.5620     0.0190 C.3   1 <1>   0.3430 
 10 C       -1.3820     7.7500    -0.4210 C.3   1 <1>   0.1200 
 11 O       -2.5160     8.5340    -0.1580 O.3   1 <1>  -0.3630 
 12 C       -3.7740     8.0290    -0.2760 C.ar  1 <1>   0.0830 
 13 C       -4.8280     8.7460     0.2920 C.ar  1 <1>  -0.1430 
 14 C       -4.0240     6.8260    -0.9330 C.ar  1 <1>  -0.1500 
 15 C       -6.1200     8.2330     0.2160 C.ar  1 <1>  -0.1430 
 16 C       -4.5760    10.0790     0.9990 C.3   1 <1>  -0.0970 
 17 C       -5.3090     6.3240    -1.0120 C.ar  1 <1>  -0.1430 
 18 C       -6.3470     7.0310    -0.4360 C.ar  1 <1>  -0.1500 
 19 C       -7.3130     8.9540     0.8320 C.3   1 <1>  -0.0970 
 20 C       -5.5940     5.0150    -1.7270 C.3   1 <1>  -0.0970 
 21 H        2.6140     4.9480     0.6140 H     1 <1>   0.0800 
 22 H        4.4130     8.1900     0.3650 H     1 <1>   0.0800 
 23 H        0.9570     6.8570     1.7560 H     1 <1>   0.0800 
 24 H        0.5640     5.8320     0.4140 H     1 <1>   0.0800 
 25 H        3.4400     7.2760     2.3830 H     1 <1>   0.0800 
 26 H        4.4090     5.8530     2.0460 H     1 <1>   0.0800 
 27 H        2.9000     5.7040     2.8970 H     1 <1>   0.0800 
 28 H        2.2490     9.5710    -0.5650 H     1 <1>   0.0800 
 29 H        2.3830     9.0010     1.0730 H     1 <1>   0.0800 
 30 H        3.3330     7.9550    -2.4620 H     1 <1>   0.0800 
 31 H        4.9920     7.7040    -1.9610 H     1 <1>   0.0800 
 32 H        4.2840     9.2900    -1.8520 H     1 <1>   0.0800 
 33 H        1.2070     7.4550    -1.1120 H     1 <1>   0.4500 
 34 H       -0.1280     9.4620    -0.5740 H     1 <1>   0.0800 
 35 H       -0.2850     8.8410     1.0520 H     1 <1>   0.0800 
 36 H       -1.4730     6.8410     0.1470 H     1 <1>   0.0800 
 37 H       -1.3510     7.5480    -1.4770 H     1 <1>   0.0800 
 38 H       -3.2360     6.2670    -1.3950 H     1 <1>   0.1500 
 39 H       -3.6260    10.5030     0.7350 H     1 <1>   0.0800 
 40 H       -4.6040     9.9340     2.0630 H     1 <1>   0.0800 
 41 H       -5.3270    10.7980     0.7260 H     1 <1>   0.0800 
 42 H       -7.3460     6.6380    -0.4990 H     1 <1>   0.1500 
 43 H       -7.5210     9.8530     0.2810 H     1 <1>   0.0800 
 44 H       -7.1070     9.2070     1.8560 H     1 <1>   0.0800 
 45 H       -8.1910     8.3340     0.8130 H     1 <1>   0.0800 
 46 H       -4.6910     4.4520    -1.8770 H     1 <1>   0.0800 
 47 H       -6.0420     5.2150    -2.6840 H     1 <1>   0.0800 
 48 H       -6.2730     4.4180    -1.1450 H     1 <1>   0.0800 
@<TRIPOS>BOND
  1   1   2  1   
  2   1   3  1   
  3   2   4  1   
  4   2   5  1   
  5   2  21  1   
  6   3   6  1   
  7   3   7  1   
  8   3  22  1   
  9   4   8  1   
 10   4  23  1   
 11   4  24  1   
 12   5  25  1   
 13   5  26  1   
 14   5  27  1   
 15   6   8  1   
 16   6  28  1   
 17   6  29  1   
 18   7  30  1   
 19   7  31  1   
 20   7  32  1   
 21   8   9  1   
 22   8  33  1   
 23   9  10  1   
 24   9  34  1   
 25   9  35  1   
 26  10  11  1   
 27  10  36  1   
 28  10  37  1   
 29  11  12  1   
 30  12  13  ar  
 31  12  14  ar  
 32  13  15  ar  
 33  13  16  1   
 34  14  17  ar  
 35  14  38  1   
 36  15  18  ar  
 37  15  19  1   
 38  16  39  1   
 39  16  40  1   
 40  16  41  1   
 41  17  18  ar  
 42  17  20  1   
 43  18  42  1   
 44  19  43  1   
 45  19  44  1   
 46  19  45  1   
 47  20  46  1   
 48  20  47  1   
 49  20  48  1   
@<TRIPOS>SUBSTRUCTURE
  1 ****  10 GROUP 4 **** **** 0

# MOE 2024.06 (io_trps.svl 2023.06)
