@<TRIPOS>MOLECULE
NONAME
44 46 1 0 0 
SMALL
USER_CHARGES


@<TRIPOS>ATOM
  1 CL       0.3140     0.3500    -2.2580 Cl    1 <1>  -0.1770 
  2 C        1.5240     0.9400    -1.1470 C.ar  1 <1>   0.1770 
  3 C        2.7630     0.3340    -1.1130 C.ar  1 <1>  -0.1500 
  4 C        1.2190     2.0050    -0.3200 C.ar  1 <1>  -0.1500 
  5 C        3.7320     0.7960    -0.2330 C.ar  1 <1>   0.1000 
  6 C        2.1810     2.4710     0.5610 C.ar  1 <1>  -0.1500 
  7 N        4.9780     0.1820    -0.2030 N.pl3 1 <1>  -0.8380 
  8 C        3.4270     1.8680     0.6010 C.ar  1 <1>  -0.1500 
  9 C        5.2900    -0.6310     1.0080 C.3   1 <1>   0.2090 
 10 C        6.1240     0.9750    -0.7340 C.3   1 <1>   0.2090 
 11 C        6.5320    -1.5160     0.7670 C.3   1 <1>   0.3430 
 12 C        7.3580     0.0740    -0.9540 C.3   1 <1>   0.3430 
 13 N        7.7250    -0.7280     0.2770 N.4   1 <1>  -0.9590 
 14 C        8.8920    -1.6290     0.0420 C.3   1 <1>   0.3430 
 15 C       10.1970    -0.8490    -0.1850 C.3   1 <1>  -0.0800 
 16 C       11.3420    -1.8510    -0.4390 C.3   1 <1>  -0.0220 
 17 C       10.5550     0.0900     0.9900 C.3   1 <1>  -0.1600 
 18 C       12.6890    -1.1560    -0.4430 C.2   1 <1>  -0.2880 
 19 C       11.8140     0.9200     0.6860 C.3   1 <1>  -0.0220 
 20 C       12.8940     0.0690     0.0450 C.2   1 <1>  -0.2880 
 21 H        2.9760    -0.4910    -1.7650 H     1 <1>   0.1500 
 22 H        0.2450     2.4590    -0.3680 H     1 <1>   0.1500 
 23 H        1.9570     3.3000     1.2110 H     1 <1>   0.1500 
 24 H        4.1680     2.2340     1.2870 H     1 <1>   0.1500 
 25 H        4.4440    -1.2580     1.2390 H     1 <1>   0.0800 
 26 H        5.4580     0.0190     1.8490 H     1 <1>   0.0800 
 27 H        6.3650     1.7680    -0.0480 H     1 <1>   0.0800 
 28 H        5.8380     1.4230    -1.6710 H     1 <1>   0.0800 
 29 H        6.2690    -2.2610     0.0350 H     1 <1>   0.0800 
 30 H        6.7800    -2.0260     1.6830 H     1 <1>   0.0800 
 31 H        8.1880     0.6930    -1.2520 H     1 <1>   0.0800 
 32 H        7.1380    -0.5970    -1.7670 H     1 <1>   0.0800 
 33 H        7.9820    -0.0630     1.0170 H     1 <1>   0.4500 
 34 H        8.6980    -2.2570    -0.8130 H     1 <1>   0.0800 
 35 H        9.0260    -2.2700     0.8990 H     1 <1>   0.0800 
 36 H       10.1040    -0.2560    -1.0780 H     1 <1>   0.0800 
 37 H       11.1940    -2.3320    -1.3910 H     1 <1>   0.0800 
 38 H       11.3600    -2.6130     0.3220 H     1 <1>   0.0800 
 39 H       10.7430    -0.5020     1.8700 H     1 <1>   0.0800 
 40 H        9.7550     0.7720     1.2110 H     1 <1>   0.0800 
 41 H       13.4790    -1.7500    -0.8760 H     1 <1>   0.1500 
 42 H       12.1890     1.3440     1.6020 H     1 <1>   0.0800 
 43 H       11.5740     1.7300     0.0190 H     1 <1>   0.0800 
 44 H       13.8570     0.5540     0.0200 H     1 <1>   0.1500 
@<TRIPOS>BOND
  1   1   2  1   
  2   2   3  ar  
  3   2   4  ar  
  4   3   5  ar  
  5   3  21  1   
  6   4   6  ar  
  7   4  22  1   
  8   5   7  1   
  9   5   8  ar  
 10   6   8  ar  
 11   6  23  1   
 12   7   9  1   
 13   7  10  1   
 14   8  24  1   
 15   9  11  1   
 16   9  25  1   
 17   9  26  1   
 18  10  12  1   
 19  10  27  1   
 20  10  28  1   
 21  11  13  1   
 22  11  29  1   
 23  11  30  1   
 24  12  13  1   
 25  12  31  1   
 26  12  32  1   
 27  13  14  1   
 28  13  33  1   
 29  14  15  1   
 30  14  34  1   
 31  14  35  1   
 32  15  16  1   
 33  15  17  1   
 34  15  36  1   
 35  16  18  1   
 36  16  37  1   
 37  16  38  1   
 38  17  19  1   
 39  17  39  1   
 40  17  40  1   
 41  18  20  2   
 42  18  41  1   
 43  19  20  1   
 44  19  42  1   
 45  19  43  1   
 46  20  44  1   
@<TRIPOS>SUBSTRUCTURE
  1 ****  10 GROUP 4 **** **** 0

# MOE 2024.06 (io_trps.svl 2023.06)
