@<TRIPOS>MOLECULE
NONAME
43 44 1 0 0 
SMALL
USER_CHARGES


@<TRIPOS>ATOM
  1 N       -0.5180     0.2570    -0.4440 N.4   1 <1>  -0.9590 
  2 C       -1.5970     0.8580     0.3860 C.3   1 <1>   0.3430 
  3 C       -0.2250    -1.1530    -0.0660 C.3   1 <1>   0.3430 
  4 C        0.7290     1.0870    -0.3550 C.3   1 <1>   0.2630 
  5 C       -2.8800     0.0320     0.2640 C.3   1 <1>  -0.1600 
  6 C       -1.4890    -2.0020    -0.2030 C.3   1 <1>  -0.1600 
  7 C       -2.6550    -1.4450     0.6320 C.3   1 <1>   0.4230 
  8 N       -3.8980    -2.2560     0.4000 N.4   1 <1>  -0.9590 
  9 C       -5.1260    -1.7390     1.0910 C.3   1 <1>   0.4860 
 10 C       -3.7470    -3.7070     0.7310 C.3   1 <1>   0.3430 
 11 C       -6.3380    -2.3760     0.4430 C.ar  1 <1>  -0.1430 
 12 C       -3.8380    -4.5130    -0.5580 C.3   1 <1>  -0.2400 
 13 C       -6.7410    -1.9780    -0.8250 C.ar  1 <1>  -0.1500 
 14 C       -7.0500    -3.3650     1.1070 C.ar  1 <1>  -0.1500 
 15 C       -7.8320    -2.5770    -1.4280 C.ar  1 <1>  -0.1500 
 16 C       -8.1410    -3.9620     0.5010 C.ar  1 <1>  -0.1500 
 17 C       -8.5300    -3.5710    -0.7670 C.ar  1 <1>  -0.1500 
 18 H       -0.8140     0.2760    -1.4340 H     1 <1>   0.4500 
 19 H       -1.7880     1.8700     0.0610 H     1 <1>   0.0800 
 20 H       -1.2840     0.8950     1.4180 H     1 <1>   0.0800 
 21 H        0.1340    -1.1910     0.9510 H     1 <1>   0.0800 
 22 H        0.5480    -1.5510    -0.7060 H     1 <1>   0.0800 
 23 H        1.0980     1.1110     0.6580 H     1 <1>   0.0800 
 24 H        0.5320     2.0990    -0.6710 H     1 <1>   0.0800 
 25 H        1.5000     0.6790    -0.9900 H     1 <1>   0.0800 
 26 H       -3.2540     0.1180    -0.7410 H     1 <1>   0.0800 
 27 H       -3.5940     0.4800     0.9300 H     1 <1>   0.0800 
 28 H       -1.2340    -2.9940     0.1230 H     1 <1>   0.0800 
 29 H       -1.7600    -2.0510    -1.2430 H     1 <1>   0.0800 
 30 H       -2.3890    -1.5030     1.6770 H     1 <1>   0.0800 
 31 H       -4.1420    -2.2340    -0.5990 H     1 <1>   0.4500 
 32 H       -5.2150    -0.6720     0.9800 H     1 <1>   0.0800 
 33 H       -5.0980    -1.9730     2.1430 H     1 <1>   0.0800 
 34 H       -4.5320    -4.0280     1.3970 H     1 <1>   0.0800 
 35 H       -2.8040    -3.8940     1.2190 H     1 <1>   0.0800 
 36 H       -4.8010    -4.3840    -1.0230 H     1 <1>   0.0800 
 37 H       -3.7300    -5.5580    -0.3270 H     1 <1>   0.0800 
 38 H       -3.0620    -4.2470    -1.2520 H     1 <1>   0.0800 
 39 H       -6.2250    -1.2000    -1.3600 H     1 <1>   0.1500 
 40 H       -6.7750    -3.6840     2.0980 H     1 <1>   0.1500 
 41 H       -8.1470    -2.2710    -2.4120 H     1 <1>   0.1500 
 42 H       -8.6940    -4.7310     1.0150 H     1 <1>   0.1500 
 43 H       -9.3800    -4.0370    -1.2370 H     1 <1>   0.1500 
@<TRIPOS>BOND
  1   1   2  1   
  2   1   3  1   
  3   1   4  1   
  4   1  18  1   
  5   2   5  1   
  6   2  19  1   
  7   2  20  1   
  8   3   6  1   
  9   3  21  1   
 10   3  22  1   
 11   4  23  1   
 12   4  24  1   
 13   4  25  1   
 14   5   7  1   
 15   5  26  1   
 16   5  27  1   
 17   6   7  1   
 18   6  28  1   
 19   6  29  1   
 20   7   8  1   
 21   7  30  1   
 22   8   9  1   
 23   8  10  1   
 24   8  31  1   
 25   9  11  1   
 26   9  32  1   
 27   9  33  1   
 28  10  12  1   
 29  10  34  1   
 30  10  35  1   
 31  11  13  ar  
 32  11  14  ar  
 33  12  36  1   
 34  12  37  1   
 35  12  38  1   
 36  13  15  ar  
 37  13  39  1   
 38  14  16  ar  
 39  14  40  1   
 40  15  17  ar  
 41  15  41  1   
 42  16  17  ar  
 43  16  42  1   
 44  17  43  1   
@<TRIPOS>SUBSTRUCTURE
  1 ****   8 GROUP 4 **** **** 0

# MOE 2024.06 (io_trps.svl 2023.06)
