@<TRIPOS>MOLECULE
NONAME
45 46 1 0 0 
SMALL
USER_CHARGES


@<TRIPOS>ATOM
  1 O       -0.4130    -0.2130    -1.1090 O.3   1 <1>  -0.3630 
  2 C       -1.7390    -0.4920    -1.0400 C.ar  1 <1>   0.0830 
  3 C        0.5390    -0.9790    -0.4070 C.3   1 <1>   0.1200 
  4 C       -2.2770    -1.5330    -0.2880 C.ar  1 <1>  -0.1500 
  5 C       -2.5800     0.3300    -1.7740 C.ar  1 <1>  -0.1500 
  6 C        1.9240    -0.4030    -0.7030 C.3   1 <1>  -0.1600 
  7 C       -3.6530    -1.7430    -0.2780 C.ar  1 <1>   0.0830 
  8 C       -3.9480     0.1230    -1.7650 C.ar  1 <1>  -0.1500 
  9 C        3.0230    -1.1800     0.0340 C.3   1 <1>  -0.1600 
 10 O       -4.2630    -2.7310     0.4250 O.3   1 <1>  -0.3630 
 11 C       -4.4800    -0.9120    -1.0170 C.ar  1 <1>  -0.1500 
 12 C        4.4070    -0.5920    -0.2670 C.3   1 <1>  -0.1600 
 13 C       -3.5250    -3.6380     1.2140 C.3   1 <1>   0.0400 
 14 C        5.5190    -1.3500     0.4660 C.3   1 <1>   0.0210 
 15 C        6.8720    -0.7350     0.1540 C.2   1 <1>  -0.1810 
 16 C        7.4920     0.3060     0.8460 C.2   1 <1>   0.1080 
 17 C        7.7370    -1.0530    -0.8330 C.2   1 <1>  -0.3320 
 18 N        8.6440     0.6130     0.3430 N.2   1 <1>  -0.7070 
 19 C        6.9300     1.0250     2.0520 C.3   1 <1>  -0.0590 
 20 N        8.7960    -0.2270    -0.6950 N.pl3 1 <1>   0.3000 
 21 C        7.6410    -2.0990    -1.9310 C.3   1 <1>  -0.0600 
 22 H        0.4710    -1.9980    -0.7450 H     1 <1>   0.0800 
 23 H        0.3170    -0.9150     0.6440 H     1 <1>   0.0800 
 24 H       -1.6350    -2.1710     0.2810 H     1 <1>   0.1500 
 25 H       -2.1550     1.1310    -2.3510 H     1 <1>   0.1500 
 26 H        1.9460     0.6290    -0.3950 H     1 <1>   0.0800 
 27 H        2.1020    -0.4480    -1.7640 H     1 <1>   0.0800 
 28 H       -4.5950     0.7650    -2.3370 H     1 <1>   0.1500 
 29 H        2.9980    -2.2120    -0.2720 H     1 <1>   0.0800 
 30 H        2.8400    -1.1390     1.0950 H     1 <1>   0.0800 
 31 H       -5.5410    -1.0820    -1.0030 H     1 <1>   0.1500 
 32 H        4.4340     0.4430     0.0280 H     1 <1>   0.0800 
 33 H        4.5980    -0.6350    -1.3260 H     1 <1>   0.0800 
 34 H       -4.2180    -4.3230     1.6700 H     1 <1>   0.0800 
 35 H       -2.9980    -3.0910     1.9750 H     1 <1>   0.0800 
 36 H       -2.8430    -4.1770     0.5800 H     1 <1>   0.0800 
 37 H        5.5180    -2.3810     0.1630 H     1 <1>   0.0800 
 38 H        5.3490    -1.3220     1.5280 H     1 <1>   0.0800 
 39 H        5.9290     1.3540     1.8510 H     1 <1>   0.0800 
 40 H        7.5380     1.8810     2.2800 H     1 <1>   0.0800 
 41 H        6.9290     0.3640     2.8980 H     1 <1>   0.0800 
 42 H        9.6320    -0.2110    -1.2890 H     1 <1>   0.2700 
 43 H        6.6990    -2.6150    -1.8820 H     1 <1>   0.0800 
 44 H        8.4320    -2.8210    -1.8240 H     1 <1>   0.0800 
 45 H        7.7200    -1.6310    -2.8950 H     1 <1>   0.0800 
@<TRIPOS>BOND
  1   1   2  1   
  2   1   3  1   
  3   2   4  ar  
  4   2   5  ar  
  5   3   6  1   
  6   3  22  1   
  7   3  23  1   
  8   4   7  ar  
  9   4  24  1   
 10   5   8  ar  
 11   5  25  1   
 12   6   9  1   
 13   6  26  1   
 14   6  27  1   
 15   7  10  1   
 16   7  11  ar  
 17   8  11  ar  
 18   8  28  1   
 19   9  12  1   
 20   9  29  1   
 21   9  30  1   
 22  10  13  1   
 23  11  31  1   
 24  12  14  1   
 25  12  32  1   
 26  12  33  1   
 27  13  34  1   
 28  13  35  1   
 29  13  36  1   
 30  14  15  1   
 31  14  37  1   
 32  14  38  1   
 33  15  16  1   
 34  15  17  2   
 35  16  18  2   
 36  16  19  1   
 37  17  20  1   
 38  17  21  1   
 39  18  20  1   
 40  19  39  1   
 41  19  40  1   
 42  19  41  1   
 43  20  42  1   
 44  21  43  1   
 45  21  44  1   
 46  21  45  1   
@<TRIPOS>SUBSTRUCTURE
  1 ****   6 GROUP 4 **** **** 0

# MOE 2024.06 (io_trps.svl 2023.06)
