@<TRIPOS>MOLECULE
NONAME
31 32 1 0 0 
SMALL
USER_CHARGES


@<TRIPOS>ATOM
  1 O       -7.1030     1.2120    -1.3910 O.3   1 <1>  -0.0190 
  2 N       -8.3230     0.7800    -1.3380 N.2   1 <1>  -0.4100 
  3 C       -7.1400     2.3540    -0.7540 C.2   1 <1>   0.2980 
  4 C       -9.0220     1.6450    -0.6900 C.2   1 <1>   0.4620 
  5 N       -8.2790     2.6880    -0.3030 N.2   1 <1>  -0.5650 
  6 C       -5.8510     3.1620    -0.6410 C.3   1 <1>   0.2900 
  7 C      -10.4430     1.5410    -0.4000 C.ar  1 <1>   0.0540 
  8 N       -4.7580     2.4010    -0.0070 N.3   1 <1>  -0.9000 
  9 C      -11.1150     2.5110     0.3470 C.ar  1 <1>  -0.1500 
 10 C      -11.2000     0.4620    -0.8590 C.ar  1 <1>  -0.1500 
 11 C       -3.4970     3.1240    -0.0210 C.3   1 <1>   0.1100 
 12 C      -12.4670     2.4110     0.6190 C.ar  1 <1>  -0.1500 
 13 C      -12.5530     0.3570    -0.5900 C.ar  1 <1>  -0.1500 
 14 C       -2.4450     2.2400     0.6310 C.3   1 <1>  -0.2400 
 15 C      -13.1970     1.3330     0.1500 C.ar  1 <1>  -0.1430 
 16 C      -14.6810     1.2200     0.4480 C.3   1 <1>  -0.0970 
 17 H       -6.0490     4.0460    -0.0600 H     1 <1>   0.0800 
 18 H       -5.5550     3.4640    -1.6300 H     1 <1>   0.0800 
 19 H       -4.6410     1.5120    -0.5100 H     1 <1>   0.3600 
 20 H      -10.5680     3.3590     0.7220 H     1 <1>   0.1500 
 21 H      -10.7210    -0.3090    -1.4370 H     1 <1>   0.1500 
 22 H       -3.5970     4.0420     0.5350 H     1 <1>   0.0800 
 23 H       -3.2080     3.3540    -1.0340 H     1 <1>   0.0800 
 24 H      -12.9490     3.1790     1.1990 H     1 <1>   0.1500 
 25 H      -13.1030    -0.4910    -0.9600 H     1 <1>   0.1500 
 26 H       -2.7340     2.0070     1.6410 H     1 <1>   0.0800 
 27 H       -1.5030     2.7570     0.6570 H     1 <1>   0.0800 
 28 H       -2.3200     1.3290     0.0750 H     1 <1>   0.0800 
 29 H      -15.1220     2.1970     0.5370 H     1 <1>   0.0800 
 30 H      -14.8270     0.6870     1.3700 H     1 <1>   0.0800 
 31 H      -15.1840     0.6930    -0.3420 H     1 <1>   0.0800 
@<TRIPOS>BOND
  1   1   2  1   
  2   1   3  1   
  3   2   4  2   
  4   3   5  2   
  5   3   6  1   
  6   4   5  1   
  7   4   7  1   
  8   6   8  1   
  9   6  17  1   
 10   6  18  1   
 11   7   9  ar  
 12   7  10  ar  
 13   8  11  1   
 14   8  19  1   
 15   9  12  ar  
 16   9  20  1   
 17  10  13  ar  
 18  10  21  1   
 19  11  14  1   
 20  11  22  1   
 21  11  23  1   
 22  12  15  ar  
 23  12  24  1   
 24  13  15  ar  
 25  13  25  1   
 26  14  26  1   
 27  14  27  1   
 28  14  28  1   
 29  15  16  1   
 30  16  29  1   
 31  16  30  1   
 32  16  31  1   
@<TRIPOS>SUBSTRUCTURE
  1 ****   4 GROUP 4 **** **** 0

# MOE 2024.06 (io_trps.svl 2023.06)
