@<TRIPOS>MOLECULE
NONAME
47 49 1 0 0 
SMALL
USER_CHARGES


@<TRIPOS>ATOM
  1 S       -0.2060     0.0930     0.1100 S.o2  1 <1>   1.4470 
  2 O        0.1570    -0.3530    -1.2130 O.2   1 <1>  -0.6500 
  3 O       -0.0580    -0.7760     1.2550 O.2   1 <1>  -0.6500 
  4 N       -1.8660     0.5290     0.0090 N.am  1 <1>  -0.7570 
  5 C        0.5480     1.7050     0.4530 C.ar  1 <1>  -0.0090 
  6 C       -2.9370    -0.3240    -0.2280 C.ar  1 <1>   0.1990 
  7 C        0.8990     2.0790     1.7460 C.ar  1 <1>  -0.1500 
  8 C        0.7620     2.6230    -0.5700 C.ar  1 <1>  -0.1500 
  9 C       -4.0600     0.1600    -0.9210 C.ar  1 <1>   0.0860 
 10 C       -2.9270    -1.6500     0.2030 C.ar  1 <1>  -0.1500 
 11 C        1.4490     3.3220     2.0090 C.ar  1 <1>  -0.1500 
 12 C        1.3100     3.8680    -0.3150 C.ar  1 <1>  -0.1500 
 13 C       -4.1310     1.5440    -1.3450 C.2   1 <1>   0.5440 
 14 C       -5.1080    -0.7220    -1.1960 C.ar  1 <1>  -0.1500 
 15 C       -3.9810    -2.4990    -0.0670 C.ar  1 <1>  -0.1500 
 16 C        1.6550     4.2180     0.9770 C.ar  1 <1>  -0.1500 
 17 O       -3.1740     2.0450    -1.9130 O.2   1 <1>  -0.5700 
 18 N       -5.2380     2.3320    -1.0990 N.am  1 <1>  -0.6600 
 19 C       -5.0750    -2.0350    -0.7750 C.ar  1 <1>  -0.1500 
 20 C       -6.1900     2.0800     0.0200 C.3   1 <1>   0.1400 
 21 C       -5.4150     3.6570    -1.7560 C.3   1 <1>   0.1400 
 22 C       -6.0500     3.1860     1.0720 C.3   1 <1>  -0.1600 
 23 C       -5.2630     4.7720    -0.7180 C.3   1 <1>  -0.1600 
 24 C       -6.2330     4.5830     0.4590 C.3   1 <1>  -0.0800 
 25 C       -6.0150     5.6700     1.5180 C.3   1 <1>  -0.2400 
 26 H       -1.9310     1.3570    -0.5930 H     1 <1>   0.4200 
 27 H        0.7390     1.3890     2.5580 H     1 <1>   0.1500 
 28 H        0.4960     2.3600    -1.5820 H     1 <1>   0.1500 
 29 H       -2.0880    -2.0330     0.7540 H     1 <1>   0.1500 
 30 H        1.7160     3.5910     3.0170 H     1 <1>   0.1500 
 31 H        1.4680     4.5620    -1.1230 H     1 <1>   0.1500 
 32 H       -5.9580    -0.3630    -1.7510 H     1 <1>   0.1500 
 33 H       -3.9500    -3.5210     0.2710 H     1 <1>   0.1500 
 34 H        2.0820     5.1860     1.1780 H     1 <1>   0.1500 
 35 H       -5.8940    -2.7000    -0.9940 H     1 <1>   0.1500 
 36 H       -5.9970     1.1300     0.4870 H     1 <1>   0.0800 
 37 H       -7.1940     2.0680    -0.3680 H     1 <1>   0.0800 
 38 H       -6.3960     3.7000    -2.1980 H     1 <1>   0.0800 
 39 H       -4.6930     3.7910    -2.5440 H     1 <1>   0.0800 
 40 H       -5.0760     3.1080     1.5240 H     1 <1>   0.0800 
 41 H       -6.7820     3.0300     1.8440 H     1 <1>   0.0800 
 42 H       -5.4450     5.7200    -1.1920 H     1 <1>   0.0800 
 43 H       -4.2460     4.7720    -0.3640 H     1 <1>   0.0800 
 44 H       -7.2410     4.6670     0.0890 H     1 <1>   0.0800 
 45 H       -5.0150     5.6200     1.9120 H     1 <1>   0.0800 
 46 H       -6.7100     5.5470     2.3290 H     1 <1>   0.0800 
 47 H       -6.1660     6.6450     1.0880 H     1 <1>   0.0800 
@<TRIPOS>BOND
  1   1   2  2   
  2   1   3  2   
  3   1   4  am  
  4   1   5  1   
  5   4   6  1   
  6   4  26  1   
  7   5   7  ar  
  8   5   8  ar  
  9   6   9  ar  
 10   6  10  ar  
 11   7  11  ar  
 12   7  27  1   
 13   8  12  ar  
 14   8  28  1   
 15   9  13  1   
 16   9  14  ar  
 17  10  15  ar  
 18  10  29  1   
 19  11  16  ar  
 20  11  30  1   
 21  12  16  ar  
 22  12  31  1   
 23  13  17  2   
 24  13  18  am  
 25  14  19  ar  
 26  14  32  1   
 27  15  19  ar  
 28  15  33  1   
 29  16  34  1   
 30  18  20  1   
 31  18  21  1   
 32  19  35  1   
 33  20  22  1   
 34  20  36  1   
 35  20  37  1   
 36  21  23  1   
 37  21  38  1   
 38  21  39  1   
 39  22  24  1   
 40  22  40  1   
 41  22  41  1   
 42  23  24  1   
 43  23  42  1   
 44  23  43  1   
 45  24  25  1   
 46  24  44  1   
 47  25  45  1   
 48  25  46  1   
 49  25  47  1   
@<TRIPOS>SUBSTRUCTURE
  1 ****   4 GROUP 4 **** **** 0

# MOE 2024.06 (io_trps.svl 2023.06)
