@<TRIPOS>MOLECULE
NONAME
29 30 1 0 0 
SMALL
USER_CHARGES


@<TRIPOS>ATOM
  1 F       -1.5680     1.1600     1.6890 F     1 <1>  -0.1900 
  2 C       -0.8580     2.0460     1.0410 C.ar  1 <1>   0.1900 
  3 C       -1.2730     2.4400    -0.2210 C.ar  1 <1>  -0.1440 
  4 C        0.2710     2.5590     1.6490 C.ar  1 <1>  -0.1500 
  5 C       -0.5120     3.3880    -0.8930 C.ar  1 <1>  -0.1500 
  6 C       -2.5220     1.8450    -0.8370 C.3   1 <1>   0.4870 
  7 C        1.0160     3.5060     0.9680 C.ar  1 <1>  -0.1500 
  8 C        0.6240     3.9160    -0.2980 C.ar  1 <1>  -0.1500 
  9 N       -3.7100     2.2960    -0.0660 N.4   1 <1>  -0.9590 
 10 C       -4.9860     1.6200    -0.4740 C.3   1 <1>   0.3430 
 11 C       -3.8750     3.7870    -0.0060 C.3   1 <1>   0.3430 
 12 C       -6.2050     2.1870     0.2910 C.3   1 <1>   0.1200 
 13 C       -5.0910     4.1840     0.8630 C.3   1 <1>   0.1200 
 14 O       -5.7980     3.0580     1.3110 O.3   1 <1>  -0.5600 
 15 H        0.5600     2.2270     2.6310 H     1 <1>   0.1500 
 16 H       -0.7840     3.7230    -1.8800 H     1 <1>   0.1500 
 17 H       -2.4500     0.7700    -0.8080 H     1 <1>   0.0800 
 18 H       -2.6070     2.1540    -1.8660 H     1 <1>   0.0800 
 19 H        1.9020     3.9220     1.4190 H     1 <1>   0.1500 
 20 H        1.2140     4.6500    -0.8220 H     1 <1>   0.1500 
 21 H       -3.5530     2.0140     0.9160 H     1 <1>   0.4500 
 22 H       -4.9170     0.5620    -0.2800 H     1 <1>   0.0800 
 23 H       -5.1530     1.7450    -1.5310 H     1 <1>   0.0800 
 24 H       -4.0120     4.1820    -0.9990 H     1 <1>   0.0800 
 25 H       -2.9890     4.2440     0.4040 H     1 <1>   0.0800 
 26 H       -6.7650     1.3870     0.7430 H     1 <1>   0.0800 
 27 H       -6.8600     2.7220    -0.3750 H     1 <1>   0.0800 
 28 H       -5.7640     4.8170     0.3100 H     1 <1>   0.0800 
 29 H       -4.7610     4.7270     1.7320 H     1 <1>   0.0800 
@<TRIPOS>BOND
  1   1   2  1   
  2   2   3  ar  
  3   2   4  ar  
  4   3   5  ar  
  5   3   6  1   
  6   4   7  ar  
  7   4  15  1   
  8   5   8  ar  
  9   5  16  1   
 10   6   9  1   
 11   6  17  1   
 12   6  18  1   
 13   7   8  ar  
 14   7  19  1   
 15   8  20  1   
 16   9  10  1   
 17   9  11  1   
 18   9  21  1   
 19  10  12  1   
 20  10  22  1   
 21  10  23  1   
 22  11  13  1   
 23  11  24  1   
 24  11  25  1   
 25  12  14  1   
 26  12  26  1   
 27  12  27  1   
 28  13  14  1   
 29  13  28  1   
 30  13  29  1   
@<TRIPOS>SUBSTRUCTURE
  1 ****   3 GROUP 4 **** **** 0

# MOE 2024.06 (io_trps.svl 2023.06)
