@<TRIPOS>MOLECULE
NONAME
50 52 1 0 0 
SMALL
USER_CHARGES


@<TRIPOS>ATOM
  1 CL       0.6520    -0.9870     2.2580 Cl    1 <1>  -0.1770 
  2 C        1.4770    -2.0750     1.1640 C.ar  1 <1>   0.1770 
  3 C        0.7740    -3.0940     0.5340 C.ar  1 <1>  -0.1440 
  4 C        2.8280    -1.8900     0.9530 C.ar  1 <1>  -0.1500 
  5 C        1.4650    -3.9360    -0.3260 C.ar  1 <1>  -0.1500 
  6 C       -0.7150    -3.2900     0.7720 C.3   1 <1>  -0.0960 
  7 C        3.5180    -2.7310     0.0940 C.ar  1 <1>   0.1000 
  8 C        2.8210    -3.7550    -0.5410 C.ar  1 <1>  -0.1500 
  9 N        4.8780    -2.5340    -0.1090 N.pl3 1 <1>  -0.8380 
 10 C        5.2870    -2.0990    -1.4800 C.3   1 <1>   0.2090 
 11 C        5.7880    -3.5930     0.4270 C.3   1 <1>   0.2090 
 12 C        6.7720    -1.6910    -1.5170 C.3   1 <1>   0.1960 
 13 C        7.2650    -3.1610     0.3450 C.3   1 <1>   0.1960 
 14 N        7.6480    -2.7640    -1.0220 N.am  1 <1>  -0.8490 
 15 S        9.2940    -2.4250    -1.1730 S.o2  1 <1>   1.5760 
 16 O       10.0170    -3.5610    -0.6440 O.2   1 <1>  -0.6500 
 17 O        9.5400    -1.9660    -2.5230 O.2   1 <1>  -0.6500 
 18 N        9.4340    -1.1180    -0.0960 N.am  1 <1>  -0.8490 
 19 C        9.5720     0.1740    -0.7840 C.3   1 <1>   0.1960 
 20 C       10.4590    -1.3680     0.9270 C.3   1 <1>   0.1960 
 21 C        9.0410     1.3150     0.0880 C.3   1 <1>  -0.1600 
 22 C       10.4840    -0.3370     2.0630 C.3   1 <1>  -0.1600 
 23 C       10.0850     1.9710     1.0040 C.3   1 <1>  -0.1600 
 24 C       11.0910     1.0110     1.6510 C.3   1 <1>  -0.1600 
 25 H        3.3530    -1.0970     1.4510 H     1 <1>   0.1500 
 26 H        0.9520    -4.7350    -0.8310 H     1 <1>   0.1500 
 27 H       -1.2530    -2.4060     0.4800 H     1 <1>   0.0800 
 28 H       -0.8980    -3.4780     1.8150 H     1 <1>   0.0800 
 29 H       -1.0920    -4.1220     0.2040 H     1 <1>   0.0800 
 30 H        3.3500    -4.4100    -1.2070 H     1 <1>   0.1500 
 31 H        4.6790    -1.2650    -1.7820 H     1 <1>   0.0800 
 32 H        5.1260    -2.9030    -2.1770 H     1 <1>   0.0800 
 33 H        5.6560    -4.5000    -0.1360 H     1 <1>   0.0800 
 34 H        5.5310    -3.7930     1.4520 H     1 <1>   0.0800 
 35 H        6.8960    -0.8080    -0.9160 H     1 <1>   0.0800 
 36 H        7.0380    -1.4500    -2.5320 H     1 <1>   0.0800 
 37 H        7.8810    -3.9830     0.6670 H     1 <1>   0.0800 
 38 H        7.4210    -2.3410     1.0240 H     1 <1>   0.0800 
 39 H        8.9670     0.1710    -1.6740 H     1 <1>   0.0800 
 40 H       10.5920     0.3420    -1.0880 H     1 <1>   0.0800 
 41 H       11.4290    -1.4310     0.4620 H     1 <1>   0.0800 
 42 H       10.2600    -2.3220     1.3860 H     1 <1>   0.0800 
 43 H        8.2130     0.9520     0.6720 H     1 <1>   0.0800 
 44 H        8.6530     2.0820    -0.5600 H     1 <1>   0.0800 
 45 H       11.1060    -0.7460     2.8400 H     1 <1>   0.0800 
 46 H        9.5000    -0.2140     2.4800 H     1 <1>   0.0800 
 47 H        9.5590     2.5000     1.7810 H     1 <1>   0.0800 
 48 H       10.6370     2.7050     0.4420 H     1 <1>   0.0800 
 49 H       11.9140     0.8410     0.9770 H     1 <1>   0.0800 
 50 H       11.4970     1.4940     2.5240 H     1 <1>   0.0800 
@<TRIPOS>BOND
  1   1   2  1   
  2   2   3  ar  
  3   2   4  ar  
  4   3   5  ar  
  5   3   6  1   
  6   4   7  ar  
  7   4  25  1   
  8   5   8  ar  
  9   5  26  1   
 10   6  27  1   
 11   6  28  1   
 12   6  29  1   
 13   7   8  ar  
 14   7   9  1   
 15   8  30  1   
 16   9  10  1   
 17   9  11  1   
 18  10  12  1   
 19  10  31  1   
 20  10  32  1   
 21  11  13  1   
 22  11  33  1   
 23  11  34  1   
 24  12  14  1   
 25  12  35  1   
 26  12  36  1   
 27  13  14  1   
 28  13  37  1   
 29  13  38  1   
 30  14  15  am  
 31  15  16  2   
 32  15  17  2   
 33  15  18  am  
 34  18  19  1   
 35  18  20  1   
 36  19  21  1   
 37  19  39  1   
 38  19  40  1   
 39  20  22  1   
 40  20  41  1   
 41  20  42  1   
 42  21  23  1   
 43  21  43  1   
 44  21  44  1   
 45  22  24  1   
 46  22  45  1   
 47  22  46  1   
 48  23  24  1   
 49  23  47  1   
 50  23  48  1   
 51  24  49  1   
 52  24  50  1   
@<TRIPOS>SUBSTRUCTURE
  1 ****   9 GROUP 4 **** **** 0

# MOE 2024.06 (io_trps.svl 2023.06)
