@<TRIPOS>MOLECULE
NONAME
41 42 1 0 0 
SMALL
USER_CHARGES


@<TRIPOS>ATOM
  1 O       -0.8610     1.1600     2.4540 O.2   1 <1>  -0.5700 
  2 C       -1.2450     1.8430     1.5430 C.2   1 <1>   0.6590 
  3 O       -2.5490     2.0280     1.3810 O.3   1 <1>  -0.4300 
  4 C       -0.2620     2.4340     0.5180 C.3   1 <1>   0.1220 
  5 C       -3.1260     3.1790     0.8120 C.3   1 <1>   0.3440 
  6 C       -0.9100     3.6790    -0.0930 C.2   1 <1>   0.4480 
  7 C        1.0870     2.7910     1.1960 C.3   1 <1>  -0.2400 
  8 C        0.0310     1.3950    -0.5870 C.3   1 <1>  -0.2400 
  9 C       -4.6060     2.8980     0.5620 C.ar  1 <1>  -0.1440 
 10 C       -2.3800     3.5590    -0.4690 C.3   1 <1>  -0.0190 
 11 O       -0.3060     4.6990    -0.2580 O.2   1 <1>  -0.5700 
 12 C       -5.0110     1.7490    -0.1000 C.ar  1 <1>  -0.1500 
 13 C       -5.5700     3.7960     0.9900 C.ar  1 <1>  -0.1500 
 14 C       -2.9490     4.8440    -1.1130 C.3   1 <1>  -0.2400 
 15 C       -6.3490     1.4900    -0.3450 C.ar  1 <1>   0.0820 
 16 C       -6.9120     3.5580     0.7470 C.ar  1 <1>  -0.1500 
 17 O       -6.5990     0.3220    -1.0000 O.3   1 <1>  -0.3630 
 18 C       -7.3230     2.4120     0.0700 C.ar  1 <1>   0.0820 
 19 C       -7.7290    -0.4560    -0.6700 C.3   1 <1>   0.0400 
 20 O       -8.6400     2.1810    -0.2090 O.3   1 <1>  -0.3630 
 21 C       -9.6440     3.1360     0.0590 C.3   1 <1>   0.0400 
 22 H       -3.0270     3.9700     1.5360 H     1 <1>   0.0800 
 23 H        0.9300     3.5120     1.9790 H     1 <1>   0.0800 
 24 H        1.7720     3.2120     0.4810 H     1 <1>   0.0800 
 25 H        1.5400     1.9170     1.6290 H     1 <1>   0.0800 
 26 H       -0.8760     1.0640    -1.0610 H     1 <1>   0.0800 
 27 H        0.5170     0.5320    -0.1650 H     1 <1>   0.0800 
 28 H        0.6780     1.8170    -1.3370 H     1 <1>   0.0800 
 29 H       -2.4930     2.7660    -1.1850 H     1 <1>   0.0800 
 30 H       -4.2860     1.0270    -0.4310 H     1 <1>   0.1500 
 31 H       -5.2840     4.6930     1.5130 H     1 <1>   0.1500 
 32 H       -2.8950     5.6710    -0.4250 H     1 <1>   0.0800 
 33 H       -3.9740     4.7040    -1.4090 H     1 <1>   0.0800 
 34 H       -2.3800     5.1000    -1.9900 H     1 <1>   0.0800 
 35 H       -7.6210     4.2840     1.0950 H     1 <1>   0.1500 
 36 H       -7.5400    -1.4690    -0.9760 H     1 <1>   0.0800 
 37 H       -8.5820    -0.0710    -1.1980 H     1 <1>   0.0800 
 38 H       -7.8870    -0.4150     0.3930 H     1 <1>   0.0800 
 39 H      -10.5780     2.7460    -0.3010 H     1 <1>   0.0800 
 40 H       -9.4060     4.0480    -0.4580 H     1 <1>   0.0800 
 41 H       -9.7010     3.2950     1.1210 H     1 <1>   0.0800 
@<TRIPOS>BOND
  1   1   2  2   
  2   2   3  1   
  3   2   4  1   
  4   3   5  1   
  5   4   6  1   
  6   4   7  1   
  7   4   8  1   
  8   5   9  1   
  9   5  10  1   
 10   5  22  1   
 11   6  10  1   
 12   6  11  2   
 13   7  23  1   
 14   7  24  1   
 15   7  25  1   
 16   8  26  1   
 17   8  27  1   
 18   8  28  1   
 19   9  12  ar  
 20   9  13  ar  
 21  10  14  1   
 22  10  29  1   
 23  12  15  ar  
 24  12  30  1   
 25  13  16  ar  
 26  13  31  1   
 27  14  32  1   
 28  14  33  1   
 29  14  34  1   
 30  15  17  1   
 31  15  18  ar  
 32  16  18  ar  
 33  16  35  1   
 34  17  19  1   
 35  18  20  1   
 36  19  36  1   
 37  19  37  1   
 38  19  38  1   
 39  20  21  1   
 40  21  39  1   
 41  21  40  1   
 42  21  41  1   
@<TRIPOS>SUBSTRUCTURE
  1 ****   9 GROUP 4 **** **** 0

# MOE 2024.06 (io_trps.svl 2023.06)
