@<TRIPOS>MOLECULE
NONAME
34 34 1 0 0 
SMALL
USER_CHARGES


@<TRIPOS>ATOM
  1 CL      -1.1230    -1.0620     2.2760 Cl    1 <1>  -0.1770 
  2 C       -1.9980     0.1410     1.3570 C.ar  1 <1>   0.1770 
  3 C       -1.3540     1.2690     0.8750 C.ar  1 <1>   0.1770 
  4 C       -3.3450    -0.0540     1.1210 C.ar  1 <1>  -0.1500 
  5 CL       0.3520     1.5260     1.1690 Cl    1 <1>  -0.1770 
  6 C       -2.0590     2.2100     0.1480 C.ar  1 <1>  -0.1500 
  7 C       -4.0720     0.8840     0.3940 C.ar  1 <1>   0.1170 
  8 C       -3.4090     2.0130    -0.0900 C.ar  1 <1>  -0.1500 
  9 N       -5.4360     0.6460     0.1720 N.am  1 <1>  -0.5470 
 10 C       -6.4550     1.4750    -0.1820 C.2   1 <1>   0.7800 
 11 O       -6.3430     2.6680    -0.3710 O.2   1 <1>  -0.5700 
 12 O       -7.6410     0.8860    -0.3060 O.3   1 <1>  -0.4300 
 13 C       -8.7810     1.6350    -0.6630 C.3   1 <1>   0.1200 
 14 C       -9.9790     0.6880    -0.7030 C.3   1 <1>  -0.1600 
 15 C      -11.2530     1.4470    -1.0670 C.3   1 <1>   0.1400 
 16 N      -12.3860     0.4940    -1.0850 N.am  1 <1>  -0.7300 
 17 C      -13.5880     0.5470    -0.4570 C.2   1 <1>   0.5690 
 18 O      -14.3870    -0.3310    -0.6520 O.2   1 <1>  -0.5700 
 19 C      -13.9600     1.6530     0.5050 C.3   1 <1>   0.1010 
 20 C      -14.0750     2.9430    -0.2160 C.1   1 <1>   0.3570 
 21 N      -14.1150     3.9460    -0.7490 N.1   1 <1>  -0.5570 
 22 H       -3.8220    -0.9350     1.5070 H     1 <1>   0.1500 
 23 H       -1.5560     3.0840    -0.2270 H     1 <1>   0.1500 
 24 H       -3.9450     2.7500    -0.6620 H     1 <1>   0.1500 
 25 H       -5.7600    -0.3030     0.3390 H     1 <1>   0.3700 
 26 H       -8.6050     2.0830    -1.6270 H     1 <1>   0.0800 
 27 H       -8.9210     2.4090     0.0740 H     1 <1>   0.0800 
 28 H      -10.1000     0.2340     0.2640 H     1 <1>   0.0800 
 29 H       -9.7960    -0.0760    -1.4380 H     1 <1>   0.0800 
 30 H      -11.1540     1.8940    -2.0420 H     1 <1>   0.0800 
 31 H      -11.4260     2.2310    -0.3500 H     1 <1>   0.0800 
 32 H      -12.2750    -0.3040    -1.7180 H     1 <1>   0.3700 
 33 H      -13.2130     1.7300     1.2700 H     1 <1>   0.0800 
 34 H      -14.9020     1.4250     0.9660 H     1 <1>   0.0800 
@<TRIPOS>BOND
  1   1   2  1   
  2   2   3  ar  
  3   2   4  ar  
  4   3   5  1   
  5   3   6  ar  
  6   4   7  ar  
  7   4  22  1   
  8   6   8  ar  
  9   6  23  1   
 10   7   8  ar  
 11   7   9  1   
 12   8  24  1   
 13   9  10  am  
 14   9  25  1   
 15  10  11  2   
 16  10  12  1   
 17  12  13  1   
 18  13  14  1   
 19  13  26  1   
 20  13  27  1   
 21  14  15  1   
 22  14  28  1   
 23  14  29  1   
 24  15  16  1   
 25  15  30  1   
 26  15  31  1   
 27  16  17  am  
 28  16  32  1   
 29  17  18  2   
 30  17  19  1   
 31  19  20  1   
 32  19  33  1   
 33  19  34  1   
 34  20  21  3   
@<TRIPOS>SUBSTRUCTURE
  1 ****  12 GROUP 4 **** **** 0

# MOE 2024.06 (io_trps.svl 2023.06)
