@<TRIPOS>MOLECULE
NONAME
43 45 1 0 0 
SMALL
USER_CHARGES


@<TRIPOS>ATOM
  1 N        1.8190     0.5040     0.5980 N.2   1 <1>  -0.7070 
  2 N        2.6640     0.7800    -0.4250 N.pl3 1 <1>   0.3140 
  3 C        1.1030     1.5720     0.7220 C.2   1 <1>   0.1080 
  4 C        2.4560     2.0270    -0.9250 C.2   1 <1>  -0.0680 
  5 C        3.6230    -0.2280    -0.9170 C.3   1 <1>   0.0960 
  6 C        1.4380     2.5730    -0.1990 C.2   1 <1>  -0.0540 
  7 C        0.0230     1.6930     1.7740 C.3   1 <1>  -0.0590 
  8 N        3.1480     2.6210    -1.9870 N.pl3 1 <1>  -0.8840 
  9 C        4.8810    -0.3150    -0.0320 C.3   1 <1>  -0.0800 
 10 C        0.8450     3.8770    -0.3350 C.ar  1 <1>   0.0540 
 11 C        5.6740     1.0080    -0.0120 C.3   1 <1>  -0.1600 
 12 C        5.7790    -1.4690    -0.5130 C.3   1 <1>  -0.1600 
 13 C       -0.4920     4.0260    -0.6920 C.ar  1 <1>  -0.1500 
 14 C        1.5950     5.0280    -0.1120 C.ar  1 <1>  -0.1500 
 15 C        6.9480     0.8890     0.8340 C.3   1 <1>  -0.1600 
 16 C        7.0520    -1.5860     0.3350 C.3   1 <1>  -0.1600 
 17 C       -1.0620     5.2800    -0.8200 C.ar  1 <1>  -0.1500 
 18 C        1.0320     6.2850    -0.2390 C.ar  1 <1>  -0.1500 
 19 C        7.8320    -0.2660     0.3500 C.3   1 <1>  -0.1600 
 20 C       -0.3000     6.4130    -0.5940 C.ar  1 <1>  -0.1500 
 21 H        3.8910     0.0180    -1.9270 H     1 <1>   0.0800 
 22 H        3.1190    -1.1760    -0.9230 H     1 <1>   0.0800 
 23 H        0.2420     1.0360     2.5950 H     1 <1>   0.0800 
 24 H       -0.9240     1.4190     1.3500 H     1 <1>   0.0800 
 25 H       -0.0280     2.7020     2.1400 H     1 <1>   0.0800 
 26 H        2.8710     3.5890    -2.1920 H     1 <1>   0.4000 
 27 H        4.1670     2.5130    -1.9990 H     1 <1>   0.4000 
 28 H        4.5610    -0.5390     0.9730 H     1 <1>   0.0800 
 29 H        5.0630     1.7950     0.3980 H     1 <1>   0.0800 
 30 H        5.9430     1.2830    -1.0160 H     1 <1>   0.0800 
 31 H        6.0570    -1.3060    -1.5410 H     1 <1>   0.0800 
 32 H        5.2360    -2.3970    -0.4600 H     1 <1>   0.0800 
 33 H       -1.0820     3.1460    -0.8740 H     1 <1>   0.1500 
 34 H        2.6290     4.9260     0.1680 H     1 <1>   0.1500 
 35 H        6.6760     0.7220     1.8630 H     1 <1>   0.0800 
 36 H        7.5010     1.8110     0.7860 H     1 <1>   0.0800 
 37 H        7.6770    -2.3700    -0.0570 H     1 <1>   0.0800 
 38 H        6.7840    -1.8520     1.3440 H     1 <1>   0.0800 
 39 H       -2.0970     5.3750    -1.0980 H     1 <1>   0.1500 
 40 H        1.6270     7.1640    -0.0610 H     1 <1>   0.1500 
 41 H        8.6880    -0.3600     0.9960 H     1 <1>   0.0800 
 42 H        8.1900    -0.0510    -0.6430 H     1 <1>   0.0800 
 43 H       -0.7410     7.3890    -0.6930 H     1 <1>   0.1500 
@<TRIPOS>BOND
  1   1   2  1   
  2   1   3  2   
  3   2   4  1   
  4   2   5  1   
  5   3   6  1   
  6   3   7  1   
  7   4   6  2   
  8   4   8  1   
  9   5   9  1   
 10   5  21  1   
 11   5  22  1   
 12   6  10  1   
 13   7  23  1   
 14   7  24  1   
 15   7  25  1   
 16   8  26  1   
 17   8  27  1   
 18   9  11  1   
 19   9  12  1   
 20   9  28  1   
 21  10  13  ar  
 22  10  14  ar  
 23  11  15  1   
 24  11  29  1   
 25  11  30  1   
 26  12  16  1   
 27  12  31  1   
 28  12  32  1   
 29  13  17  ar  
 30  13  33  1   
 31  14  18  ar  
 32  14  34  1   
 33  15  19  1   
 34  15  35  1   
 35  15  36  1   
 36  16  19  1   
 37  16  37  1   
 38  16  38  1   
 39  17  20  ar  
 40  17  39  1   
 41  18  20  ar  
 42  18  40  1   
 43  19  41  1   
 44  19  42  1   
 45  20  43  1   
@<TRIPOS>SUBSTRUCTURE
  1 ****   4 GROUP 4 **** **** 0

# MOE 2024.06 (io_trps.svl 2023.06)
