@<TRIPOS>MOLECULE
NONAME
43 44 1 0 0 
SMALL
USER_CHARGES


@<TRIPOS>ATOM
  1 O       -1.9680    -0.4240     2.7560 O.2   1 <1>  -0.5700 
  2 C       -2.5970    -0.9670     1.8710 C.2   1 <1>   0.7060 
  3 O       -3.7800    -0.4590     1.5270 O.3   1 <1>  -0.2330 
  4 C       -2.1350    -2.1230     1.1780 C.2   1 <1>  -0.1360 
  5 C       -4.5650    -0.9890     0.5560 C.ar  1 <1>   0.0820 
  6 C       -2.8640    -2.7070     0.2010 C.2   1 <1>  -0.1670 
  7 C       -4.1390    -2.1350    -0.1390 C.ar  1 <1>   0.0280 
  8 C       -5.7860    -0.3790     0.2800 C.ar  1 <1>  -0.1440 
  9 C       -2.3530    -3.9420    -0.5280 C.3   1 <1>  -0.1020 
 10 C       -4.9870    -2.6460    -1.1230 C.ar  1 <1>  -0.1500 
 11 C       -6.6140    -0.9260    -0.6920 C.ar  1 <1>   0.0830 
 12 C       -6.1980     0.8730     1.0580 C.3   1 <1>  -0.0960 
 13 C       -6.2020    -2.0550    -1.3970 C.ar  1 <1>  -0.1500 
 14 O       -7.8130    -0.3420    -0.9220 O.3   1 <1>  -0.3630 
 15 C       -8.8970    -1.0670    -1.4830 C.3   1 <1>   0.1810 
 16 C      -10.2240    -0.3500    -1.2430 C.2   1 <1>   0.5690 
 17 O      -10.7750     0.1180    -2.2140 O.2   1 <1>  -0.5700 
 18 N      -10.7890    -0.2760     0.0140 N.am  1 <1>  -0.6600 
 19 C      -10.1100    -0.7370     1.2580 C.3   1 <1>   0.1400 
 20 C      -12.0750     0.4490     0.2080 C.3   1 <1>   0.1400 
 21 C      -10.5330    -2.1650     1.5930 C.3   1 <1>  -0.2400 
 22 C      -13.2520    -0.4740    -0.0990 C.3   1 <1>  -0.2400 
 23 H       -1.1760    -2.4890     1.4890 H     1 <1>   0.1500 
 24 H       -2.2560    -3.7390    -1.5800 H     1 <1>   0.0800 
 25 H       -3.0330    -4.7630    -0.3890 H     1 <1>   0.0800 
 26 H       -1.3890    -4.2380    -0.1530 H     1 <1>   0.0800 
 27 H       -4.6970    -3.5150    -1.6850 H     1 <1>   0.1500 
 28 H       -5.3600     1.5350     1.1750 H     1 <1>   0.0800 
 29 H       -6.5540     0.5930     2.0330 H     1 <1>   0.0800 
 30 H       -6.9730     1.4210     0.5530 H     1 <1>   0.0800 
 31 H       -6.8180    -2.4770    -2.1690 H     1 <1>   0.1500 
 32 H       -8.9320    -2.0410    -1.0330 H     1 <1>   0.0800 
 33 H       -8.7260    -1.1590    -2.5390 H     1 <1>   0.0800 
 34 H      -10.3590    -0.0810     2.0750 H     1 <1>   0.0800 
 35 H       -9.0420    -0.6980     1.1410 H     1 <1>   0.0800 
 36 H      -12.1070     1.2990    -0.4550 H     1 <1>   0.0800 
 37 H      -12.1490     0.8180     1.2160 H     1 <1>   0.0800 
 38 H      -11.5760    -2.1990     1.8440 H     1 <1>   0.0800 
 39 H       -9.9730    -2.5140     2.4420 H     1 <1>   0.0800 
 40 H      -10.3420    -2.8220     0.7650 H     1 <1>   0.0800 
 41 H      -13.1880    -0.8280    -1.1130 H     1 <1>   0.0800 
 42 H      -14.1730     0.0690     0.0100 H     1 <1>   0.0800 
 43 H      -13.2690    -1.3110     0.5720 H     1 <1>   0.0800 
@<TRIPOS>BOND
  1   1   2  2   
  2   2   3  1   
  3   2   4  1   
  4   3   5  1   
  5   4   6  2   
  6   4  23  1   
  7   5   7  ar  
  8   5   8  ar  
  9   6   7  1   
 10   6   9  1   
 11   7  10  ar  
 12   8  11  ar  
 13   8  12  1   
 14   9  24  1   
 15   9  25  1   
 16   9  26  1   
 17  10  13  ar  
 18  10  27  1   
 19  11  13  ar  
 20  11  14  1   
 21  12  28  1   
 22  12  29  1   
 23  12  30  1   
 24  13  31  1   
 25  14  15  1   
 26  15  16  1   
 27  15  32  1   
 28  15  33  1   
 29  16  17  2   
 30  16  18  am  
 31  18  19  1   
 32  18  20  1   
 33  19  21  1   
 34  19  34  1   
 35  19  35  1   
 36  20  22  1   
 37  20  36  1   
 38  20  37  1   
 39  21  38  1   
 40  21  39  1   
 41  21  40  1   
 42  22  41  1   
 43  22  42  1   
 44  22  43  1   
@<TRIPOS>SUBSTRUCTURE
  1 ****  11 GROUP 4 **** **** 0

# MOE 2024.06 (io_trps.svl 2023.06)
