@<TRIPOS>MOLECULE
NONAME
48 50 1 0 0 
SMALL
USER_CHARGES


@<TRIPOS>ATOM
  1 O       -0.0390    -3.8250    -2.4530 O.2   1 <1>  -0.5700 
  2 C        0.8200    -3.6810    -1.6140 C.2   1 <1>   0.6900 
  3 N        0.7430    -4.2510    -0.3670 N.am  1 <1>  -0.4200 
  4 N        1.8660    -2.8740    -1.8860 N.am  1 <1>  -0.4900 
  5 C        1.7420    -4.0640     0.5660 C.2   1 <1>   0.5690 
  6 C       -0.4960    -4.9940     0.0090 C.3   1 <1>   0.1400 
  7 C        2.9310    -2.6810    -1.0720 C.2   1 <1>   0.5690 
  8 O        1.5170    -4.2380     1.7410 O.2   1 <1>  -0.5700 
  9 C        3.1610    -3.6560     0.1010 C.3   1 <1>   0.2660 
 10 C       -1.5700    -4.0270     0.5230 C.3   1 <1>   0.1100 
 11 O        3.6750    -1.7650    -1.3150 O.2   1 <1>  -0.5700 
 12 C        3.9050    -4.9270    -0.3760 C.ar  1 <1>  -0.1440 
 13 C        3.9680    -3.0020     1.2710 C.3   1 <1>  -0.1600 
 14 N       -2.8380    -4.7310     0.7730 N.3   1 <1>  -0.8100 
 15 C        4.6940    -4.9310    -1.5240 C.ar  1 <1>  -0.1500 
 16 C        3.8110    -6.1060     0.3580 C.ar  1 <1>  -0.1500 
 17 C        5.4710    -2.7660     1.0210 C.3   1 <1>  -0.2400 
 18 C       -3.6880    -3.9620     1.7040 C.3   1 <1>   0.1100 
 19 C       -3.5910    -4.9770    -0.4780 C.3   1 <1>   0.1100 
 20 C        5.3460    -6.0800    -1.9360 C.ar  1 <1>  -0.1500 
 21 C        4.4620    -7.2560    -0.0530 C.ar  1 <1>  -0.1500 
 22 C       -5.0420    -4.6590     1.9280 C.3   1 <1>   0.1200 
 23 C       -4.9500    -5.6410    -0.1900 C.3   1 <1>   0.1200 
 24 C        5.2290    -7.2450    -1.2030 C.ar  1 <1>  -0.1500 
 25 O       -5.6940    -4.8670     0.7080 O.3   1 <1>  -0.5600 
 26 H        1.8050    -2.3170    -2.7340 H     1 <1>   0.3700 
 27 H       -0.2710    -5.7120     0.7790 H     1 <1>   0.0800 
 28 H       -0.8590    -5.5310    -0.8480 H     1 <1>   0.0800 
 29 H       -1.7290    -3.2330    -0.1860 H     1 <1>   0.0800 
 30 H       -1.2130    -3.6000     1.4460 H     1 <1>   0.0800 
 31 H        3.8980    -3.6360     2.1380 H     1 <1>   0.0800 
 32 H        3.5060    -2.0650     1.5280 H     1 <1>   0.0800 
 33 H        4.8300    -4.0420    -2.1170 H     1 <1>   0.1500 
 34 H        3.2350    -6.1490     1.2670 H     1 <1>   0.1500 
 35 H        5.9810    -3.6960     0.8400 H     1 <1>   0.0800 
 36 H        5.9130    -2.3090     1.8880 H     1 <1>   0.0800 
 37 H        5.6370    -2.1140     0.1830 H     1 <1>   0.0800 
 38 H       -3.8660    -2.9740     1.3130 H     1 <1>   0.0800 
 39 H       -3.1850    -3.8650     2.6500 H     1 <1>   0.0800 
 40 H       -3.0240    -5.6200    -1.1270 H     1 <1>   0.0800 
 41 H       -3.7620    -4.0480    -0.9960 H     1 <1>   0.0800 
 42 H        5.9500    -6.0660    -2.8270 H     1 <1>   0.1500 
 43 H        4.3740    -8.1590     0.5250 H     1 <1>   0.1500 
 44 H       -5.6800    -4.0480     2.5410 H     1 <1>   0.0800 
 45 H       -4.9000    -5.6100     2.4100 H     1 <1>   0.0800 
 46 H       -4.8080    -6.6200     0.2340 H     1 <1>   0.0800 
 47 H       -5.5200    -5.7320    -1.0960 H     1 <1>   0.0800 
 48 H        5.7350    -8.1390    -1.5240 H     1 <1>   0.1500 
@<TRIPOS>BOND
  1   1   2  2   
  2   2   3  am  
  3   2   4  am  
  4   3   5  am  
  5   3   6  1   
  6   4   7  am  
  7   4  26  1   
  8   5   8  2   
  9   5   9  1   
 10   6  10  1   
 11   6  27  1   
 12   6  28  1   
 13   7   9  1   
 14   7  11  2   
 15   9  12  1   
 16   9  13  1   
 17  10  14  1   
 18  10  29  1   
 19  10  30  1   
 20  12  15  ar  
 21  12  16  ar  
 22  13  17  1   
 23  13  31  1   
 24  13  32  1   
 25  14  18  1   
 26  14  19  1   
 27  15  20  ar  
 28  15  33  1   
 29  16  21  ar  
 30  16  34  1   
 31  17  35  1   
 32  17  36  1   
 33  17  37  1   
 34  18  22  1   
 35  18  38  1   
 36  18  39  1   
 37  19  23  1   
 38  19  40  1   
 39  19  41  1   
 40  20  24  ar  
 41  20  42  1   
 42  21  24  ar  
 43  21  43  1   
 44  22  25  1   
 45  22  44  1   
 46  22  45  1   
 47  23  25  1   
 48  23  46  1   
 49  23  47  1   
 50  24  48  1   
@<TRIPOS>SUBSTRUCTURE
  1 ****   3 GROUP 4 **** **** 0

# MOE 2024.06 (io_trps.svl 2023.06)
