@<TRIPOS>MOLECULE
NONAME
39 40 1 0 0 
SMALL
USER_CHARGES


@<TRIPOS>ATOM
  1 O       -0.3110    -0.5940     0.7900 O.3   1 <1>  -0.3630 
  2 C       -1.6380    -0.8460     0.6530 C.ar  1 <1>   0.0830 
  3 C        0.6120    -1.0000    -0.1940 C.3   1 <1>   0.1200 
  4 C       -2.1960    -1.5150    -0.4340 C.ar  1 <1>  -0.1500 
  5 C       -2.4630    -0.3990     1.6730 C.ar  1 <1>  -0.1500 
  6 C        2.0060    -0.5610     0.2520 C.3   1 <1>  -0.1600 
  7 C       -3.5630    -1.7290    -0.4930 C.ar  1 <1>  -0.1500 
  8 C       -3.8280    -0.6130     1.6140 C.ar  1 <1>  -0.1500 
  9 C        3.0710    -0.9610    -0.7740 C.3   1 <1>   0.0210 
 10 C       -4.3880    -1.2770     0.5340 C.ar  1 <1>   0.0830 
 11 C        4.4460    -0.5130    -0.3110 C.2   1 <1>  -0.1810 
 12 O       -5.7360    -1.4460     0.5540 O.3   1 <1>  -0.3630 
 13 C        5.0520     0.7160    -0.5700 C.2   1 <1>   0.1080 
 14 C        5.3480    -1.1920     0.4310 C.2   1 <1>  -0.3320 
 15 C       -6.4020    -2.1090    -0.4980 C.3   1 <1>   0.0400 
 16 N        6.2320     0.8020    -0.0430 N.2   1 <1>  -0.7070 
 17 C        4.4510     1.8500    -1.3690 C.3   1 <1>  -0.0590 
 18 N        6.4140    -0.3770     0.5760 N.pl3 1 <1>   0.3000 
 19 C        5.2820    -2.5830     1.0380 C.3   1 <1>  -0.0600 
 20 H        0.3440    -0.5290    -1.1240 H     1 <1>   0.0800 
 21 H        0.5600    -2.0710    -0.2860 H     1 <1>   0.0800 
 22 H       -1.5860    -1.8750    -1.2390 H     1 <1>   0.1500 
 23 H       -2.0290     0.1170     2.5100 H     1 <1>   0.1500 
 24 H        2.2390    -1.0210     1.1960 H     1 <1>   0.0800 
 25 H        2.0190     0.5070     0.3800 H     1 <1>   0.0800 
 26 H       -3.9660    -2.2470    -1.3420 H     1 <1>   0.1500 
 27 H       -4.4690    -0.2660     2.4040 H     1 <1>   0.1500 
 28 H        2.8520    -0.5150    -1.7290 H     1 <1>   0.0800 
 29 H        3.0700    -2.0280    -0.9040 H     1 <1>   0.0800 
 30 H       -7.4520    -2.1240    -0.2690 H     1 <1>   0.0800 
 31 H       -6.0290    -3.1150    -0.5670 H     1 <1>   0.0800 
 32 H       -6.2340    -1.5690    -1.4120 H     1 <1>   0.0800 
 33 H        3.4660     2.0740    -1.0060 H     1 <1>   0.0800 
 34 H        4.3990     1.5750    -2.4050 H     1 <1>   0.0800 
 35 H        5.0640     2.7270    -1.2720 H     1 <1>   0.0800 
 36 H        7.2750    -0.5920     1.0900 H     1 <1>   0.2700 
 37 H        4.3280    -3.0370     0.8430 H     1 <1>   0.0800 
 38 H        5.4180    -2.5280     2.1030 H     1 <1>   0.0800 
 39 H        6.0500    -3.2070     0.6170 H     1 <1>   0.0800 
@<TRIPOS>BOND
  1   1   2  1   
  2   1   3  1   
  3   2   4  ar  
  4   2   5  ar  
  5   3   6  1   
  6   3  20  1   
  7   3  21  1   
  8   4   7  ar  
  9   4  22  1   
 10   5   8  ar  
 11   5  23  1   
 12   6   9  1   
 13   6  24  1   
 14   6  25  1   
 15   7  10  ar  
 16   7  26  1   
 17   8  10  ar  
 18   8  27  1   
 19   9  11  1   
 20   9  28  1   
 21   9  29  1   
 22  10  12  1   
 23  11  13  1   
 24  11  14  2   
 25  12  15  1   
 26  13  16  2   
 27  13  17  1   
 28  14  18  1   
 29  14  19  1   
 30  15  30  1   
 31  15  31  1   
 32  15  32  1   
 33  16  18  1   
 34  17  33  1   
 35  17  34  1   
 36  17  35  1   
 37  18  36  1   
 38  19  37  1   
 39  19  38  1   
 40  19  39  1   
@<TRIPOS>SUBSTRUCTURE
  1 ****   3 GROUP 4 **** **** 0

# MOE 2024.06 (io_trps.svl 2023.06)
