@<TRIPOS>MOLECULE
NONAME
36 37 1 0 0 
SMALL
USER_CHARGES


@<TRIPOS>ATOM
  1 O       -1.3170     2.2100    -1.3920 O.2   1 <1>  -0.5700 
  2 C       -2.1440     1.7340    -0.6680 C.2   1 <1>   0.6590 
  3 O       -3.1910     1.0550    -1.0950 O.3   1 <1>  -0.4300 
  4 C       -2.1880     1.9210     0.8220 C.3   1 <1>  -0.0990 
  5 C       -4.0360     0.6500    -0.0510 C.3   1 <1>   0.2800 
  6 C       -3.6570     1.5940     1.1110 C.3   1 <1>  -0.0190 
  7 C       -3.6750    -0.8070     0.2680 C.3   1 <1>  -0.2400 
  8 C       -5.4860     0.7200    -0.5470 C.3   1 <1>  -0.2400 
  9 C       -4.5040     2.8630     1.1600 C.2   1 <1>   0.5690 
 10 O       -5.1900     3.0240     2.1370 O.2   1 <1>  -0.5700 
 11 N       -4.4360     3.7590     0.1230 N.am  1 <1>  -0.5470 
 12 C       -5.0600     5.0010    -0.0880 C.ar  1 <1>   0.1170 
 13 C       -4.5770     5.8080    -1.1120 C.ar  1 <1>  -0.1500 
 14 C       -6.1400     5.4610     0.6600 C.ar  1 <1>  -0.1500 
 15 C       -5.1510     7.0380    -1.3790 C.ar  1 <1>  -0.1500 
 16 C       -6.7180     6.6910     0.3980 C.ar  1 <1>  -0.1500 
 17 C       -6.2230     7.4900    -0.6280 C.ar  1 <1>   0.0820 
 18 O       -6.7280     8.7090    -0.9530 O.3   1 <1>  -0.3630 
 19 C       -7.8090     9.2600    -0.2330 C.3   1 <1>   0.0400 
 20 H       -1.9090     2.9190     1.1070 H     1 <1>   0.0800 
 21 H       -1.5300     1.2080     1.2840 H     1 <1>   0.0800 
 22 H       -3.7580     1.0940     2.0580 H     1 <1>   0.0800 
 23 H       -2.6490    -0.9030     0.5750 H     1 <1>   0.0800 
 24 H       -3.8340    -1.4280    -0.5960 H     1 <1>   0.0800 
 25 H       -4.3000    -1.1750     1.0630 H     1 <1>   0.0800 
 26 H       -5.7240     1.6850    -0.9550 H     1 <1>   0.0800 
 27 H       -6.1630     0.5170     0.2640 H     1 <1>   0.0800 
 28 H       -5.6530    -0.0150    -1.3140 H     1 <1>   0.0800 
 29 H       -3.8370     3.4800    -0.6540 H     1 <1>   0.3700 
 30 H       -3.7450     5.4790    -1.7070 H     1 <1>   0.1500 
 31 H       -6.5450     4.8620     1.4530 H     1 <1>   0.1500 
 32 H       -4.7720     7.6570    -2.1710 H     1 <1>   0.1500 
 33 H       -7.5470     7.0060     1.0020 H     1 <1>   0.1500 
 34 H       -8.0340    10.2230    -0.6550 H     1 <1>   0.0800 
 35 H       -7.5210     9.3700     0.7970 H     1 <1>   0.0800 
 36 H       -8.6600     8.6100    -0.3300 H     1 <1>   0.0800 
@<TRIPOS>BOND
  1   1   2  2   
  2   2   3  1   
  3   2   4  1   
  4   3   5  1   
  5   4   6  1   
  6   4  20  1   
  7   4  21  1   
  8   5   6  1   
  9   5   7  1   
 10   5   8  1   
 11   6   9  1   
 12   6  22  1   
 13   7  23  1   
 14   7  24  1   
 15   7  25  1   
 16   8  26  1   
 17   8  27  1   
 18   8  28  1   
 19   9  10  2   
 20   9  11  am  
 21  11  12  1   
 22  11  29  1   
 23  12  13  ar  
 24  12  14  ar  
 25  13  15  ar  
 26  13  30  1   
 27  14  16  ar  
 28  14  31  1   
 29  15  17  ar  
 30  15  32  1   
 31  16  17  ar  
 32  16  33  1   
 33  17  18  1   
 34  18  19  1   
 35  19  34  1   
 36  19  35  1   
 37  19  36  1   
@<TRIPOS>SUBSTRUCTURE
  1 ****  11 GROUP 4 **** **** 0

# MOE 2024.06 (io_trps.svl 2023.06)
