@<TRIPOS>MOLECULE
Structure2251
32 33 1 0 0 
SMALL
USER_CHARGES


@<TRIPOS>ATOM
  1 O       -0.0310    -0.6460    -1.0990 O.3   1 <1>  -0.3630 
  2 C       -0.8000    -1.4870    -0.3650 C.ar  1 <1>   0.0830 
  3 C        1.3710    -0.6110    -0.9440 C.3   1 <1>   0.0400 
  4 C       -2.1650    -1.4400    -0.5960 C.ar  1 <1>  -0.1500 
  5 C       -0.2960    -2.3710     0.5840 C.ar  1 <1>  -0.1500 
  6 C       -3.0390    -2.2600     0.1020 C.ar  1 <1>  -0.1430 
  7 C       -1.1600    -3.1920     1.2850 C.ar  1 <1>  -0.1500 
  8 C       -2.5230    -3.1380     1.0460 C.ar  1 <1>  -0.1500 
  9 C       -4.5340    -2.1760    -0.1840 C.3   1 <1>   0.0630 
 10 C       -5.3140    -1.7370     1.0640 C.3   1 <1>  -0.1600 
 11 C       -5.0730    -3.5110    -0.7180 C.3   1 <1>  -0.1600 
 12 C       -6.8170    -1.6980     0.7940 C.3   1 <1>   0.3430 
 13 C       -6.5790    -3.4440    -0.9600 C.3   1 <1>   0.3430 
 14 N       -7.2680    -3.0270     0.2940 N.4   1 <1>  -0.9060 
 15 H        1.7630     0.1240    -1.6230 H     1 <1>   0.0800 
 16 H        1.7720    -1.5800    -1.1820 H     1 <1>   0.0800 
 17 H        1.6030    -0.3340     0.0690 H     1 <1>   0.0800 
 18 H       -2.5220    -0.7470    -1.3350 H     1 <1>   0.1500 
 19 H        0.7560    -2.4330     0.7870 H     1 <1>   0.1500 
 20 H       -0.7690    -3.8760     2.0180 H     1 <1>   0.1500 
 21 H       -3.1680    -3.7890     1.6070 H     1 <1>   0.1500 
 22 H       -4.6890    -1.4310    -0.9470 H     1 <1>   0.0800 
 23 H       -4.9820    -0.7550     1.3570 H     1 <1>   0.0800 
 24 H       -5.1160    -2.3990     1.8880 H     1 <1>   0.0800 
 25 H       -4.8560    -4.3100    -0.0300 H     1 <1>   0.0800 
 26 H       -4.5760    -3.7440    -1.6440 H     1 <1>   0.0800 
 27 H       -7.0290    -0.9390     0.0570 H     1 <1>   0.0800 
 28 H       -7.3410    -1.4440     1.7020 H     1 <1>   0.0800 
 29 H       -6.9380    -4.4110    -1.2770 H     1 <1>   0.0800 
 30 H       -6.7850    -2.7330    -1.7440 H     1 <1>   0.0800 
 31 H       -8.2850    -3.0120     0.1410 H     1 <1>   0.4500 
 32 H       -7.0870    -3.7310     1.0200 H     1 <1>   0.4500 
@<TRIPOS>BOND
  1   1   2  1   
  2   1   3  1   
  3   2   4  ar  
  4   2   5  ar  
  5   3  15  1   
  6   3  16  1   
  7   3  17  1   
  8   4   6  ar  
  9   4  18  1   
 10   5   7  ar  
 11   5  19  1   
 12   6   8  ar  
 13   6   9  1   
 14   7   8  ar  
 15   7  20  1   
 16   8  21  1   
 17   9  10  1   
 18   9  11  1   
 19   9  22  1   
 20  10  12  1   
 21  10  23  1   
 22  10  24  1   
 23  11  13  1   
 24  11  25  1   
 25  11  26  1   
 26  12  14  1   
 27  12  27  1   
 28  12  28  1   
 29  13  14  1   
 30  13  29  1   
 31  13  30  1   
 32  14  31  1   
 33  14  32  1   
@<TRIPOS>SUBSTRUCTURE
  1 ****   6 GROUP 4 **** **** 0

# MOE 2024.06 (io_trps.svl 2023.06)
