@<TRIPOS>MOLECULE
NONAME
37 38 1 0 0 
SMALL
USER_CHARGES


@<TRIPOS>ATOM
  1 O      -13.2960     4.2430    -0.3820 O.3   1 <1>  -0.5600 
  2 C      -12.5310     5.3080     0.1010 C.3   1 <1>   0.1200 
  3 C      -12.8330     2.9940     0.0350 C.3   1 <1>   0.1200 
  4 C      -11.0710     5.1700    -0.3680 C.3   1 <1>   0.1100 
  5 C      -11.3850     2.7780    -0.4420 C.3   1 <1>   0.1100 
  6 N      -10.4910     3.8650     0.0310 N.3   1 <1>  -0.8100 
  7 C       -9.1170     3.7260    -0.4600 C.3   1 <1>   0.1100 
  8 C       -8.3750     2.6680     0.3670 C.3   1 <1>   0.3430 
  9 N       -6.9330     2.5980    -0.0040 N.4   1 <1>  -0.9060 
 10 C       -6.1740     1.6120     0.7900 C.3   1 <1>   0.4860 
 11 C       -4.7510     1.6760     0.2880 C.ar  1 <1>  -0.1440 
 12 C       -3.8480     2.5590     0.8620 C.ar  1 <1>  -0.1500 
 13 C       -4.3410     0.8600    -0.7570 C.ar  1 <1>  -0.1500 
 14 C       -2.5500     2.6320     0.3880 C.ar  1 <1>  -0.1500 
 15 C       -3.0420     0.9350    -1.2280 C.ar  1 <1>  -0.1500 
 16 C       -2.1470     1.8210    -0.6570 C.ar  1 <1>  -0.1500 
 17 H      -12.5870     5.3150     1.1760 H     1 <1>   0.0800 
 18 H      -12.9610     6.2180    -0.2760 H     1 <1>   0.0800 
 19 H      -13.4830     2.2480    -0.3860 H     1 <1>   0.0800 
 20 H      -12.8950     2.9430     1.1090 H     1 <1>   0.0800 
 21 H      -10.4950     5.9700     0.0630 H     1 <1>   0.0800 
 22 H      -11.0440     5.2760    -1.4400 H     1 <1>   0.0800 
 23 H      -11.3860     2.7400    -1.5180 H     1 <1>   0.0800 
 24 H      -11.0420     1.8290    -0.0690 H     1 <1>   0.0800 
 25 H       -8.6110     4.6700    -0.3390 H     1 <1>   0.0800 
 26 H       -9.1260     3.4670    -1.5050 H     1 <1>   0.0800 
 27 H       -8.8410     1.7100     0.2080 H     1 <1>   0.0800 
 28 H       -8.4700     2.9260     1.4090 H     1 <1>   0.0800 
 29 H       -6.4780     3.5100     0.1240 H     1 <1>   0.4500 
 30 H       -6.8120     2.3600    -0.9960 H     1 <1>   0.4500 
 31 H       -6.5710     0.6190     0.6480 H     1 <1>   0.0800 
 32 H       -6.2080     1.8580     1.8390 H     1 <1>   0.0800 
 33 H       -4.1320     3.1970     1.6830 H     1 <1>   0.1500 
 34 H       -5.0150     0.1550    -1.2150 H     1 <1>   0.1500 
 35 H       -1.8470     3.3170     0.8330 H     1 <1>   0.1500 
 36 H       -2.7210     0.3010    -2.0390 H     1 <1>   0.1500 
 37 H       -1.1360     1.8770    -1.0240 H     1 <1>   0.1500 
@<TRIPOS>BOND
  1   1   2  1   
  2   1   3  1   
  3   2   4  1   
  4   2  17  1   
  5   2  18  1   
  6   3   5  1   
  7   3  19  1   
  8   3  20  1   
  9   4   6  1   
 10   4  21  1   
 11   4  22  1   
 12   5   6  1   
 13   5  23  1   
 14   5  24  1   
 15   6   7  1   
 16   7   8  1   
 17   7  25  1   
 18   7  26  1   
 19   8   9  1   
 20   8  27  1   
 21   8  28  1   
 22   9  10  1   
 23   9  29  1   
 24   9  30  1   
 25  10  11  1   
 26  10  31  1   
 27  10  32  1   
 28  11  12  ar  
 29  11  13  ar  
 30  12  14  ar  
 31  12  33  1   
 32  13  15  ar  
 33  13  34  1   
 34  14  16  ar  
 35  14  35  1   
 36  15  16  ar  
 37  15  36  1   
 38  16  37  1   
@<TRIPOS>SUBSTRUCTURE
  1 ****   9 GROUP 4 **** **** 0

# MOE 2024.06 (io_trps.svl 2023.06)
