@<TRIPOS>MOLECULE
NONAME
33 34 1 0 0 
SMALL
USER_CHARGES


@<TRIPOS>ATOM
  1 O       -2.0220    -0.7340     1.9580 O.2   1 <1>  -0.5700 
  2 C       -2.6560    -0.1460     1.1160 C.2   1 <1>   0.6900 
  3 N       -2.7640    -0.5520    -0.1630 N.am  1 <1>  -0.4900 
  4 N       -3.4060     0.9450     1.3470 N.am  1 <1>  -0.7300 
  5 C       -3.6710     0.2000    -0.8270 C.2   1 <1>   0.5690 
  6 C       -4.1950     1.2990     0.1330 C.3   1 <1>   0.5050 
  7 O       -3.9920     0.0000    -1.9740 O.2   1 <1>  -0.5700 
  8 C       -5.6830     1.0170     0.5010 C.ar  1 <1>  -0.1430 
  9 C       -3.7390     2.7430    -0.3510 C.3   1 <1>   0.0000 
 10 C       -6.0220    -0.2680     0.9310 C.ar  1 <1>  -0.1500 
 11 C       -6.7190     1.9490     0.4410 C.ar  1 <1>  -0.1500 
 12 C       -2.2170     2.7880    -0.6550 C.3   1 <1>  -0.2400 
 13 C       -3.9590     3.8320     0.7300 C.3   1 <1>  -0.2400 
 14 C       -4.4170     3.1820    -1.6720 C.3   1 <1>  -0.2400 
 15 C       -7.3170    -0.6050     1.2810 C.ar  1 <1>  -0.1500 
 16 C       -8.0170     1.6170     0.7910 C.ar  1 <1>  -0.1500 
 17 C       -8.3200     0.3390     1.2120 C.ar  1 <1>  -0.1500 
 18 H       -2.3010    -1.3750    -0.5300 H     1 <1>   0.3700 
 19 H       -3.7900     1.1340     2.2700 H     1 <1>   0.3700 
 20 H       -5.2800    -1.0430     1.0040 H     1 <1>   0.1500 
 21 H       -6.5650     2.9580     0.1250 H     1 <1>   0.1500 
 22 H       -1.9510     2.1160    -1.4520 H     1 <1>   0.0800 
 23 H       -1.6340     2.5330     0.2120 H     1 <1>   0.0800 
 24 H       -1.9220     3.7770    -0.9610 H     1 <1>   0.0800 
 25 H       -3.3550     3.6290     1.5980 H     1 <1>   0.0800 
 26 H       -4.9740     3.9050     1.0590 H     1 <1>   0.0800 
 27 H       -3.6700     4.7990     0.3560 H     1 <1>   0.0800 
 28 H       -4.1230     2.5380    -2.4820 H     1 <1>   0.0800 
 29 H       -4.1210     4.1820    -1.9340 H     1 <1>   0.0800 
 30 H       -5.4860     3.1630    -1.6290 H     1 <1>   0.0800 
 31 H       -7.5440    -1.6060     1.6080 H     1 <1>   0.1500 
 32 H       -8.7950     2.3590     0.7330 H     1 <1>   0.1500 
 33 H       -9.3300     0.0810     1.4830 H     1 <1>   0.1500 
@<TRIPOS>BOND
  1   1   2  2   
  2   2   3  am  
  3   2   4  am  
  4   3   5  am  
  5   3  18  1   
  6   4   6  1   
  7   4  19  1   
  8   5   6  1   
  9   5   7  2   
 10   6   8  1   
 11   6   9  1   
 12   8  10  ar  
 13   8  11  ar  
 14   9  12  1   
 15   9  13  1   
 16   9  14  1   
 17  10  15  ar  
 18  10  20  1   
 19  11  16  ar  
 20  11  21  1   
 21  12  22  1   
 22  12  23  1   
 23  12  24  1   
 24  13  25  1   
 25  13  26  1   
 26  13  27  1   
 27  14  28  1   
 28  14  29  1   
 29  14  30  1   
 30  15  17  ar  
 31  15  31  1   
 32  16  17  ar  
 33  16  32  1   
 34  17  33  1   
@<TRIPOS>SUBSTRUCTURE
  1 ****   6 GROUP 4 **** **** 0

# MOE 2024.06 (io_trps.svl 2023.06)
