@<TRIPOS>MOLECULE
NONAME
31 32 1 0 0 
SMALL
USER_CHARGES


@<TRIPOS>ATOM
  1 O        0.6880     0.0440     1.6440 O.2   1 <1>  -0.5700 
  2 C        1.3700    -0.7610     1.0500 C.2   1 <1>   0.5690 
  3 N        1.7760    -1.9480     1.5090 N.am  1 <1>  -0.4100 
  4 C        1.9240    -0.5370    -0.3310 C.3   1 <1>  -0.0990 
  5 N        2.6200    -2.6600     0.5830 N.pl3 1 <1>  -0.4890 
  6 C        2.8760    -1.7320    -0.5480 C.3   1 <1>   0.2090 
  7 C        2.4940    -4.0350     0.3600 C.ar  1 <1>   0.1000 
  8 C        1.3000    -4.6210    -0.0850 C.ar  1 <1>  -0.1440 
  9 C        3.6060    -4.8570     0.5760 C.ar  1 <1>  -0.1430 
 10 C        1.2400    -5.9870    -0.3010 C.ar  1 <1>  -0.1500 
 11 C        0.0400    -3.8030    -0.3470 C.3   1 <1>  -0.0970 
 12 C        3.5230    -6.2200     0.3500 C.ar  1 <1>  -0.1500 
 13 C        4.9250    -4.2730     1.0670 C.3   1 <1>  -0.0970 
 14 C        2.3440    -6.7940    -0.0870 C.ar  1 <1>  -0.1430 
 15 C        2.2610    -8.2900    -0.3320 C.3   1 <1>  -0.0970 
 16 H        1.6520    -2.2640     2.4750 H     1 <1>   0.3700 
 17 H        2.4510     0.3960    -0.3830 H     1 <1>   0.0800 
 18 H        1.1260    -0.5470    -1.0490 H     1 <1>   0.0800 
 19 H        3.9020    -1.4130    -0.5080 H     1 <1>   0.0800 
 20 H        2.6860    -2.2240    -1.4860 H     1 <1>   0.0800 
 21 H        0.3250    -6.4370    -0.6420 H     1 <1>   0.1500 
 22 H        0.2580    -2.9870    -1.0100 H     1 <1>   0.0800 
 23 H       -0.3410    -3.4120     0.5780 H     1 <1>   0.0800 
 24 H       -0.7270    -4.4040    -0.8000 H     1 <1>   0.0800 
 25 H        4.3820    -6.8440     0.5160 H     1 <1>   0.1500 
 26 H        4.7630    -3.7210     1.9760 H     1 <1>   0.0800 
 27 H        5.3280    -3.6080     0.3250 H     1 <1>   0.0800 
 28 H        5.6450    -5.0450     1.2630 H     1 <1>   0.0800 
 29 H        1.2680    -8.6480    -0.1320 H     1 <1>   0.0800 
 30 H        2.9460    -8.8150     0.3090 H     1 <1>   0.0800 
 31 H        2.5090    -8.5040    -1.3560 H     1 <1>   0.0800 
@<TRIPOS>BOND
  1   1   2  2   
  2   2   3  am  
  3   2   4  1   
  4   3   5  1   
  5   3  16  1   
  6   4   6  1   
  7   4  17  1   
  8   4  18  1   
  9   5   6  1   
 10   5   7  1   
 11   6  19  1   
 12   6  20  1   
 13   7   8  ar  
 14   7   9  ar  
 15   8  10  ar  
 16   8  11  1   
 17   9  12  ar  
 18   9  13  1   
 19  10  14  ar  
 20  10  21  1   
 21  11  22  1   
 22  11  23  1   
 23  11  24  1   
 24  12  14  ar  
 25  12  25  1   
 26  13  26  1   
 27  13  27  1   
 28  13  28  1   
 29  14  15  1   
 30  15  29  1   
 31  15  30  1   
 32  15  31  1   
@<TRIPOS>SUBSTRUCTURE
  1 ****   7 GROUP 4 **** **** 0

# MOE 2024.06 (io_trps.svl 2023.06)
