@<TRIPOS>MOLECULE
NONAME
47 49 1 0 0 
SMALL
USER_CHARGES


@<TRIPOS>ATOM
  1 F       -1.9410     0.2570    -0.6340 F     1 <1>  -0.3400 
  2 C       -2.2680     0.7340     0.5610 C.3   1 <1>   1.3000 
  3 F       -1.3140     1.5720     0.9400 F     1 <1>  -0.3400 
  4 F       -2.2880    -0.2760     1.4230 F     1 <1>  -0.3400 
  5 O       -3.5150     1.4020     0.5250 O.3   1 <1>  -0.3630 
  6 C       -4.5970     0.6840     0.1600 C.ar  1 <1>   0.0830 
  7 C       -5.3500     0.0320     1.1230 C.ar  1 <1>  -0.1500 
  8 C       -4.9630     0.6140    -1.1740 C.ar  1 <1>  -0.1500 
  9 C       -6.4640    -0.6980     0.7500 C.ar  1 <1>  -0.1500 
 10 C       -6.0770    -0.1160    -1.5460 C.ar  1 <1>  -0.1500 
 11 C       -6.8370    -0.7730    -0.5860 C.ar  1 <1>  -0.1430 
 12 C       -8.0680    -1.5600    -0.9970 C.3   1 <1>   0.4870 
 13 N       -9.2800    -0.8130    -0.5720 N.4   1 <1>  -0.9590 
 14 C      -10.5220    -1.6050    -0.7760 C.3   1 <1>   0.4860 
 15 C       -9.4010     0.5240    -1.2280 C.3   1 <1>   0.3430 
 16 C      -11.7240    -0.8240    -0.2750 C.ar  1 <1>  -0.1430 
 17 C      -10.4640     1.3640    -0.5140 C.3   1 <1>  -0.0170 
 18 C      -11.7100     0.5600    -0.1630 C.ar  1 <1>  -0.1430 
 19 C      -12.8710    -1.5180     0.0700 C.ar  1 <1>  -0.1500 
 20 C      -12.8380     1.2240     0.2910 C.ar  1 <1>  -0.1500 
 21 C      -14.0060    -0.8690     0.5250 C.ar  1 <1>   0.0830 
 22 C      -13.9970     0.5320     0.6400 C.ar  1 <1>   0.0830 
 23 O      -15.0370    -1.7160     0.8160 O.3   1 <1>  -0.3630 
 24 O      -15.1010     1.1970     1.0890 O.3   1 <1>  -0.3620 
 25 C      -16.3110    -1.2850     1.2370 C.3   1 <1>   0.0400 
 26 C      -15.1570     2.6020     1.2110 C.3   1 <1>   0.0400 
 27 H       -5.0600     0.0960     2.1590 H     1 <1>   0.1500 
 28 H       -4.3740     1.1280    -1.9150 H     1 <1>   0.1500 
 29 H       -7.0270    -1.2060     1.5150 H     1 <1>   0.1500 
 30 H       -6.3370    -0.1640    -2.5910 H     1 <1>   0.1500 
 31 H       -8.0410    -2.5280    -0.5220 H     1 <1>   0.0800 
 32 H       -8.0720    -1.7040    -2.0650 H     1 <1>   0.0800 
 33 H       -9.2030    -0.6390     0.4380 H     1 <1>   0.4500 
 34 H      -10.4590    -2.5380    -0.2390 H     1 <1>   0.0800 
 35 H      -10.6560    -1.8230    -1.8230 H     1 <1>   0.0800 
 36 H       -9.6830     0.3950    -2.2600 H     1 <1>   0.0800 
 37 H       -8.4600     1.0490    -1.1950 H     1 <1>   0.0800 
 38 H      -10.7320     2.1930    -1.1440 H     1 <1>   0.0800 
 39 H      -10.0430     1.7680     0.3900 H     1 <1>   0.0800 
 40 H      -12.9130    -2.5900    -0.0080 H     1 <1>   0.1500 
 41 H      -12.7980     2.2940     0.3700 H     1 <1>   0.1500 
 42 H      -16.9340    -2.1510     1.3610 H     1 <1>   0.0800 
 43 H      -16.7280    -0.6380     0.4850 H     1 <1>   0.0800 
 44 H      -16.2120    -0.7690     2.1760 H     1 <1>   0.0800 
 45 H      -16.1340     2.8650     1.5760 H     1 <1>   0.0800 
 46 H      -14.9990     3.0450     0.2440 H     1 <1>   0.0800 
 47 H      -14.4090     2.9220     1.9140 H     1 <1>   0.0800 
@<TRIPOS>BOND
  1   1   2  1   
  2   2   3  1   
  3   2   4  1   
  4   2   5  1   
  5   5   6  1   
  6   6   7  ar  
  7   6   8  ar  
  8   7   9  ar  
  9   7  27  1   
 10   8  10  ar  
 11   8  28  1   
 12   9  11  ar  
 13   9  29  1   
 14  10  11  ar  
 15  10  30  1   
 16  11  12  1   
 17  12  13  1   
 18  12  31  1   
 19  12  32  1   
 20  13  14  1   
 21  13  15  1   
 22  13  33  1   
 23  14  16  1   
 24  14  34  1   
 25  14  35  1   
 26  15  17  1   
 27  15  36  1   
 28  15  37  1   
 29  16  18  ar  
 30  16  19  ar  
 31  17  18  1   
 32  17  38  1   
 33  17  39  1   
 34  18  20  ar  
 35  19  21  ar  
 36  19  40  1   
 37  20  22  ar  
 38  20  41  1   
 39  21  22  ar  
 40  21  23  1   
 41  22  24  1   
 42  23  25  1   
 43  24  26  1   
 44  25  42  1   
 45  25  43  1   
 46  25  44  1   
 47  26  45  1   
 48  26  46  1   
 49  26  47  1   
@<TRIPOS>SUBSTRUCTURE
  1 ****  13 GROUP 4 **** **** 0

# MOE 2024.06 (io_trps.svl 2023.06)
