@<TRIPOS>MOLECULE
NONAME
45 45 1 0 0 
SMALL
USER_CHARGES


@<TRIPOS>ATOM
  1 S        0.1310    -0.9070     0.9410 S.o2  1 <1>   1.3330 
  2 O       -0.2220    -2.2670     0.6250 O.2   1 <1>  -0.6500 
  3 O        1.1030    -0.5930     1.9570 O.2   1 <1>  -0.6500 
  4 N       -1.2850    -0.0910     1.4640 N.am  1 <1>  -0.7570 
  5 C        0.5500    -0.0200    -0.5440 C.3   1 <1>  -0.1350 
  6 C       -2.5880    -0.1720     1.0030 C.ar  1 <1>   0.1990 
  7 C       -2.9670    -0.9400    -0.0950 C.ar  1 <1>  -0.1500 
  8 C       -3.5770     0.5550     1.6550 C.ar  1 <1>  -0.1500 
  9 C       -4.2810    -0.9750    -0.5180 C.ar  1 <1>  -0.1500 
 10 C       -4.8920     0.5180     1.2310 C.ar  1 <1>  -0.1500 
 11 C       -5.2830    -0.2540     0.1340 C.ar  1 <1>   0.0860 
 12 C       -6.6590    -0.3140    -0.3150 C.2   1 <1>   0.5440 
 13 O       -6.9080    -0.4450    -1.4960 O.2   1 <1>  -0.5700 
 14 N       -7.6770    -0.2350     0.6000 N.am  1 <1>  -0.7300 
 15 C       -9.1540    -0.2970     0.3950 C.3   1 <1>   0.2200 
 16 C       -9.5800    -1.7930     0.2970 C.3   1 <1>  -0.0800 
 17 C       -9.6410     0.6940    -0.7080 C.3   1 <1>  -0.0800 
 18 C       -9.5950    -2.3840    -1.1230 C.3   1 <1>  -0.2400 
 19 C      -10.9230    -2.0750     0.9940 C.3   1 <1>  -0.2400 
 20 C       -9.0900     2.1160    -0.4830 C.3   1 <1>  -0.2400 
 21 C      -11.1740     0.8030    -0.7850 C.3   1 <1>  -0.2400 
 22 H       -1.1020     0.3660     2.3530 H     1 <1>   0.4200 
 23 H        1.4560    -0.4120    -0.9610 H     1 <1>   0.0800 
 24 H        0.6930     1.0200    -0.3260 H     1 <1>   0.0800 
 25 H       -0.2330    -0.1170    -1.2690 H     1 <1>   0.0800 
 26 H       -2.2400    -1.5240    -0.6270 H     1 <1>   0.1500 
 27 H       -3.3110     1.1600     2.5030 H     1 <1>   0.1500 
 28 H       -4.5520    -1.5740    -1.3720 H     1 <1>   0.1500 
 29 H       -5.6290     1.1040     1.7510 H     1 <1>   0.1500 
 30 H       -7.4130    -0.2710     1.5820 H     1 <1>   0.3700 
 31 H       -9.5770     0.0740     1.3120 H     1 <1>   0.0800 
 32 H       -8.8520    -2.3590     0.8540 H     1 <1>   0.0800 
 33 H       -9.2920     0.3500    -1.6660 H     1 <1>   0.0800 
 34 H      -10.3300    -1.9060    -1.7430 H     1 <1>   0.0800 
 35 H       -9.8170    -3.4350    -1.0860 H     1 <1>   0.0800 
 36 H       -8.6330    -2.2690    -1.5870 H     1 <1>   0.0800 
 37 H      -11.7450    -1.6190     0.4770 H     1 <1>   0.0800 
 38 H      -10.9070    -1.7080     2.0050 H     1 <1>   0.0800 
 39 H      -11.1010    -3.1350     1.0290 H     1 <1>   0.0800 
 40 H       -9.3790     2.4880     0.4830 H     1 <1>   0.0800 
 41 H       -9.4630     2.7870    -1.2370 H     1 <1>   0.0800 
 42 H       -8.0180     2.1260    -0.5510 H     1 <1>   0.0800 
 43 H      -11.5880     1.0440     0.1780 H     1 <1>   0.0800 
 44 H      -11.6070    -0.1130    -1.1350 H     1 <1>   0.0800 
 45 H      -11.4590     1.5720    -1.4810 H     1 <1>   0.0800 
@<TRIPOS>BOND
  1   1   2  2   
  2   1   3  2   
  3   1   4  am  
  4   1   5  1   
  5   4   6  1   
  6   4  22  1   
  7   5  23  1   
  8   5  24  1   
  9   5  25  1   
 10   6   7  ar  
 11   6   8  ar  
 12   7   9  ar  
 13   7  26  1   
 14   8  10  ar  
 15   8  27  1   
 16   9  11  ar  
 17   9  28  1   
 18  10  11  ar  
 19  10  29  1   
 20  11  12  1   
 21  12  13  2   
 22  12  14  am  
 23  14  15  1   
 24  14  30  1   
 25  15  16  1   
 26  15  17  1   
 27  15  31  1   
 28  16  18  1   
 29  16  19  1   
 30  16  32  1   
 31  17  20  1   
 32  17  21  1   
 33  17  33  1   
 34  18  34  1   
 35  18  35  1   
 36  18  36  1   
 37  19  37  1   
 38  19  38  1   
 39  19  39  1   
 40  20  40  1   
 41  20  41  1   
 42  20  42  1   
 43  21  43  1   
 44  21  44  1   
 45  21  45  1   
@<TRIPOS>SUBSTRUCTURE
  1 ****  11 GROUP 4 **** **** 0

# MOE 2024.06 (io_trps.svl 2023.06)
