@<TRIPOS>MOLECULE
NONAME
54 57 1 0 0 
SMALL
USER_CHARGES


@<TRIPOS>ATOM
  1 O        0.8730     0.6440     1.6930 O.co2 1 <1>  -0.9000 
  2 C        0.8950    -0.3810     0.9990 C.2   1 <1>   0.9060 
  3 O        0.0150    -0.6200     0.1720 O.co2 1 <1>  -0.9000 
  4 C        2.1100    -1.2880     1.1400 C.3   1 <1>  -0.1860 
  5 C        3.4870    -0.8420     0.2550 C.3   1 <1>  -0.0190 
  6 C        1.7650    -2.8500     0.7690 C.3   1 <1>  -0.0800 
  7 C        3.5890     0.5440    -0.4170 C.2   1 <1>   0.5690 
  8 C        3.8120    -2.0830    -0.7730 C.3   1 <1>  -0.0800 
  9 C        2.8030    -2.4710     0.0170 C.3   1 <1>  -0.1600 
 10 C        2.1360    -4.0870    -0.2330 C.3   1 <1>  -0.1600 
 11 O        4.4240     0.6940    -1.2800 O.2   1 <1>  -0.5700 
 12 N        2.8100     1.5800     0.0100 N.am  1 <1>  -0.5470 
 13 C        3.4900    -3.6490    -1.1070 C.3   1 <1>  -0.1600 
 14 C        2.6390     2.8860    -0.4510 C.ar  1 <1>   0.1170 
 15 C        1.4220     3.5010    -0.1990 C.ar  1 <1>  -0.1500 
 16 C        3.6190     3.6010    -1.1290 C.ar  1 <1>  -0.1500 
 17 C        1.1850     4.8010    -0.6010 C.ar  1 <1>  -0.1500 
 18 C        3.3900     4.9040    -1.5340 C.ar  1 <1>  -0.1500 
 19 C        2.1740     5.5160    -1.2620 C.ar  1 <1>  -0.1430 
 20 C        1.9310     6.9540    -1.6660 C.3   1 <1>   0.4860 
 21 N        1.9340     7.7870    -0.4330 N.4   1 <1>  -0.9590 
 22 C        1.4590     9.1730    -0.6990 C.3   1 <1>   0.3430 
 23 C        3.2650     7.7590     0.2460 C.3   1 <1>   0.3430 
 24 C        1.3390     9.9370     0.6200 C.3   1 <1>  -0.1600 
 25 C        3.1780     8.5040     1.5790 C.3   1 <1>  -0.1600 
 26 C        2.6610     9.9370     1.4000 C.3   1 <1>  -0.1600 
 27 H        2.3640    -1.2320     2.1850 H     1 <1>   0.0800 
 28 H        4.2980    -0.8100     0.9680 H     1 <1>   0.0800 
 29 H        1.8980    -3.3200     1.7330 H     1 <1>   0.0800 
 30 H        3.6190    -1.6330    -1.7390 H     1 <1>   0.0800 
 31 H        2.0470    -2.0730    -0.7930 H     1 <1>   0.0800 
 32 H        3.5470    -2.8630     0.8370 H     1 <1>   0.0800 
 33 H        1.3070    -4.2690    -0.9010 H     1 <1>   0.0800 
 34 H        2.3160    -4.9950     0.3190 H     1 <1>   0.0800 
 35 H        2.0910     1.3100     0.7080 H     1 <1>   0.3700 
 36 H        4.3300    -4.2670    -0.8280 H     1 <1>   0.0800 
 37 H        3.3180    -3.7880    -2.1620 H     1 <1>   0.0800 
 38 H        0.6580     2.9380     0.3160 H     1 <1>   0.1500 
 39 H        4.5640     3.1310    -1.3370 H     1 <1>   0.1500 
 40 H        0.2210     5.2320    -0.3900 H     1 <1>   0.1500 
 41 H        4.1730     5.4240    -2.0590 H     1 <1>   0.1500 
 42 H        0.9770     7.0250    -2.1620 H     1 <1>   0.0800 
 43 H        2.7000     7.2840    -2.3460 H     1 <1>   0.0800 
 44 H        1.2780     7.3360     0.2160 H     1 <1>   0.4500 
 45 H        0.4970     9.1490    -1.1870 H     1 <1>   0.0800 
 46 H        2.1570     9.6810    -1.3450 H     1 <1>   0.0800 
 47 H        4.0070     8.2260    -0.3820 H     1 <1>   0.0800 
 48 H        3.5680     6.7390     0.4290 H     1 <1>   0.0800 
 49 H        0.5600     9.4980     1.2190 H     1 <1>   0.0800 
 50 H        1.0500    10.9530     0.4130 H     1 <1>   0.0800 
 51 H        4.1550     8.5300     2.0300 H     1 <1>   0.0800 
 52 H        2.5330     7.9600     2.2470 H     1 <1>   0.0800 
 53 H        2.5170    10.3970     2.3640 H     1 <1>   0.0800 
 54 H        3.3940    10.5200     0.8670 H     1 <1>   0.0800 
@<TRIPOS>BOND
  1   1   2  ar  
  2   2   3  ar  
  3   2   4  1   
  4   4   5  1   
  5   4   6  1   
  6   4  27  1   
  7   5   7  1   
  8   5   8  1   
  9   5  28  1   
 10   6   9  1   
 11   6  10  1   
 12   6  29  1   
 13   7  11  2   
 14   7  12  am  
 15   8   9  1   
 16   8  13  1   
 17   8  30  1   
 18   9  31  1   
 19   9  32  1   
 20  10  13  1   
 21  10  33  1   
 22  10  34  1   
 23  12  14  1   
 24  12  35  1   
 25  13  36  1   
 26  13  37  1   
 27  14  15  ar  
 28  14  16  ar  
 29  15  17  ar  
 30  15  38  1   
 31  16  18  ar  
 32  16  39  1   
 33  17  19  ar  
 34  17  40  1   
 35  18  19  ar  
 36  18  41  1   
 37  19  20  1   
 38  20  21  1   
 39  20  42  1   
 40  20  43  1   
 41  21  22  1   
 42  21  23  1   
 43  21  44  1   
 44  22  24  1   
 45  22  45  1   
 46  22  46  1   
 47  23  25  1   
 48  23  47  1   
 49  23  48  1   
 50  24  26  1   
 51  24  49  1   
 52  24  50  1   
 53  25  26  1   
 54  25  51  1   
 55  25  52  1   
 56  26  53  1   
 57  26  54  1   
@<TRIPOS>SUBSTRUCTURE
  1 ****  14 GROUP 4 **** **** 0

# MOE 2024.06 (io_trps.svl 2023.06)
