@<TRIPOS>MOLECULE
NONAME
34 35 1 0 0 
SMALL
USER_CHARGES


@<TRIPOS>ATOM
  1 O        0.1000     1.2940    -1.5390 O.2   1 <1>  -0.5700 
  2 C        0.1580     1.9290    -0.5130 C.2   1 <1>   0.5690 
  3 N        1.3010     2.0600     0.2290 N.am  1 <1>  -0.5470 
  4 C       -1.1020     2.6380    -0.0070 C.3   1 <1>  -0.0190 
  5 C        2.5870     1.5220     0.0500 C.ar  1 <1>   0.1170 
  6 C       -2.1800     1.5810     0.3310 C.3   1 <1>  -0.1600 
  7 C       -1.5740     3.6930    -1.0390 C.3   1 <1>  -0.1600 
  8 C        3.6590     2.1620     0.6700 C.ar  1 <1>  -0.1500 
  9 C        2.8290     0.3680    -0.7050 C.ar  1 <1>  -0.1500 
 10 C       -3.4520     2.1400     0.9800 C.3   1 <1>  -0.2400 
 11 C       -2.1420     4.9700    -0.4020 C.3   1 <1>  -0.2400 
 12 C        4.9250     1.6360     0.5140 C.ar  1 <1>   0.0830 
 13 C        4.1100    -0.1480    -0.8530 C.ar  1 <1>  -0.1500 
 14 O        6.0780     2.0900     1.0180 O.3   1 <1>  -0.3630 
 15 C        5.1460     0.5130    -0.2270 C.ar  1 <1>   0.0830 
 16 C        7.0990     1.2020     0.5650 C.3   1 <1>   0.4000 
 17 O        6.4500     0.2070    -0.2250 O.3   1 <1>  -0.3630 
 18 H        1.2190     2.6870     1.0260 H     1 <1>   0.3700 
 19 H       -0.8430     3.1480     0.9030 H     1 <1>   0.0800 
 20 H       -1.7480     0.8610     1.0050 H     1 <1>   0.0800 
 21 H       -2.4500     1.0490    -0.5670 H     1 <1>   0.0800 
 22 H       -2.3000     3.2550    -1.7020 H     1 <1>   0.0800 
 23 H       -0.7350     3.9860    -1.6480 H     1 <1>   0.0800 
 24 H        3.5220     3.0490     1.2570 H     1 <1>   0.1500 
 25 H        2.0110    -0.1410    -1.1820 H     1 <1>   0.1500 
 26 H       -3.2090     2.7490     1.8330 H     1 <1>   0.0800 
 27 H       -4.0780     1.3290     1.3080 H     1 <1>   0.0800 
 28 H       -4.0130     2.7240     0.2730 H     1 <1>   0.0800 
 29 H       -3.0030     4.7620     0.2050 H     1 <1>   0.0800 
 30 H       -2.4360     5.6590    -1.1740 H     1 <1>   0.0800 
 31 H       -1.3980     5.4490     0.2100 H     1 <1>   0.0800 
 32 H        4.2980    -1.0320    -1.4340 H     1 <1>   0.1500 
 33 H        7.5750     0.7370     1.4100 H     1 <1>   0.0800 
 34 H        7.8030     1.7410    -0.0430 H     1 <1>   0.0800 
@<TRIPOS>BOND
  1   1   2  2   
  2   2   3  am  
  3   2   4  1   
  4   3   5  1   
  5   3  18  1   
  6   4   6  1   
  7   4   7  1   
  8   4  19  1   
  9   5   8  ar  
 10   5   9  ar  
 11   6  10  1   
 12   6  20  1   
 13   6  21  1   
 14   7  11  1   
 15   7  22  1   
 16   7  23  1   
 17   8  12  ar  
 18   8  24  1   
 19   9  13  ar  
 20   9  25  1   
 21  10  26  1   
 22  10  27  1   
 23  10  28  1   
 24  11  29  1   
 25  11  30  1   
 26  11  31  1   
 27  12  14  1   
 28  12  15  ar  
 29  13  15  ar  
 30  13  32  1   
 31  14  16  1   
 32  15  17  1   
 33  16  17  1   
 34  16  33  1   
 35  16  34  1   
@<TRIPOS>SUBSTRUCTURE
  1 ****   5 GROUP 4 **** **** 0

# MOE 2024.06 (io_trps.svl 2023.06)
