@<TRIPOS>MOLECULE
NONAME
46 49 1 0 0 
SMALL
USER_CHARGES


@<TRIPOS>ATOM
  1 S        0.5300    -0.2860    -0.1370 S.o2  1 <1>   1.4470 
  2 O        1.5280    -0.6990    -1.1030 O.2   1 <1>  -0.6500 
  3 O        0.2690     1.1250     0.0490 O.2   1 <1>  -0.6500 
  4 N        1.0160    -0.9010     1.3700 N.am  1 <1>  -0.8490 
  5 C       -1.0370    -1.1500    -0.4400 C.ar  1 <1>  -0.0090 
  6 C        1.1930    -2.3660     1.3620 C.3   1 <1>   0.1960 
  7 C        2.1070    -0.1300     1.9860 C.3   1 <1>   0.1960 
  8 C       -1.1850    -2.0310    -1.5050 C.ar  1 <1>  -0.1500 
  9 C       -2.1260    -0.9630     0.4020 C.ar  1 <1>  -0.1500 
 10 C        2.2850    -2.8190     2.3330 C.3   1 <1>  -0.1600 
 11 C        3.4770    -0.6900     1.5950 C.3   1 <1>  -0.1600 
 12 C       -2.3750    -2.7040    -1.7200 C.ar  1 <1>  -0.1500 
 13 C       -3.3190    -1.6330     0.1940 C.ar  1 <1>  -0.1500 
 14 C        3.6230    -2.1900     1.9320 C.3   1 <1>   0.2000 
 15 C       -3.4490    -2.5100    -0.8690 C.ar  1 <1>  -0.1430 
 16 O        4.0740    -2.9080     0.7980 O.3   1 <1>  -0.4190 
 17 C       -4.7570    -3.2450    -1.1030 C.3   1 <1>  -0.0970 
 18 N        5.3930    -2.6160     0.4980 N.pl3 1 <1>   0.7090 
 19 N        6.4140    -3.0430     1.2490 N.2   1 <1>  -0.4180 
 20 C        5.8120    -1.8690    -0.5390 C.ar  1 <1>  -0.1520 
 21 N        7.4980    -2.5820     0.7340 N.2   1 <1>  -0.2270 
 22 C        7.1720    -1.8560    -0.3660 C.ar  1 <1>   0.2270 
 23 C        5.1980    -1.2050    -1.6090 C.ar  1 <1>  -0.1500 
 24 C        7.9790    -1.1570    -1.2680 C.ar  1 <1>  -0.1500 
 25 C        5.9980    -0.5180    -2.4920 C.ar  1 <1>  -0.1500 
 26 C        7.3910    -0.4930    -2.3210 C.ar  1 <1>  -0.1500 
 27 H        1.4670    -2.7040     0.3750 H     1 <1>   0.0800 
 28 H        0.2570    -2.8330     1.6190 H     1 <1>   0.0800 
 29 H        1.9980    -0.1800     3.0570 H     1 <1>   0.0800 
 30 H        2.0410     0.9100     1.7140 H     1 <1>   0.0800 
 31 H       -0.3580    -2.1930    -2.1770 H     1 <1>   0.1500 
 32 H       -2.0360    -0.2830     1.2320 H     1 <1>   0.1500 
 33 H        2.3700    -3.8910     2.3220 H     1 <1>   0.0800 
 34 H        2.0160    -2.5280     3.3330 H     1 <1>   0.0800 
 35 H        4.2350    -0.1370     2.1200 H     1 <1>   0.0800 
 36 H        3.6120    -0.5100     0.5460 H     1 <1>   0.0800 
 37 H       -2.4620    -3.3780    -2.5550 H     1 <1>   0.1500 
 38 H       -4.1460    -1.4660     0.8630 H     1 <1>   0.1500 
 39 H        4.3310    -2.3360     2.7320 H     1 <1>   0.0800 
 40 H       -4.5750    -4.2010    -1.5600 H     1 <1>   0.0800 
 41 H       -5.3880    -2.6640    -1.7510 H     1 <1>   0.0800 
 42 H       -5.2700    -3.4070    -0.1720 H     1 <1>   0.0800 
 43 H        4.1260    -1.2380    -1.7270 H     1 <1>   0.1500 
 44 H        9.0430    -1.1540    -1.1180 H     1 <1>   0.1500 
 45 H        5.5610     0.0070    -3.3240 H     1 <1>   0.1500 
 46 H        7.9930     0.0530    -3.0270 H     1 <1>   0.1500 
@<TRIPOS>BOND
  1   1   2  2   
  2   1   3  2   
  3   1   4  am  
  4   1   5  1   
  5   4   6  1   
  6   4   7  1   
  7   5   8  ar  
  8   5   9  ar  
  9   6  10  1   
 10   6  27  1   
 11   6  28  1   
 12   7  11  1   
 13   7  29  1   
 14   7  30  1   
 15   8  12  ar  
 16   8  31  1   
 17   9  13  ar  
 18   9  32  1   
 19  10  14  1   
 20  10  33  1   
 21  10  34  1   
 22  11  14  1   
 23  11  35  1   
 24  11  36  1   
 25  12  15  ar  
 26  12  37  1   
 27  13  15  ar  
 28  13  38  1   
 29  14  16  1   
 30  14  39  1   
 31  15  17  1   
 32  16  18  1   
 33  17  40  1   
 34  17  41  1   
 35  17  42  1   
 36  18  19  1   
 37  18  20  1   
 38  19  21  2   
 39  20  22  ar  
 40  20  23  ar  
 41  21  22  1   
 42  22  24  ar  
 43  23  25  ar  
 44  23  43  1   
 45  24  26  ar  
 46  24  44  1   
 47  25  26  ar  
 48  25  45  1   
 49  26  46  1   
@<TRIPOS>SUBSTRUCTURE
  1 ****   2 GROUP 4 **** **** 0

# MOE 2024.06 (io_trps.svl 2023.06)
