@<TRIPOS>MOLECULE
NONAME
65 68 1 0 0 
SMALL
USER_CHARGES


@<TRIPOS>ATOM
  1 N        0.2730    -0.2780     1.0170 N.3   1 <1>  -0.8100 
  2 C        1.4700     0.4690     1.4930 C.3   1 <1>   0.1900 
  3 C        0.3050    -1.7380     1.3530 C.3   1 <1>   0.1100 
  4 C       -1.0200     0.2970     1.5070 C.3   1 <1>   0.1100 
  5 C        1.4100     1.9290     1.0020 C.3   1 <1>  -0.1600 
  6 C        2.7610    -0.1880     0.9670 C.3   1 <1>  -0.1600 
  7 C       -0.9580    -2.5150     0.9030 C.3   1 <1>   0.3430 
  8 C       -2.2720    -0.4590     0.9950 C.3   1 <1>   0.3430 
  9 C        2.6950     2.7100     1.2690 C.3   1 <1>   0.3430 
 10 C        4.0140     0.6410     1.2370 C.3   1 <1>   0.3430 
 11 N       -1.8880    -1.6290     0.1420 N.4   1 <1>  -0.9590 
 12 N        3.8460     2.0010     0.6610 N.4   1 <1>  -0.9590 
 13 C       -3.0040    -2.3660    -0.5100 C.3   1 <1>   0.4230 
 14 C        5.0990     2.7990     0.7590 C.3   1 <1>   0.4860 
 15 C       -3.6800    -1.4760    -1.5600 C.3   1 <1>  -0.1600 
 16 C       -4.0290    -2.8900     0.5090 C.3   1 <1>  -0.1600 
 17 C        6.1710     2.1170    -0.0680 C.ar  1 <1>  -0.1440 
 18 C       -4.8040    -2.2400    -2.2760 C.3   1 <1>  -0.1600 
 19 C       -5.1540    -3.6560    -0.2030 C.3   1 <1>  -0.1600 
 20 C        7.2080     1.4390     0.5570 C.ar  1 <1>  -0.1500 
 21 C        6.1190     2.1580    -1.4550 C.ar  1 <1>  -0.1500 
 22 C       -5.8340    -2.7910    -1.2770 C.3   1 <1>  -0.0800 
 23 C        8.1750     0.7980    -0.1980 C.ar  1 <1>  -0.1500 
 24 C        7.0870     1.5160    -2.2070 C.ar  1 <1>  -0.1500 
 25 C       -6.9070    -3.6010    -2.0110 C.3   1 <1>  -0.2400 
 26 C        8.1140     0.8350    -1.5790 C.ar  1 <1>  -0.1500 
 27 H        1.4900     0.4610     2.5720 H     1 <1>   0.0800 
 28 H        0.4340    -1.8680     2.4140 H     1 <1>   0.0800 
 29 H        1.1410    -2.2080     0.8650 H     1 <1>   0.0800 
 30 H       -1.1240     1.3150     1.1790 H     1 <1>   0.0800 
 31 H       -1.0320     0.3020     2.5840 H     1 <1>   0.0800 
 32 H        0.6260     2.4570     1.5120 H     1 <1>   0.0800 
 33 H        1.2000     1.9500    -0.0530 H     1 <1>   0.0800 
 34 H        2.6800    -0.3590    -0.0930 H     1 <1>   0.0800 
 35 H        2.9160    -1.1350     1.4500 H     1 <1>   0.0800 
 36 H       -1.4570    -2.9130     1.7710 H     1 <1>   0.0800 
 37 H       -0.6570    -3.3480     0.2890 H     1 <1>   0.0800 
 38 H       -2.8820     0.2250     0.4290 H     1 <1>   0.0800 
 39 H       -2.8530    -0.7910     1.8390 H     1 <1>   0.0800 
 40 H        2.8460     2.8070     2.3320 H     1 <1>   0.0800 
 41 H        2.6050     3.6990     0.8470 H     1 <1>   0.0800 
 42 H        4.8650     0.1520     0.7890 H     1 <1>   0.0800 
 43 H        4.1840     0.7110     2.2990 H     1 <1>   0.0800 
 44 H       -1.2960    -1.2180    -0.5940 H     1 <1>   0.4500 
 45 H        3.6680     1.8770    -0.3450 H     1 <1>   0.4500 
 46 H       -2.5930    -3.2170    -1.0290 H     1 <1>   0.0800 
 47 H        5.4180     2.8750     1.7860 H     1 <1>   0.0800 
 48 H        4.9390     3.7940     0.3760 H     1 <1>   0.0800 
 49 H       -2.9580    -1.1600    -2.2920 H     1 <1>   0.0800 
 50 H       -4.1090    -0.6050    -1.0980 H     1 <1>   0.0800 
 51 H       -4.4730    -2.0740     1.0510 H     1 <1>   0.0800 
 52 H       -3.5570    -3.5540     1.2090 H     1 <1>   0.0800 
 53 H       -4.3810    -3.0540    -2.8420 H     1 <1>   0.0800 
 54 H       -5.2960    -1.5820    -2.9730 H     1 <1>   0.0800 
 55 H       -5.8880    -3.9690     0.5220 H     1 <1>   0.0800 
 56 H       -4.7510    -4.5450    -0.6600 H     1 <1>   0.0800 
 57 H        7.2830     1.4000     1.6300 H     1 <1>   0.1500 
 58 H        5.3360     2.6890    -1.9690 H     1 <1>   0.1500 
 59 H       -6.3200    -1.9600    -0.7910 H     1 <1>   0.0800 
 60 H        8.9810     0.2710     0.2860 H     1 <1>   0.1500 
 61 H        7.0470     1.5480    -3.2830 H     1 <1>   0.1500 
 62 H       -6.4730    -4.4460    -2.5160 H     1 <1>   0.0800 
 63 H       -7.4050    -2.9860    -2.7410 H     1 <1>   0.0800 
 64 H       -7.6470    -3.9600    -1.3170 H     1 <1>   0.0800 
 65 H        8.8670     0.3370    -2.1660 H     1 <1>   0.1500 
@<TRIPOS>BOND
  1   1   2  1   
  2   1   3  1   
  3   1   4  1   
  4   2   5  1   
  5   2   6  1   
  6   2  27  1   
  7   3   7  1   
  8   3  28  1   
  9   3  29  1   
 10   4   8  1   
 11   4  30  1   
 12   4  31  1   
 13   5   9  1   
 14   5  32  1   
 15   5  33  1   
 16   6  10  1   
 17   6  34  1   
 18   6  35  1   
 19   7  11  1   
 20   7  36  1   
 21   7  37  1   
 22   8  11  1   
 23   8  38  1   
 24   8  39  1   
 25   9  12  1   
 26   9  40  1   
 27   9  41  1   
 28  10  12  1   
 29  10  42  1   
 30  10  43  1   
 31  11  13  1   
 32  11  44  1   
 33  12  14  1   
 34  12  45  1   
 35  13  15  1   
 36  13  16  1   
 37  13  46  1   
 38  14  17  1   
 39  14  47  1   
 40  14  48  1   
 41  15  18  1   
 42  15  49  1   
 43  15  50  1   
 44  16  19  1   
 45  16  51  1   
 46  16  52  1   
 47  17  20  ar  
 48  17  21  ar  
 49  18  22  1   
 50  18  53  1   
 51  18  54  1   
 52  19  22  1   
 53  19  55  1   
 54  19  56  1   
 55  20  23  ar  
 56  20  57  1   
 57  21  24  ar  
 58  21  58  1   
 59  22  25  1   
 60  22  59  1   
 61  23  26  ar  
 62  23  60  1   
 63  24  26  ar  
 64  24  61  1   
 65  25  62  1   
 66  25  63  1   
 67  25  64  1   
 68  26  65  1   
@<TRIPOS>SUBSTRUCTURE
  1 ****   1 GROUP 4 **** **** 0

# MOE 2024.06 (io_trps.svl 2023.06)
