@<TRIPOS>MOLECULE
NONAME
43 45 1 0 0 
SMALL
USER_CHARGES


@<TRIPOS>ATOM
  1 CL       0.0530    -0.6190     1.0910 Cl    1 <1>  -0.1770 
  2 C        1.5970    -1.3050     0.6430 C.ar  1 <1>   0.1770 
  3 C        2.3510    -1.9600     1.5990 C.ar  1 <1>  -0.1500 
  4 C        2.0410    -1.1830    -0.6600 C.ar  1 <1>  -0.1500 
  5 C        3.5730    -2.5020     1.2410 C.ar  1 <1>  -0.1500 
  6 C        3.2640    -1.7280    -1.0090 C.ar  1 <1>  -0.1500 
  7 C        4.0410    -2.3910    -0.0660 C.ar  1 <1>   0.1000 
  8 N        5.2640    -2.9300    -0.4470 N.pl3 1 <1>  -0.8380 
  9 C        5.3330    -4.4170    -0.5380 C.3   1 <1>   0.2090 
 10 C        6.4830    -2.2880     0.1280 C.3   1 <1>   0.2090 
 11 C        6.6050    -4.8590    -1.2930 C.3   1 <1>   0.3430 
 12 C        7.7480    -2.7440    -0.6280 C.3   1 <1>   0.3430 
 13 N        7.8610    -4.2490    -0.7220 N.4   1 <1>  -0.9590 
 14 C        9.0750    -4.6610    -1.4750 C.3   1 <1>   0.4860 
 15 C       10.2930    -4.1950    -0.7010 C.ar  1 <1>  -0.1430 
 16 C       10.7390    -4.8590     0.4400 C.ar  1 <1>  -0.1430 
 17 C       10.9680    -3.0660    -1.1480 C.ar  1 <1>  -0.1500 
 18 C       11.8380    -4.3640     1.1250 C.ar  1 <1>  -0.1500 
 19 C       10.0760    -6.1250     0.9710 C.3   1 <1>  -0.0970 
 20 C       12.0640    -2.5840    -0.4580 C.ar  1 <1>  -0.1500 
 21 C       12.4960    -3.2320     0.6820 C.ar  1 <1>  -0.1500 
 22 H        1.9800    -2.0400     2.6060 H     1 <1>   0.1500 
 23 H        1.4360    -0.6690    -1.3850 H     1 <1>   0.1500 
 24 H        4.1640    -3.0130     1.9780 H     1 <1>   0.1500 
 25 H        3.6260    -1.6420    -2.0170 H     1 <1>   0.1500 
 26 H        4.4630    -4.7790    -1.0600 H     1 <1>   0.0800 
 27 H        5.3250    -4.8410     0.4510 H     1 <1>   0.0800 
 28 H        6.5700    -2.5390     1.1710 H     1 <1>   0.0800 
 29 H        6.3880    -1.2180     0.0530 H     1 <1>   0.0800 
 30 H        6.4970    -4.5610    -2.3220 H     1 <1>   0.0800 
 31 H        6.6720    -5.9340    -1.2650 H     1 <1>   0.0800 
 32 H        8.6150    -2.3410    -0.1300 H     1 <1>   0.0800 
 33 H        7.7120    -2.3230    -1.6190 H     1 <1>   0.0800 
 34 H        7.9940    -4.5890     0.2370 H     1 <1>   0.4500 
 35 H        9.0720    -4.2220    -2.4590 H     1 <1>   0.0800 
 36 H        9.1070    -5.7330    -1.5790 H     1 <1>   0.0800 
 37 H       10.6540    -2.5470    -2.0380 H     1 <1>   0.1500 
 38 H       12.1990    -4.8570     2.0120 H     1 <1>   0.1500 
 39 H        9.1720    -5.8850     1.5000 H     1 <1>   0.0800 
 40 H       10.7340    -6.6330     1.6560 H     1 <1>   0.0800 
 41 H        9.8580    -6.8110     0.1730 H     1 <1>   0.0800 
 42 H       12.5860    -1.7080    -0.8070 H     1 <1>   0.1500 
 43 H       13.3500    -2.8590     1.2230 H     1 <1>   0.1500 
@<TRIPOS>BOND
  1   1   2  1   
  2   2   3  ar  
  3   2   4  ar  
  4   3   5  ar  
  5   3  22  1   
  6   4   6  ar  
  7   4  23  1   
  8   5   7  ar  
  9   5  24  1   
 10   6   7  ar  
 11   6  25  1   
 12   7   8  1   
 13   8   9  1   
 14   8  10  1   
 15   9  11  1   
 16   9  26  1   
 17   9  27  1   
 18  10  12  1   
 19  10  28  1   
 20  10  29  1   
 21  11  13  1   
 22  11  30  1   
 23  11  31  1   
 24  12  13  1   
 25  12  32  1   
 26  12  33  1   
 27  13  14  1   
 28  13  34  1   
 29  14  15  1   
 30  14  35  1   
 31  14  36  1   
 32  15  16  ar  
 33  15  17  ar  
 34  16  18  ar  
 35  16  19  1   
 36  17  20  ar  
 37  17  37  1   
 38  18  21  ar  
 39  18  38  1   
 40  19  39  1   
 41  19  40  1   
 42  19  41  1   
 43  20  21  ar  
 44  20  42  1   
 45  21  43  1   
@<TRIPOS>SUBSTRUCTURE
  1 ****  10 GROUP 4 **** **** 0

# MOE 2024.06 (io_trps.svl 2023.06)
