@<TRIPOS>MOLECULE
NONAME
39 39 1 0 0 
SMALL
USER_CHARGES


@<TRIPOS>ATOM
  1 CL       0.0330    -0.4930    -0.2430 Cl    1 <1>  -0.1770 
  2 C        1.6500    -1.1460    -0.1480 C.ar  1 <1>   0.1770 
  3 C        1.8610    -2.3430     0.5100 C.ar  1 <1>  -0.1500 
  4 C        2.6940    -0.4580    -0.7330 C.ar  1 <1>  -0.1500 
  5 C        3.1410    -2.8680     0.5910 C.ar  1 <1>  -0.1440 
  6 C        3.9710    -0.9810    -0.6550 C.ar  1 <1>  -0.1500 
  7 C        4.2110    -2.1830     0.0080 C.ar  1 <1>   0.1000 
  8 C        3.3570    -4.1880     1.3240 C.3   1 <1>  -0.0960 
  9 N        5.5040    -2.7180     0.0890 N.pl3 1 <1>  -0.6000 
 10 C        6.7180    -2.1030    -0.0340 C.2   1 <1>  -0.0500 
 11 C        7.9420    -2.7230     0.0380 C.2   1 <1>   0.0290 
 12 C        9.1430    -1.9620    -0.0640 C.2   1 <1>   0.7060 
 13 C        8.0840    -4.1350     0.2060 C.2   1 <1>   0.7060 
 14 O        9.2200    -0.9420    -0.7240 O.2   1 <1>  -0.5700 
 15 O       10.2200    -2.3520     0.6350 O.3   1 <1>  -0.4300 
 16 O        7.2560    -4.8250     0.7780 O.2   1 <1>  -0.5700 
 17 O        9.1510    -4.7400    -0.3340 O.3   1 <1>  -0.4300 
 18 C       11.4640    -1.6730     0.6310 C.3   1 <1>   0.1200 
 19 C        9.3660    -6.1340    -0.2720 C.3   1 <1>   0.1200 
 20 C       12.8480    -1.0240     0.7000 C.3   1 <1>  -0.2400 
 21 C        8.6220    -6.8020    -1.4270 C.3   1 <1>  -0.2400 
 22 H        1.0220    -2.8500     0.9500 H     1 <1>   0.1500 
 23 H        2.5050     0.4700    -1.2430 H     1 <1>   0.1500 
 24 H        4.7830    -0.4530    -1.1190 H     1 <1>   0.1500 
 25 H        2.4420    -4.5400     1.7650 H     1 <1>   0.0800 
 26 H        4.0820    -4.0600     2.1090 H     1 <1>   0.0800 
 27 H        3.7130    -4.9360     0.6380 H     1 <1>   0.0800 
 28 H        5.5260    -3.7160     0.3550 H     1 <1>   0.4000 
 29 H        6.6940    -1.0360    -0.1920 H     1 <1>   0.1500 
 30 H       11.5440    -1.7130    -0.4440 H     1 <1>   0.0800 
 31 H       11.0180    -0.7400     0.9330 H     1 <1>   0.0800 
 32 H       10.4250    -6.3030    -0.3630 H     1 <1>   0.0800 
 33 H        9.0350    -6.5070     0.6830 H     1 <1>   0.0800 
 34 H       13.6000    -1.7100     0.3530 H     1 <1>   0.0800 
 35 H       13.0810    -0.7490     1.7140 H     1 <1>   0.0800 
 36 H       12.8850    -0.1380     0.0890 H     1 <1>   0.0800 
 37 H        8.9580    -6.4020    -2.3670 H     1 <1>   0.0800 
 38 H        7.5620    -6.6510    -1.3270 H     1 <1>   0.0800 
 39 H        8.8140    -7.8590    -1.4160 H     1 <1>   0.0800 
@<TRIPOS>BOND
  1   1   2  1   
  2   2   3  ar  
  3   2   4  ar  
  4   3   5  ar  
  5   3  22  1   
  6   4   6  ar  
  7   4  23  1   
  8   5   7  ar  
  9   5   8  1   
 10   6   7  ar  
 11   6  24  1   
 12   7   9  1   
 13   8  25  1   
 14   8  26  1   
 15   8  27  1   
 16   9  10  1   
 17   9  28  1   
 18  10  11  2   
 19  10  29  1   
 20  11  12  1   
 21  11  13  1   
 22  12  14  2   
 23  12  15  1   
 24  13  16  2   
 25  13  17  1   
 26  15  18  1   
 27  17  19  1   
 28  18  20  1   
 29  18  30  1   
 30  18  31  1   
 31  19  21  1   
 32  19  32  1   
 33  19  33  1   
 34  20  34  1   
 35  20  35  1   
 36  20  36  1   
 37  21  37  1   
 38  21  38  1   
 39  21  39  1   
@<TRIPOS>SUBSTRUCTURE
  1 ****  10 GROUP 4 **** **** 0

# MOE 2024.06 (io_trps.svl 2023.06)
