@<TRIPOS>MOLECULE
NONAME
33 34 1 0 0 
SMALL
USER_CHARGES


@<TRIPOS>ATOM
  1 I       -0.4360     0.1750     0.8630 I     1 <1>  -0.0810 
  2 C        1.4160    -0.7790     0.4500 C.ar  1 <1>   0.0810 
  3 C        2.1010    -1.3830     1.4870 C.ar  1 <1>  -0.1500 
  4 C        1.8920    -0.7760    -0.8480 C.ar  1 <1>  -0.1500 
  5 C        3.3080    -1.9990     1.2070 C.ar  1 <1>  -0.1500 
  6 C        3.1010    -1.3980    -1.1060 C.ar  1 <1>  -0.1500 
  7 C        3.8350    -2.0130    -0.0870 C.ar  1 <1>   0.0860 
  8 C        5.1060    -2.6560    -0.3580 C.2   1 <1>   0.5440 
  9 O        5.2190    -3.8450    -0.1290 O.2   1 <1>  -0.5700 
 10 N        6.1870    -1.9590    -0.8640 N.am  1 <1>  -0.6600 
 11 C        6.2590    -0.4710    -0.9180 C.3   1 <1>   0.1400 
 12 C        7.4410    -2.6550    -1.2700 C.3   1 <1>   0.1400 
 13 C        7.4220     0.0230    -0.0540 C.3   1 <1>  -0.1600 
 14 C        8.6060    -2.1750    -0.4000 C.3   1 <1>  -0.1600 
 15 C        8.7540    -0.6440    -0.4490 C.3   1 <1>  -0.0190 
 16 C        9.9130    -0.1760     0.4300 C.2   1 <1>   0.5690 
 17 O        9.7860    -0.0880     1.6240 O.2   1 <1>  -0.5700 
 18 N       11.0930     0.1370    -0.1370 N.am  1 <1>  -0.8000 
 19 H        1.7030    -1.3750     2.4870 H     1 <1>   0.1500 
 20 H        1.3320    -0.3040    -1.6360 H     1 <1>   0.1500 
 21 H        3.8600    -2.4840     1.9940 H     1 <1>   0.1500 
 22 H        3.4900    -1.4170    -2.1090 H     1 <1>   0.1500 
 23 H        5.3480    -0.0250    -0.5620 H     1 <1>   0.0800 
 24 H        6.4050    -0.1660    -1.9400 H     1 <1>   0.0800 
 25 H        7.6400    -2.4390    -2.3050 H     1 <1>   0.0800 
 26 H        7.3370    -3.7230    -1.1720 H     1 <1>   0.0800 
 27 H        7.2000    -0.1930     0.9770 H     1 <1>   0.0800 
 28 H        7.5100     1.0900    -0.1500 H     1 <1>   0.0800 
 29 H        9.5150    -2.6410    -0.7370 H     1 <1>   0.0800 
 30 H        8.4340    -2.4910     0.6140 H     1 <1>   0.0800 
 31 H        8.9750    -0.3610    -1.4630 H     1 <1>   0.0800 
 32 H       11.8610     0.4410     0.4630 H     1 <1>   0.3700 
 33 H       11.2890     0.0770    -1.1350 H     1 <1>   0.3700 
@<TRIPOS>BOND
  1   1   2  1   
  2   2   3  ar  
  3   2   4  ar  
  4   3   5  ar  
  5   3  19  1   
  6   4   6  ar  
  7   4  20  1   
  8   5   7  ar  
  9   5  21  1   
 10   6   7  ar  
 11   6  22  1   
 12   7   8  1   
 13   8   9  2   
 14   8  10  am  
 15  10  11  1   
 16  10  12  1   
 17  11  13  1   
 18  11  23  1   
 19  11  24  1   
 20  12  14  1   
 21  12  25  1   
 22  12  26  1   
 23  13  15  1   
 24  13  27  1   
 25  13  28  1   
 26  14  15  1   
 27  14  29  1   
 28  14  30  1   
 29  15  16  1   
 30  15  31  1   
 31  16  17  2   
 32  16  18  am  
 33  18  32  1   
 34  18  33  1   
@<TRIPOS>SUBSTRUCTURE
  1 ****  10 GROUP 4 **** **** 0

# MOE 2024.06 (io_trps.svl 2023.06)
