@<TRIPOS>MOLECULE
NONAME
40 42 1 0 0 
SMALL
USER_CHARGES


@<TRIPOS>ATOM
  1 CL       2.0680    -0.9570     1.3190 Cl    1 <1>  -0.1770 
  2 C        2.9020     0.4700     0.7600 C.ar  1 <1>   0.1770 
  3 C        2.9460     0.7420    -0.5940 C.ar  1 <1>  -0.1500 
  4 C        3.5060     1.3060     1.6790 C.ar  1 <1>  -0.1500 
  5 C        3.6080     1.8750    -1.0370 C.ar  1 <1>  -0.1500 
  6 C        4.1670     2.4380     1.2310 C.ar  1 <1>  -0.1500 
  7 C        4.2210     2.7270    -0.1270 C.ar  1 <1>  -0.1430 
  8 C        4.9510     3.9700    -0.6110 C.3   1 <1>   0.2140 
  9 S        6.7220     3.7910    -0.2500 S.3   1 <1>  -0.4600 
 10 C        7.1350     2.1420    -0.9460 C.3   1 <1>   0.1310 
 11 C        8.6340     1.8680    -0.9420 C.2   1 <1>   0.5690 
 12 O        9.0370     0.8720    -1.4920 O.2   1 <1>  -0.5700 
 13 N        9.4710     2.7400    -0.3260 N.am  1 <1>  -0.7300 
 14 C       10.9360     2.6210    -0.2290 C.3   1 <1>   0.2200 
 15 C       11.3740     2.7110     1.2440 C.3   1 <1>  -0.0800 
 16 C       11.6080     3.8550    -0.8580 C.3   1 <1>  -0.1600 
 17 C       11.4210     4.2150     1.4800 C.3   1 <1>  -0.1600 
 18 C       12.8670     2.3500     1.3170 C.3   1 <1>  -0.1600 
 19 C       12.3670     4.4880     0.3220 C.3   1 <1>  -0.0800 
 20 C       13.5510     3.5730     0.6780 C.3   1 <1>  -0.1600 
 21 H        2.4670     0.0740    -1.2880 H     1 <1>   0.1500 
 22 H        3.4580     1.0730     2.7270 H     1 <1>   0.1500 
 23 H        3.6410     2.0870    -2.0920 H     1 <1>   0.1500 
 24 H        4.6430     3.0920     1.9410 H     1 <1>   0.1500 
 25 H        4.6080     4.8510    -0.0980 H     1 <1>   0.0800 
 26 H        4.8540     4.1060    -1.6740 H     1 <1>   0.0800 
 27 H        6.7640     2.1160    -1.9530 H     1 <1>   0.0800 
 28 H        6.6290     1.4040    -0.3520 H     1 <1>   0.0800 
 29 H        9.0610     3.5710     0.1080 H     1 <1>   0.3700 
 30 H       11.2710     1.7050    -0.6870 H     1 <1>   0.0800 
 31 H       10.7570     2.1430     1.9190 H     1 <1>   0.0800 
 32 H       10.8770     4.5420    -1.2470 H     1 <1>   0.0800 
 33 H       12.2780     3.5690    -1.6490 H     1 <1>   0.0800 
 34 H       11.8460     4.4740     2.4350 H     1 <1>   0.0800 
 35 H       10.4650     4.6950     1.3590 H     1 <1>   0.0800 
 36 H       13.0870     1.4400     0.7860 H     1 <1>   0.0800 
 37 H       13.1760     2.2440     2.3430 H     1 <1>   0.0800 
 38 H       12.6350     5.5200     0.1750 H     1 <1>   0.0800 
 39 H       14.1290     3.3050    -0.1890 H     1 <1>   0.0800 
 40 H       14.1930     4.0550     1.3950 H     1 <1>   0.0800 
@<TRIPOS>BOND
  1   1   2  1   
  2   2   3  ar  
  3   2   4  ar  
  4   3   5  ar  
  5   3  21  1   
  6   4   6  ar  
  7   4  22  1   
  8   5   7  ar  
  9   5  23  1   
 10   6   7  ar  
 11   6  24  1   
 12   7   8  1   
 13   8   9  1   
 14   8  25  1   
 15   8  26  1   
 16   9  10  1   
 17  10  11  1   
 18  10  27  1   
 19  10  28  1   
 20  11  12  2   
 21  11  13  am  
 22  13  14  1   
 23  13  29  1   
 24  14  15  1   
 25  14  16  1   
 26  14  30  1   
 27  15  17  1   
 28  15  18  1   
 29  15  31  1   
 30  16  19  1   
 31  16  32  1   
 32  16  33  1   
 33  17  19  1   
 34  17  34  1   
 35  17  35  1   
 36  18  20  1   
 37  18  36  1   
 38  18  37  1   
 39  19  20  1   
 40  19  38  1   
 41  20  39  1   
 42  20  40  1   
@<TRIPOS>SUBSTRUCTURE
  1 ****  10 GROUP 4 **** **** 0

# MOE 2024.06 (io_trps.svl 2023.06)
