@<TRIPOS>MOLECULE
NONAME
38 38 1 0 0 
SMALL
USER_CHARGES


@<TRIPOS>ATOM
  1 O       -0.1760     0.0740    -0.3410 O.2   1 <1>  -0.5700 
  2 C       -0.7700    -0.9720    -0.1780 C.2   1 <1>   0.7060 
  3 O       -0.0800    -2.1080    -0.0690 O.3   1 <1>  -0.4300 
  4 C       -2.1950    -1.0700    -0.0940 C.2   1 <1>  -0.1360 
  5 C        1.3300    -2.1190    -0.1370 C.3   1 <1>   0.1200 
  6 C       -3.0920    -0.0570    -0.1780 C.2   1 <1>  -0.1780 
  7 C        1.8080    -3.5640     0.0210 C.3   1 <1>  -0.1600 
  8 C       -4.5290    -0.1070    -0.0980 C.ar  1 <1>   0.0280 
  9 C        3.3300    -3.7150    -0.1540 C.3   1 <1>  -0.0800 
 10 C       -5.2410    -1.2930     0.0920 C.ar  1 <1>  -0.1500 
 11 C       -5.2700     1.0690    -0.2140 C.ar  1 <1>  -0.1500 
 12 C        3.7110    -5.1990    -0.1140 C.3   1 <1>  -0.2400 
 13 C        4.1130    -2.9570     0.9270 C.3   1 <1>  -0.2400 
 14 C       -6.6220    -1.3070     0.1630 C.ar  1 <1>  -0.1500 
 15 C       -6.6500     1.0640    -0.1440 C.ar  1 <1>  -0.1500 
 16 C       -7.3400    -0.1210     0.0450 C.ar  1 <1>   0.0830 
 17 O       -8.6900    -0.0440     0.1030 O.3   1 <1>  -0.3620 
 18 C       -9.4910    -1.1890     0.2930 C.3   1 <1>   0.0400 
 19 H       -2.5270    -2.0780     0.0510 H     1 <1>   0.1500 
 20 H        1.6260    -1.7170    -1.0920 H     1 <1>   0.0800 
 21 H        1.7080    -1.4910     0.6520 H     1 <1>   0.0800 
 22 H       -2.7010     0.9370    -0.3240 H     1 <1>   0.1500 
 23 H        1.5200    -3.9250     0.9930 H     1 <1>   0.0800 
 24 H        1.3130    -4.1640    -0.7220 H     1 <1>   0.0800 
 25 H        3.6090    -3.3240    -1.1190 H     1 <1>   0.0800 
 26 H       -4.7150    -2.2230     0.1860 H     1 <1>   0.1500 
 27 H       -4.7590     2.0040    -0.3610 H     1 <1>   0.1500 
 28 H        3.4520    -5.6320     0.8370 H     1 <1>   0.0800 
 29 H        4.7690    -5.3180    -0.2680 H     1 <1>   0.0800 
 30 H        3.1960    -5.7400    -0.8890 H     1 <1>   0.0800 
 31 H        3.8210    -3.2870     1.9080 H     1 <1>   0.0800 
 32 H        3.9450    -1.8980     0.8530 H     1 <1>   0.0800 
 33 H        5.1680    -3.1300     0.8100 H     1 <1>   0.0800 
 34 H       -7.1230    -2.2440     0.3100 H     1 <1>   0.1500 
 35 H       -7.2040     1.9800    -0.2350 H     1 <1>   0.1500 
 36 H      -10.5200    -0.8780     0.3040 H     1 <1>   0.0800 
 37 H       -9.2350    -1.6420     1.2340 H     1 <1>   0.0800 
 38 H       -9.3240    -1.8710    -0.5220 H     1 <1>   0.0800 
@<TRIPOS>BOND
  1   1   2  2   
  2   2   3  1   
  3   2   4  1   
  4   3   5  1   
  5   4   6  2   
  6   4  19  1   
  7   5   7  1   
  8   5  20  1   
  9   5  21  1   
 10   6   8  1   
 11   6  22  1   
 12   7   9  1   
 13   7  23  1   
 14   7  24  1   
 15   8  10  ar  
 16   8  11  ar  
 17   9  12  1   
 18   9  13  1   
 19   9  25  1   
 20  10  14  ar  
 21  10  26  1   
 22  11  15  ar  
 23  11  27  1   
 24  12  28  1   
 25  12  29  1   
 26  12  30  1   
 27  13  31  1   
 28  13  32  1   
 29  13  33  1   
 30  14  16  ar  
 31  14  34  1   
 32  15  16  ar  
 33  15  35  1   
 34  16  17  1   
 35  17  18  1   
 36  18  36  1   
 37  18  37  1   
 38  18  38  1   
@<TRIPOS>SUBSTRUCTURE
  1 ****   4 GROUP 4 **** **** 0

# MOE 2024.06 (io_trps.svl 2023.06)
