@<TRIPOS>MOLECULE
NONAME
46 47 1 0 0 
SMALL
USER_CHARGES


@<TRIPOS>ATOM
  1 S       -0.1410     0.2350     0.1420 S.o2  1 <1>   1.3330 
  2 O        0.0670     0.5310     1.5430 O.2   1 <1>  -0.6500 
  3 O        0.4970    -0.9230    -0.4440 O.2   1 <1>  -0.6500 
  4 N       -1.8130     0.1050    -0.1070 N.am  1 <1>  -0.8490 
  5 C        0.2920     1.6720    -0.8490 C.3   1 <1>  -0.0550 
  6 C       -2.5810     0.9660     0.8000 C.3   1 <1>   0.1960 
  7 C       -2.2710    -1.2870    -0.0460 C.3   1 <1>   0.1960 
  8 C        1.7860     2.0410    -0.8180 C.3   1 <1>  -0.2400 
  9 C       -4.0640     0.9490     0.4280 C.3   1 <1>  -0.1600 
 10 C       -3.7520    -1.3840    -0.4260 C.3   1 <1>  -0.1600 
 11 C       -4.6240    -0.4820     0.4610 C.3   1 <1>  -0.0190 
 12 C       -6.0920    -0.5300     0.0380 C.2   1 <1>   0.5690 
 13 O       -6.4100    -0.0650    -1.0290 O.2   1 <1>  -0.5700 
 14 N       -6.9840    -1.1050     0.8920 N.am  1 <1>  -0.7300 
 15 C       -8.4430    -1.2740     0.7090 C.3   1 <1>   0.2200 
 16 C       -8.7480    -2.1690    -0.4990 C.3   1 <1>  -0.1600 
 17 C       -9.1470     0.0850     0.6000 C.3   1 <1>  -0.1600 
 18 C      -10.2630    -2.3500    -0.6780 C.3   1 <1>  -0.1600 
 19 C      -10.6620    -0.0960     0.4220 C.3   1 <1>  -0.1600 
 20 C      -10.9730    -0.9930    -0.7850 C.3   1 <1>  -0.1600 
 21 H       -0.2740     2.5160    -0.5060 H     1 <1>   0.0800 
 22 H        0.0070     1.4840    -1.8660 H     1 <1>   0.0800 
 23 H       -2.2160     1.9780     0.7380 H     1 <1>   0.0800 
 24 H       -2.4560     0.6290     1.8170 H     1 <1>   0.0800 
 25 H       -2.1110    -1.6790     0.9450 H     1 <1>   0.0800 
 26 H       -1.7060    -1.8880    -0.7400 H     1 <1>   0.0800 
 27 H        2.0940     2.2580     0.1900 H     1 <1>   0.0800 
 28 H        1.9700     2.9040    -1.4320 H     1 <1>   0.0800 
 29 H        2.3760     1.2190    -1.1870 H     1 <1>   0.0800 
 30 H       -4.1810     1.3670    -0.5580 H     1 <1>   0.0800 
 31 H       -4.6140     1.5690     1.1130 H     1 <1>   0.0800 
 32 H       -4.0770    -2.4050    -0.3370 H     1 <1>   0.0800 
 33 H       -3.8630    -1.0950    -1.4580 H     1 <1>   0.0800 
 34 H       -4.5530    -0.8410     1.4720 H     1 <1>   0.0800 
 35 H       -6.6370    -1.4820     1.7720 H     1 <1>   0.3700 
 36 H       -8.8250    -1.7690     1.5860 H     1 <1>   0.0800 
 37 H       -8.2860    -3.1300    -0.3640 H     1 <1>   0.0800 
 38 H       -8.3480    -1.7210    -1.3920 H     1 <1>   0.0800 
 39 H       -8.7640     0.6250    -0.2480 H     1 <1>   0.0800 
 40 H       -8.9570     0.6630     1.4860 H     1 <1>   0.0800 
 41 H      -10.6620    -2.8960     0.1600 H     1 <1>   0.0800 
 42 H      -10.4530    -2.9260    -1.5680 H     1 <1>   0.0800 
 43 H      -11.1240     0.8670     0.2820 H     1 <1>   0.0800 
 44 H      -11.0790    -0.5370     1.3110 H     1 <1>   0.0800 
 45 H      -12.0360    -1.1460    -0.8570 H     1 <1>   0.0800 
 46 H      -10.6510    -0.4970    -1.6860 H     1 <1>   0.0800 
@<TRIPOS>BOND
  1   1   2  2   
  2   1   3  2   
  3   1   4  am  
  4   1   5  1   
  5   4   6  1   
  6   4   7  1   
  7   5   8  1   
  8   5  21  1   
  9   5  22  1   
 10   6   9  1   
 11   6  23  1   
 12   6  24  1   
 13   7  10  1   
 14   7  25  1   
 15   7  26  1   
 16   8  27  1   
 17   8  28  1   
 18   8  29  1   
 19   9  11  1   
 20   9  30  1   
 21   9  31  1   
 22  10  11  1   
 23  10  32  1   
 24  10  33  1   
 25  11  12  1   
 26  11  34  1   
 27  12  13  2   
 28  12  14  am  
 29  14  15  1   
 30  14  35  1   
 31  15  16  1   
 32  15  17  1   
 33  15  36  1   
 34  16  18  1   
 35  16  37  1   
 36  16  38  1   
 37  17  19  1   
 38  17  39  1   
 39  17  40  1   
 40  18  20  1   
 41  18  41  1   
 42  18  42  1   
 43  19  20  1   
 44  19  43  1   
 45  19  44  1   
 46  20  45  1   
 47  20  46  1   
@<TRIPOS>SUBSTRUCTURE
  1 ****  11 GROUP 4 **** **** 0

# MOE 2024.06 (io_trps.svl 2023.06)
