@<TRIPOS>MOLECULE
NONAME
42 43 1 0 0 
SMALL
USER_CHARGES


@<TRIPOS>ATOM
  1 O        0.3570     0.0230     0.0130 O.2   1 <1>  -0.5700 
  2 C        0.2160    -1.1340     0.3520 C.2   1 <1>   0.6900 
  3 N       -0.9940    -1.7600     0.3190 N.am  1 <1>  -0.5470 
  4 N        1.2850    -1.8620     0.7610 N.am  1 <1>  -0.7300 
  5 C       -2.2770    -1.2600     0.0510 C.ar  1 <1>   0.1170 
  6 C        2.6690    -1.3390     0.8540 C.3   1 <1>   0.1400 
  7 C       -2.6310     0.0660     0.2730 C.ar  1 <1>  -0.1500 
  8 C       -3.2450    -2.1290    -0.4370 C.ar  1 <1>  -0.1500 
  9 C        3.4850    -1.8050    -0.3520 C.3   1 <1>  -0.0220 
 10 C       -3.9130     0.5200     0.0140 C.ar  1 <1>   0.0830 
 11 C       -4.5300    -1.6880    -0.7000 C.ar  1 <1>  -0.1500 
 12 C        4.9330    -1.3420    -0.2560 C.2   1 <1>  -0.2760 
 13 O       -4.1610     1.8310     0.2650 O.3   1 <1>  -0.3620 
 14 C       -4.8690    -0.3660    -0.4770 C.ar  1 <1>  -0.1500 
 15 C        5.9520    -2.1860    -0.0640 C.2   1 <1>  -0.2880 
 16 C        5.1300     0.1650    -0.4040 C.3   1 <1>  -0.0220 
 17 C       -5.4140     2.4080    -0.0230 C.3   1 <1>   0.0400 
 18 C        7.4080    -1.7630     0.0530 C.3   1 <1>  -0.0220 
 19 C        6.5990     0.5210    -0.6770 C.3   1 <1>  -0.1600 
 20 C        7.5380    -0.2470     0.2620 C.3   1 <1>  -0.1600 
 21 H       -0.9390    -2.7650     0.4280 H     1 <1>   0.3700 
 22 H        1.1500    -2.8120     1.0970 H     1 <1>   0.3700 
 23 H        3.1260    -1.6920     1.7620 H     1 <1>   0.0800 
 24 H        2.6490    -0.2630     0.8860 H     1 <1>   0.0800 
 25 H       -1.9080     0.7630     0.6540 H     1 <1>   0.1500 
 26 H       -2.9950    -3.1580    -0.6180 H     1 <1>   0.1500 
 27 H        3.0430    -1.4210    -1.2550 H     1 <1>   0.0800 
 28 H        3.4590    -2.8790    -0.3960 H     1 <1>   0.0800 
 29 H       -5.2670    -2.3740    -1.0800 H     1 <1>   0.1500 
 30 H       -5.8710    -0.0460    -0.6870 H     1 <1>   0.1500 
 31 H        5.8240    -3.2520     0.0200 H     1 <1>   0.1500 
 32 H        4.8080     0.6530     0.4990 H     1 <1>   0.0800 
 33 H        4.5290     0.5380    -1.2160 H     1 <1>   0.0800 
 34 H       -5.3660     3.4510     0.2320 H     1 <1>   0.0800 
 35 H       -6.1680     1.9210     0.5690 H     1 <1>   0.0800 
 36 H       -5.6150     2.2980    -1.0740 H     1 <1>   0.0800 
 37 H        7.9240    -2.0510    -0.8460 H     1 <1>   0.0800 
 38 H        7.8670    -2.2720     0.8820 H     1 <1>   0.0800 
 39 H        6.7400     1.5810    -0.5540 H     1 <1>   0.0800 
 40 H        6.8370     0.2680    -1.6950 H     1 <1>   0.0800 
 41 H        8.5570     0.0540     0.0940 H     1 <1>   0.0800 
 42 H        7.2840    -0.0100     1.2810 H     1 <1>   0.0800 
@<TRIPOS>BOND
  1   1   2  2   
  2   2   3  am  
  3   2   4  am  
  4   3   5  1   
  5   3  21  1   
  6   4   6  1   
  7   4  22  1   
  8   5   7  ar  
  9   5   8  ar  
 10   6   9  1   
 11   6  23  1   
 12   6  24  1   
 13   7  10  ar  
 14   7  25  1   
 15   8  11  ar  
 16   8  26  1   
 17   9  12  1   
 18   9  27  1   
 19   9  28  1   
 20  10  13  1   
 21  10  14  ar  
 22  11  14  ar  
 23  11  29  1   
 24  12  15  2   
 25  12  16  1   
 26  13  17  1   
 27  14  30  1   
 28  15  18  1   
 29  15  31  1   
 30  16  19  1   
 31  16  32  1   
 32  16  33  1   
 33  17  34  1   
 34  17  35  1   
 35  17  36  1   
 36  18  20  1   
 37  18  37  1   
 38  18  38  1   
 39  19  20  1   
 40  19  39  1   
 41  19  40  1   
 42  20  41  1   
 43  20  42  1   
@<TRIPOS>SUBSTRUCTURE
  1 ****   2 GROUP 4 **** **** 0

# MOE 2024.06 (io_trps.svl 2023.06)
