@<TRIPOS>MOLECULE
NONAME
50 51 1 0 0 
SMALL
USER_CHARGES


@<TRIPOS>ATOM
  1 O        3.1570    -3.1530     1.3260 O.2   1 <1>  -0.5700 
  2 C        3.4340    -4.0050     0.5230 C.2   1 <1>   0.6590 
  3 O        4.6800    -4.2840     0.1750 O.3   1 <1>  -0.4300 
  4 C        2.3570    -4.8340    -0.1530 C.3   1 <1>  -0.0190 
  5 C        5.7760    -3.5990     0.7370 C.3   1 <1>   0.1200 
  6 C        1.0160    -4.0750    -0.0970 C.3   1 <1>   0.3430 
  7 C        2.2520    -6.2440     0.4630 C.3   1 <1>  -0.1600 
  8 C        7.0520    -4.1660     0.1250 C.3   1 <1>  -0.2400 
  9 N       -0.1720    -4.9830     0.0790 N.4   1 <1>  -0.9590 
 10 C        1.1320    -7.0630    -0.2110 C.3   1 <1>  -0.1600 
 11 C       -0.0350    -6.2190    -0.7430 C.3   1 <1>   0.3430 
 12 C       -1.4300    -4.2270    -0.2080 C.3   1 <1>   0.3430 
 13 C       -2.6670    -4.9360     0.3470 C.3   1 <1>  -0.0990 
 14 C       -3.8980    -4.1240     0.0090 C.2   1 <1>   0.5690 
 15 O       -3.8130    -3.3410    -0.9030 O.2   1 <1>  -0.5700 
 16 N       -5.0300    -4.3340     0.7440 N.am  1 <1>  -0.5470 
 17 C       -6.2920    -3.7200     0.6790 C.ar  1 <1>   0.1170 
 18 C       -6.5050    -2.4670     0.1120 C.ar  1 <1>  -0.1500 
 19 C       -7.3810    -4.3890     1.2260 C.ar  1 <1>  -0.1500 
 20 C       -7.7680    -1.8980     0.0820 C.ar  1 <1>  -0.1440 
 21 C       -8.6450    -3.8270     1.2040 C.ar  1 <1>  -0.1500 
 22 C       -8.8380    -2.5820     0.6320 C.ar  1 <1>  -0.1500 
 23 C       -7.9810    -0.5310    -0.5450 C.3   1 <1>  -0.0970 
 24 H        2.6390    -4.9310    -1.1860 H     1 <1>   0.0800 
 25 H        5.7610    -3.7460     1.8040 H     1 <1>   0.0800 
 26 H        5.6750    -2.5490     0.5160 H     1 <1>   0.0800 
 27 H        0.9110    -3.5020    -1.0040 H     1 <1>   0.0800 
 28 H        1.0320    -3.3740     0.7230 H     1 <1>   0.0800 
 29 H        2.0450    -6.1510     1.5160 H     1 <1>   0.0800 
 30 H        3.1920    -6.7630     0.3660 H     1 <1>   0.0800 
 31 H        7.1370    -5.2150     0.3460 H     1 <1>   0.0800 
 32 H        7.9060    -3.6600     0.5370 H     1 <1>   0.0800 
 33 H        7.0510    -4.0200    -0.9410 H     1 <1>   0.0800 
 34 H       -0.1770    -5.2700     1.0670 H     1 <1>   0.4500 
 35 H        0.7580    -7.7920     0.4870 H     1 <1>   0.0800 
 36 H        1.5440    -7.6140    -1.0400 H     1 <1>   0.0800 
 37 H        0.1580    -5.9450    -1.7690 H     1 <1>   0.0800 
 38 H       -0.9400    -6.8040    -0.7170 H     1 <1>   0.0800 
 39 H       -1.5420    -4.0910    -1.2730 H     1 <1>   0.0800 
 40 H       -1.3740    -3.2460     0.2380 H     1 <1>   0.0800 
 41 H       -2.5890    -5.0280     1.4140 H     1 <1>   0.0800 
 42 H       -2.7830    -5.9070    -0.0970 H     1 <1>   0.0800 
 43 H       -4.9890    -5.0860     1.4280 H     1 <1>   0.3700 
 44 H       -5.6810    -1.9230    -0.3090 H     1 <1>   0.1500 
 45 H       -7.2510    -5.3570     1.6710 H     1 <1>   0.1500 
 46 H       -9.4800    -4.3550     1.6290 H     1 <1>   0.1500 
 47 H       -9.8230    -2.1490     0.6170 H     1 <1>   0.1500 
 48 H       -7.1950    -0.3090    -1.2450 H     1 <1>   0.0800 
 49 H       -7.9870     0.2230     0.2210 H     1 <1>   0.0800 
 50 H       -8.9190    -0.5040    -1.0700 H     1 <1>   0.0800 
@<TRIPOS>BOND
  1   1   2  2   
  2   2   3  1   
  3   2   4  1   
  4   3   5  1   
  5   4   6  1   
  6   4   7  1   
  7   4  24  1   
  8   5   8  1   
  9   5  25  1   
 10   5  26  1   
 11   6   9  1   
 12   6  27  1   
 13   6  28  1   
 14   7  10  1   
 15   7  29  1   
 16   7  30  1   
 17   8  31  1   
 18   8  32  1   
 19   8  33  1   
 20   9  11  1   
 21   9  12  1   
 22   9  34  1   
 23  10  11  1   
 24  10  35  1   
 25  10  36  1   
 26  11  37  1   
 27  11  38  1   
 28  12  13  1   
 29  12  39  1   
 30  12  40  1   
 31  13  14  1   
 32  13  41  1   
 33  13  42  1   
 34  14  15  2   
 35  14  16  am  
 36  16  17  1   
 37  16  43  1   
 38  17  18  ar  
 39  17  19  ar  
 40  18  20  ar  
 41  18  44  1   
 42  19  21  ar  
 43  19  45  1   
 44  20  22  ar  
 45  20  23  1   
 46  21  22  ar  
 47  21  46  1   
 48  22  47  1   
 49  23  48  1   
 50  23  49  1   
 51  23  50  1   
@<TRIPOS>SUBSTRUCTURE
  1 ****  12 GROUP 4 **** **** 0

# MOE 2024.06 (io_trps.svl 2023.06)
