@<TRIPOS>MOLECULE
NONAME
49 51 1 0 0 
SMALL
USER_CHARGES


@<TRIPOS>ATOM
  1 O       -7.6990     4.7100     2.1940 O.2   1 <1>  -0.5700 
  2 C       -7.6680     3.7620     1.4560 C.2   1 <1>   0.5690 
  3 N       -8.7730     2.9580     1.3680 N.am  1 <1>  -0.5470 
  4 C       -6.3960     3.5470     0.6100 C.3   1 <1>   0.4040 
  5 C       -9.0550     1.7600     0.7330 C.ar  1 <1>   0.1170 
  6 N       -5.5350     4.7870     0.4920 N.4   1 <1>  -0.9590 
  7 C      -10.3500     1.5710     0.1450 C.ar  1 <1>   0.0000 
  8 C       -8.1540     0.7230     0.6860 C.ar  1 <1>  -0.1500 
  9 C       -6.1950     5.8520    -0.3220 C.3   1 <1>   0.3430 
 10 C       -4.1490     4.4930     0.0270 C.3   1 <1>   0.3430 
 11 C      -10.6390     0.3300    -0.4530 C.ar  1 <1>   0.3610 
 12 C      -11.3530     2.5560     0.1220 C.ar  1 <1>  -0.1500 
 13 C       -8.4510    -0.5120     0.0840 C.ar  1 <1>   0.4610 
 14 C       -5.3750     7.1410    -0.2460 C.3   1 <1>  -0.1600 
 15 C       -3.2970     5.7610     0.1100 C.3   1 <1>  -0.1600 
 16 N       -9.6680    -0.6510    -0.4570 N.ar  1 <1>  -0.1790 
 17 C      -11.8900     0.1020    -1.0350 C.ar  1 <1>  -0.1500 
 18 C      -12.5770     2.3160    -0.4550 C.ar  1 <1>  -0.1500 
 19 N       -7.5870    -1.5590     0.0360 N.pl3 1 <1>  -0.8380 
 20 C       -3.9210     6.9190    -0.6790 C.3   1 <1>  -0.1600 
 21 C      -12.8510     1.0830    -1.0360 C.ar  1 <1>  -0.1500 
 22 C       -7.7030    -2.7460    -0.8780 C.3   1 <1>   0.1290 
 23 C       -6.3850    -1.6790     0.9250 C.3   1 <1>   0.1290 
 24 H       -9.5490     3.3720     1.8990 H     1 <1>   0.3700 
 25 H       -6.6830     3.2110    -0.3710 H     1 <1>   0.0800 
 26 H       -5.8240     2.7660     1.0800 H     1 <1>   0.0800 
 27 H       -5.4770     5.1810     1.4470 H     1 <1>   0.4500 
 28 H       -7.1910     0.8370     1.1390 H     1 <1>   0.1500 
 29 H       -7.1890     6.0450     0.0530 H     1 <1>   0.0800 
 30 H       -6.2720     5.5360    -1.3500 H     1 <1>   0.0800 
 31 H       -4.1710     4.1440    -0.9930 H     1 <1>   0.0800 
 32 H       -3.7040     3.7260     0.6420 H     1 <1>   0.0800 
 33 H      -11.1780     3.5250     0.5570 H     1 <1>   0.1500 
 34 H       -5.4050     7.5220     0.7610 H     1 <1>   0.0800 
 35 H       -5.8270     7.8830    -0.8810 H     1 <1>   0.0800 
 36 H       -2.3160     5.5520    -0.2810 H     1 <1>   0.0800 
 37 H       -3.1760     6.0440     1.1420 H     1 <1>   0.0800 
 38 H       -9.8940    -1.5640    -0.8410 H     1 <1>   0.4570 
 39 H      -12.1150    -0.8480    -1.4900 H     1 <1>   0.1500 
 40 H      -13.3380     3.0820    -0.4630 H     1 <1>   0.1500 
 41 H       -3.3500     7.8190    -0.5190 H     1 <1>   0.0800 
 42 H       -3.8890     6.6960    -1.7330 H     1 <1>   0.0800 
 43 H      -13.8190     0.9140    -1.4820 H     1 <1>   0.1500 
 44 H       -8.3450    -2.5440    -1.7170 H     1 <1>   0.0800 
 45 H       -8.0820    -3.5950    -0.3330 H     1 <1>   0.0800 
 46 H       -6.7310    -3.0020    -1.2690 H     1 <1>   0.0800 
 47 H       -6.5110    -1.1150     1.8330 H     1 <1>   0.0800 
 48 H       -5.5060    -1.3330     0.4070 H     1 <1>   0.0800 
 49 H       -6.2320    -2.7090     1.2060 H     1 <1>   0.0800 
@<TRIPOS>BOND
  1   1   2  2   
  2   2   3  am  
  3   2   4  1   
  4   3   5  1   
  5   3  24  1   
  6   4   6  1   
  7   4  25  1   
  8   4  26  1   
  9   5   7  ar  
 10   5   8  ar  
 11   6   9  1   
 12   6  10  1   
 13   6  27  1   
 14   7  11  ar  
 15   7  12  ar  
 16   8  13  ar  
 17   8  28  1   
 18   9  14  1   
 19   9  29  1   
 20   9  30  1   
 21  10  15  1   
 22  10  31  1   
 23  10  32  1   
 24  11  16  ar  
 25  11  17  ar  
 26  12  18  ar  
 27  12  33  1   
 28  13  16  ar  
 29  13  19  1   
 30  14  20  1   
 31  14  34  1   
 32  14  35  1   
 33  15  20  1   
 34  15  36  1   
 35  15  37  1   
 36  16  38  1   
 37  17  21  ar  
 38  17  39  1   
 39  18  21  ar  
 40  18  40  1   
 41  19  22  1   
 42  19  23  1   
 43  20  41  1   
 44  20  42  1   
 45  21  43  1   
 46  22  44  1   
 47  22  45  1   
 48  22  46  1   
 49  23  47  1   
 50  23  48  1   
 51  23  49  1   
@<TRIPOS>SUBSTRUCTURE
  1 ****   5 GROUP 4 **** **** 0

# MOE 2024.06 (io_trps.svl 2023.06)
