@<TRIPOS>MOLECULE
NONAME
41 43 1 0 0 
SMALL
USER_CHARGES


@<TRIPOS>ATOM
  1 CL      -0.2030     0.3870    -0.3150 Cl    1 <1>  -0.1770 
  2 C       -0.7070    -1.2790    -0.4790 C.ar  1 <1>   0.1770 
  3 C        0.1100    -2.3250    -0.0410 C.ar  1 <1>   0.0860 
  4 C       -1.9480    -1.5010    -1.0480 C.ar  1 <1>  -0.1500 
  5 C        1.4190    -2.1370     0.5480 C.2   1 <1>   0.5440 
  6 C       -0.4000    -3.6170    -0.1890 C.ar  1 <1>  -0.1500 
  7 C       -2.4190    -2.7940    -1.1890 C.ar  1 <1>  -0.1500 
  8 O        1.7360    -2.7900     1.5200 O.2   1 <1>  -0.5700 
  9 N        2.3090    -1.2260     0.0160 N.am  1 <1>  -0.4940 
 10 C       -1.6410    -3.8520    -0.7550 C.ar  1 <1>  -0.1500 
 11 C        3.6870    -1.1120     0.1520 C.2   1 <1>   0.1040 
 12 S        4.6270    -2.5460     0.5630 S.3   1 <1>  -0.0800 
 13 C        4.5070    -0.0290    -0.0380 C.2   1 <1>  -0.0860 
 14 C        6.1250    -1.6510     0.4510 C.2   1 <1>  -0.1400 
 15 C        5.9000    -0.3770     0.1180 C.2   1 <1>  -0.1810 
 16 C        4.0480     1.3030    -0.3290 C.2   1 <1>   0.7160 
 17 C        7.4640    -2.3060     0.7090 C.3   1 <1>   0.3000 
 18 C        7.1030     0.5430    -0.0330 C.3   1 <1>   0.0210 
 19 O        4.6630     2.0830    -1.0270 O.2   1 <1>  -0.5700 
 20 N        2.8860     1.7620     0.1830 N.am  1 <1>  -0.8000 
 21 O        8.4630    -1.3150     0.7760 O.3   1 <1>  -0.5600 
 22 C        8.4260    -0.2640    -0.1570 C.3   1 <1>   0.2800 
 23 C        8.6210    -0.8420    -1.5680 C.3   1 <1>  -0.2400 
 24 C        9.6220     0.6260     0.1840 C.3   1 <1>  -0.2400 
 25 H       -2.5440    -0.6670    -1.3750 H     1 <1>   0.1500 
 26 H        0.1940    -4.4500     0.1500 H     1 <1>   0.1500 
 27 H       -3.3850    -2.9770    -1.6300 H     1 <1>   0.1500 
 28 H        1.8720    -0.5050    -0.5610 H     1 <1>   0.3700 
 29 H       -2.0030    -4.8620    -0.8560 H     1 <1>   0.1500 
 30 H        7.7120    -2.9980    -0.0760 H     1 <1>   0.0800 
 31 H        7.4550    -2.8250     1.6510 H     1 <1>   0.0800 
 32 H        7.1480     1.1920     0.8220 H     1 <1>   0.0800 
 33 H        6.9970     1.1600    -0.9060 H     1 <1>   0.0800 
 34 H        2.6530     2.7440     0.0390 H     1 <1>   0.3700 
 35 H        2.4370     1.2960     0.9720 H     1 <1>   0.3700 
 36 H        7.7640    -1.4120    -1.8780 H     1 <1>   0.0800 
 37 H        9.4960    -1.4660    -1.5980 H     1 <1>   0.0800 
 38 H        8.7500    -0.0430    -2.2760 H     1 <1>   0.0800 
 39 H        9.5350     0.9940     1.1910 H     1 <1>   0.0800 
 40 H        9.6660     1.4660    -0.4840 H     1 <1>   0.0800 
 41 H       10.5370     0.0690     0.0950 H     1 <1>   0.0800 
@<TRIPOS>BOND
  1   1   2  1   
  2   2   3  ar  
  3   2   4  ar  
  4   3   5  1   
  5   3   6  ar  
  6   4   7  ar  
  7   4  25  1   
  8   5   8  2   
  9   5   9  am  
 10   6  10  ar  
 11   6  26  1   
 12   7  10  ar  
 13   7  27  1   
 14   9  11  1   
 15   9  28  1   
 16  10  29  1   
 17  11  12  1   
 18  11  13  2   
 19  12  14  1   
 20  13  15  1   
 21  13  16  1   
 22  14  15  2   
 23  14  17  1   
 24  15  18  1   
 25  16  19  2   
 26  16  20  am  
 27  17  21  1   
 28  17  30  1   
 29  17  31  1   
 30  18  22  1   
 31  18  32  1   
 32  18  33  1   
 33  20  34  1   
 34  20  35  1   
 35  21  22  1   
 36  22  23  1   
 37  22  24  1   
 38  23  36  1   
 39  23  37  1   
 40  23  38  1   
 41  24  39  1   
 42  24  40  1   
 43  24  41  1   
@<TRIPOS>SUBSTRUCTURE
  1 ****  11 GROUP 4 **** **** 0

# MOE 2024.06 (io_trps.svl 2023.06)
