@<TRIPOS>MOLECULE
NONAME
34 35 1 0 0 
SMALL
USER_CHARGES


@<TRIPOS>ATOM
  1 S        0.3730    -0.1180     0.3370 S.3   1 <1>  -0.2860 
  2 C        1.1370     1.4880     0.5560 C.2   1 <1>   0.2420 
  3 C       -1.3170     0.2620    -0.2980 C.3   1 <1>   0.1500 
  4 N        0.5120     2.5970     0.3700 N.2   1 <1>  -0.5650 
  5 N        2.4340     1.5920     0.9400 N.pl3 1 <1>   0.0480 
  6 C       -2.2060    -0.9360     0.0310 C.3   1 <1>  -0.2400 
  7 C       -1.2060     0.5050    -1.8030 C.3   1 <1>  -0.2400 
  8 C        1.4610     3.5330     0.6470 C.ar  1 <1>   0.2270 
  9 C        2.6600     2.9340     1.0010 C.ar  1 <1>  -0.1520 
 10 C        3.3880     0.5110     1.2490 C.3   1 <1>   0.1570 
 11 C        1.3590     4.9220     0.6150 C.ar  1 <1>  -0.1500 
 12 C        3.7820     3.7040     1.3210 C.ar  1 <1>  -0.1500 
 13 C        4.2290     0.1860     0.0370 C.2   1 <1>   0.6590 
 14 C        2.4600     5.6860     0.9340 C.ar  1 <1>  -0.1500 
 15 C        3.6710     5.0770     1.2860 C.ar  1 <1>  -0.1500 
 16 O        4.1190    -0.8600    -0.5470 O.2   1 <1>  -0.5700 
 17 O        5.1150     1.1070    -0.3270 O.3   1 <1>  -0.4300 
 18 C        5.9450     0.9340    -1.4570 C.3   1 <1>   0.0400 
 19 H       -1.6620     1.1450     0.2140 H     1 <1>   0.0800 
 20 H       -1.8270    -1.8250    -0.4400 H     1 <1>   0.0800 
 21 H       -3.2080    -0.7580    -0.3170 H     1 <1>   0.0800 
 22 H       -2.2350    -1.0880     1.0950 H     1 <1>   0.0800 
 23 H       -0.8040    -0.3620    -2.2950 H     1 <1>   0.0800 
 24 H       -0.5600     1.3440    -1.9910 H     1 <1>   0.0800 
 25 H       -2.1750     0.7220    -2.2150 H     1 <1>   0.0800 
 26 H        2.8510    -0.3670     1.5550 H     1 <1>   0.0800 
 27 H        4.0250     0.8230     2.0520 H     1 <1>   0.0800 
 28 H        0.4200     5.3630     0.3400 H     1 <1>   0.1500 
 29 H        4.7120     3.2330     1.5840 H     1 <1>   0.1500 
 30 H        2.3980     6.7610     0.9140 H     1 <1>   0.1500 
 31 H        4.5170     5.6960     1.5270 H     1 <1>   0.1500 
 32 H        6.5690     1.8040    -1.5600 H     1 <1>   0.0800 
 33 H        5.3240     0.8190    -2.3290 H     1 <1>   0.0800 
 34 H        6.5510     0.0560    -1.3150 H     1 <1>   0.0800 
@<TRIPOS>BOND
  1   1   2  1   
  2   1   3  1   
  3   2   4  2   
  4   2   5  1   
  5   3   6  1   
  6   3   7  1   
  7   3  19  1   
  8   4   8  1   
  9   5   9  1   
 10   5  10  1   
 11   6  20  1   
 12   6  21  1   
 13   6  22  1   
 14   7  23  1   
 15   7  24  1   
 16   7  25  1   
 17   8   9  ar  
 18   8  11  ar  
 19   9  12  ar  
 20  10  13  1   
 21  10  26  1   
 22  10  27  1   
 23  11  14  ar  
 24  11  28  1   
 25  12  15  ar  
 26  12  29  1   
 27  13  16  2   
 28  13  17  1   
 29  14  15  ar  
 30  14  30  1   
 31  15  31  1   
 32  17  18  1   
 33  18  32  1   
 34  18  33  1   
 35  18  34  1   
@<TRIPOS>SUBSTRUCTURE
  1 ****   5 GROUP 4 **** **** 0

# MOE 2024.06 (io_trps.svl 2023.06)
