@<TRIPOS>MOLECULE
NONAME
48 50 1 0 0 
SMALL
USER_CHARGES


@<TRIPOS>ATOM
  1 CL      -0.3710    -3.5230     2.7180 Cl    1 <1>  -0.1770 
  2 C       -1.3870    -2.6640     1.5750 C.ar  1 <1>   0.1770 
  3 C       -1.0420    -2.6010     0.2180 C.ar  1 <1>   0.1000 
  4 C       -2.5300    -2.0600     2.0640 C.ar  1 <1>  -0.1500 
  5 N        0.0990    -3.1910    -0.3400 N.pl3 1 <1>  -0.8380 
  6 C       -1.8960    -1.9030    -0.6270 C.ar  1 <1>  -0.1500 
  7 C       -3.3630    -1.3710     1.1990 C.ar  1 <1>  -0.1500 
  8 C        0.1130    -4.6840    -0.3870 C.3   1 <1>   0.2090 
  9 C        1.4080    -2.5710     0.0330 C.3   1 <1>   0.2090 
 10 C       -3.0430    -1.2940    -0.1460 C.ar  1 <1>  -0.1500 
 11 C        1.2630    -5.1980    -1.2770 C.3   1 <1>   0.3430 
 12 C        2.5470    -3.1060    -0.8590 C.3   1 <1>   0.3430 
 13 N        2.5980    -4.6170    -0.8870 N.4   1 <1>  -0.9590 
 14 C        3.7000    -5.1160    -1.7520 C.3   1 <1>   0.4860 
 15 C        5.0160    -4.6250    -1.1830 C.ar  1 <1>  -0.1430 
 16 C        5.4640    -5.0980     0.0390 C.ar  1 <1>  -0.1500 
 17 C        5.7800    -3.6920    -1.8650 C.ar  1 <1>  -0.1500 
 18 C        6.6470    -4.6480     0.6010 C.ar  1 <1>   0.0830 
 19 C        6.9660    -3.2320    -1.3220 C.ar  1 <1>  -0.1500 
 20 O        6.9260    -5.2130     1.8100 O.3   1 <1>  -0.3630 
 21 C        7.4170    -3.6920    -0.0850 C.ar  1 <1>   0.0830 
 22 C        8.2030    -5.1610     2.4080 C.3   1 <1>   0.0400 
 23 O        8.5750    -3.2190     0.4600 O.3   1 <1>  -0.3630 
 24 C        9.4450    -2.3480    -0.2310 C.3   1 <1>   0.0400 
 25 H       -2.7660    -2.1270     3.1110 H     1 <1>   0.1500 
 26 H       -1.6550    -1.8390    -1.6730 H     1 <1>   0.1500 
 27 H       -4.2560    -0.8960     1.5700 H     1 <1>   0.1500 
 28 H       -0.8270    -5.0320    -0.7810 H     1 <1>   0.0800 
 29 H        0.2210    -5.0830     0.6060 H     1 <1>   0.0800 
 30 H        1.6340    -2.7770     1.0640 H     1 <1>   0.0800 
 31 H        1.3380    -1.5020    -0.0810 H     1 <1>   0.0800 
 32 H       -3.6900    -0.7590    -0.8200 H     1 <1>   0.1500 
 33 H        1.0380    -4.9310    -2.2970 H     1 <1>   0.0800 
 34 H        1.2970    -6.2740    -1.2160 H     1 <1>   0.0800 
 35 H        3.4840    -2.7130    -0.4980 H     1 <1>   0.0800 
 36 H        2.3940    -2.7310    -1.8570 H     1 <1>   0.0800 
 37 H        2.8140    -4.9150     0.0730 H     1 <1>   0.4500 
 38 H        3.5760    -4.7560    -2.7610 H     1 <1>   0.0800 
 39 H        3.7010    -6.1940    -1.7690 H     1 <1>   0.0800 
 40 H        4.9070    -5.8370     0.5880 H     1 <1>   0.1500 
 41 H        5.4670    -3.3130    -2.8240 H     1 <1>   0.1500 
 42 H        7.5270    -2.5080    -1.8820 H     1 <1>   0.1500 
 43 H        8.2100    -5.8330     3.2460 H     1 <1>   0.0800 
 44 H        8.3880    -4.1570     2.7470 H     1 <1>   0.0800 
 45 H        8.9410    -5.4650     1.6870 H     1 <1>   0.0800 
 46 H       10.3020    -2.1700     0.3930 H     1 <1>   0.0800 
 47 H        8.9350    -1.4200    -0.4200 H     1 <1>   0.0800 
 48 H        9.7540    -2.8170    -1.1480 H     1 <1>   0.0800 
@<TRIPOS>BOND
  1   1   2  1   
  2   2   3  ar  
  3   2   4  ar  
  4   3   5  1   
  5   3   6  ar  
  6   4   7  ar  
  7   4  25  1   
  8   5   8  1   
  9   5   9  1   
 10   6  10  ar  
 11   6  26  1   
 12   7  10  ar  
 13   7  27  1   
 14   8  11  1   
 15   8  28  1   
 16   8  29  1   
 17   9  12  1   
 18   9  30  1   
 19   9  31  1   
 20  10  32  1   
 21  11  13  1   
 22  11  33  1   
 23  11  34  1   
 24  12  13  1   
 25  12  35  1   
 26  12  36  1   
 27  13  14  1   
 28  13  37  1   
 29  14  15  1   
 30  14  38  1   
 31  14  39  1   
 32  15  16  ar  
 33  15  17  ar  
 34  16  18  ar  
 35  16  40  1   
 36  17  19  ar  
 37  17  41  1   
 38  18  20  1   
 39  18  21  ar  
 40  19  21  ar  
 41  19  42  1   
 42  20  22  1   
 43  21  23  1   
 44  22  43  1   
 45  22  44  1   
 46  22  45  1   
 47  23  24  1   
 48  24  46  1   
 49  24  47  1   
 50  24  48  1   
@<TRIPOS>SUBSTRUCTURE
  1 ****  12 GROUP 4 **** **** 0

# MOE 2024.06 (io_trps.svl 2023.06)
