@<TRIPOS>MOLECULE
NONAME
44 46 1 0 0 
SMALL
USER_CHARGES


@<TRIPOS>ATOM
  1 CL      -1.7890     3.6910    -2.2580 Cl    1 <1>  -0.1770 
  2 C       -2.3940     2.7730    -0.9060 C.ar  1 <1>   0.1770 
  3 C       -3.5270     1.9990    -1.0730 C.ar  1 <1>  -0.1500 
  4 C       -1.7390     2.8350     0.3080 C.ar  1 <1>  -0.1500 
  5 C       -4.0250     1.2720     0.0000 C.ar  1 <1>  -0.1440 
  6 C       -2.2280     2.1040     1.3770 C.ar  1 <1>  -0.1500 
  7 C       -3.3650     1.3260     1.2220 C.ar  1 <1>  -0.1500 
  8 C       -5.2800     0.4330    -0.1580 C.3   1 <1>   0.4870 
  9 N       -6.4530     1.3420    -0.2340 N.4   1 <1>  -0.9590 
 10 C       -6.6270     2.1480     1.0330 C.3   1 <1>   0.3430 
 11 C       -7.7220     0.6000    -0.5700 C.3   1 <1>   0.3430 
 12 C       -7.8390     3.0960     0.9640 C.3   1 <1>   0.2090 
 13 C       -8.9440     1.5360    -0.6550 C.3   1 <1>   0.2090 
 14 N       -9.0790     2.3560     0.5850 N.pl3 1 <1>  -0.8380 
 15 C      -10.2500     3.1250     0.6430 C.ar  1 <1>   0.1000 
 16 C      -10.5230     4.2070    -0.2150 C.ar  1 <1>   0.0830 
 17 C      -11.1860     2.7860     1.6090 C.ar  1 <1>  -0.1500 
 18 O       -9.5910     4.5350    -1.1660 O.3   1 <1>  -0.3630 
 19 C      -11.7180     4.9080    -0.0770 C.ar  1 <1>  -0.1500 
 20 C      -12.3700     3.4880     1.7400 C.ar  1 <1>  -0.1500 
 21 C       -9.7870     5.6350    -2.0310 C.3   1 <1>   0.0400 
 22 C      -12.6360     4.5500     0.8960 C.ar  1 <1>  -0.1500 
 23 H       -3.9940     1.9790    -2.0420 H     1 <1>   0.1500 
 24 H       -0.8580     3.4450     0.4110 H     1 <1>   0.1500 
 25 H       -1.7200     2.1410     2.3270 H     1 <1>   0.1500 
 26 H       -3.7210     0.7620     2.0690 H     1 <1>   0.1500 
 27 H       -5.3820    -0.2390     0.6780 H     1 <1>   0.0800 
 28 H       -5.2040    -0.1530    -1.0600 H     1 <1>   0.0800 
 29 H       -6.2740     2.0200    -0.9840 H     1 <1>   0.4500 
 30 H       -5.7410     2.7310     1.2240 H     1 <1>   0.0800 
 31 H       -6.7720     1.4830     1.8680 H     1 <1>   0.0800 
 32 H       -7.9220    -0.1370     0.1890 H     1 <1>   0.0800 
 33 H       -7.6120     0.0870    -1.5110 H     1 <1>   0.0800 
 34 H       -7.6440     3.8790     0.2520 H     1 <1>   0.0800 
 35 H       -7.9870     3.5590     1.9250 H     1 <1>   0.0800 
 36 H       -9.8370     0.9490    -0.7840 H     1 <1>   0.0800 
 37 H       -8.8490     2.1790    -1.5120 H     1 <1>   0.0800 
 38 H      -10.9800     1.9610     2.2650 H     1 <1>   0.1500 
 39 H      -11.9630     5.7380    -0.7120 H     1 <1>   0.1500 
 40 H      -13.0830     3.2090     2.4960 H     1 <1>   0.1500 
 41 H       -8.9300     5.7140    -2.6750 H     1 <1>   0.0800 
 42 H       -9.8830     6.5300    -1.4420 H     1 <1>   0.0800 
 43 H      -10.6710     5.4650    -2.6200 H     1 <1>   0.0800 
 44 H      -13.5570     5.0970     0.9960 H     1 <1>   0.1500 
@<TRIPOS>BOND
  1   1   2  1   
  2   2   3  ar  
  3   2   4  ar  
  4   3   5  ar  
  5   3  23  1   
  6   4   6  ar  
  7   4  24  1   
  8   5   7  ar  
  9   5   8  1   
 10   6   7  ar  
 11   6  25  1   
 12   7  26  1   
 13   8   9  1   
 14   8  27  1   
 15   8  28  1   
 16   9  10  1   
 17   9  11  1   
 18   9  29  1   
 19  10  12  1   
 20  10  30  1   
 21  10  31  1   
 22  11  13  1   
 23  11  32  1   
 24  11  33  1   
 25  12  14  1   
 26  12  34  1   
 27  12  35  1   
 28  13  14  1   
 29  13  36  1   
 30  13  37  1   
 31  14  15  1   
 32  15  16  ar  
 33  15  17  ar  
 34  16  18  1   
 35  16  19  ar  
 36  17  20  ar  
 37  17  38  1   
 38  18  21  1   
 39  19  22  ar  
 40  19  39  1   
 41  20  22  ar  
 42  20  40  1   
 43  21  41  1   
 44  21  42  1   
 45  21  43  1   
 46  22  44  1   
@<TRIPOS>SUBSTRUCTURE
  1 ****  12 GROUP 4 **** **** 0

# MOE 2024.06 (io_trps.svl 2023.06)
