@<TRIPOS>MOLECULE
NONAME
38 40 1 0 0 
SMALL
USER_CHARGES


@<TRIPOS>ATOM
  1 O        0.0150    -1.0860    -1.1000 O.co2 1 <1>  -0.9000 
  2 C        0.0690    -1.4690     0.0690 C.2   1 <1>   0.9060 
  3 O        1.1170    -1.4260     0.7230 O.co2 1 <1>  -0.9000 
  4 C       -1.1440    -2.0880     0.7480 C.3   1 <1>  -0.1860 
  5 C       -1.2300    -3.7800     0.7220 C.3   1 <1>  -0.0190 
  6 C       -2.5580    -1.5070     0.1480 C.3   1 <1>  -0.0800 
  7 C       -0.0170    -4.6390     0.3070 C.2   1 <1>   0.5690 
  8 C       -2.6110    -4.1710    -0.0830 C.3   1 <1>  -0.0800 
  9 C       -2.5920    -2.8390     0.0560 C.3   1 <1>  -0.1600 
 10 C       -3.9460    -1.9220    -0.6100 C.3   1 <1>  -0.1600 
 11 O       -0.2340    -5.7840    -0.0230 O.2   1 <1>  -0.5700 
 12 N        1.2530    -4.1430     0.3940 N.am  1 <1>  -0.5470 
 13 C       -4.0310    -3.5900    -0.6400 C.3   1 <1>  -0.1600 
 14 C        2.5090    -4.6980     0.1180 C.ar  1 <1>   0.1170 
 15 C        2.7650    -6.0660     0.0990 C.ar  1 <1>  -0.1500 
 16 C        3.5590    -3.8260    -0.1320 C.ar  1 <1>  -0.1500 
 17 C        4.0340    -6.5540    -0.1690 C.ar  1 <1>  -0.1440 
 18 C        4.8300    -4.3020    -0.3980 C.ar  1 <1>  -0.1500 
 19 C        5.0680    -5.6660    -0.4170 C.ar  1 <1>  -0.1500 
 20 C        4.2920    -8.0500    -0.1900 C.3   1 <1>  -0.0970 
 21 H       -1.0580    -1.7830     1.7780 H     1 <1>   0.0800 
 22 H       -1.3770    -4.0810     1.7490 H     1 <1>   0.0800 
 23 H       -2.9440    -0.9830     1.0100 H     1 <1>   0.0800 
 24 H       -2.2260    -4.6410    -0.9800 H     1 <1>   0.0800 
 25 H       -3.1030    -2.9040     1.1110 H     1 <1>   0.0800 
 26 H       -2.0690    -2.7610    -0.9960 H     1 <1>   0.0800 
 27 H       -3.9360    -1.5330    -1.6170 H     1 <1>   0.0800 
 28 H       -4.8040    -1.5050    -0.1070 H     1 <1>   0.0800 
 29 H        1.3030    -3.1240     0.5830 H     1 <1>   0.3700 
 30 H       -4.8430    -3.9340    -0.0170 H     1 <1>   0.0800 
 31 H       -4.2210    -3.9380    -1.6440 H     1 <1>   0.0800 
 32 H        1.9620    -6.7500     0.2980 H     1 <1>   0.1500 
 33 H        3.3660    -2.7650    -0.1190 H     1 <1>   0.1500 
 34 H        5.6290    -3.6080    -0.5910 H     1 <1>   0.1500 
 35 H        6.0580    -6.0300    -0.6240 H     1 <1>   0.1500 
 36 H        3.3730    -8.5880    -0.3400 H     1 <1>   0.0800 
 37 H        4.7250    -8.3560     0.7450 H     1 <1>   0.0800 
 38 H        4.9670    -8.2990    -0.9880 H     1 <1>   0.0800 
@<TRIPOS>BOND
  1   1   2  ar  
  2   2   3  ar  
  3   2   4  1   
  4   4   5  1   
  5   4   6  1   
  6   4  21  1   
  7   5   7  1   
  8   5   8  1   
  9   5  22  1   
 10   6   9  1   
 11   6  10  1   
 12   6  23  1   
 13   7  11  2   
 14   7  12  am  
 15   8   9  1   
 16   8  13  1   
 17   8  24  1   
 18   9  25  1   
 19   9  26  1   
 20  10  13  1   
 21  10  27  1   
 22  10  28  1   
 23  12  14  1   
 24  12  29  1   
 25  13  30  1   
 26  13  31  1   
 27  14  15  ar  
 28  14  16  ar  
 29  15  17  ar  
 30  15  32  1   
 31  16  18  ar  
 32  16  33  1   
 33  17  19  ar  
 34  17  20  1   
 35  18  19  ar  
 36  18  34  1   
 37  19  35  1   
 38  20  36  1   
 39  20  37  1   
 40  20  38  1   
@<TRIPOS>SUBSTRUCTURE
  1 ****  12 GROUP 4 **** **** 0

# MOE 2024.06 (io_trps.svl 2023.06)
