@<TRIPOS>MOLECULE
NONAME
38 38 1 0 0 
SMALL
USER_CHARGES


@<TRIPOS>ATOM
  1 O       -0.0880    -0.3430     0.2120 O.3   1 <1>  -0.3630 
  2 C       -1.3220    -0.9010     0.1070 C.ar  1 <1>   0.0830 
  3 C        1.0690    -1.0820    -0.0840 C.3   1 <1>   0.1200 
  4 C       -1.5480    -2.2170    -0.2880 C.ar  1 <1>  -0.1500 
  5 C       -2.4010    -0.0880     0.4170 C.ar  1 <1>  -0.1500 
  6 C        2.2640    -0.1540     0.1310 C.3   1 <1>  -0.1600 
  7 C       -2.8430    -2.7000    -0.3670 C.ar  1 <1>  -0.1500 
  8 C       -3.6950    -0.5710     0.3380 C.ar  1 <1>  -0.1500 
  9 C        3.5730    -0.8760    -0.1800 C.3   1 <1>   0.3430 
 10 C       -3.9210    -1.8870    -0.0570 C.ar  1 <1>   0.0830 
 11 N        4.7400     0.0020     0.1290 N.4   1 <1>  -0.9590 
 12 O       -5.1550    -2.4450    -0.1630 O.3   1 <1>  -0.3620 
 13 C        4.8650     1.1450    -0.8320 C.3   1 <1>   0.2630 
 14 C        6.0060    -0.7940     0.1520 C.3   1 <1>   0.2630 
 15 C       -6.3150    -1.7040     0.1290 C.3   1 <1>   0.1200 
 16 C       -7.5220    -2.6120    -0.0870 C.3   1 <1>  -0.2400 
 17 H        1.0060    -1.4080    -1.1090 H     1 <1>   0.0800 
 18 H        1.1060    -1.9290     0.5800 H     1 <1>   0.0800 
 19 H       -0.7430    -2.8810    -0.5360 H     1 <1>   0.1500 
 20 H       -2.2200     0.9270     0.7210 H     1 <1>   0.1500 
 21 H        2.2620     0.1690     1.1580 H     1 <1>   0.0800 
 22 H        2.1440     0.6980    -0.5140 H     1 <1>   0.0800 
 23 H       -3.0290    -3.7140    -0.6700 H     1 <1>   0.1500 
 24 H       -4.5060     0.0870     0.5850 H     1 <1>   0.1500 
 25 H        3.5940    -1.1690    -1.2180 H     1 <1>   0.0800 
 26 H        3.6270    -1.7690     0.4220 H     1 <1>   0.0800 
 27 H        4.5920     0.3930     1.0740 H     1 <1>   0.4500 
 28 H        4.9870     0.7780    -1.8380 H     1 <1>   0.0800 
 29 H        5.7190     1.7530    -0.5810 H     1 <1>   0.0800 
 30 H        3.9850     1.7670    -0.7960 H     1 <1>   0.0800 
 31 H        6.1960    -1.2250    -0.8180 H     1 <1>   0.0800 
 32 H        5.9350    -1.5910     0.8750 H     1 <1>   0.0800 
 33 H        6.8390    -0.1640     0.4180 H     1 <1>   0.0800 
 34 H       -6.3540    -0.8560    -0.5330 H     1 <1>   0.0800 
 35 H       -6.2630    -1.3780     1.1530 H     1 <1>   0.0800 
 36 H       -7.5550    -2.9450    -1.1090 H     1 <1>   0.0800 
 37 H       -8.4270    -2.0730     0.1290 H     1 <1>   0.0800 
 38 H       -7.4640    -3.4640     0.5670 H     1 <1>   0.0800 
@<TRIPOS>BOND
  1   1   2  1   
  2   1   3  1   
  3   2   4  ar  
  4   2   5  ar  
  5   3   6  1   
  6   3  17  1   
  7   3  18  1   
  8   4   7  ar  
  9   4  19  1   
 10   5   8  ar  
 11   5  20  1   
 12   6   9  1   
 13   6  21  1   
 14   6  22  1   
 15   7  10  ar  
 16   7  23  1   
 17   8  10  ar  
 18   8  24  1   
 19   9  11  1   
 20   9  25  1   
 21   9  26  1   
 22  10  12  1   
 23  11  13  1   
 24  11  14  1   
 25  11  27  1   
 26  12  15  1   
 27  13  28  1   
 28  13  29  1   
 29  13  30  1   
 30  14  31  1   
 31  14  32  1   
 32  14  33  1   
 33  15  16  1   
 34  15  34  1   
 35  15  35  1   
 36  16  36  1   
 37  16  37  1   
 38  16  38  1   
@<TRIPOS>SUBSTRUCTURE
  1 ****   2 GROUP 4 **** **** 0

# MOE 2024.06 (io_trps.svl 2023.06)
