@<TRIPOS>MOLECULE
NONAME
58 59 1 0 0 
SMALL
USER_CHARGES


@<TRIPOS>ATOM
  1 O       -0.3330    -0.0580     0.2050 O.3   1 <1>  -0.5320 
  2 C       -1.4870    -0.6550     0.5310 C.ar  1 <1>   0.0830 
  3 C       -2.5220     0.1200     1.0770 C.ar  1 <1>  -0.1430 
  4 C       -1.5970    -2.0370     0.3050 C.ar  1 <1>  -0.1430 
  5 C       -3.7020    -0.5460     1.3900 C.ar  1 <1>  -0.1500 
  6 C       -2.3970     1.6550     1.3380 C.3   1 <1>   0.1440 
  7 C       -2.8100    -2.6310     0.6420 C.ar  1 <1>  -0.1500 
  8 C       -0.4390    -2.9030    -0.2890 C.3   1 <1>   0.1440 
  9 C       -3.8550    -1.9010     1.1740 C.ar  1 <1>  -0.1430 
 10 C       -1.2680     1.9470     2.3420 C.3   1 <1>  -0.2400 
 11 C       -3.6700     2.2780     1.9470 C.3   1 <1>  -0.2400 
 12 C       -2.1470     2.4160     0.0240 C.3   1 <1>  -0.2400 
 13 C       -0.0680    -2.4300    -1.7080 C.3   1 <1>  -0.2400 
 14 C       -0.8050    -4.3950    -0.4320 C.3   1 <1>  -0.2400 
 15 C        0.7990    -2.8670     0.6280 C.3   1 <1>  -0.2400 
 16 C       -5.1770    -2.5750     1.5110 C.3   1 <1>   0.2530 
 17 N       -6.2700    -1.9980     0.7010 N.3   1 <1>  -0.8100 
 18 C       -6.0210    -2.1360    -0.7590 C.3   1 <1>   0.1100 
 19 C       -7.5890    -2.5620     1.0640 C.3   1 <1>   0.1100 
 20 C       -7.1760    -1.5590    -1.6140 C.3   1 <1>   0.3430 
 21 C       -8.7410    -1.9090     0.2590 C.3   1 <1>   0.3430 
 22 N       -8.2170    -0.9210    -0.7430 N.4   1 <1>  -0.9590 
 23 C       -9.2850    -0.2160    -1.5070 C.3   1 <1>   0.2630 
 24 H        0.2990    -0.7040    -0.1500 H     1 <1>   0.4500 
 25 H       -4.5470    -0.0370     1.8090 H     1 <1>   0.1500 
 26 H       -2.9800    -3.6790     0.5020 H     1 <1>   0.1500 
 27 H       -1.4200     1.3750     3.2400 H     1 <1>   0.0800 
 28 H       -1.2450     2.9910     2.5990 H     1 <1>   0.0800 
 29 H       -0.3060     1.6930     1.9420 H     1 <1>   0.0800 
 30 H       -4.5080     2.1530     1.2860 H     1 <1>   0.0800 
 31 H       -3.5370     3.3320     2.1120 H     1 <1>   0.0800 
 32 H       -3.8950     1.8260     2.8970 H     1 <1>   0.0800 
 33 H       -2.9080     2.1700    -0.6930 H     1 <1>   0.0800 
 34 H       -1.1930     2.1700    -0.4010 H     1 <1>   0.0800 
 35 H       -2.1600     3.4780     0.1890 H     1 <1>   0.0800 
 36 H       -0.9450    -2.4310    -2.3310 H     1 <1>   0.0800 
 37 H        0.6580    -3.0900    -2.1490 H     1 <1>   0.0800 
 38 H        0.3480    -1.4430    -1.7280 H     1 <1>   0.0800 
 39 H       -1.0430    -4.8220     0.5260 H     1 <1>   0.0800 
 40 H        0.0190    -4.9540    -0.8400 H     1 <1>   0.0800 
 41 H       -1.6420    -4.5210    -1.0950 H     1 <1>   0.0800 
 42 H        1.2500    -1.8980     0.6900 H     1 <1>   0.0800 
 43 H        1.5530    -3.5470     0.2730 H     1 <1>   0.0800 
 44 H        0.5190    -3.1650     1.6230 H     1 <1>   0.0800 
 45 H       -5.3840    -2.4180     2.5560 H     1 <1>   0.0800 
 46 H       -5.1100    -3.6350     1.3380 H     1 <1>   0.0800 
 47 H       -5.8740    -3.1720    -1.0130 H     1 <1>   0.0800 
 48 H       -5.1180    -1.6100    -1.0230 H     1 <1>   0.0800 
 49 H       -7.7680    -2.4060     2.1150 H     1 <1>   0.0800 
 50 H       -7.5930    -3.6250     0.8890 H     1 <1>   0.0800 
 51 H       -7.6160    -2.3510    -2.1960 H     1 <1>   0.0800 
 52 H       -6.7700    -0.8320    -2.2980 H     1 <1>   0.0800 
 53 H       -9.4050    -1.4110     0.9470 H     1 <1>   0.0800 
 54 H       -9.3050    -2.6790    -0.2400 H     1 <1>   0.0800 
 55 H       -7.6710    -0.2560    -0.1690 H     1 <1>   0.4500 
 56 H       -9.8430    -0.9170    -2.1060 H     1 <1>   0.0800 
 57 H       -8.8500     0.5250    -2.1580 H     1 <1>   0.0800 
 58 H       -9.9630     0.2790    -0.8310 H     1 <1>   0.0800 
@<TRIPOS>BOND
  1   1   2  1   
  2   1  24  1   
  3   2   3  ar  
  4   2   4  ar  
  5   3   5  ar  
  6   3   6  1   
  7   4   7  ar  
  8   4   8  1   
  9   5   9  ar  
 10   5  25  1   
 11   6  10  1   
 12   6  11  1   
 13   6  12  1   
 14   7   9  ar  
 15   7  26  1   
 16   8  13  1   
 17   8  14  1   
 18   8  15  1   
 19   9  16  1   
 20  10  27  1   
 21  10  28  1   
 22  10  29  1   
 23  11  30  1   
 24  11  31  1   
 25  11  32  1   
 26  12  33  1   
 27  12  34  1   
 28  12  35  1   
 29  13  36  1   
 30  13  37  1   
 31  13  38  1   
 32  14  39  1   
 33  14  40  1   
 34  14  41  1   
 35  15  42  1   
 36  15  43  1   
 37  15  44  1   
 38  16  17  1   
 39  16  45  1   
 40  16  46  1   
 41  17  18  1   
 42  17  19  1   
 43  18  20  1   
 44  18  47  1   
 45  18  48  1   
 46  19  21  1   
 47  19  49  1   
 48  19  50  1   
 49  20  22  1   
 50  20  51  1   
 51  20  52  1   
 52  21  22  1   
 53  21  53  1   
 54  21  54  1   
 55  22  23  1   
 56  22  55  1   
 57  23  56  1   
 58  23  57  1   
 59  23  58  1   
@<TRIPOS>SUBSTRUCTURE
  1 ****   9 GROUP 4 **** **** 0

# MOE 2024.06 (io_trps.svl 2023.06)
