@<TRIPOS>MOLECULE
NONAME
31 32 1 0 0 
SMALL
USER_CHARGES


@<TRIPOS>ATOM
  1 O       -0.7860    -0.3390    -0.9910 O.2   1 <1>  -0.5700 
  2 C       -1.0240    -1.1750    -0.1540 C.2   1 <1>   0.5690 
  3 N       -0.1410    -2.1020     0.3360 N.am  1 <1>  -0.2370 
  4 C       -2.4030    -1.3140     0.5010 C.3   1 <1>   0.0610 
  5 C        1.1860    -2.2810    -0.1170 C.ar  1 <1>   0.1170 
  6 C       -0.7460    -2.8430     1.3170 C.2   1 <1>   0.5690 
  7 C       -2.1490    -2.3660     1.5990 C.3   1 <1>  -0.0990 
  8 C       -3.4680    -1.7900    -0.5190 C.3   1 <1>  -0.1600 
  9 C       -2.8650     0.0140     1.1320 C.3   1 <1>  -0.2400 
 10 C        2.0410    -1.1930    -0.2710 C.ar  1 <1>  -0.1500 
 11 C        1.6720    -3.5500    -0.4210 C.ar  1 <1>  -0.1500 
 12 O       -0.2690    -3.7710     1.9180 O.2   1 <1>  -0.5700 
 13 C       -3.1030    -3.0650    -1.3000 C.3   1 <1>  -0.2400 
 14 C        3.3400    -1.3660    -0.7150 C.ar  1 <1>  -0.1500 
 15 C        2.9710    -3.7270    -0.8640 C.ar  1 <1>  -0.1500 
 16 C        3.8070    -2.6340    -1.0120 C.ar  1 <1>  -0.1500 
 17 H       -2.8400    -3.1880     1.5640 H     1 <1>   0.0800 
 18 H       -2.1700    -1.9370     2.5840 H     1 <1>   0.0800 
 19 H       -3.6300    -1.0020    -1.2360 H     1 <1>   0.0800 
 20 H       -4.4020    -1.9510    -0.0090 H     1 <1>   0.0800 
 21 H       -2.1310     0.3800     1.8290 H     1 <1>   0.0800 
 22 H       -3.7990    -0.1140     1.6490 H     1 <1>   0.0800 
 23 H       -2.9970     0.7620     0.3680 H     1 <1>   0.0800 
 24 H        1.6870    -0.2020    -0.0480 H     1 <1>   0.1500 
 25 H        1.0330    -4.4070    -0.3050 H     1 <1>   0.1500 
 26 H       -2.2130    -2.9170    -1.8860 H     1 <1>   0.0800 
 27 H       -3.9030    -3.3120    -1.9760 H     1 <1>   0.0800 
 28 H       -2.9540    -3.9050    -0.6450 H     1 <1>   0.0800 
 29 H        3.9860    -0.5140    -0.8310 H     1 <1>   0.1500 
 30 H        3.3310    -4.7150    -1.0920 H     1 <1>   0.1500 
 31 H        4.8170    -2.7700    -1.3570 H     1 <1>   0.1500 
@<TRIPOS>BOND
  1   1   2  2   
  2   2   3  am  
  3   2   4  1   
  4   3   5  1   
  5   3   6  am  
  6   4   7  1   
  7   4   8  1   
  8   4   9  1   
  9   5  10  ar  
 10   5  11  ar  
 11   6   7  1   
 12   6  12  2   
 13   7  17  1   
 14   7  18  1   
 15   8  13  1   
 16   8  19  1   
 17   8  20  1   
 18   9  21  1   
 19   9  22  1   
 20   9  23  1   
 21  10  14  ar  
 22  10  24  1   
 23  11  15  ar  
 24  11  25  1   
 25  13  26  1   
 26  13  27  1   
 27  13  28  1   
 28  14  16  ar  
 29  14  29  1   
 30  15  16  ar  
 31  15  30  1   
 32  16  31  1   
@<TRIPOS>SUBSTRUCTURE
  1 ****   3 GROUP 4 **** **** 0

# MOE 2024.06 (io_trps.svl 2023.06)
