@<TRIPOS>MOLECULE
NONAME
44 45 1 0 0 
SMALL
USER_CHARGES


@<TRIPOS>ATOM
  1 S       -0.5080    -0.0830    -0.3050 S.3   1 <1>  -0.2860 
  2 C        1.1480    -0.7770    -0.3590 C.2   1 <1>   0.2420 
  3 C       -1.5490    -1.4820    -0.9600 C.3   1 <1>   0.1310 
  4 N        1.3960    -1.9840    -0.7200 N.2   1 <1>  -0.3380 
  5 N        2.2350    -0.0840    -0.0240 N.pl3 1 <1>   0.0480 
  6 C       -3.0310    -1.1430    -0.9190 C.2   1 <1>   0.5690 
  7 N        2.7210    -2.1230    -0.6220 N.2   1 <1>  -0.3380 
  8 C        3.2040    -0.9950    -0.2080 C.2   1 <1>   0.0060 
  9 C        2.3240     1.3170     0.4350 C.3   1 <1>   0.0160 
 10 O       -3.7600    -1.7120    -1.6940 O.2   1 <1>  -0.5700 
 11 N       -3.4620    -0.2170    -0.0070 N.am  1 <1>  -0.5470 
 12 C        4.6810    -0.7090     0.0450 C.3   1 <1>   0.0200 
 13 C       -4.7340     0.2950     0.2950 C.ar  1 <1>   0.1170 
 14 C        5.5770    -1.9460    -0.1200 C.3   1 <1>  -0.1600 
 15 C       -4.8400     1.5210     0.9570 C.ar  1 <1>  -0.1430 
 16 C       -5.9010    -0.3920    -0.0290 C.ar  1 <1>  -0.1500 
 17 C        7.0510    -1.6200     0.1550 C.3   1 <1>  -0.1600 
 18 C       -6.0900     2.0300     1.2750 C.ar  1 <1>  -0.1500 
 19 C       -3.6020     2.3240     1.3390 C.3   1 <1>  -0.0970 
 20 C       -7.1440     0.1230     0.2890 C.ar  1 <1>  -0.1500 
 21 C        7.9280    -2.8630    -0.0150 C.3   1 <1>  -0.2400 
 22 C       -7.2390     1.3370     0.9420 C.ar  1 <1>  -0.1500 
 23 H       -1.3470    -2.3450    -0.3530 H     1 <1>   0.0800 
 24 H       -1.2330    -1.6670    -1.9700 H     1 <1>   0.0800 
 25 H        1.5930     1.9110    -0.0820 H     1 <1>   0.0800 
 26 H        3.3030     1.7090     0.2290 H     1 <1>   0.0800 
 27 H        2.1350     1.3560     1.4920 H     1 <1>   0.0800 
 28 H       -2.7050     0.2410     0.4990 H     1 <1>   0.3700 
 29 H        4.7930    -0.3310     1.0450 H     1 <1>   0.0800 
 30 H        5.0060     0.0520    -0.6420 H     1 <1>   0.0800 
 31 H        5.4730    -2.3250    -1.1230 H     1 <1>   0.0800 
 32 H        5.2450    -2.7140     0.5580 H     1 <1>   0.0800 
 33 H       -5.8470    -1.3390    -0.5320 H     1 <1>   0.1500 
 34 H        7.1590    -1.2470     1.1590 H     1 <1>   0.0800 
 35 H        7.3870    -0.8560    -0.5260 H     1 <1>   0.0800 
 36 H       -6.1810     2.9740     1.7830 H     1 <1>   0.1500 
 37 H       -3.0140     1.7780     2.0540 H     1 <1>   0.0800 
 38 H       -3.8750     3.2670     1.7780 H     1 <1>   0.0800 
 39 H       -3.0070     2.5220     0.4650 H     1 <1>   0.0800 
 40 H       -8.0340    -0.4220     0.0270 H     1 <1>   0.1500 
 41 H        7.6230    -3.6350     0.6710 H     1 <1>   0.0800 
 42 H        8.9570    -2.6190     0.1810 H     1 <1>   0.0800 
 43 H        7.8510    -3.2430    -1.0190 H     1 <1>   0.0800 
 44 H       -8.2050     1.7410     1.1910 H     1 <1>   0.1500 
@<TRIPOS>BOND
  1   1   2  1   
  2   1   3  1   
  3   2   4  2   
  4   2   5  1   
  5   3   6  1   
  6   3  23  1   
  7   3  24  1   
  8   4   7  1   
  9   5   8  1   
 10   5   9  1   
 11   6  10  2   
 12   6  11  am  
 13   7   8  2   
 14   8  12  1   
 15   9  25  1   
 16   9  26  1   
 17   9  27  1   
 18  11  13  1   
 19  11  28  1   
 20  12  14  1   
 21  12  29  1   
 22  12  30  1   
 23  13  15  ar  
 24  13  16  ar  
 25  14  17  1   
 26  14  31  1   
 27  14  32  1   
 28  15  18  ar  
 29  15  19  1   
 30  16  20  ar  
 31  16  33  1   
 32  17  21  1   
 33  17  34  1   
 34  17  35  1   
 35  18  22  ar  
 36  18  36  1   
 37  19  37  1   
 38  19  38  1   
 39  19  39  1   
 40  20  22  ar  
 41  20  40  1   
 42  21  41  1   
 43  21  42  1   
 44  21  43  1   
 45  22  44  1   
@<TRIPOS>SUBSTRUCTURE
  1 ****   1 GROUP 4 **** **** 0

# MOE 2024.06 (io_trps.svl 2023.06)
