@<TRIPOS>MOLECULE
NONAME
41 41 1 0 0 
SMALL
USER_CHARGES


@<TRIPOS>ATOM
  1 CL       0.9460    -0.2280    -0.4510 Cl    1 <1>  -0.1770 
  2 C        1.0840    -1.9640    -0.3510 C.ar  1 <1>   0.1770 
  3 C        1.2290    -2.5630     0.8860 C.ar  1 <1>  -0.1500 
  4 C        1.0450    -2.7160    -1.5100 C.ar  1 <1>  -0.1500 
  5 C        1.3360    -3.9420     0.9620 C.ar  1 <1>  -0.1500 
  6 C        1.1530    -4.0940    -1.4280 C.ar  1 <1>  -0.1500 
  7 C        1.2960    -4.7130    -0.1930 C.ar  1 <1>  -0.1430 
  8 C        1.4040    -6.2260    -0.0970 C.3   1 <1>   0.2640 
  9 O        2.7110    -6.5500     0.2720 O.3   1 <1>  -0.5600 
 10 C        2.9760    -7.9160     0.3600 C.3   1 <1>   0.1200 
 11 C        4.4470    -8.0890     0.7660 C.3   1 <1>   0.2000 
 12 O        5.2240    -7.2400    -0.0230 O.3   1 <1>  -0.6800 
 13 C        4.9660    -9.5300     0.5980 C.3   1 <1>   0.3430 
 14 N        6.4530    -9.5080     0.4460 N.4   1 <1>  -0.9060 
 15 C        7.1090   -10.6360    -0.2070 C.3   1 <1>   0.5030 
 16 C        8.6030   -10.3340    -0.1880 C.3   1 <1>  -0.2400 
 17 C        6.8210   -11.9160     0.5750 C.3   1 <1>  -0.2400 
 18 C        6.6190   -10.7490    -1.6500 C.3   1 <1>  -0.2400 
 19 H        1.2590    -1.9560     1.7730 H     1 <1>   0.1500 
 20 H        0.9330    -2.2250    -2.4600 H     1 <1>   0.1500 
 21 H        1.4550    -4.4130     1.9220 H     1 <1>   0.1500 
 22 H        1.1250    -4.6790    -2.3310 H     1 <1>   0.1500 
 23 H        1.1860    -6.6840    -1.0470 H     1 <1>   0.0800 
 24 H        0.7270    -6.6010     0.6510 H     1 <1>   0.0800 
 25 H        2.7910    -8.3640    -0.6020 H     1 <1>   0.0800 
 26 H        2.3220    -8.3520     1.0970 H     1 <1>   0.0800 
 27 H        4.5640    -7.7760     1.7900 H     1 <1>   0.0800 
 28 H        4.7130    -6.3970    -0.1240 H     1 <1>   0.4000 
 29 H        4.5170    -9.9460    -0.2880 H     1 <1>   0.0800 
 30 H        4.6730   -10.1380     1.4380 H     1 <1>   0.0800 
 31 H        6.9010    -9.3310     1.3470 H     1 <1>   0.4500 
 32 H        6.6290    -8.6520    -0.1090 H     1 <1>   0.4500 
 33 H        9.1450   -11.1330    -0.6630 H     1 <1>   0.0800 
 34 H        8.9700   -10.2470     0.8200 H     1 <1>   0.0800 
 35 H        8.8220    -9.4280    -0.7240 H     1 <1>   0.0800 
 36 H        7.1330   -11.8220     1.6000 H     1 <1>   0.0800 
 37 H        7.3670   -12.7360     0.1400 H     1 <1>   0.0800 
 38 H        5.7780   -12.1740     0.5420 H     1 <1>   0.0800 
 39 H        6.7610    -9.8220    -2.1790 H     1 <1>   0.0800 
 40 H        5.5840   -11.0310    -1.6990 H     1 <1>   0.0800 
 41 H        7.1800   -11.5090    -2.1650 H     1 <1>   0.0800 
@<TRIPOS>BOND
  1   1   2  1   
  2   2   3  ar  
  3   2   4  ar  
  4   3   5  ar  
  5   3  19  1   
  6   4   6  ar  
  7   4  20  1   
  8   5   7  ar  
  9   5  21  1   
 10   6   7  ar  
 11   6  22  1   
 12   7   8  1   
 13   8   9  1   
 14   8  23  1   
 15   8  24  1   
 16   9  10  1   
 17  10  11  1   
 18  10  25  1   
 19  10  26  1   
 20  11  12  1   
 21  11  13  1   
 22  11  27  1   
 23  12  28  1   
 24  13  14  1   
 25  13  29  1   
 26  13  30  1   
 27  14  15  1   
 28  14  31  1   
 29  14  32  1   
 30  15  16  1   
 31  15  17  1   
 32  15  18  1   
 33  16  33  1   
 34  16  34  1   
 35  16  35  1   
 36  17  36  1   
 37  17  37  1   
 38  17  38  1   
 39  18  39  1   
 40  18  40  1   
 41  18  41  1   
@<TRIPOS>SUBSTRUCTURE
  1 ****   9 GROUP 4 **** **** 0

# MOE 2024.06 (io_trps.svl 2023.06)
