@<TRIPOS>MOLECULE
NONAME
45 46 1 0 0 
SMALL
USER_CHARGES


@<TRIPOS>ATOM
  1 CL       0.3860    -0.1430     1.0970 Cl    1 <1>  -0.1770 
  2 C        0.2930    -1.7620     0.4250 C.ar  1 <1>   0.1770 
  3 C       -0.9400    -2.3630     0.2430 C.ar  1 <1>   0.1770 
  4 C        1.4610    -2.4340     0.0770 C.ar  1 <1>   0.0820 
  5 CL      -2.4160    -1.5300     0.6770 Cl    1 <1>  -0.1770 
  6 C       -1.0330    -3.6380    -0.2850 C.ar  1 <1>  -0.1500 
  7 O        2.6480    -1.7990     0.2750 O.3   1 <1>  -0.3630 
  8 C        1.3640    -3.7200    -0.4560 C.ar  1 <1>  -0.1500 
  9 C        0.1240    -4.3150    -0.6340 C.ar  1 <1>  -0.1500 
 10 C        3.8810    -2.4030    -0.0480 C.3   1 <1>   0.1200 
 11 C        4.9900    -1.4160     0.3020 C.3   1 <1>   0.1200 
 12 O        6.2220    -1.9950    -0.0130 O.3   1 <1>  -0.5600 
 13 C        7.3170    -1.1880     0.2640 C.3   1 <1>   0.1200 
 14 C        8.5760    -1.9760    -0.1210 C.3   1 <1>   0.3430 
 15 N        9.8460    -1.2370     0.1820 N.4   1 <1>  -0.9590 
 16 C       10.0190    -0.0270    -0.6780 C.3   1 <1>   0.3430 
 17 C       11.0130    -2.1590     0.0530 C.3   1 <1>   0.3430 
 18 C       11.2730     0.7350    -0.2500 C.3   1 <1>  -0.1600 
 19 C       12.2880    -1.4430     0.4980 C.3   1 <1>  -0.1600 
 20 C       12.5230    -0.1550    -0.3050 C.3   1 <1>  -0.0800 
 21 C       13.7460     0.5980     0.2270 C.3   1 <1>  -0.2400 
 22 H       -2.0000    -4.0910    -0.4200 H     1 <1>   0.1500 
 23 H        2.2390    -4.2750    -0.7380 H     1 <1>   0.1500 
 24 H        0.0590    -5.3080    -1.0470 H     1 <1>   0.1500 
 25 H        3.8880    -2.6190    -1.1020 H     1 <1>   0.0800 
 26 H        3.9810    -3.3030     0.5320 H     1 <1>   0.0800 
 27 H        4.9670    -1.1980     1.3560 H     1 <1>   0.0800 
 28 H        4.8720    -0.5130    -0.2720 H     1 <1>   0.0800 
 29 H        7.3150    -0.9620     1.3160 H     1 <1>   0.0800 
 30 H        7.2270    -0.2870    -0.3190 H     1 <1>   0.0800 
 31 H        8.5330    -2.2070    -1.1730 H     1 <1>   0.0800 
 32 H        8.5640    -2.9030     0.4280 H     1 <1>   0.0800 
 33 H        9.8230    -0.9250     1.1620 H     1 <1>   0.4500 
 34 H        9.1630     0.6220    -0.5880 H     1 <1>   0.0800 
 35 H       10.1140    -0.3230    -1.7110 H     1 <1>   0.0800 
 36 H       11.1170    -2.4760    -0.9720 H     1 <1>   0.0800 
 37 H       10.8630    -3.0350     0.6650 H     1 <1>   0.0800 
 38 H       11.1330     1.1210     0.7450 H     1 <1>   0.0800 
 39 H       11.4080     1.5780    -0.9060 H     1 <1>   0.0800 
 40 H       13.1240    -2.1060     0.3590 H     1 <1>   0.0800 
 41 H       12.2250    -1.2230     1.5490 H     1 <1>   0.0800 
 42 H       12.7130    -0.4190    -1.3330 H     1 <1>   0.0800 
 43 H       13.6080     0.8860     1.2550 H     1 <1>   0.0800 
 44 H       13.9220     1.4870    -0.3540 H     1 <1>   0.0800 
 45 H       14.6250    -0.0210     0.1630 H     1 <1>   0.0800 
@<TRIPOS>BOND
  1   1   2  1   
  2   2   3  ar  
  3   2   4  ar  
  4   3   5  1   
  5   3   6  ar  
  6   4   7  1   
  7   4   8  ar  
  8   6   9  ar  
  9   6  22  1   
 10   7  10  1   
 11   8   9  ar  
 12   8  23  1   
 13   9  24  1   
 14  10  11  1   
 15  10  25  1   
 16  10  26  1   
 17  11  12  1   
 18  11  27  1   
 19  11  28  1   
 20  12  13  1   
 21  13  14  1   
 22  13  29  1   
 23  13  30  1   
 24  14  15  1   
 25  14  31  1   
 26  14  32  1   
 27  15  16  1   
 28  15  17  1   
 29  15  33  1   
 30  16  18  1   
 31  16  34  1   
 32  16  35  1   
 33  17  19  1   
 34  17  36  1   
 35  17  37  1   
 36  18  20  1   
 37  18  38  1   
 38  18  39  1   
 39  19  20  1   
 40  19  40  1   
 41  19  41  1   
 42  20  21  1   
 43  20  42  1   
 44  21  43  1   
 45  21  44  1   
 46  21  45  1   
@<TRIPOS>SUBSTRUCTURE
  1 ****  11 GROUP 4 **** **** 0

# MOE 2024.06 (io_trps.svl 2023.06)
