@<TRIPOS>MOLECULE
NONAME
55 58 1 0 0 
SMALL
USER_CHARGES


@<TRIPOS>ATOM
  1 O       -0.5170    -0.8180    -1.9530 O.2   1 <1>  -0.5700 
  2 C       -0.5170    -0.0220    -1.0670 C.2   1 <1>   0.4480 
  3 C       -0.4570     1.4380    -1.2640 C.3   1 <1>  -0.0190 
  4 C       -0.4570    -0.3060     0.4070 C.3   1 <1>  -0.0190 
  5 C        0.9740     1.7990    -0.7340 C.3   1 <1>   0.5660 
  6 C       -1.7650     2.0350    -0.6280 C.3   1 <1>  -0.1600 
  7 C        1.0240    -0.3980     0.7280 C.3   1 <1>   0.5660 
  8 C       -1.7250    -1.0620     0.7790 C.3   1 <1>  -0.1600 
  9 N        1.7560     0.6770    -0.0420 N.4   1 <1>  -0.9060 
 10 C        1.0150     3.0460     0.1400 C.ar  1 <1>  -0.1440 
 11 C       -2.9490     1.0120    -0.4730 C.3   1 <1>  -0.1600 
 12 C        1.7020    -1.7400     0.5030 C.ar  1 <1>  -0.1440 
 13 C       -2.9080    -0.0410     0.6930 C.3   1 <1>  -0.1600 
 14 C        1.2090     4.2740    -0.4820 C.ar  1 <1>  -0.1500 
 15 C        0.8750     3.0130     1.5250 C.ar  1 <1>  -0.1500 
 16 C        2.0740    -2.4730     1.6220 C.ar  1 <1>  -0.1500 
 17 C        1.9810    -2.2590    -0.7590 C.ar  1 <1>  -0.1500 
 18 C        1.2650     5.4430     0.2560 C.ar  1 <1>  -0.1500 
 19 C        0.9320     4.1810     2.2620 C.ar  1 <1>  -0.1500 
 20 C        2.7120    -3.6920     1.4860 C.ar  1 <1>  -0.1500 
 21 C        2.6180    -3.4800    -0.8950 C.ar  1 <1>  -0.1500 
 22 C        1.1270     5.4010     1.6390 C.ar  1 <1>   0.0820 
 23 C        2.9900    -4.2040     0.2320 C.ar  1 <1>   0.0820 
 24 O        1.1710     6.4920     2.4390 O.3   1 <1>  -0.3630 
 25 O        3.6170    -5.4040     0.1880 O.3   1 <1>  -0.3620 
 26 C        1.3560     7.7890     1.9150 C.3   1 <1>   0.0400 
 27 C        3.8720    -6.0590    -1.0350 C.3   1 <1>   0.0400 
 28 H       -0.4870     1.6330    -2.3220 H     1 <1>   0.0800 
 29 H       -0.6320     0.5780     0.9860 H     1 <1>   0.0800 
 30 H        1.5420     2.0550    -1.6150 H     1 <1>   0.0800 
 31 H       -2.0990     2.8380    -1.2630 H     1 <1>   0.0800 
 32 H       -1.5790     2.4810     0.3330 H     1 <1>   0.0800 
 33 H        1.1200    -0.1800     1.7800 H     1 <1>   0.0800 
 34 H       -1.6590    -1.4590     1.7780 H     1 <1>   0.0800 
 35 H       -1.8850    -1.8860     0.1010 H     1 <1>   0.0800 
 36 H        2.4630     1.1090     0.5640 H     1 <1>   0.4500 
 37 H        2.2860     0.1650    -0.7580 H     1 <1>   0.4500 
 38 H       -3.1020     0.4950    -1.4070 H     1 <1>   0.0800 
 39 H       -3.8430     1.5950    -0.3200 H     1 <1>   0.0800 
 40 H       -2.9370     0.5100     1.6180 H     1 <1>   0.0800 
 41 H       -3.8240    -0.6070     0.6600 H     1 <1>   0.0800 
 42 H        1.3190     4.3440    -1.5520 H     1 <1>   0.1500 
 43 H        0.7150     2.1000     2.0670 H     1 <1>   0.1500 
 44 H        1.8750    -2.1140     2.6190 H     1 <1>   0.1500 
 45 H        1.7090    -1.7440    -1.6630 H     1 <1>   0.1500 
 46 H        1.4160     6.3760    -0.2550 H     1 <1>   0.1500 
 47 H        0.8230     4.1640     3.3330 H     1 <1>   0.1500 
 48 H        3.0010    -4.2610     2.3530 H     1 <1>   0.1500 
 49 H        2.8140    -3.8560    -1.8820 H     1 <1>   0.1500 
 50 H        1.3540     8.4840     2.7350 H     1 <1>   0.0800 
 51 H        0.5460     8.0150     1.2440 H     1 <1>   0.0800 
 52 H        2.3030     7.8300     1.4060 H     1 <1>   0.0800 
 53 H        4.3440    -7.0000    -0.8170 H     1 <1>   0.0800 
 54 H        4.5310    -5.4500    -1.6280 H     1 <1>   0.0800 
 55 H        2.9390    -6.2290    -1.5430 H     1 <1>   0.0800 
@<TRIPOS>BOND
  1   1   2  2   
  2   2   3  1   
  3   2   4  1   
  4   3   5  1   
  5   3   6  1   
  6   3  28  1   
  7   4   7  1   
  8   4   8  1   
  9   4  29  1   
 10   5   9  1   
 11   5  10  1   
 12   5  30  1   
 13   6  11  1   
 14   6  31  1   
 15   6  32  1   
 16   7   9  1   
 17   7  12  1   
 18   7  33  1   
 19   8  13  1   
 20   8  34  1   
 21   8  35  1   
 22   9  36  1   
 23   9  37  1   
 24  10  14  ar  
 25  10  15  ar  
 26  11  13  1   
 27  11  38  1   
 28  11  39  1   
 29  12  16  ar  
 30  12  17  ar  
 31  13  40  1   
 32  13  41  1   
 33  14  18  ar  
 34  14  42  1   
 35  15  19  ar  
 36  15  43  1   
 37  16  20  ar  
 38  16  44  1   
 39  17  21  ar  
 40  17  45  1   
 41  18  22  ar  
 42  18  46  1   
 43  19  22  ar  
 44  19  47  1   
 45  20  23  ar  
 46  20  48  1   
 47  21  23  ar  
 48  21  49  1   
 49  22  24  1   
 50  23  25  1   
 51  24  26  1   
 52  25  27  1   
 53  26  50  1   
 54  26  51  1   
 55  26  52  1   
 56  27  53  1   
 57  27  54  1   
 58  27  55  1   
@<TRIPOS>SUBSTRUCTURE
  1 ****   9 GROUP 4 **** **** 0

# MOE 2024.06 (io_trps.svl 2023.06)
