@<TRIPOS>MOLECULE
NONAME
44 45 1 0 0 
SMALL
USER_CHARGES


@<TRIPOS>ATOM
  1 CL       0.9800     2.7670    -2.1850 Cl    1 <1>  -0.1770 
  2 C       -0.2240     2.8740    -0.9190 C.ar  1 <1>   0.1770 
  3 C        0.1570     3.1530     0.3880 C.ar  1 <1>   0.0830 
  4 C       -1.5490     2.6890    -1.2600 C.ar  1 <1>  -0.1500 
  5 O        1.4730     3.3360     0.6550 O.3   1 <1>  -0.3630 
  6 C       -0.8320     3.2350     1.3620 C.ar  1 <1>  -0.1500 
  7 C       -2.5450     2.7780    -0.2940 C.ar  1 <1>  -0.0090 
  8 C        1.8930     4.0360     1.8170 C.3   1 <1>   0.1810 
  9 C       -2.1600     3.0510     1.0150 C.ar  1 <1>  -0.1500 
 10 S       -4.2910     2.5430    -0.7150 S.o2  1 <1>   1.4470 
 11 C        3.3810     4.3690     1.7730 C.2   1 <1>   0.5690 
 12 O       -4.8350     1.4590     0.0690 O.2   1 <1>  -0.6500 
 13 O       -4.4700     2.5760    -2.1470 O.2   1 <1>  -0.6500 
 14 N       -4.9900     3.9780    -0.2040 N.am  1 <1>  -0.9140 
 15 O        4.0610     4.0020     2.7040 O.2   1 <1>  -0.5700 
 16 N        3.9180     5.0980     0.7430 N.am  1 <1>  -0.6600 
 17 C       -6.3690     3.8550     0.1890 C.3   1 <1>   0.2760 
 18 C        3.2060     5.5750    -0.4650 C.3   1 <1>   0.1400 
 19 C        5.3420     5.4880     0.7090 C.3   1 <1>   0.1400 
 20 C       -7.0760     5.1330    -0.2440 C.3   1 <1>  -0.2400 
 21 C       -6.4320     3.7010     1.7060 C.3   1 <1>  -0.2400 
 22 C        4.2930     6.1820    -1.3480 C.3   1 <1>  -0.1600 
 23 C        5.4260     6.5390    -0.3900 C.3   1 <1>  -0.1600 
 24 H       -1.8040     2.4750    -2.2840 H     1 <1>   0.1500 
 25 H       -0.5900     3.4340     2.3900 H     1 <1>   0.1500 
 26 H        1.6960     3.4150     2.6720 H     1 <1>   0.0800 
 27 H        1.3310     4.9480     1.8900 H     1 <1>   0.0800 
 28 H       -2.9210     3.1170     1.7770 H     1 <1>   0.1500 
 29 H       -4.9980     4.5270    -1.0610 H     1 <1>   0.4200 
 30 H       -6.8390     3.0110    -0.2950 H     1 <1>   0.0800 
 31 H        2.4870     6.3240    -0.1830 H     1 <1>   0.0800 
 32 H        2.7140     4.7640    -0.9730 H     1 <1>   0.0800 
 33 H        5.9330     4.6240     0.4560 H     1 <1>   0.0800 
 34 H        5.6590     5.8760     1.6630 H     1 <1>   0.0800 
 35 H       -6.6200     5.9940     0.2110 H     1 <1>   0.0800 
 36 H       -8.1080     5.0970     0.0580 H     1 <1>   0.0800 
 37 H       -7.0480     5.2340    -1.3140 H     1 <1>   0.0800 
 38 H       -5.9580     4.5350     2.1910 H     1 <1>   0.0800 
 39 H       -5.9480     2.7920     2.0140 H     1 <1>   0.0800 
 40 H       -7.4560     3.6540     2.0270 H     1 <1>   0.0800 
 41 H        3.9330     7.0340    -1.8960 H     1 <1>   0.0800 
 42 H        4.6280     5.4350    -2.0460 H     1 <1>   0.0800 
 43 H        6.3880     6.5380    -0.8710 H     1 <1>   0.0800 
 44 H        5.2490     7.5090     0.0420 H     1 <1>   0.0800 
@<TRIPOS>BOND
  1   1   2  1   
  2   2   3  ar  
  3   2   4  ar  
  4   3   5  1   
  5   3   6  ar  
  6   4   7  ar  
  7   4  24  1   
  8   5   8  1   
  9   6   9  ar  
 10   6  25  1   
 11   7   9  ar  
 12   7  10  1   
 13   8  11  1   
 14   8  26  1   
 15   8  27  1   
 16   9  28  1   
 17  10  12  2   
 18  10  13  2   
 19  10  14  am  
 20  11  15  2   
 21  11  16  am  
 22  14  17  1   
 23  14  29  1   
 24  16  18  1   
 25  16  19  1   
 26  17  20  1   
 27  17  21  1   
 28  17  30  1   
 29  18  22  1   
 30  18  31  1   
 31  18  32  1   
 32  19  23  1   
 33  19  33  1   
 34  19  34  1   
 35  20  35  1   
 36  20  36  1   
 37  20  37  1   
 38  21  38  1   
 39  21  39  1   
 40  21  40  1   
 41  22  23  1   
 42  22  41  1   
 43  22  42  1   
 44  23  43  1   
 45  23  44  1   
@<TRIPOS>SUBSTRUCTURE
  1 ****   3 GROUP 4 **** **** 0

# MOE 2024.06 (io_trps.svl 2023.06)
