@<TRIPOS>MOLECULE
NONAME
37 38 1 0 0 
SMALL
USER_CHARGES


@<TRIPOS>ATOM
  1 O       -2.6840     6.0390     1.5320 O.2   1 <1>  -0.5700 
  2 C       -3.4890     5.8850     0.6370 C.2   1 <1>   0.6340 
  3 O       -3.5480     4.6930     0.0290 O.3   1 <1>  -0.4300 
  4 C       -4.3890     6.9300     0.1840 C.ar  1 <1>   0.0860 
  5 C       -2.7220     3.6020     0.3770 C.3   1 <1>   0.2000 
  6 C       -4.3770     8.1930     0.7790 C.ar  1 <1>  -0.1500 
  7 C       -5.3000     6.7260    -0.8570 C.ar  1 <1>  -0.1500 
  8 C       -1.5970     3.4530    -0.6640 C.3   1 <1>  -0.0800 
  9 C       -3.6080     2.3580     0.4180 C.3   1 <1>  -0.1600 
 10 C       -5.2260     9.2010     0.3610 C.ar  1 <1>  -0.1500 
 11 C       -6.1520     7.7300    -1.2800 C.ar  1 <1>  -0.1500 
 12 C       -0.8010     2.1770    -0.3720 C.3   1 <1>   0.3430 
 13 C       -0.6490     4.6650    -0.6810 C.3   1 <1>  -0.2400 
 14 C       -2.7710     1.1130     0.6910 C.3   1 <1>   0.3430 
 15 C       -6.1170     8.9710    -0.6720 C.ar  1 <1>  -0.1500 
 16 N       -1.7040     0.9840    -0.3450 N.4   1 <1>  -0.9590 
 17 C       -0.9160    -0.2700    -0.1440 C.3   1 <1>   0.2630 
 18 H       -2.3020     3.7620     1.3570 H     1 <1>   0.0800 
 19 H       -3.6890     8.3880     1.5840 H     1 <1>   0.1500 
 20 H       -5.3460     5.7700    -1.3460 H     1 <1>   0.1500 
 21 H       -2.0360     3.3590    -1.6420 H     1 <1>   0.0800 
 22 H       -4.1340     2.2430    -0.5130 H     1 <1>   0.0800 
 23 H       -4.3330     2.4680     1.2050 H     1 <1>   0.0800 
 24 H       -5.1950    10.1660     0.8380 H     1 <1>   0.1500 
 25 H       -6.8450     7.5480    -2.0850 H     1 <1>   0.1500 
 26 H       -0.3030     2.2800     0.5800 H     1 <1>   0.0800 
 27 H       -0.0470     2.0500    -1.1320 H     1 <1>   0.0800 
 28 H       -0.2330     4.8440     0.2960 H     1 <1>   0.0800 
 29 H       -1.1770     5.5520    -0.9850 H     1 <1>   0.0800 
 30 H        0.1570     4.5120    -1.3780 H     1 <1>   0.0800 
 31 H       -3.4070     0.2420     0.6760 H     1 <1>   0.0800 
 32 H       -2.3230     1.1880     1.6690 H     1 <1>   0.0800 
 33 H       -6.7790     9.7540    -0.9990 H     1 <1>   0.1500 
 34 H       -2.1690     0.9310    -1.2630 H     1 <1>   0.4500 
 35 H       -0.4120    -0.2480     0.8100 H     1 <1>   0.0800 
 36 H       -0.1770    -0.3770    -0.9210 H     1 <1>   0.0800 
 37 H       -1.5660    -1.1300    -0.1700 H     1 <1>   0.0800 
@<TRIPOS>BOND
  1   1   2  2   
  2   2   3  1   
  3   2   4  1   
  4   3   5  1   
  5   4   6  ar  
  6   4   7  ar  
  7   5   8  1   
  8   5   9  1   
  9   5  18  1   
 10   6  10  ar  
 11   6  19  1   
 12   7  11  ar  
 13   7  20  1   
 14   8  12  1   
 15   8  13  1   
 16   8  21  1   
 17   9  14  1   
 18   9  22  1   
 19   9  23  1   
 20  10  15  ar  
 21  10  24  1   
 22  11  15  ar  
 23  11  25  1   
 24  12  16  1   
 25  12  26  1   
 26  12  27  1   
 27  13  28  1   
 28  13  29  1   
 29  13  30  1   
 30  14  16  1   
 31  14  31  1   
 32  14  32  1   
 33  15  33  1   
 34  16  17  1   
 35  16  34  1   
 36  17  35  1   
 37  17  36  1   
 38  17  37  1   
@<TRIPOS>SUBSTRUCTURE
  1 ****   3 GROUP 4 **** **** 0

# MOE 2024.06 (io_trps.svl 2023.06)
