@<TRIPOS>MOLECULE
NONAME
51 53 1 0 0 
SMALL
USER_CHARGES


@<TRIPOS>ATOM
  1 O       -6.0030    -2.1470     0.9110 O.co2 1 <1>  -0.9000 
  2 C       -5.1500    -1.4650     0.3360 C.2   1 <1>   0.9060 
  3 O       -5.0280    -1.5220    -0.8940 O.co2 1 <1>  -0.9000 
  4 C       -4.3950    -0.4260     1.1490 C.3   1 <1>  -0.1860 
  5 C       -5.1490     0.9370     1.3000 C.3   1 <1>  -0.0190 
  6 C       -2.9220    -0.1770     0.7300 C.3   1 <1>  -0.0800 
  7 C       -6.3670     1.1580     0.3880 C.2   1 <1>   0.5690 
  8 C       -4.1300     2.1070     1.2190 C.3   1 <1>  -0.0800 
  9 C       -2.8550     0.7550    -0.5000 C.3   1 <1>  -0.1600 
 10 C       -2.2330     0.5600     1.9000 C.3   1 <1>  -0.1600 
 11 O       -7.4100     1.5370     0.8780 O.2   1 <1>  -0.5700 
 12 N       -6.3080     0.8860    -0.9400 N.am  1 <1>  -0.7300 
 13 C       -3.4620     2.1370    -0.1720 C.3   1 <1>  -0.1600 
 14 C       -3.0100     1.8510     2.2520 C.3   1 <1>  -0.1600 
 15 C       -7.3870     1.0320    -1.9300 C.3   1 <1>   0.1400 
 16 C       -7.9180    -0.3460    -2.3480 C.3   1 <1>  -0.1600 
 17 C       -8.1990    -1.3260    -1.2000 C.3   1 <1>   0.3430 
 18 N       -8.9340    -0.6750    -0.0810 N.4   1 <1>  -0.9590 
 19 C       -8.9730    -1.5770     1.1150 C.3   1 <1>   0.3430 
 20 C      -10.2880    -0.1430    -0.4110 C.3   1 <1>   0.3430 
 21 C       -9.7230    -0.9130     2.2840 C.3   1 <1>   0.1200 
 22 C      -10.9500     0.4700     0.8370 C.3   1 <1>   0.1200 
 23 O      -10.9890    -0.4660     1.8770 O.3   1 <1>  -0.5600 
 24 H       -4.3520    -0.8630     2.1300 H     1 <1>   0.0800 
 25 H       -5.5490     0.9450     2.2980 H     1 <1>   0.0800 
 26 H       -2.4270    -1.1120     0.5240 H     1 <1>   0.0800 
 27 H       -4.6200     3.0440     1.4230 H     1 <1>   0.0800 
 28 H       -3.3790     0.3100    -1.3260 H     1 <1>   0.0800 
 29 H       -1.8300     0.8760    -0.8060 H     1 <1>   0.0800 
 30 H       -1.2240     0.8070     1.6200 H     1 <1>   0.0800 
 31 H       -2.1840    -0.0830     2.7610 H     1 <1>   0.0800 
 32 H       -5.5600     0.2120    -1.2150 H     1 <1>   0.3700 
 33 H       -2.6820     2.8790    -0.1740 H     1 <1>   0.0800 
 34 H       -4.1670     2.4220    -0.9320 H     1 <1>   0.0800 
 35 H       -3.4400     1.7590     3.2350 H     1 <1>   0.0800 
 36 H       -2.3310     2.6860     2.2710 H     1 <1>   0.0800 
 37 H       -7.0000     1.5500    -2.7920 H     1 <1>   0.0800 
 38 H       -8.1780     1.6320    -1.5130 H     1 <1>   0.0800 
 39 H       -7.1840    -0.8070    -2.9860 H     1 <1>   0.0800 
 40 H       -8.8050    -0.2200    -2.9390 H     1 <1>   0.0800 
 41 H       -7.2590    -1.6990    -0.8350 H     1 <1>   0.0800 
 42 H       -8.7540    -2.1720    -1.5670 H     1 <1>   0.0800 
 43 H       -8.3330     0.1240     0.2100 H     1 <1>   0.4500 
 44 H       -7.9790    -1.8090     1.4410 H     1 <1>   0.0800 
 45 H       -9.4610    -2.5020     0.8630 H     1 <1>   0.0800 
 46 H      -10.9120    -0.9390    -0.7800 H     1 <1>   0.0800 
 47 H      -10.2080     0.6090    -1.1770 H     1 <1>   0.0800 
 48 H       -9.1620    -0.0740     2.6610 H     1 <1>   0.0800 
 49 H       -9.8610    -1.6210     3.0820 H     1 <1>   0.0800 
 50 H      -11.9630     0.7590     0.6180 H     1 <1>   0.0800 
 51 H      -10.4060     1.3380     1.1710 H     1 <1>   0.0800 
@<TRIPOS>BOND
  1   1   2  ar  
  2   2   3  ar  
  3   2   4  1   
  4   4   5  1   
  5   4   6  1   
  6   4  24  1   
  7   5   7  1   
  8   5   8  1   
  9   5  25  1   
 10   6   9  1   
 11   6  10  1   
 12   6  26  1   
 13   7  11  2   
 14   7  12  am  
 15   8  13  1   
 16   8  14  1   
 17   8  27  1   
 18   9  13  1   
 19   9  28  1   
 20   9  29  1   
 21  10  14  1   
 22  10  30  1   
 23  10  31  1   
 24  12  15  1   
 25  12  32  1   
 26  13  33  1   
 27  13  34  1   
 28  14  35  1   
 29  14  36  1   
 30  15  16  1   
 31  15  37  1   
 32  15  38  1   
 33  16  17  1   
 34  16  39  1   
 35  16  40  1   
 36  17  18  1   
 37  17  41  1   
 38  17  42  1   
 39  18  19  1   
 40  18  20  1   
 41  18  43  1   
 42  19  21  1   
 43  19  44  1   
 44  19  45  1   
 45  20  22  1   
 46  20  46  1   
 47  20  47  1   
 48  21  23  1   
 49  21  48  1   
 50  21  49  1   
 51  22  23  1   
 52  22  50  1   
 53  22  51  1   
@<TRIPOS>SUBSTRUCTURE
  1 ****   7 GROUP 4 **** **** 0

# MOE 2024.06 (io_trps.svl 2023.06)
