@<TRIPOS>MOLECULE
NONAME
38 39 1 0 0 
SMALL
USER_CHARGES


@<TRIPOS>ATOM
  1 CL      -0.4530     0.3940     1.1160 Cl    1 <1>  -0.1770 
  2 C       -1.9020    -0.5680     0.9180 C.ar  1 <1>   0.1770 
  3 C       -3.0700    -0.0240     0.3940 C.ar  1 <1>  -0.1440 
  4 C       -1.8240    -1.8920     1.3070 C.ar  1 <1>  -0.1500 
  5 C       -4.1890    -0.8520     0.2550 C.ar  1 <1>   0.1170 
  6 C       -3.1560     1.4460    -0.0230 C.3   1 <1>  -0.0970 
  7 C       -2.9310    -2.7070     1.1730 C.ar  1 <1>  -0.1500 
  8 N       -5.3780    -0.3450    -0.2940 N.am  1 <1>  -0.5470 
  9 C       -4.0990    -2.1850     0.6480 C.ar  1 <1>  -0.1500 
 10 C       -6.6920    -0.6400    -0.0550 C.2   1 <1>   0.5690 
 11 O       -7.0190    -1.5150     0.7160 O.2   1 <1>  -0.5700 
 12 C       -7.7610     0.1410    -0.8450 C.3   1 <1>  -0.0190 
 13 C       -7.7730     1.6700    -0.5590 C.3   1 <1>  -0.1860 
 14 C       -9.1900    -0.4180    -0.6410 C.3   1 <1>  -0.0220 
 15 C       -6.4900     2.3790    -0.9650 C.2   1 <1>   0.9060 
 16 C       -8.1430     1.9420     0.9110 C.3   1 <1>  -0.0220 
 17 C       -9.8400     0.0890     0.6430 C.2   1 <1>  -0.2760 
 18 O       -5.7850     1.8680    -1.8450 O.co2 1 <1>  -0.9000 
 19 O       -6.1530     3.4200    -0.3990 O.co2 1 <1>  -0.9000 
 20 C       -9.3600     1.1300     1.3300 C.2   1 <1>  -0.2880 
 21 C      -11.0670    -0.6950     1.0700 C.3   1 <1>  -0.1020 
 22 H       -0.9050    -2.2760     1.7110 H     1 <1>   0.1500 
 23 H       -2.2860     2.0100     0.2490 H     1 <1>   0.0800 
 24 H       -4.0020     1.9160     0.4470 H     1 <1>   0.0800 
 25 H       -3.2820     1.5200    -1.0890 H     1 <1>   0.0800 
 26 H       -2.8890    -3.7400     1.4720 H     1 <1>   0.1500 
 27 H       -5.2570     0.4760    -0.9220 H     1 <1>   0.3700 
 28 H       -4.9560    -2.8240     0.5390 H     1 <1>   0.1500 
 29 H       -7.5220    -0.0010    -1.8830 H     1 <1>   0.0800 
 30 H       -8.5390     2.1080    -1.1690 H     1 <1>   0.0800 
 31 H       -9.1550    -1.4930    -0.6410 H     1 <1>   0.0800 
 32 H       -9.8050    -0.1160    -1.4700 H     1 <1>   0.0800 
 33 H       -8.3510     2.9920     1.0270 H     1 <1>   0.0800 
 34 H       -7.3130     1.6980     1.5520 H     1 <1>   0.0800 
 35 H       -9.7950     1.4810     2.2490 H     1 <1>   0.1500 
 36 H      -10.7980    -1.7200     1.2560 H     1 <1>   0.0800 
 37 H      -11.8150    -0.6610     0.3000 H     1 <1>   0.0800 
 38 H      -11.4820    -0.2830     1.9720 H     1 <1>   0.0800 
@<TRIPOS>BOND
  1   1   2  1   
  2   2   3  ar  
  3   2   4  ar  
  4   3   5  ar  
  5   3   6  1   
  6   4   7  ar  
  7   4  22  1   
  8   5   8  1   
  9   5   9  ar  
 10   6  23  1   
 11   6  24  1   
 12   6  25  1   
 13   7   9  ar  
 14   7  26  1   
 15   8  10  am  
 16   8  27  1   
 17   9  28  1   
 18  10  11  2   
 19  10  12  1   
 20  12  13  1   
 21  12  14  1   
 22  12  29  1   
 23  13  15  1   
 24  13  16  1   
 25  13  30  1   
 26  14  17  1   
 27  14  31  1   
 28  14  32  1   
 29  15  18  ar  
 30  15  19  ar  
 31  16  20  1   
 32  16  33  1   
 33  16  34  1   
 34  17  20  2   
 35  17  21  1   
 36  20  35  1   
 37  21  36  1   
 38  21  37  1   
 39  21  38  1   
@<TRIPOS>SUBSTRUCTURE
  1 ****   8 GROUP 4 **** **** 0

# MOE 2024.06 (io_trps.svl 2023.06)
