@<TRIPOS>MOLECULE
NONAME
43 46 1 0 0 
SMALL
USER_CHARGES


@<TRIPOS>ATOM
  1 F       -0.1220    -0.8120     0.6200 F     1 <1>  -0.3400 
  2 C       -0.4430    -1.7110    -0.3080 C.3   1 <1>   1.0810 
  3 F        0.2820    -2.7950    -0.0200 F     1 <1>  -0.3400 
  4 F        0.0450    -1.2520    -1.4590 F     1 <1>  -0.3400 
  5 C       -1.9710    -2.0360    -0.3660 C.2   1 <1>   0.5690 
  6 O       -2.7710    -1.1430    -0.5600 O.2   1 <1>  -0.5700 
  7 N       -2.3880    -3.3450    -0.1830 N.am  1 <1>  -0.5470 
  8 C       -3.6670    -3.9250    -0.1960 C.ar  1 <1>   0.1170 
  9 C       -4.7630    -3.3570    -0.8330 C.ar  1 <1>  -0.1500 
 10 C       -3.8500    -5.1430     0.4440 C.ar  1 <1>  -0.1500 
 11 C       -5.9950    -3.9840    -0.8220 C.ar  1 <1>  -0.1500 
 12 C       -5.0830    -5.7710     0.4530 C.ar  1 <1>  -0.1500 
 13 C       -6.1860    -5.2040    -0.1800 C.ar  1 <1>  -0.1440 
 14 C       -7.5840    -5.8630    -0.1960 C.3   1 <1>   0.1440 
 15 C       -8.0230    -6.1330    -1.6560 C.3   1 <1>  -0.1600 
 16 C       -8.6180    -4.9210     0.4670 C.3   1 <1>  -0.1600 
 17 C       -7.6300    -7.2150     0.5620 C.3   1 <1>  -0.1600 
 18 C       -9.4370    -6.7430    -1.7100 C.3   1 <1>  -0.0800 
 19 C      -10.0340    -5.5280     0.4210 C.3   1 <1>  -0.0800 
 20 C       -9.0380    -7.8390     0.5230 C.3   1 <1>  -0.0800 
 21 C      -10.4320    -5.7720    -1.0470 C.3   1 <1>  -0.1600 
 22 C       -9.4430    -8.0770    -0.9420 C.3   1 <1>  -0.1600 
 23 C      -10.0370    -6.8680     1.1770 C.3   1 <1>  -0.1600 
 24 H       -1.6420    -4.0090     0.0340 H     1 <1>   0.3700 
 25 H       -4.6650    -2.4190    -1.3480 H     1 <1>   0.1500 
 26 H       -3.0250    -5.6120     0.9460 H     1 <1>   0.1500 
 27 H       -6.8120    -3.5020    -1.3260 H     1 <1>   0.1500 
 28 H       -5.1560    -6.7100     0.9680 H     1 <1>   0.1500 
 29 H       -8.0210    -5.2190    -2.2220 H     1 <1>   0.0800 
 30 H       -7.3210    -6.8010    -2.1230 H     1 <1>   0.0800 
 31 H       -8.6350    -3.9710    -0.0340 H     1 <1>   0.0800 
 32 H       -8.3330    -4.7410     1.4890 H     1 <1>   0.0800 
 33 H       -7.3460    -7.0650     1.5890 H     1 <1>   0.0800 
 34 H       -6.9340    -7.9040     0.1190 H     1 <1>   0.0800 
 35 H       -9.7210    -6.9120    -2.7340 H     1 <1>   0.0800 
 36 H      -10.7340    -4.8500     0.8800 H     1 <1>   0.0800 
 37 H       -9.0380    -8.7740     1.0570 H     1 <1>   0.0800 
 38 H      -11.4250    -6.1830    -1.0910 H     1 <1>   0.0800 
 39 H      -10.4420    -4.8380    -1.5820 H     1 <1>   0.0800 
 40 H       -8.7570    -8.7660    -1.4040 H     1 <1>   0.0800 
 41 H      -10.4250    -8.5160    -0.9830 H     1 <1>   0.0800 
 42 H       -9.7690    -6.7060     2.2060 H     1 <1>   0.0800 
 43 H      -11.0250    -7.2940     1.1590 H     1 <1>   0.0800 
@<TRIPOS>BOND
  1   1   2  1   
  2   2   3  1   
  3   2   4  1   
  4   2   5  1   
  5   5   6  2   
  6   5   7  am  
  7   7   8  1   
  8   7  24  1   
  9   8   9  ar  
 10   8  10  ar  
 11   9  11  ar  
 12   9  25  1   
 13  10  12  ar  
 14  10  26  1   
 15  11  13  ar  
 16  11  27  1   
 17  12  13  ar  
 18  12  28  1   
 19  13  14  1   
 20  14  15  1   
 21  14  16  1   
 22  14  17  1   
 23  15  18  1   
 24  15  29  1   
 25  15  30  1   
 26  16  19  1   
 27  16  31  1   
 28  16  32  1   
 29  17  20  1   
 30  17  33  1   
 31  17  34  1   
 32  18  21  1   
 33  18  22  1   
 34  18  35  1   
 35  19  21  1   
 36  19  23  1   
 37  19  36  1   
 38  20  22  1   
 39  20  23  1   
 40  20  37  1   
 41  21  38  1   
 42  21  39  1   
 43  22  40  1   
 44  22  41  1   
 45  23  42  1   
 46  23  43  1   
@<TRIPOS>SUBSTRUCTURE
  1 ****  13 GROUP 4 **** **** 0

# MOE 2024.06 (io_trps.svl 2023.06)
