@<TRIPOS>MOLECULE
NONAME
35 36 1 0 0 
SMALL
USER_CHARGES


@<TRIPOS>ATOM
  1 F       -1.6540    -2.4790     1.7260 F     1 <1>  -0.1900 
  2 C       -0.6890    -2.6590     0.8650 C.ar  1 <1>   0.1900 
  3 C        0.4670    -3.2840     1.2830 C.ar  1 <1>  -0.1500 
  4 C       -0.8660    -2.2140    -0.4310 C.ar  1 <1>  -0.1500 
  5 C        1.5100    -3.4750     0.3790 C.ar  1 <1>   0.0860 
  6 C        0.1600    -2.4090    -1.3400 C.ar  1 <1>  -0.1500 
  7 C        2.7420    -4.1140     0.7920 C.2   1 <1>   0.5440 
  8 C        1.3280    -3.0350    -0.9340 C.ar  1 <1>  -0.1500 
  9 O        2.7460    -5.3170     0.9770 O.2   1 <1>  -0.5700 
 10 N        3.9020    -3.3910     0.9860 N.am  1 <1>  -0.6600 
 11 C        5.1790    -4.0860     1.3170 C.3   1 <1>   0.1400 
 12 C        3.8930    -1.9210     1.2120 C.3   1 <1>   0.1400 
 13 C        5.8150    -4.7110     0.0710 C.3   1 <1>  -0.1600 
 14 C        4.2310    -1.1280    -0.0560 C.3   1 <1>  -0.1600 
 15 C        6.6140    -3.7450    -0.8190 C.3   1 <1>  -0.1600 
 16 C        5.6450    -1.3580    -0.6140 C.3   1 <1>  -0.1600 
 17 C        5.7850    -2.6290    -1.4750 C.3   1 <1>  -0.1600 
 18 H        0.5640    -3.6240     2.2970 H     1 <1>   0.1500 
 19 H       -1.7840    -1.7310    -0.7170 H     1 <1>   0.1500 
 20 H        0.0490    -2.0790    -2.3590 H     1 <1>   0.1500 
 21 H        2.1230    -3.1940    -1.6420 H     1 <1>   0.1500 
 22 H        4.9650    -4.8680     2.0270 H     1 <1>   0.0800 
 23 H        5.8740    -3.4090     1.7810 H     1 <1>   0.0800 
 24 H        4.5960    -1.6720     1.9890 H     1 <1>   0.0800 
 25 H        2.9220    -1.6190     1.5620 H     1 <1>   0.0800 
 26 H        5.0570    -5.2090    -0.5080 H     1 <1>   0.0800 
 27 H        6.4950    -5.4720     0.4090 H     1 <1>   0.0800 
 28 H        4.1500    -0.0860     0.2010 H     1 <1>   0.0800 
 29 H        3.4950    -1.3130    -0.8150 H     1 <1>   0.0800 
 30 H        7.0470    -4.3340    -1.6090 H     1 <1>   0.0800 
 31 H        7.4340    -3.3250    -0.2630 H     1 <1>   0.0800 
 32 H        6.3650    -1.3470     0.1850 H     1 <1>   0.0800 
 33 H        5.8750    -0.5180    -1.2470 H     1 <1>   0.0800 
 34 H        4.8230    -3.0090    -1.7710 H     1 <1>   0.0800 
 35 H        6.2950    -2.3470    -2.3800 H     1 <1>   0.0800 
@<TRIPOS>BOND
  1   1   2  1   
  2   2   3  ar  
  3   2   4  ar  
  4   3   5  ar  
  5   3  18  1   
  6   4   6  ar  
  7   4  19  1   
  8   5   7  1   
  9   5   8  ar  
 10   6   8  ar  
 11   6  20  1   
 12   7   9  2   
 13   7  10  am  
 14   8  21  1   
 15  10  11  1   
 16  10  12  1   
 17  11  13  1   
 18  11  22  1   
 19  11  23  1   
 20  12  14  1   
 21  12  24  1   
 22  12  25  1   
 23  13  15  1   
 24  13  26  1   
 25  13  27  1   
 26  14  16  1   
 27  14  28  1   
 28  14  29  1   
 29  15  17  1   
 30  15  30  1   
 31  15  31  1   
 32  16  17  1   
 33  16  32  1   
 34  16  33  1   
 35  17  34  1   
 36  17  35  1   
@<TRIPOS>SUBSTRUCTURE
  1 ****   7 GROUP 4 **** **** 0

# MOE 2024.06 (io_trps.svl 2023.06)
