@<TRIPOS>MOLECULE
NONAME
20 20 1 0 0 
SMALL
USER_CHARGES


@<TRIPOS>ATOM
  1 O       -1.5330     2.5270    -1.2750 O.co2 1 <1>  -0.9000 
  2 C       -2.2310     2.0590    -0.3860 C.2   1 <1>   0.9060 
  3 O       -1.7680     1.5540     0.6460 O.co2 1 <1>  -0.9000 
  4 C       -3.7070     1.8850    -0.6440 C.3   1 <1>  -0.1860 
  5 C       -4.0370     0.4150    -0.8110 C.3   1 <1>   0.4230 
  6 C       -4.6910     2.4010     0.4200 C.3   1 <1>  -0.1600 
  7 N       -3.5230    -0.3520     0.3340 N.4   1 <1>  -0.8530 
  8 C       -5.5600     0.4070    -0.7280 C.3   1 <1>  -0.1600 
  9 C       -5.9310     1.5040     0.2850 C.3   1 <1>  -0.1600 
 10 H       -3.9280     2.3810    -1.5720 H     1 <1>   0.0800 
 11 H       -3.6550     0.0280    -1.7440 H     1 <1>   0.0800 
 12 H       -4.2620     2.3020     1.4040 H     1 <1>   0.0800 
 13 H       -4.9240     3.4400     0.2540 H     1 <1>   0.0800 
 14 H       -4.1070    -0.1900     1.1510 H     1 <1>   0.4500 
 15 H       -2.6080     0.1030     0.5790 H     1 <1>   0.4500 
 16 H       -3.3620    -1.3380     0.1440 H     1 <1>   0.4500 
 17 H       -5.9480     0.6880    -1.6930 H     1 <1>   0.0800 
 18 H       -5.9650    -0.5560    -0.4710 H     1 <1>   0.0800 
 19 H       -6.7760     2.0720    -0.0690 H     1 <1>   0.0800 
 20 H       -6.1830     1.0790     1.2420 H     1 <1>   0.0800 
@<TRIPOS>BOND
  1   1   2  ar  
  2   2   3  ar  
  3   2   4  1   
  4   4   5  1   
  5   4   6  1   
  6   4  10  1   
  7   5   7  1   
  8   5   8  1   
  9   5  11  1   
 10   6   9  1   
 11   6  12  1   
 12   6  13  1   
 13   7  14  1   
 14   7  15  1   
 15   7  16  1   
 16   8   9  1   
 17   8  17  1   
 18   8  18  1   
 19   9  19  1   
 20   9  20  1   
@<TRIPOS>SUBSTRUCTURE
  1 ****   4 GROUP 4 **** **** 0

# MOE 2024.06 (io_trps.svl 2023.06)
