@<TRIPOS>MOLECULE
NONAME
45 47 1 0 0 
SMALL
USER_CHARGES


@<TRIPOS>ATOM
  1 O      -12.1930     6.2680     0.2830 O.3   1 <1>  -0.3630 
  2 C      -11.2810     7.2460     0.2960 C.ar  1 <1>   0.0830 
  3 C      -13.3180     6.7710    -0.4340 C.3   1 <1>   0.4000 
  4 C      -11.7560     8.3420    -0.3630 C.ar  1 <1>   0.0830 
  5 C      -10.0240     7.2340     0.8660 C.ar  1 <1>  -0.1500 
  6 O      -12.9900     8.1040    -0.8210 O.3   1 <1>  -0.3630 
  7 C      -10.9990     9.4880    -0.4910 C.ar  1 <1>  -0.1500 
  8 C       -9.2400     8.3790     0.7550 C.ar  1 <1>  -0.1440 
  9 C       -9.7300     9.4950     0.0760 C.ar  1 <1>  -0.1500 
 10 C       -7.8530     8.4080     1.3700 C.3   1 <1>   0.2640 
 11 O       -6.9380     8.0360     0.3850 O.3   1 <1>  -0.5600 
 12 C       -5.6230     7.8860     0.8220 C.3   1 <1>   0.1200 
 13 C       -4.7470     7.5470    -0.3970 C.3   1 <1>   0.2000 
 14 O       -5.4260     6.6130    -1.1830 O.3   1 <1>  -0.6800 
 15 C       -3.3470     6.9970    -0.0370 C.3   1 <1>   0.3430 
 16 N       -3.3270     5.5000    -0.0730 N.4   1 <1>  -0.9590 
 17 C       -3.7260     4.8600     1.2110 C.3   1 <1>   0.3430 
 18 C       -2.0500     4.9620    -0.6200 C.3   1 <1>   0.3430 
 19 C       -3.8780     3.3520     1.0100 C.3   1 <1>  -0.1600 
 20 C       -2.1790     3.4550    -0.8450 C.3   1 <1>  -0.1600 
 21 C       -2.6040     2.7210     0.4330 C.3   1 <1>  -0.1600 
 22 H      -14.1800     6.7840     0.2090 H     1 <1>   0.0800 
 23 H      -13.4840     6.1720    -1.3120 H     1 <1>   0.0800 
 24 H       -9.6790     6.3540     1.3750 H     1 <1>   0.1500 
 25 H      -11.3900    10.3400    -1.0160 H     1 <1>   0.1500 
 26 H       -9.1200    10.3770    -0.0180 H     1 <1>   0.1500 
 27 H       -7.7920     7.7130     2.1900 H     1 <1>   0.0800 
 28 H       -7.6110     9.3990     1.7140 H     1 <1>   0.0800 
 29 H       -5.5960     7.0950     1.5500 H     1 <1>   0.0800 
 30 H       -5.2970     8.8060     1.2760 H     1 <1>   0.0800 
 31 H       -4.6340     8.4440    -0.9820 H     1 <1>   0.0800 
 32 H       -6.3760     6.8920    -1.2010 H     1 <1>   0.4000 
 33 H       -3.0260     7.3670     0.9230 H     1 <1>   0.0800 
 34 H       -2.6580     7.3740    -0.7750 H     1 <1>   0.0800 
 35 H       -4.0810     5.2820    -0.7560 H     1 <1>   0.4500 
 36 H       -4.6640     5.2650     1.5510 H     1 <1>   0.0800 
 37 H       -2.9760     5.0500     1.9620 H     1 <1>   0.0800 
 38 H       -1.2470     5.1540     0.0730 H     1 <1>   0.0800 
 39 H       -1.8170     5.4440    -1.5560 H     1 <1>   0.0800 
 40 H       -4.7100     3.1650     0.3530 H     1 <1>   0.0800 
 41 H       -4.1060     2.8910     1.9560 H     1 <1>   0.0800 
 42 H       -1.2330     3.0670    -1.1820 H     1 <1>   0.0800 
 43 H       -2.8960     3.2740    -1.6280 H     1 <1>   0.0800 
 44 H       -2.7780     1.6790     0.2150 H     1 <1>   0.0800 
 45 H       -1.8120     2.7750     1.1610 H     1 <1>   0.0800 
@<TRIPOS>BOND
  1   1   2  1   
  2   1   3  1   
  3   2   4  ar  
  4   2   5  ar  
  5   3   6  1   
  6   3  22  1   
  7   3  23  1   
  8   4   6  1   
  9   4   7  ar  
 10   5   8  ar  
 11   5  24  1   
 12   7   9  ar  
 13   7  25  1   
 14   8   9  ar  
 15   8  10  1   
 16   9  26  1   
 17  10  11  1   
 18  10  27  1   
 19  10  28  1   
 20  11  12  1   
 21  12  13  1   
 22  12  29  1   
 23  12  30  1   
 24  13  14  1   
 25  13  15  1   
 26  13  31  1   
 27  14  32  1   
 28  15  16  1   
 29  15  33  1   
 30  15  34  1   
 31  16  17  1   
 32  16  18  1   
 33  16  35  1   
 34  17  19  1   
 35  17  36  1   
 36  17  37  1   
 37  18  20  1   
 38  18  38  1   
 39  18  39  1   
 40  19  21  1   
 41  19  40  1   
 42  19  41  1   
 43  20  21  1   
 44  20  42  1   
 45  20  43  1   
 46  21  44  1   
 47  21  45  1   
@<TRIPOS>SUBSTRUCTURE
  1 ****  11 GROUP 4 **** **** 0

# MOE 2024.06 (io_trps.svl 2023.06)
