@<TRIPOS>MOLECULE
NONAME
41 43 1 0 0 
SMALL
USER_CHARGES


@<TRIPOS>ATOM
  1 CL      -0.1990     0.1290     1.1720 Cl    1 <1>  -0.1770 
  2 C       -1.6190     0.9350     0.5300 C.ar  1 <1>   0.1770 
  3 C       -1.6200     2.3120     0.3380 C.ar  1 <1>   0.0820 
  4 C       -2.7220     0.1610     0.2220 C.ar  1 <1>  -0.1500 
  5 O       -0.5010     3.0240     0.6580 O.3   1 <1>  -0.3630 
  6 C       -2.7690     2.9070    -0.1750 C.ar  1 <1>  -0.1500 
  7 C       -3.8610     0.7690    -0.2820 C.ar  1 <1>   0.0820 
  8 C       -0.4780     4.4280     0.4810 C.3   1 <1>   0.0400 
  9 C       -3.8930     2.1550    -0.4810 C.ar  1 <1>   0.1170 
 10 O       -4.9310    -0.0020    -0.6060 O.3   1 <1>  -0.3630 
 11 N       -4.9990     2.8510    -0.9840 N.am  1 <1>  -0.5470 
 12 C       -5.6360    -0.5560     0.4810 C.3   1 <1>   0.0400 
 13 C       -6.1340     3.1690    -0.2990 C.2   1 <1>   0.5690 
 14 O       -6.4590     2.5680     0.7000 O.2   1 <1>  -0.5700 
 15 C       -7.0600     4.2760    -0.8410 C.3   1 <1>  -0.0190 
 16 C       -6.3330     5.6960    -1.4910 C.3   1 <1>  -0.1860 
 17 C       -8.2010     4.8100     0.2480 C.3   1 <1>   0.0580 
 18 C       -4.8150     5.7150    -1.4460 C.2   1 <1>   0.9060 
 19 C       -7.0710     6.9890    -0.7630 C.3   1 <1>   0.0580 
 20 C       -8.9270     6.1760     0.7190 C.2   1 <1>  -0.2880 
 21 C       -7.5480     5.8280    -0.3110 C.3   1 <1>  -0.1600 
 22 O       -4.2030     6.2180    -0.5030 O.co2 1 <1>  -0.9000 
 23 O       -4.2290     5.1080    -2.3470 O.co2 1 <1>  -0.9000 
 24 C       -8.3340     7.3150     0.1910 C.2   1 <1>  -0.2880 
 25 H       -2.6900    -0.9010     0.3660 H     1 <1>   0.1500 
 26 H       -2.8250     3.9680    -0.3470 H     1 <1>   0.1500 
 27 H        0.4830     4.7920     0.7930 H     1 <1>   0.0800 
 28 H       -1.2530     4.8720     1.0820 H     1 <1>   0.0800 
 29 H       -0.6360     4.6540    -0.5600 H     1 <1>   0.0800 
 30 H       -4.7290     3.5460    -1.7060 H     1 <1>   0.3700 
 31 H       -5.0460    -1.3410     0.9170 H     1 <1>   0.0800 
 32 H       -6.5650    -0.9500     0.1110 H     1 <1>   0.0800 
 33 H       -5.8290     0.2150     1.2050 H     1 <1>   0.0800 
 34 H       -7.5860     3.7910    -1.6500 H     1 <1>   0.0800 
 35 H       -6.5650     5.7350    -2.5450 H     1 <1>   0.0800 
 36 H       -7.8770     4.4150     1.1990 H     1 <1>   0.0800 
 37 H       -6.2670     7.4970    -0.2470 H     1 <1>   0.0800 
 38 H       -9.7720     6.1010     1.3820 H     1 <1>   0.1500 
 39 H       -6.8030     5.8600     0.5870 H     1 <1>   0.0800 
 40 H       -8.3620     5.8280    -1.2170 H     1 <1>   0.0800 
 41 H       -8.6030     8.3470     0.3410 H     1 <1>   0.1500 
@<TRIPOS>BOND
  1   1   2  1   
  2   2   3  ar  
  3   2   4  ar  
  4   3   5  1   
  5   3   6  ar  
  6   4   7  ar  
  7   4  25  1   
  8   5   8  1   
  9   6   9  ar  
 10   6  26  1   
 11   7   9  ar  
 12   7  10  1   
 13   8  27  1   
 14   8  28  1   
 15   8  29  1   
 16   9  11  1   
 17  10  12  1   
 18  11  13  am  
 19  11  30  1   
 20  12  31  1   
 21  12  32  1   
 22  12  33  1   
 23  13  14  2   
 24  13  15  1   
 25  15  16  1   
 26  15  17  1   
 27  15  34  1   
 28  16  18  1   
 29  16  19  1   
 30  16  35  1   
 31  17  20  1   
 32  17  21  1   
 33  17  36  1   
 34  18  22  ar  
 35  18  23  ar  
 36  19  21  1   
 37  19  24  1   
 38  19  37  1   
 39  20  24  2   
 40  20  38  1   
 41  21  39  1   
 42  21  40  1   
 43  24  41  1   
@<TRIPOS>SUBSTRUCTURE
  1 ****  11 GROUP 4 **** **** 0

# MOE 2024.06 (io_trps.svl 2023.06)
