@<TRIPOS>MOLECULE
NONAME
42 43 1 0 0 
SMALL
USER_CHARGES


@<TRIPOS>ATOM
  1 S        0.3140     1.1380    -1.4390 S.3   1 <1>  -0.3310 
  2 C        1.6070     1.6770    -0.3300 C.2   1 <1>   0.1150 
  3 C       -0.9780     0.8650    -0.1630 C.3   1 <1>   0.0700 
  4 C        1.0770     1.7310     1.0130 C.2   1 <1>   0.4950 
  5 C        2.8150     1.9390    -0.8660 C.2   1 <1>  -0.2880 
  6 C       -0.4390     1.4940     1.1310 C.3   1 <1>   0.2810 
  7 O        1.7220     1.9210     2.0140 O.2   1 <1>  -0.5700 
  8 C        4.0480     2.4350    -0.1300 C.3   1 <1>  -0.0220 
  9 N       -1.2550     2.7030     1.4840 N.am  1 <1>  -0.7300 
 10 C        5.1210     1.3430    -0.1050 C.3   1 <1>  -0.1600 
 11 C       -0.9400     4.0250     1.4020 C.2   1 <1>   0.5440 
 12 C        6.3690     1.7910     0.6780 C.3   1 <1>  -0.0990 
 13 O       -1.5800     4.7570     2.1230 O.2   1 <1>  -0.5700 
 14 C        0.0780     4.5600     0.5220 C.ar  1 <1>   0.0860 
 15 C        7.4660     0.7430     0.7480 C.2   1 <1>   0.6590 
 16 C       -0.0670     4.5200    -0.8640 C.ar  1 <1>  -0.1500 
 17 C        1.2410     5.1290     1.0370 C.ar  1 <1>  -0.1500 
 18 O        7.4370    -0.2760     0.1070 O.2   1 <1>  -0.5700 
 19 O        8.4710     1.0310     1.5650 O.3   1 <1>  -0.4300 
 20 C        0.9150     5.0160    -1.7020 C.ar  1 <1>  -0.1500 
 21 C        2.2260     5.6290     0.2040 C.ar  1 <1>  -0.1500 
 22 C        9.5640     0.1520     1.7340 C.3   1 <1>   0.0400 
 23 C        2.0650     5.5710    -1.1680 C.ar  1 <1>  -0.1500 
 24 H       -1.8910     1.3190    -0.5040 H     1 <1>   0.0800 
 25 H       -1.0910    -0.2000    -0.0660 H     1 <1>   0.0800 
 26 H        2.9910     1.8100    -1.9200 H     1 <1>   0.1500 
 27 H       -0.5760     0.7820     1.9250 H     1 <1>   0.0800 
 28 H        4.4250     3.3120    -0.6280 H     1 <1>   0.0800 
 29 H        3.7990     2.7170     0.8780 H     1 <1>   0.0800 
 30 H       -2.0000     2.5270     2.1620 H     1 <1>   0.3700 
 31 H        5.4000     1.0900    -1.1140 H     1 <1>   0.0800 
 32 H        4.7140     0.4580     0.3560 H     1 <1>   0.0800 
 33 H        6.0860     2.0390     1.6850 H     1 <1>   0.0800 
 34 H        6.7840     2.6710     0.2230 H     1 <1>   0.0800 
 35 H       -0.9600     4.0940    -1.2850 H     1 <1>   0.1500 
 36 H        1.3660     5.1730     2.1050 H     1 <1>   0.1500 
 37 H        0.7850     4.9720    -2.7700 H     1 <1>   0.1500 
 38 H        3.1160     6.0630     0.6250 H     1 <1>   0.1500 
 39 H       10.2490     0.5900     2.4380 H     1 <1>   0.0800 
 40 H       10.0470     0.0110     0.7830 H     1 <1>   0.0800 
 41 H        9.1980    -0.7890     2.1080 H     1 <1>   0.0800 
 42 H        2.8300     5.9580    -1.8190 H     1 <1>   0.1500 
@<TRIPOS>BOND
  1   1   2  1   
  2   1   3  1   
  3   2   4  1   
  4   2   5  2   
  5   3   6  1   
  6   3  24  1   
  7   3  25  1   
  8   4   6  1   
  9   4   7  2   
 10   5   8  1   
 11   5  26  1   
 12   6   9  1   
 13   6  27  1   
 14   8  10  1   
 15   8  28  1   
 16   8  29  1   
 17   9  11  am  
 18   9  30  1   
 19  10  12  1   
 20  10  31  1   
 21  10  32  1   
 22  11  13  2   
 23  11  14  1   
 24  12  15  1   
 25  12  33  1   
 26  12  34  1   
 27  14  16  ar  
 28  14  17  ar  
 29  15  18  2   
 30  15  19  1   
 31  16  20  ar  
 32  16  35  1   
 33  17  21  ar  
 34  17  36  1   
 35  19  22  1   
 36  20  23  ar  
 37  20  37  1   
 38  21  23  ar  
 39  21  38  1   
 40  22  39  1   
 41  22  40  1   
 42  22  41  1   
 43  23  42  1   
@<TRIPOS>SUBSTRUCTURE
  1 ****   5 GROUP 4 **** **** 0

# MOE 2024.06 (io_trps.svl 2023.06)
