@<TRIPOS>MOLECULE
NONAME
49 50 1 0 0 
SMALL
USER_CHARGES


@<TRIPOS>ATOM
  1 S       -1.0140     1.5630    -0.0150 S.o2  1 <1>   1.4470 
  2 O       -1.5810     2.5580    -0.9010 O.2   1 <1>  -0.6500 
  3 O       -1.6880     0.2860     0.0900 O.2   1 <1>  -0.6500 
  4 N       -0.9960     2.2260     1.5430 N.am  1 <1>  -0.8490 
  5 C        0.7410     1.2880    -0.3890 C.ar  1 <1>  -0.0090 
  6 C       -2.3270     2.1390     2.2110 C.3   1 <1>   0.2570 
  7 C       -0.4340     3.5830     1.5630 C.3   1 <1>   0.1960 
  8 C        1.5360     0.5280     0.4670 C.ar  1 <1>  -0.1500 
  9 C        1.3280     1.8300    -1.5320 C.ar  1 <1>  -0.1500 
 10 C       -3.4380     3.0560     1.6540 C.2   1 <1>   0.5690 
 11 C       -0.0560     3.9960     2.9840 C.3   1 <1>  -0.2400 
 12 C        2.8780     0.3130     0.2000 C.ar  1 <1>  -0.1500 
 13 C        2.6680     1.6260    -1.8160 C.ar  1 <1>  -0.1500 
 14 O       -3.5220     4.1610     2.1380 O.2   1 <1>  -0.5700 
 15 N       -4.3080     2.6780     0.6530 N.am  1 <1>  -0.6600 
 16 C        3.4200     0.8690    -0.9400 C.ar  1 <1>   0.1900 
 17 C       -4.4880     1.2870     0.1300 C.3   1 <1>   0.1400 
 18 C       -5.0040     3.7320    -0.1530 C.3   1 <1>   0.1400 
 19 F        4.6840     0.6740    -1.1990 F     1 <1>  -0.1900 
 20 C       -5.9690     0.9680    -0.1500 C.3   1 <1>   0.3430 
 21 C       -6.4760     3.3720    -0.4150 C.3   1 <1>   0.3430 
 22 N       -6.6190     2.0020    -1.0270 N.4   1 <1>  -0.9590 
 23 C       -8.0350     1.6470    -1.3040 C.3   1 <1>   0.3430 
 24 C       -8.5520     2.4690    -2.4780 C.3   1 <1>  -0.2400 
 25 H       -2.2040     2.3900     3.2490 H     1 <1>   0.0800 
 26 H       -2.6600     1.1190     2.2060 H     1 <1>   0.0800 
 27 H       -1.1230     4.2940     1.1350 H     1 <1>   0.0800 
 28 H        0.4640     3.6060     0.9680 H     1 <1>   0.0800 
 29 H        1.0960     0.1010     1.3540 H     1 <1>   0.1500 
 30 H        0.7300     2.4190    -2.2080 H     1 <1>   0.1500 
 31 H       -0.9310     4.1730     3.5820 H     1 <1>   0.0800 
 32 H        0.5040     4.9120     2.9490 H     1 <1>   0.0800 
 33 H        0.5550     3.2400     3.4440 H     1 <1>   0.0800 
 34 H        3.4930    -0.2730     0.8600 H     1 <1>   0.1500 
 35 H        3.1240     2.0430    -2.6970 H     1 <1>   0.1500 
 36 H       -4.1180     0.5640     0.8340 H     1 <1>   0.0800 
 37 H       -3.9290     1.1770    -0.7830 H     1 <1>   0.0800 
 38 H       -4.4870     3.8510    -1.0890 H     1 <1>   0.0800 
 39 H       -4.9700     4.6830     0.3520 H     1 <1>   0.0800 
 40 H       -6.4900     0.9140     0.7920 H     1 <1>   0.0800 
 41 H       -6.0320    -0.0010    -0.6180 H     1 <1>   0.0800 
 42 H       -6.9020     4.1150    -1.0680 H     1 <1>   0.0800 
 43 H       -7.0080     3.4110     0.5210 H     1 <1>   0.0800 
 44 H       -6.1100     2.0090    -1.9220 H     1 <1>   0.4500 
 45 H       -8.6420     1.8230    -0.4300 H     1 <1>   0.0800 
 46 H       -8.1030     0.6000    -1.5560 H     1 <1>   0.0800 
 47 H       -8.5950     3.5160    -2.2400 H     1 <1>   0.0800 
 48 H       -9.5510     2.1490    -2.7160 H     1 <1>   0.0800 
 49 H       -7.9410     2.3180    -3.3510 H     1 <1>   0.0800 
@<TRIPOS>BOND
  1   1   2  2   
  2   1   3  2   
  3   1   4  am  
  4   1   5  1   
  5   4   6  1   
  6   4   7  1   
  7   5   8  ar  
  8   5   9  ar  
  9   6  10  1   
 10   6  25  1   
 11   6  26  1   
 12   7  11  1   
 13   7  27  1   
 14   7  28  1   
 15   8  12  ar  
 16   8  29  1   
 17   9  13  ar  
 18   9  30  1   
 19  10  14  2   
 20  10  15  am  
 21  11  31  1   
 22  11  32  1   
 23  11  33  1   
 24  12  16  ar  
 25  12  34  1   
 26  13  16  ar  
 27  13  35  1   
 28  15  17  1   
 29  15  18  1   
 30  16  19  1   
 31  17  20  1   
 32  17  36  1   
 33  17  37  1   
 34  18  21  1   
 35  18  38  1   
 36  18  39  1   
 37  20  22  1   
 38  20  40  1   
 39  20  41  1   
 40  21  22  1   
 41  21  42  1   
 42  21  43  1   
 43  22  23  1   
 44  22  44  1   
 45  23  24  1   
 46  23  45  1   
 47  23  46  1   
 48  24  47  1   
 49  24  48  1   
 50  24  49  1   
@<TRIPOS>SUBSTRUCTURE
  1 ****   1 GROUP 4 **** **** 0

# MOE 2024.06 (io_trps.svl 2023.06)
