@<TRIPOS>MOLECULE
NONAME
36 39 1 0 0 
SMALL
USER_CHARGES


@<TRIPOS>ATOM
  1 S        0.3230    -0.6640     1.0950 S.3   1 <1>  -0.2420 
  2 C       -0.3700    -2.1360     1.7530 C.2   1 <1>   0.7710 
  3 C       -1.2450    -0.1570     0.4080 C.2   1 <1>  -0.0370 
  4 O        0.2690    -2.9510     2.3780 O.2   1 <1>  -0.5700 
  5 N       -1.6850    -2.1680     1.4370 N.am  1 <1>  -0.5390 
  6 C       -2.1910    -1.0810     0.6920 C.2   1 <1>  -0.0290 
  7 C       -1.1260     1.1740    -0.3160 C.3   1 <1>  -0.1020 
  8 C       -3.6970    -1.1580     0.3520 C.3   1 <1>   0.1380 
  9 C       -4.5240    -1.2250     1.6610 C.3   1 <1>  -0.1600 
 10 C       -3.9810    -2.4360    -0.4750 C.3   1 <1>  -0.1600 
 11 C       -4.2080     0.0520    -0.4630 C.3   1 <1>  -0.1600 
 12 C       -6.0300    -1.3630     1.3620 C.3   1 <1>  -0.0800 
 13 C       -5.4840    -2.5780    -0.7830 C.3   1 <1>  -0.0800 
 14 C       -5.7110    -0.0700    -0.7760 C.3   1 <1>  -0.0800 
 15 C       -6.2680    -2.6450     0.5420 C.3   1 <1>  -0.1600 
 16 C       -6.4970    -0.1450     0.5450 C.3   1 <1>  -0.1600 
 17 C       -5.9540    -1.3550    -1.5880 C.3   1 <1>  -0.1600 
 18 H       -2.2470    -2.9600     1.7430 H     1 <1>   0.3700 
 19 H       -0.4050     1.0850    -1.1090 H     1 <1>   0.0800 
 20 H       -0.7810     1.9250     0.3720 H     1 <1>   0.0800 
 21 H       -2.0470     1.5110    -0.7410 H     1 <1>   0.0800 
 22 H       -4.3500    -0.3360     2.2410 H     1 <1>   0.0800 
 23 H       -4.2160    -2.0640     2.2580 H     1 <1>   0.0800 
 24 H       -3.6570    -3.3100     0.0600 H     1 <1>   0.0800 
 25 H       -3.4260    -2.3980    -1.3960 H     1 <1>   0.0800 
 26 H       -3.6680     0.1150    -1.3910 H     1 <1>   0.0800 
 27 H       -4.0460     0.9570     0.0940 H     1 <1>   0.0800 
 28 H       -6.5820    -1.4130     2.2850 H     1 <1>   0.0800 
 29 H       -5.6570    -3.4760    -1.3530 H     1 <1>   0.0800 
 30 H       -6.0370     0.7850    -1.3440 H     1 <1>   0.0800 
 31 H       -7.3180    -2.7540     0.3370 H     1 <1>   0.0800 
 32 H       -5.9560    -3.5050     1.1090 H     1 <1>   0.0800 
 33 H       -6.3450     0.7560     1.1120 H     1 <1>   0.0800 
 34 H       -7.5500    -0.2270     0.3380 H     1 <1>   0.0800 
 35 H       -7.0020    -1.4490    -1.8160 H     1 <1>   0.0800 
 36 H       -5.4210    -1.3040    -2.5210 H     1 <1>   0.0800 
@<TRIPOS>BOND
  1   1   2  1   
  2   1   3  1   
  3   2   4  2   
  4   2   5  am  
  5   3   6  2   
  6   3   7  1   
  7   5   6  1   
  8   5  18  1   
  9   6   8  1   
 10   7  19  1   
 11   7  20  1   
 12   7  21  1   
 13   8   9  1   
 14   8  10  1   
 15   8  11  1   
 16   9  12  1   
 17   9  22  1   
 18   9  23  1   
 19  10  13  1   
 20  10  24  1   
 21  10  25  1   
 22  11  14  1   
 23  11  26  1   
 24  11  27  1   
 25  12  15  1   
 26  12  16  1   
 27  12  28  1   
 28  13  15  1   
 29  13  17  1   
 30  13  29  1   
 31  14  16  1   
 32  14  17  1   
 33  14  30  1   
 34  15  31  1   
 35  15  32  1   
 36  16  33  1   
 37  16  34  1   
 38  17  35  1   
 39  17  36  1   
@<TRIPOS>SUBSTRUCTURE
  1 ****   8 GROUP 4 **** **** 0

# MOE 2024.06 (io_trps.svl 2023.06)
