@<TRIPOS>MOLECULE
NONAME
34 35 1 0 0 
SMALL
USER_CHARGES


@<TRIPOS>ATOM
  1 O        0.2820    -1.0810    -1.4560 O.2   1 <1>  -0.5700 
  2 C       -0.2430    -1.8820    -0.7170 C.2   1 <1>   0.5690 
  3 N        0.3840    -2.7110     0.1550 N.am  1 <1>  -0.6600 
  4 C       -1.7330    -2.0790    -0.6630 C.3   1 <1>  -0.0990 
  5 C        1.8350    -2.9240     0.3420 C.3   1 <1>   0.2200 
  6 C       -0.5740    -3.5720     0.8790 C.3   1 <1>   0.1400 
  7 C       -1.9330    -2.9200     0.6150 C.3   1 <1>  -0.1860 
  8 C        2.5140    -1.6390     0.8290 C.3   1 <1>  -0.1600 
  9 C        2.4760    -3.4430    -0.9510 C.3   1 <1>  -0.1600 
 10 C       -3.0460    -3.9450     0.5510 C.2   1 <1>   0.9060 
 11 C        4.0250    -1.8500     1.0100 C.3   1 <1>  -0.1600 
 12 C        3.9870    -3.6530    -0.7700 C.3   1 <1>  -0.1600 
 13 O       -4.0280    -3.7210    -0.1620 O.co2 1 <1>  -0.9000 
 14 O       -2.9400    -4.9700     1.2330 O.co2 1 <1>  -0.9000 
 15 C        4.6750    -2.3670    -0.2840 C.3   1 <1>  -0.0800 
 16 C        6.1730    -2.6090    -0.0710 C.3   1 <1>  -0.2400 
 17 H       -2.0440    -2.6230    -1.5360 H     1 <1>   0.0800 
 18 H       -2.2560    -1.1440    -0.6090 H     1 <1>   0.0800 
 19 H        1.9670    -3.6770     1.1010 H     1 <1>   0.0800 
 20 H       -0.3610    -3.6050     1.9330 H     1 <1>   0.0800 
 21 H       -0.5390    -4.5680     0.4690 H     1 <1>   0.0800 
 22 H       -2.1550    -2.2640     1.4340 H     1 <1>   0.0800 
 23 H        2.0760    -1.3370     1.7630 H     1 <1>   0.0800 
 24 H        2.3550    -0.8550     0.1100 H     1 <1>   0.0800 
 25 H        2.3150    -2.7310    -1.7410 H     1 <1>   0.0800 
 26 H        2.0120    -4.3710    -1.2310 H     1 <1>   0.0800 
 27 H        4.1910    -2.5560     1.8050 H     1 <1>   0.0800 
 28 H        4.4790    -0.9170     1.2960 H     1 <1>   0.0800 
 29 H        4.4140    -3.9610    -1.7090 H     1 <1>   0.0800 
 30 H        4.1510    -4.4430    -0.0570 H     1 <1>   0.0800 
 31 H        4.5590    -1.6120    -1.0460 H     1 <1>   0.0800 
 32 H        6.3340    -3.3580     0.6840 H     1 <1>   0.0800 
 33 H        6.6570    -1.6990     0.2380 H     1 <1>   0.0800 
 34 H        6.6300    -2.9400    -0.9870 H     1 <1>   0.0800 
@<TRIPOS>BOND
  1   1   2  2   
  2   2   3  am  
  3   2   4  1   
  4   3   5  1   
  5   3   6  1   
  6   4   7  1   
  7   4  17  1   
  8   4  18  1   
  9   5   8  1   
 10   5   9  1   
 11   5  19  1   
 12   6   7  1   
 13   6  20  1   
 14   6  21  1   
 15   7  10  1   
 16   7  22  1   
 17   8  11  1   
 18   8  23  1   
 19   8  24  1   
 20   9  12  1   
 21   9  25  1   
 22   9  26  1   
 23  10  13  ar  
 24  10  14  ar  
 25  11  15  1   
 26  11  27  1   
 27  11  28  1   
 28  12  15  1   
 29  12  29  1   
 30  12  30  1   
 31  15  16  1   
 32  15  31  1   
 33  16  32  1   
 34  16  33  1   
 35  16  34  1   
@<TRIPOS>SUBSTRUCTURE
  1 ****   3 GROUP 4 **** **** 0

# MOE 2024.06 (io_trps.svl 2023.06)
