@<TRIPOS>MOLECULE
NONAME
42 44 1 0 0 
SMALL
USER_CHARGES


@<TRIPOS>ATOM
  1 O        0.1910     0.8270    -1.2480 O.2   1 <1>  -0.5700 
  2 C        0.1820     1.7320    -0.4440 C.2   1 <1>   0.5690 
  3 N        1.3440     2.1240     0.1790 N.am  1 <1>  -0.6600 
  4 C       -1.1650     2.4290    -0.1640 C.3   1 <1>  -0.0190 
  5 C        2.6120     1.3820    -0.1220 C.3   1 <1>   0.3200 
  6 C        1.4850     3.2410     1.1800 C.3   1 <1>   0.1400 
  7 C       -2.3660     1.4590    -0.3360 C.3   1 <1>  -0.1600 
  8 C       -1.2560     3.6810    -1.0710 C.3   1 <1>  -0.1600 
  9 C        3.7990     2.3300    -0.1010 C.2   1 <1>  -0.3320 
 10 C        2.4890     4.3070     0.7130 C.3   1 <1>   0.0210 
 11 C       -3.5400     1.7330     0.6180 C.3   1 <1>  -0.2400 
 12 C       -2.4620     4.5920    -0.8170 C.3   1 <1>  -0.2400 
 13 N        5.0750     1.9980    -0.4580 N.pl3 1 <1>   0.0330 
 14 C        3.7610     3.6280     0.2630 C.2   1 <1>  -0.1810 
 15 C        5.8610     3.1160    -0.3160 C.ar  1 <1>  -0.1520 
 16 C        5.0600     4.1630     0.1350 C.ar  1 <1>   0.0000 
 17 C        7.2250     3.3070    -0.5480 C.ar  1 <1>  -0.1500 
 18 C        5.6280     5.4210     0.3570 C.ar  1 <1>  -0.1500 
 19 C        7.7710     4.5500    -0.3240 C.ar  1 <1>  -0.1500 
 20 C        6.9720     5.6080     0.1290 C.ar  1 <1>  -0.1500 
 21 H       -1.1700     2.7330     0.8630 H     1 <1>   0.0800 
 22 H        2.5540     0.9220    -1.0940 H     1 <1>   0.0800 
 23 H        2.7480     0.6090     0.6130 H     1 <1>   0.0800 
 24 H        1.8380     2.8180     2.1050 H     1 <1>   0.0800 
 25 H        0.5490     3.7250     1.3780 H     1 <1>   0.0800 
 26 H       -2.0350     0.4550    -0.1330 H     1 <1>   0.0800 
 27 H       -2.7040     1.4740    -1.3580 H     1 <1>   0.0800 
 28 H       -1.2640     3.3670    -2.1010 H     1 <1>   0.0800 
 29 H       -0.3640     4.2670    -0.9320 H     1 <1>   0.0800 
 30 H        2.7010     4.9810     1.5220 H     1 <1>   0.0800 
 31 H        2.0760     4.8700    -0.1040 H     1 <1>   0.0800 
 32 H       -3.2140     1.6620     1.6410 H     1 <1>   0.0800 
 33 H       -4.3100     0.9990     0.4600 H     1 <1>   0.0800 
 34 H       -3.9690     2.7030     0.4610 H     1 <1>   0.0800 
 35 H       -3.3680     4.1230    -1.1560 H     1 <1>   0.0800 
 36 H       -2.3440     5.5110    -1.3650 H     1 <1>   0.0800 
 37 H       -2.5500     4.8280     0.2290 H     1 <1>   0.0800 
 38 H        5.4040     1.0870    -0.7920 H     1 <1>   0.2700 
 39 H        7.8310     2.4900    -0.8960 H     1 <1>   0.1500 
 40 H        5.0040     6.2240     0.7030 H     1 <1>   0.1500 
 41 H        8.8190     4.7220    -0.4950 H     1 <1>   0.1500 
 42 H        7.4230     6.5700     0.2950 H     1 <1>   0.1500 
@<TRIPOS>BOND
  1   1   2  2   
  2   2   3  am  
  3   2   4  1   
  4   3   5  1   
  5   3   6  1   
  6   4   7  1   
  7   4   8  1   
  8   4  21  1   
  9   5   9  1   
 10   5  22  1   
 11   5  23  1   
 12   6  10  1   
 13   6  24  1   
 14   6  25  1   
 15   7  11  1   
 16   7  26  1   
 17   7  27  1   
 18   8  12  1   
 19   8  28  1   
 20   8  29  1   
 21   9  13  1   
 22   9  14  2   
 23  10  14  1   
 24  10  30  1   
 25  10  31  1   
 26  11  32  1   
 27  11  33  1   
 28  11  34  1   
 29  12  35  1   
 30  12  36  1   
 31  12  37  1   
 32  13  15  1   
 33  13  38  1   
 34  14  16  1   
 35  15  16  ar  
 36  15  17  ar  
 37  16  18  ar  
 38  17  19  ar  
 39  17  39  1   
 40  18  20  ar  
 41  18  40  1   
 42  19  20  ar  
 43  19  41  1   
 44  20  42  1   
@<TRIPOS>SUBSTRUCTURE
  1 ****   3 GROUP 4 **** **** 0

# MOE 2024.06 (io_trps.svl 2023.06)
