@<TRIPOS>MOLECULE
NONAME
41 42 1 0 0 
SMALL
USER_CHARGES


@<TRIPOS>ATOM
  1 O        0.8150     3.4690     1.9640 O.2   1 <1>  -0.5700 
  2 C        0.4540     3.1790     0.8390 C.2   1 <1>   0.5440 
  3 N        1.3950     3.2820    -0.1610 N.am  1 <1>  -0.6600 
  4 C       -0.8830     2.6700     0.5840 C.ar  1 <1>   0.0860 
  5 C        1.7560     2.0640    -0.9390 C.3   1 <1>   0.1400 
  6 C        2.5290     4.2360     0.0160 C.3   1 <1>   0.1400 
  7 C       -1.5070     2.8270    -0.6520 C.ar  1 <1>  -0.1500 
  8 C       -1.5970     1.9900     1.5670 C.ar  1 <1>  -0.1500 
  9 C        2.9430     1.3450    -0.2590 C.3   1 <1>   0.3430 
 10 C        3.6940     3.5240     0.7260 C.3   1 <1>   0.3430 
 11 C       -2.7660     2.3110    -0.8960 C.ar  1 <1>  -0.1500 
 12 C       -2.8560     1.4730     1.3250 C.ar  1 <1>  -0.1500 
 13 N        4.1040     2.2710    -0.0030 N.4   1 <1>  -0.9060 
 14 C       -3.4670     1.6180     0.0840 C.ar  1 <1>  -0.1430 
 15 C       -4.8700     1.0560    -0.2370 C.3   1 <1>   0.1430 
 16 C       -5.5080     0.3080     0.9450 C.3   1 <1>  -0.2400 
 17 C       -5.8100     2.2110    -0.6170 C.3   1 <1>  -0.2400 
 18 C       -4.7740     0.0700    -1.4110 C.3   1 <1>  -0.2400 
 19 H        2.0140     2.3410    -1.9470 H     1 <1>   0.0800 
 20 H        0.9160     1.3910    -0.9890 H     1 <1>   0.0800 
 21 H        2.2070     5.0760     0.6090 H     1 <1>   0.0800 
 22 H        2.8420     4.6130    -0.9420 H     1 <1>   0.0800 
 23 H       -1.0040     3.3680    -1.4340 H     1 <1>   0.1500 
 24 H       -1.1560     1.8660     2.5420 H     1 <1>   0.1500 
 25 H        3.2580     0.5170    -0.8730 H     1 <1>   0.0800 
 26 H        2.5940     0.9440     0.6800 H     1 <1>   0.0800 
 27 H        3.3710     3.2760     1.7250 H     1 <1>   0.0800 
 28 H        4.5310     4.1990     0.8080 H     1 <1>   0.0800 
 29 H       -3.2020     2.4600    -1.8680 H     1 <1>   0.1500 
 30 H       -3.3440     0.9590     2.1330 H     1 <1>   0.1500 
 31 H        4.5350     2.5310    -0.8980 H     1 <1>   0.4500 
 32 H        4.8200     1.7790     0.5480 H     1 <1>   0.4500 
 33 H       -5.6310     0.9660     1.7870 H     1 <1>   0.0800 
 34 H       -4.8980    -0.5270     1.2380 H     1 <1>   0.0800 
 35 H       -6.4790    -0.0690     0.6760 H     1 <1>   0.0800 
 36 H       -5.4660     2.7180    -1.4990 H     1 <1>   0.0800 
 37 H       -5.8580     2.9240     0.1860 H     1 <1>   0.0800 
 38 H       -6.8030     1.8450    -0.8090 H     1 <1>   0.0800 
 39 H       -4.4220     0.5570    -2.3010 H     1 <1>   0.0800 
 40 H       -5.7360    -0.3600    -1.6250 H     1 <1>   0.0800 
 41 H       -4.0910    -0.7250    -1.1680 H     1 <1>   0.0800 
@<TRIPOS>BOND
  1   1   2  2   
  2   2   3  am  
  3   2   4  1   
  4   3   5  1   
  5   3   6  1   
  6   4   7  ar  
  7   4   8  ar  
  8   5   9  1   
  9   5  19  1   
 10   5  20  1   
 11   6  10  1   
 12   6  21  1   
 13   6  22  1   
 14   7  11  ar  
 15   7  23  1   
 16   8  12  ar  
 17   8  24  1   
 18   9  13  1   
 19   9  25  1   
 20   9  26  1   
 21  10  13  1   
 22  10  27  1   
 23  10  28  1   
 24  11  14  ar  
 25  11  29  1   
 26  12  14  ar  
 27  12  30  1   
 28  13  31  1   
 29  13  32  1   
 30  14  15  1   
 31  15  16  1   
 32  15  17  1   
 33  15  18  1   
 34  16  33  1   
 35  16  34  1   
 36  16  35  1   
 37  17  36  1   
 38  17  37  1   
 39  17  38  1   
 40  18  39  1   
 41  18  40  1   
 42  18  41  1   
@<TRIPOS>SUBSTRUCTURE
  1 ****   4 GROUP 4 **** **** 0

# MOE 2024.06 (io_trps.svl 2023.06)
