@<TRIPOS>MOLECULE
NONAME
39 41 1 0 0 
SMALL
USER_CHARGES


@<TRIPOS>ATOM
  1 N       -0.9760    -0.3020     0.9660 N.2   1 <1>  -0.5760 
  2 C        0.2320    -0.7370     1.0470 C.2   1 <1>   0.3750 
  3 C       -1.9140    -1.2020     0.5170 C.2   1 <1>  -0.0260 
  4 C        0.6050    -2.0660     0.6990 C.2   1 <1>  -0.1360 
  5 C        1.3120     0.2040     1.5340 C.3   1 <1>  -0.1790 
  6 N       -1.6330    -2.5040     0.1610 N.pl3 1 <1>   0.6010 
  7 C       -3.2430    -1.0350     0.3330 C.2   1 <1>  -0.1500 
  8 C       -0.3150    -2.9710     0.2520 C.2   1 <1>  -0.1690 
  9 N       -2.7610    -3.1370    -0.2360 N.2   1 <1>  -0.7070 
 10 C       -3.7270    -2.2500    -0.1360 C.2   1 <1>   0.2350 
 11 C        0.0190    -4.4300    -0.1440 C.3   1 <1>   0.1380 
 12 C       -5.1100    -2.5330    -0.4740 C.ar  1 <1>   0.0540 
 13 C       -0.3170    -4.6850    -1.6220 C.3   1 <1>  -0.2400 
 14 C       -0.7400    -5.4250     0.7480 C.3   1 <1>  -0.2400 
 15 C        1.5190    -4.7380     0.0270 C.3   1 <1>  -0.2400 
 16 C       -5.5940    -3.8410    -0.4760 C.ar  1 <1>  -0.1500 
 17 C       -6.0080    -1.5180    -0.8090 C.ar  1 <1>  -0.1500 
 18 C       -6.9100    -4.1270    -0.7890 C.ar  1 <1>  -0.1500 
 19 C       -7.3270    -1.7960    -1.1220 C.ar  1 <1>  -0.1500 
 20 C       -7.7810    -3.1020    -1.1120 C.ar  1 <1>  -0.1500 
 21 H        1.6460    -2.2990     0.8130 H     1 <1>   0.1500 
 22 H        1.7660    -0.1900     2.4250 H     1 <1>   0.0800 
 23 H        0.8910     1.1670     1.7600 H     1 <1>   0.0800 
 24 H        2.0610     0.3250     0.7740 H     1 <1>   0.0800 
 25 H       -3.8050    -0.1410     0.5200 H     1 <1>   0.1500 
 26 H       -1.3730    -4.6150    -1.8030 H     1 <1>   0.0800 
 27 H       -0.0030    -5.6690    -1.9190 H     1 <1>   0.0800 
 28 H        0.1800    -3.9640    -2.2470 H     1 <1>   0.0800 
 29 H       -0.5410    -5.2230     1.7850 H     1 <1>   0.0800 
 30 H       -0.4400    -6.4350     0.5320 H     1 <1>   0.0800 
 31 H       -1.8000    -5.3630     0.5910 H     1 <1>   0.0800 
 32 H        2.1130    -4.0950    -0.5970 H     1 <1>   0.0800 
 33 H        1.7300    -5.7550    -0.2530 H     1 <1>   0.0800 
 34 H        1.8190    -4.6100     1.0520 H     1 <1>   0.0800 
 35 H       -4.9210    -4.6430    -0.2280 H     1 <1>   0.1500 
 36 H       -5.6730    -0.4980    -0.8320 H     1 <1>   0.1500 
 37 H       -7.2550    -5.1460    -0.7810 H     1 <1>   0.1500 
 38 H       -8.0010    -0.9960    -1.3770 H     1 <1>   0.1500 
 39 H       -8.8060    -3.3210    -1.3550 H     1 <1>   0.1500 
@<TRIPOS>BOND
  1   1   2  2   
  2   1   3  1   
  3   2   4  1   
  4   2   5  1   
  5   3   6  1   
  6   3   7  2   
  7   4   8  2   
  8   4  21  1   
  9   5  22  1   
 10   5  23  1   
 11   5  24  1   
 12   6   8  1   
 13   6   9  1   
 14   7  10  1   
 15   7  25  1   
 16   8  11  1   
 17   9  10  2   
 18  10  12  1   
 19  11  13  1   
 20  11  14  1   
 21  11  15  1   
 22  12  16  ar  
 23  12  17  ar  
 24  13  26  1   
 25  13  27  1   
 26  13  28  1   
 27  14  29  1   
 28  14  30  1   
 29  14  31  1   
 30  15  32  1   
 31  15  33  1   
 32  15  34  1   
 33  16  18  ar  
 34  16  35  1   
 35  17  19  ar  
 36  17  36  1   
 37  18  20  ar  
 38  18  37  1   
 39  19  20  ar  
 40  19  38  1   
 41  20  39  1   
@<TRIPOS>SUBSTRUCTURE
  1 ****   9 GROUP 4 **** **** 0

# MOE 2024.06 (io_trps.svl 2023.06)
