@<TRIPOS>MOLECULE
NONAME
50 52 1 0 0 
SMALL
USER_CHARGES


@<TRIPOS>ATOM
  1 O       -0.0130     0.3020    -1.0910 O.2   1 <1>  -0.5700 
  2 C        0.1190     1.4580    -0.7340 C.2   1 <1>   0.5440 
  3 N       -0.9980     2.1610    -0.3280 N.am  1 <1>  -0.6600 
  4 C        1.4440     2.0470    -0.7320 C.ar  1 <1>   0.0860 
  5 C       -0.9110     3.4060     0.4960 C.3   1 <1>   0.1400 
  6 C       -2.3580     1.5810    -0.5450 C.3   1 <1>   0.1400 
  7 C        2.5150     1.3760    -0.1460 C.ar  1 <1>  -0.1500 
  8 C        1.7010     3.2860    -1.3150 C.ar  1 <1>  -0.1500 
  9 C       -2.0550     3.4580     1.5130 C.3   1 <1>  -0.1600 
 10 C       -3.4280     2.6760    -0.5010 C.3   1 <1>  -0.1600 
 11 C        3.7990     1.9100    -0.1150 C.ar  1 <1>   0.0820 
 12 C        2.9660     3.8370    -1.2880 C.ar  1 <1>  -0.1500 
 13 C       -3.4390     3.4310     0.8400 C.3   1 <1>  -0.1600 
 14 O        4.8270     1.2230     0.4620 O.3   1 <1>  -0.3630 
 15 C        4.0250     3.1740    -0.6900 C.ar  1 <1>   0.0820 
 16 C        4.7140    -0.1330     0.8280 C.3   1 <1>   0.1200 
 17 O        5.2030     3.8540    -0.7380 O.3   1 <1>  -0.3630 
 18 C        6.0900    -0.6120     1.2810 C.3   1 <1>  -0.2400 
 19 C        6.4080     3.3880    -0.1710 C.3   1 <1>   0.2640 
 20 C        7.4860     4.4410    -0.3710 C.ar  1 <1>  -0.1430 
 21 C        7.3640     5.6830     0.2340 C.ar  1 <1>  -0.1500 
 22 C        8.6010     4.1730    -1.1510 C.ar  1 <1>  -0.1500 
 23 C        8.3460     6.6440     0.0660 C.ar  1 <1>  -0.1500 
 24 C        9.5840     5.1330    -1.3210 C.ar  1 <1>  -0.1500 
 25 C        9.4570     6.3690    -0.7120 C.ar  1 <1>  -0.1500 
 26 H       -0.9680     4.2610    -0.1540 H     1 <1>   0.0800 
 27 H        0.0290     3.4360     1.0200 H     1 <1>   0.0800 
 28 H       -2.5500     0.8480     0.2200 H     1 <1>   0.0800 
 29 H       -2.3860     1.0840    -1.5000 H     1 <1>   0.0800 
 30 H        2.2970     0.4170     0.2840 H     1 <1>   0.1500 
 31 H        0.8970     3.8150    -1.7960 H     1 <1>   0.1500 
 32 H       -1.9650     4.3450     2.1160 H     1 <1>   0.0800 
 33 H       -1.9580     2.6110     2.1700 H     1 <1>   0.0800 
 34 H       -4.3960     2.2420    -0.6790 H     1 <1>   0.0800 
 35 H       -3.2330     3.3660    -1.3040 H     1 <1>   0.0800 
 36 H        3.1460     4.7970    -1.7390 H     1 <1>   0.1500 
 37 H       -3.7780     4.4380     0.6650 H     1 <1>   0.0800 
 38 H       -4.1390     2.9650     1.5120 H     1 <1>   0.0800 
 39 H        4.3790    -0.6930    -0.0280 H     1 <1>   0.0800 
 40 H        4.0020    -0.2140     1.6310 H     1 <1>   0.0800 
 41 H        6.7980    -0.5160     0.4770 H     1 <1>   0.0800 
 42 H        6.0370    -1.6460     1.5700 H     1 <1>   0.0800 
 43 H        6.4230    -0.0360     2.1260 H     1 <1>   0.0800 
 44 H        6.6750     2.4670    -0.6560 H     1 <1>   0.0800 
 45 H        6.2470     3.2200     0.8790 H     1 <1>   0.0800 
 46 H        6.4980     5.9020     0.8340 H     1 <1>   0.1500 
 47 H        8.7090     3.2160    -1.6320 H     1 <1>   0.1500 
 48 H        8.2430     7.6050     0.5380 H     1 <1>   0.1500 
 49 H       10.4460     4.9190    -1.9280 H     1 <1>   0.1500 
 50 H       10.2210     7.1160    -0.8430 H     1 <1>   0.1500 
@<TRIPOS>BOND
  1   1   2  2   
  2   2   3  am  
  3   2   4  1   
  4   3   5  1   
  5   3   6  1   
  6   4   7  ar  
  7   4   8  ar  
  8   5   9  1   
  9   5  26  1   
 10   5  27  1   
 11   6  10  1   
 12   6  28  1   
 13   6  29  1   
 14   7  11  ar  
 15   7  30  1   
 16   8  12  ar  
 17   8  31  1   
 18   9  13  1   
 19   9  32  1   
 20   9  33  1   
 21  10  13  1   
 22  10  34  1   
 23  10  35  1   
 24  11  14  1   
 25  11  15  ar  
 26  12  15  ar  
 27  12  36  1   
 28  13  37  1   
 29  13  38  1   
 30  14  16  1   
 31  15  17  1   
 32  16  18  1   
 33  16  39  1   
 34  16  40  1   
 35  17  19  1   
 36  18  41  1   
 37  18  42  1   
 38  18  43  1   
 39  19  20  1   
 40  19  44  1   
 41  19  45  1   
 42  20  21  ar  
 43  20  22  ar  
 44  21  23  ar  
 45  21  46  1   
 46  22  24  ar  
 47  22  47  1   
 48  23  25  ar  
 49  23  48  1   
 50  24  25  ar  
 51  24  49  1   
 52  25  50  1   
@<TRIPOS>SUBSTRUCTURE
  1 ****  15 GROUP 4 **** **** 0

# MOE 2024.06 (io_trps.svl 2023.06)
