@<TRIPOS>MOLECULE
NONAME
55 57 1 0 0 
SMALL
USER_CHARGES


@<TRIPOS>ATOM
  1 O       -1.5500    -0.6480    -0.3540 O.2   1 <1>  -0.5700 
  2 C       -1.3870    -1.6330     0.3400 C.2   1 <1>   0.6900 
  3 N       -2.3840    -2.0080     1.1950 N.am  1 <1>  -0.6600 
  4 N       -0.2930    -2.4330     0.2530 N.am  1 <1>  -0.5470 
  5 C       -3.2600    -0.9370     1.7520 C.3   1 <1>   0.1400 
  6 C       -3.1340    -3.2500     0.8610 C.3   1 <1>   0.1400 
  7 C        0.7960    -2.5060    -0.6330 C.ar  1 <1>   0.1170 
  8 C       -4.3750    -0.5930     0.7440 C.3   1 <1>   0.3430 
  9 C       -4.2480    -2.9230    -0.1550 C.3   1 <1>   0.3430 
 10 C        1.6230    -3.6320    -0.5580 C.ar  1 <1>   0.0820 
 11 C        1.0890    -1.5190    -1.5690 C.ar  1 <1>  -0.1500 
 12 N       -5.1560    -1.8130     0.3200 N.4   1 <1>  -0.9590 
 13 O        1.3010    -4.5770     0.3780 O.3   1 <1>  -0.3620 
 14 C        2.7130    -3.7560    -1.4140 C.ar  1 <1>  -0.1500 
 15 C        2.1740    -1.6470    -2.4170 C.ar  1 <1>  -0.1500 
 16 C       -6.1620    -1.4530    -0.7030 C.3   1 <1>   0.4810 
 17 C        2.1410    -5.6840     0.6130 C.3   1 <1>   0.1200 
 18 C        2.9860    -2.7640    -2.3410 C.ar  1 <1>  -0.1500 
 19 C       -7.1460    -2.5950    -0.7730 C.2   1 <1>  -0.2880 
 20 C        1.5440    -6.4940     1.7600 C.3   1 <1>  -0.2400 
 21 C       -8.3640    -2.5930    -0.2040 C.2   1 <1>  -0.1780 
 22 C       -9.3480    -3.6520    -0.2270 C.ar  1 <1>   0.0280 
 23 C      -10.3900    -3.6530     0.6980 C.ar  1 <1>  -0.1500 
 24 C       -9.3030    -4.6950    -1.1500 C.ar  1 <1>  -0.1500 
 25 C      -11.3410    -4.6560     0.7100 C.ar  1 <1>  -0.1500 
 26 C      -10.2520    -5.7030    -1.1430 C.ar  1 <1>  -0.1500 
 27 C      -11.2730    -5.6860    -0.2100 C.ar  1 <1>  -0.1500 
 28 H       -0.2510    -3.1610     0.9650 H     1 <1>   0.3700 
 29 H       -3.6830    -1.2620     2.6860 H     1 <1>   0.0800 
 30 H       -2.6700    -0.0560     1.9440 H     1 <1>   0.0800 
 31 H       -2.4670    -3.9800     0.4350 H     1 <1>   0.0800 
 32 H       -3.5560    -3.6720     1.7570 H     1 <1>   0.0800 
 33 H       -3.9130    -0.1410    -0.1190 H     1 <1>   0.0800 
 34 H       -5.0360     0.1350     1.1840 H     1 <1>   0.0800 
 35 H       -4.8240    -3.8150    -0.3410 H     1 <1>   0.0800 
 36 H       -3.7800    -2.6330    -1.0820 H     1 <1>   0.0800 
 37 H        0.4780    -0.6400    -1.6420 H     1 <1>   0.1500 
 38 H       -5.6830    -2.1650     1.1290 H     1 <1>   0.4500 
 39 H        3.3610    -4.6100    -1.3810 H     1 <1>   0.1500 
 40 H        2.3860    -0.8740    -3.1350 H     1 <1>   0.1500 
 41 H       -6.6820    -0.5570    -0.4030 H     1 <1>   0.0800 
 42 H       -5.6990    -1.2800    -1.6620 H     1 <1>   0.0800 
 43 H        2.1870    -6.2750    -0.2850 H     1 <1>   0.0800 
 44 H        3.1210    -5.3210     0.8740 H     1 <1>   0.0800 
 45 H        3.8290    -2.8610    -3.0030 H     1 <1>   0.1500 
 46 H       -6.7740    -3.4330    -1.3350 H     1 <1>   0.1500 
 47 H        0.5630    -6.8440     1.4960 H     1 <1>   0.0800 
 48 H        1.4870    -5.8910     2.6490 H     1 <1>   0.0800 
 49 H        2.1670    -7.3450     1.9650 H     1 <1>   0.0800 
 50 H       -8.6960    -1.7300     0.3490 H     1 <1>   0.1500 
 51 H      -10.4630    -2.8620     1.4220 H     1 <1>   0.1500 
 52 H       -8.5290    -4.7270    -1.8920 H     1 <1>   0.1500 
 53 H      -12.1370    -4.6390     1.4350 H     1 <1>   0.1500 
 54 H      -10.2000    -6.5000    -1.8640 H     1 <1>   0.1500 
 55 H      -12.0110    -6.4690    -0.2030 H     1 <1>   0.1500 
@<TRIPOS>BOND
  1   1   2  2   
  2   2   3  am  
  3   2   4  am  
  4   3   5  1   
  5   3   6  1   
  6   4   7  1   
  7   4  28  1   
  8   5   8  1   
  9   5  29  1   
 10   5  30  1   
 11   6   9  1   
 12   6  31  1   
 13   6  32  1   
 14   7  10  ar  
 15   7  11  ar  
 16   8  12  1   
 17   8  33  1   
 18   8  34  1   
 19   9  12  1   
 20   9  35  1   
 21   9  36  1   
 22  10  13  1   
 23  10  14  ar  
 24  11  15  ar  
 25  11  37  1   
 26  12  16  1   
 27  12  38  1   
 28  13  17  1   
 29  14  18  ar  
 30  14  39  1   
 31  15  18  ar  
 32  15  40  1   
 33  16  19  1   
 34  16  41  1   
 35  16  42  1   
 36  17  20  1   
 37  17  43  1   
 38  17  44  1   
 39  18  45  1   
 40  19  21  2   
 41  19  46  1   
 42  20  47  1   
 43  20  48  1   
 44  20  49  1   
 45  21  22  1   
 46  21  50  1   
 47  22  23  ar  
 48  22  24  ar  
 49  23  25  ar  
 50  23  51  1   
 51  24  26  ar  
 52  24  52  1   
 53  25  27  ar  
 54  25  53  1   
 55  26  27  ar  
 56  26  54  1   
 57  27  55  1   
@<TRIPOS>SUBSTRUCTURE
  1 ****   9 GROUP 4 **** **** 0

# MOE 2024.06 (io_trps.svl 2023.06)
