@<TRIPOS>MOLECULE
NONAME
49 52 1 0 0 
SMALL
USER_CHARGES


@<TRIPOS>ATOM
  1 O       -1.0670    -1.1320    -1.7690 O.2   1 <1>  -0.5700 
  2 C       -1.3250    -2.0590    -1.0270 C.2   1 <1>   0.5440 
  3 N       -2.6130    -2.5140    -0.9650 N.am  1 <1>  -0.7300 
  4 C       -0.2920    -2.6590    -0.2000 C.ar  1 <1>   0.0860 
  5 C       -3.7720    -1.9310    -1.6900 C.3   1 <1>   0.1400 
  6 C       -0.3460    -3.9990     0.1940 C.ar  1 <1>  -0.1500 
  7 C        0.8000    -1.9090     0.2360 C.ar  1 <1>  -0.1500 
  8 C       -4.8160    -1.3250    -0.7270 C.3   1 <1>   0.0000 
  9 C        0.6350    -4.5560     0.9950 C.ar  1 <1>  -0.1500 
 10 C        1.7850    -2.4590     1.0370 C.ar  1 <1>  -0.1500 
 11 C       -5.9840    -0.7480    -1.5590 C.3   1 <1>  -0.1600 
 12 C       -4.2020    -0.1760     0.1080 C.3   1 <1>  -0.1600 
 13 C       -5.3860    -2.3920     0.2380 C.3   1 <1>  -0.1600 
 14 C        1.7020    -3.7850     1.4200 C.ar  1 <1>  -0.1500 
 15 C       -7.0610    -0.1190    -0.6510 C.3   1 <1>   0.0000 
 16 C       -5.2560     0.4570     1.0390 C.3   1 <1>   0.0000 
 17 C       -6.4490    -1.7720     1.1620 C.3   1 <1>  -0.0800 
 18 C       -6.4120     1.0070     0.1790 C.3   1 <1>  -0.1600 
 19 C       -7.5950    -1.2020     0.3080 C.3   1 <1>  -0.1600 
 20 C       -8.2060     0.4440    -1.5020 C.3   1 <1>  -0.2400 
 21 C       -5.8100    -0.6340     1.9780 C.3   1 <1>  -0.1600 
 22 C       -4.6230     1.5880     1.8590 C.3   1 <1>  -0.2400 
 23 H       -2.8590    -3.1870    -0.2410 H     1 <1>   0.3700 
 24 H       -4.2310    -2.7030    -2.2810 H     1 <1>   0.0800 
 25 H       -3.4270    -1.1660    -2.3660 H     1 <1>   0.0800 
 26 H       -1.1600    -4.6170    -0.1380 H     1 <1>   0.1500 
 27 H        0.8710    -0.8760    -0.0620 H     1 <1>   0.1500 
 28 H        0.5720    -5.5900     1.2870 H     1 <1>   0.1500 
 29 H        2.6150    -1.8550     1.3600 H     1 <1>   0.1500 
 30 H       -5.6080     0.0000    -2.2360 H     1 <1>   0.0800 
 31 H       -6.4270    -1.5290    -2.1510 H     1 <1>   0.0800 
 32 H       -3.8000     0.5730    -0.5520 H     1 <1>   0.0800 
 33 H       -3.3860    -0.5500     0.7010 H     1 <1>   0.0800 
 34 H       -4.6000    -2.8040     0.8450 H     1 <1>   0.0800 
 35 H       -5.8240    -3.1980    -0.3240 H     1 <1>   0.0800 
 36 H        2.4670    -4.2160     2.0430 H     1 <1>   0.1500 
 37 H       -6.8350    -2.5240     1.8290 H     1 <1>   0.0800 
 38 H       -7.1530     1.4580     0.8160 H     1 <1>   0.0800 
 39 H       -6.0390     1.7720    -0.4790 H     1 <1>   0.0800 
 40 H       -8.0550    -1.9960    -0.2540 H     1 <1>   0.0800 
 41 H       -8.3470    -0.7810     0.9520 H     1 <1>   0.0800 
 42 H       -7.8390     1.2000    -2.1730 H     1 <1>   0.0800 
 43 H       -8.9590     0.8850    -0.8730 H     1 <1>   0.0800 
 44 H       -8.6620    -0.3360    -2.0840 H     1 <1>   0.0800 
 45 H       -5.0170    -1.0300     2.5870 H     1 <1>   0.0800 
 46 H       -6.5460    -0.2090     2.6380 H     1 <1>   0.0800 
 47 H       -3.8170     1.2090     2.4610 H     1 <1>   0.0800 
 48 H       -5.3530     2.0360     2.5090 H     1 <1>   0.0800 
 49 H       -4.2320     2.3500     1.2080 H     1 <1>   0.0800 
@<TRIPOS>BOND
  1   1   2  2   
  2   2   3  am  
  3   2   4  1   
  4   3   5  1   
  5   3  23  1   
  6   4   6  ar  
  7   4   7  ar  
  8   5   8  1   
  9   5  24  1   
 10   5  25  1   
 11   6   9  ar  
 12   6  26  1   
 13   7  10  ar  
 14   7  27  1   
 15   8  11  1   
 16   8  12  1   
 17   8  13  1   
 18   9  14  ar  
 19   9  28  1   
 20  10  14  ar  
 21  10  29  1   
 22  11  15  1   
 23  11  30  1   
 24  11  31  1   
 25  12  16  1   
 26  12  32  1   
 27  12  33  1   
 28  13  17  1   
 29  13  34  1   
 30  13  35  1   
 31  14  36  1   
 32  15  18  1   
 33  15  19  1   
 34  15  20  1   
 35  16  18  1   
 36  16  21  1   
 37  16  22  1   
 38  17  19  1   
 39  17  21  1   
 40  17  37  1   
 41  18  38  1   
 42  18  39  1   
 43  19  40  1   
 44  19  41  1   
 45  20  42  1   
 46  20  43  1   
 47  20  44  1   
 48  21  45  1   
 49  21  46  1   
 50  22  47  1   
 51  22  48  1   
 52  22  49  1   
@<TRIPOS>SUBSTRUCTURE
  1 ****  12 GROUP 4 **** **** 0

# MOE 2024.06 (io_trps.svl 2023.06)
