@<TRIPOS>MOLECULE
NONAME
41 41 1 0 0 
SMALL
USER_CHARGES


@<TRIPOS>ATOM
  1 S       -0.2950    -0.3100     0.2650 S.o2  1 <1>   1.4470 
  2 O        0.1100    -0.9580    -0.9650 O.2   1 <1>  -0.6500 
  3 O       -0.4890    -1.1090     1.4550 O.2   1 <1>  -0.6500 
  4 N       -1.7450     0.5080    -0.0650 N.am  1 <1>  -0.8490 
  5 C        0.8550     1.0410     0.6570 C.ar  1 <1>  -0.0090 
  6 C       -2.9170    -0.3630     0.0810 C.3   1 <1>   0.1960 
  7 C       -1.7200     1.1830    -1.3660 C.3   1 <1>   0.1960 
  8 C        1.7940     1.4820    -0.2690 C.ar  1 <1>  -0.1500 
  9 C        0.8050     1.6850     1.8850 C.ar  1 <1>  -0.1500 
 10 C       -3.5790    -0.0860     1.4320 C.3   1 <1>  -0.1600 
 11 C       -2.7030     2.3590    -1.3700 C.3   1 <1>  -0.1600 
 12 C        2.6690     2.5290    -0.0040 C.ar  1 <1>  -0.0090 
 13 C        1.6650     2.7280     2.1790 C.ar  1 <1>  -0.1500 
 14 C       -4.8370    -0.9410     1.6260 C.3   1 <1>  -0.2400 
 15 C       -2.6190     3.1480    -2.6820 C.3   1 <1>  -0.2400 
 16 S        3.8890     3.0520    -1.2360 S.o2  1 <1>   1.2040 
 17 C        2.5890     3.1430     1.2380 C.ar  1 <1>  -0.1500 
 18 O        4.4210     4.3450    -0.8700 O.2   1 <1>  -0.6500 
 19 O        3.3420     2.8410    -2.5570 O.2   1 <1>  -0.6500 
 20 C        5.1910     1.8580    -1.0040 C.3   1 <1>  -0.1350 
 21 H       -2.6330    -1.4010     0.0100 H     1 <1>   0.0800 
 22 H       -3.6360    -0.1730    -0.6970 H     1 <1>   0.0800 
 23 H       -1.9460     0.4850    -2.1560 H     1 <1>   0.0800 
 24 H       -0.7350     1.5780    -1.5520 H     1 <1>   0.0800 
 25 H        1.8410     0.9970    -1.2310 H     1 <1>   0.1500 
 26 H        0.0820     1.3650     2.6180 H     1 <1>   0.1500 
 27 H       -3.8460     0.9540     1.4880 H     1 <1>   0.0800 
 28 H       -2.8840    -0.3030     2.2250 H     1 <1>   0.0800 
 29 H       -2.4660     3.0150    -0.5510 H     1 <1>   0.0800 
 30 H       -3.7090     2.0050    -1.2420 H     1 <1>   0.0800 
 31 H        1.6120     3.2160     3.1380 H     1 <1>   0.1500 
 32 H       -5.5610    -0.7290     0.8590 H     1 <1>   0.0800 
 33 H       -5.2800    -0.7260     2.5830 H     1 <1>   0.0800 
 34 H       -4.5880    -1.9870     1.5940 H     1 <1>   0.0800 
 35 H       -1.6280     3.5440    -2.8220 H     1 <1>   0.0800 
 36 H       -3.3130     3.9700    -2.6600 H     1 <1>   0.0800 
 37 H       -2.8620     2.5180    -3.5190 H     1 <1>   0.0800 
 38 H        3.2520     3.9610     1.4730 H     1 <1>   0.1500 
 39 H        5.5750     1.9110    -0.0040 H     1 <1>   0.0800 
 40 H        5.9940     2.0560    -1.6880 H     1 <1>   0.0800 
 41 H        4.8270     0.8650    -1.1850 H     1 <1>   0.0800 
@<TRIPOS>BOND
  1   1   2  2   
  2   1   3  2   
  3   1   4  am  
  4   1   5  1   
  5   4   6  1   
  6   4   7  1   
  7   5   8  ar  
  8   5   9  ar  
  9   6  10  1   
 10   6  21  1   
 11   6  22  1   
 12   7  11  1   
 13   7  23  1   
 14   7  24  1   
 15   8  12  ar  
 16   8  25  1   
 17   9  13  ar  
 18   9  26  1   
 19  10  14  1   
 20  10  27  1   
 21  10  28  1   
 22  11  15  1   
 23  11  29  1   
 24  11  30  1   
 25  12  16  1   
 26  12  17  ar  
 27  13  17  ar  
 28  13  31  1   
 29  14  32  1   
 30  14  33  1   
 31  14  34  1   
 32  15  35  1   
 33  15  36  1   
 34  15  37  1   
 35  16  18  2   
 36  16  19  2   
 37  16  20  1   
 38  17  38  1   
 39  20  39  1   
 40  20  40  1   
 41  20  41  1   
@<TRIPOS>SUBSTRUCTURE
  1 ****   5 GROUP 4 **** **** 0

# MOE 2024.06 (io_trps.svl 2023.06)
