@<TRIPOS>MOLECULE
NONAME
41 42 1 0 0 
SMALL
USER_CHARGES


@<TRIPOS>ATOM
  1 S        0.1520    -0.1330    -0.4820 S.o2  1 <1>   1.4470 
  2 O        0.5020    -0.4430    -1.8510 O.2   1 <1>  -0.6500 
  3 O        0.7210    -0.9170     0.5940 O.2   1 <1>  -0.6500 
  4 N        0.5740     1.4860    -0.2020 N.am  1 <1>  -0.8490 
  5 C       -1.6540    -0.0930    -0.3350 C.ar  1 <1>  -0.0090 
  6 C        0.3670     1.8950     1.1980 C.3   1 <1>   0.1960 
  7 C        1.9310     1.7980    -0.6470 C.3   1 <1>   0.1960 
  8 C       -2.3860     0.9070    -0.9590 C.ar  1 <1>  -0.1500 
  9 C       -2.3490    -1.0500     0.3940 C.ar  1 <1>  -0.1500 
 10 C        0.9290     3.2990     1.4960 C.3   1 <1>  -0.1600 
 11 C        2.1270     3.3230    -0.7170 C.3   1 <1>  -0.1600 
 12 C       -3.7660     0.9960    -0.8420 C.ar  1 <1>   0.1170 
 13 C       -3.7290    -1.0050     0.5010 C.ar  1 <1>  -0.1500 
 14 C        1.1980     4.1100     0.2240 C.3   1 <1>  -0.1600 
 15 N       -4.4910     2.0360    -1.4500 N.am  1 <1>  -0.5470 
 16 C       -4.4460     0.0130    -0.1170 C.ar  1 <1>   0.0820 
 17 C       -4.2540     3.3630    -1.6170 C.2   1 <1>   0.5690 
 18 O       -5.8050     0.1060    -0.0560 O.3   1 <1>  -0.3630 
 19 O       -5.0650     4.0500    -2.1810 O.2   1 <1>  -0.5700 
 20 C       -3.0040     4.0240    -1.0830 C.3   1 <1>  -0.1790 
 21 C       -6.5790    -0.8280     0.6660 C.3   1 <1>   0.0400 
 22 H        0.8350     1.1910     1.8670 H     1 <1>   0.0800 
 23 H       -0.6900     1.8920     1.4040 H     1 <1>   0.0800 
 24 H        2.1160     1.3830    -1.6240 H     1 <1>   0.0800 
 25 H        2.6400     1.3610     0.0390 H     1 <1>   0.0800 
 26 H       -1.8550     1.6260    -1.5550 H     1 <1>   0.1500 
 27 H       -1.8030    -1.8410     0.8820 H     1 <1>   0.1500 
 28 H        1.8500     3.1900     2.0410 H     1 <1>   0.0800 
 29 H        0.2440     3.8280     2.1340 H     1 <1>   0.0800 
 30 H        1.9600     3.6510    -1.7270 H     1 <1>   0.0800 
 31 H        3.1530     3.5400    -0.4790 H     1 <1>   0.0800 
 32 H       -4.2210    -1.7720     1.0690 H     1 <1>   0.1500 
 33 H        1.6310     5.0660     0.4640 H     1 <1>   0.0800 
 34 H        0.2600     4.2860    -0.2770 H     1 <1>   0.0800 
 35 H       -5.4550     1.7850    -1.6790 H     1 <1>   0.3700 
 36 H       -2.7240     3.5940    -0.1400 H     1 <1>   0.0800 
 37 H       -3.1890     5.0730    -0.9390 H     1 <1>   0.0800 
 38 H       -2.2040     3.9120    -1.7890 H     1 <1>   0.0800 
 39 H       -7.6120    -0.5470     0.5750 H     1 <1>   0.0800 
 40 H       -6.2840    -0.8020     1.7000 H     1 <1>   0.0800 
 41 H       -6.4290    -1.8060     0.2440 H     1 <1>   0.0800 
@<TRIPOS>BOND
  1   1   2  2   
  2   1   3  2   
  3   1   4  am  
  4   1   5  1   
  5   4   6  1   
  6   4   7  1   
  7   5   8  ar  
  8   5   9  ar  
  9   6  10  1   
 10   6  22  1   
 11   6  23  1   
 12   7  11  1   
 13   7  24  1   
 14   7  25  1   
 15   8  12  ar  
 16   8  26  1   
 17   9  13  ar  
 18   9  27  1   
 19  10  14  1   
 20  10  28  1   
 21  10  29  1   
 22  11  14  1   
 23  11  30  1   
 24  11  31  1   
 25  12  15  1   
 26  12  16  ar  
 27  13  16  ar  
 28  13  32  1   
 29  14  33  1   
 30  14  34  1   
 31  15  17  am  
 32  15  35  1   
 33  16  18  1   
 34  17  19  2   
 35  17  20  1   
 36  18  21  1   
 37  20  36  1   
 38  20  37  1   
 39  20  38  1   
 40  21  39  1   
 41  21  40  1   
 42  21  41  1   
@<TRIPOS>SUBSTRUCTURE
  1 ****   8 GROUP 4 **** **** 0

# MOE 2024.06 (io_trps.svl 2023.06)
