@<TRIPOS>MOLECULE
NONAME
39 41 1 0 0 
SMALL
USER_CHARGES


@<TRIPOS>ATOM
  1 CL      -2.4590     0.3170    -3.6160 Cl    1 <1>  -0.1770 
  2 C       -2.6930     0.9320    -1.9980 C.ar  1 <1>   0.1770 
  3 C       -1.8340     1.8760    -1.4630 C.ar  1 <1>   0.1770 
  4 C       -3.7630     0.4570    -1.2590 C.ar  1 <1>  -0.1500 
  5 CL      -0.4840     2.4880    -2.3880 Cl    1 <1>  -0.1770 
  6 C       -2.0360     2.3510    -0.1800 C.ar  1 <1>  -0.1500 
  7 C       -3.9790     0.9360     0.0290 C.ar  1 <1>  -0.1440 
  8 C       -3.1080     1.8790     0.5630 C.ar  1 <1>  -0.1500 
  9 C       -5.1560     0.4300     0.8470 C.3   1 <1>   0.4870 
 10 N       -6.4110     1.0150     0.3040 N.4   1 <1>  -0.9590 
 11 C       -6.4350     2.5210     0.4190 C.3   1 <1>   0.3430 
 12 C       -7.6340     0.4170     0.9520 C.3   1 <1>   0.3430 
 13 C       -7.7320     3.1330    -0.1440 C.3   1 <1>   0.2090 
 14 C       -8.9440     1.0080     0.3930 C.3   1 <1>   0.2090 
 15 N       -8.9450     2.5000     0.4540 N.pl3 1 <1>  -0.8380 
 16 C      -10.1280     3.0700     0.0370 C.ar  1 <1>   0.4100 
 17 N      -10.4330     2.9040    -1.2430 N.ar  1 <1>  -0.6200 
 18 C      -10.9220     3.7690     0.9400 C.ar  1 <1>  -0.1500 
 19 C      -11.5710     3.4570    -1.6340 C.ar  1 <1>   0.1600 
 20 C      -12.1010     4.3370     0.5190 C.ar  1 <1>  -0.1500 
 21 C      -12.4270     4.1690    -0.8120 C.ar  1 <1>  -0.1500 
 22 H       -4.4030    -0.2830    -1.7060 H     1 <1>   0.1500 
 23 H       -1.3560     3.0810     0.2270 H     1 <1>   0.1500 
 24 H       -3.2460     2.2570     1.5640 H     1 <1>   0.1500 
 25 H       -5.0330     0.7080     1.8810 H     1 <1>   0.0800 
 26 H       -5.1930    -0.6460     0.7870 H     1 <1>   0.0800 
 27 H       -6.4500     0.7990    -0.7000 H     1 <1>   0.4500 
 28 H       -5.5950     2.9440    -0.1080 H     1 <1>   0.0800 
 29 H       -6.3530     2.8060     1.4550 H     1 <1>   0.0800 
 30 H       -7.6100     0.6060     2.0120 H     1 <1>   0.0800 
 31 H       -7.6450    -0.6500     0.8050 H     1 <1>   0.0800 
 32 H       -7.7530     3.0140    -1.2150 H     1 <1>   0.0800 
 33 H       -7.7480     4.1900     0.0650 H     1 <1>   0.0800 
 34 H       -9.7770     0.6340     0.9640 H     1 <1>   0.0800 
 35 H       -9.0800     0.6890    -0.6270 H     1 <1>   0.0800 
 36 H      -10.6000     3.8560     1.9590 H     1 <1>   0.1500 
 37 H      -11.8390     3.3350    -2.6700 H     1 <1>   0.1500 
 38 H      -12.7400     4.8840     1.1910 H     1 <1>   0.1500 
 39 H      -13.3350     4.5870    -1.2080 H     1 <1>   0.1500 
@<TRIPOS>BOND
  1   1   2  1   
  2   2   3  ar  
  3   2   4  ar  
  4   3   5  1   
  5   3   6  ar  
  6   4   7  ar  
  7   4  22  1   
  8   6   8  ar  
  9   6  23  1   
 10   7   8  ar  
 11   7   9  1   
 12   8  24  1   
 13   9  10  1   
 14   9  25  1   
 15   9  26  1   
 16  10  11  1   
 17  10  12  1   
 18  10  27  1   
 19  11  13  1   
 20  11  28  1   
 21  11  29  1   
 22  12  14  1   
 23  12  30  1   
 24  12  31  1   
 25  13  15  1   
 26  13  32  1   
 27  13  33  1   
 28  14  15  1   
 29  14  34  1   
 30  14  35  1   
 31  15  16  1   
 32  16  17  ar  
 33  16  18  ar  
 34  17  19  ar  
 35  18  20  ar  
 36  18  36  1   
 37  19  21  ar  
 38  19  37  1   
 39  20  21  ar  
 40  20  38  1   
 41  21  39  1   
@<TRIPOS>SUBSTRUCTURE
  1 ****  11 GROUP 4 **** **** 0

# MOE 2024.06 (io_trps.svl 2023.06)
