@<TRIPOS>MOLECULE
NONAME
53 54 1 0 0 
SMALL
USER_CHARGES


@<TRIPOS>ATOM
  1 S       -2.3110    -1.4590     1.1850 S.o2  1 <1>   1.3330 
  2 O       -1.4590    -0.4390     1.7420 O.2   1 <1>  -0.6500 
  3 O       -3.6530    -1.6250     1.6910 O.2   1 <1>  -0.6500 
  4 N       -1.5000    -2.9850     1.3320 N.am  1 <1>  -0.6930 
  5 C       -2.3850    -1.2430    -0.5810 C.3   1 <1>  -0.1350 
  6 C       -0.1640    -3.1010     0.9540 C.ar  1 <1>   0.1990 
  7 C       -2.2760    -4.2530     1.5370 C.3   1 <1>   0.3370 
  8 C        0.2000    -3.8570    -0.1560 C.ar  1 <1>  -0.1500 
  9 C        0.8340    -2.4620     1.6770 C.ar  1 <1>  -0.1500 
 10 C       -3.2790    -4.5950     0.4120 C.2   1 <1>   0.5690 
 11 C       -2.8670    -4.3130     2.9530 C.3   1 <1>  -0.2400 
 12 C        1.5260    -3.9770    -0.5340 C.ar  1 <1>  -0.1440 
 13 C        2.1630    -2.5680     1.3090 C.ar  1 <1>  -0.1440 
 14 O       -2.9810    -5.4870    -0.3480 O.2   1 <1>  -0.5700 
 15 N       -4.4440    -3.8880     0.2790 N.am  1 <1>  -0.5470 
 16 C        2.5040    -3.3290     0.2030 C.ar  1 <1>  -0.1500 
 17 C        1.9150    -4.8060    -1.7440 C.3   1 <1>  -0.0970 
 18 C        3.2430    -1.8600     2.1070 C.3   1 <1>  -0.0970 
 19 C       -5.4440    -3.9670    -0.7080 C.ar  1 <1>   0.1170 
 20 C       -6.0930    -2.8010    -1.1280 C.ar  1 <1>   0.0830 
 21 C       -5.8230    -5.1820    -1.2670 C.ar  1 <1>  -0.1500 
 22 O       -5.6950    -1.6220    -0.5710 O.3   1 <1>  -0.3630 
 23 C       -7.0970    -2.8680    -2.0880 C.ar  1 <1>  -0.1500 
 24 C       -6.8230    -5.2450    -2.2210 C.ar  1 <1>  -0.1500 
 25 C       -6.5520    -0.5040    -0.5590 C.3   1 <1>   0.1200 
 26 C       -7.4610    -4.0880    -2.6320 C.ar  1 <1>  -0.1500 
 27 C       -5.9350     0.5530     0.3510 C.3   1 <1>  -0.2400 
 28 H       -2.8890    -0.3270    -0.8170 H     1 <1>   0.0800 
 29 H       -2.9180    -2.0510    -1.0420 H     1 <1>   0.0800 
 30 H       -1.3950    -1.2060    -0.9900 H     1 <1>   0.0800 
 31 H       -1.5560    -5.0530     1.5110 H     1 <1>   0.0800 
 32 H       -0.5620    -4.3530    -0.7300 H     1 <1>   0.1500 
 33 H        0.5560    -1.8770     2.5360 H     1 <1>   0.1500 
 34 H       -3.6950    -3.6410     3.0760 H     1 <1>   0.0800 
 35 H       -2.1080    -4.0780     3.6770 H     1 <1>   0.0800 
 36 H       -3.2230    -5.3090     3.1460 H     1 <1>   0.0800 
 37 H       -4.5280    -3.0480     0.8750 H     1 <1>   0.3700 
 38 H        3.5370    -3.4170    -0.0870 H     1 <1>   0.1500 
 39 H        1.0860    -5.4000    -2.0850 H     1 <1>   0.0800 
 40 H        2.7250    -5.4670    -1.4930 H     1 <1>   0.0800 
 41 H        2.2290    -4.1600    -2.5440 H     1 <1>   0.0800 
 42 H        2.8180    -1.0790     2.7120 H     1 <1>   0.0800 
 43 H        3.9660    -1.4200     1.4440 H     1 <1>   0.0800 
 44 H        3.7410    -2.5630     2.7500 H     1 <1>   0.0800 
 45 H       -5.3360    -6.0870    -0.9530 H     1 <1>   0.1500 
 46 H       -7.6020    -1.9850    -2.4310 H     1 <1>   0.1500 
 47 H       -7.1020    -6.1950    -2.6430 H     1 <1>   0.1500 
 48 H       -7.5130    -0.8140    -0.1830 H     1 <1>   0.0800 
 49 H       -6.6460    -0.1320    -1.5640 H     1 <1>   0.0800 
 50 H       -8.2380    -4.1390    -3.3750 H     1 <1>   0.1500 
 51 H       -5.8180     0.1610     1.3460 H     1 <1>   0.0800 
 52 H       -6.5760     1.4150     0.3970 H     1 <1>   0.0800 
 53 H       -4.9770     0.8580    -0.0280 H     1 <1>   0.0800 
@<TRIPOS>BOND
  1   1   2  2   
  2   1   3  2   
  3   1   4  am  
  4   1   5  1   
  5   4   6  1   
  6   4   7  1   
  7   5  28  1   
  8   5  29  1   
  9   5  30  1   
 10   6   8  ar  
 11   6   9  ar  
 12   7  10  1   
 13   7  11  1   
 14   7  31  1   
 15   8  12  ar  
 16   8  32  1   
 17   9  13  ar  
 18   9  33  1   
 19  10  14  2   
 20  10  15  am  
 21  11  34  1   
 22  11  35  1   
 23  11  36  1   
 24  12  16  ar  
 25  12  17  1   
 26  13  16  ar  
 27  13  18  1   
 28  15  19  1   
 29  15  37  1   
 30  16  38  1   
 31  17  39  1   
 32  17  40  1   
 33  17  41  1   
 34  18  42  1   
 35  18  43  1   
 36  18  44  1   
 37  19  20  ar  
 38  19  21  ar  
 39  20  22  1   
 40  20  23  ar  
 41  21  24  ar  
 42  21  45  1   
 43  22  25  1   
 44  23  26  ar  
 45  23  46  1   
 46  24  26  ar  
 47  24  47  1   
 48  25  27  1   
 49  25  48  1   
 50  25  49  1   
 51  26  50  1   
 52  27  51  1   
 53  27  52  1   
 54  27  53  1   
@<TRIPOS>SUBSTRUCTURE
  1 ****   4 GROUP 4 **** **** 0

# MOE 2024.06 (io_trps.svl 2023.06)
