@<TRIPOS>MOLECULE
NONAME
34 34 1 0 0 
SMALL
USER_CHARGES


@<TRIPOS>ATOM
  1 O       -1.0780     0.2650     0.0720 O.2   1 <1>  -0.5700 
  2 C       -0.9110    -0.8920     0.3550 C.2   1 <1>   0.4950 
  3 C       -2.0300    -1.8000     0.4250 C.2   1 <1>  -0.1360 
  4 C        0.5030    -1.3160     0.6990 C.3   1 <1>  -0.0990 
  5 C       -2.1780    -3.1420     0.3470 C.2   1 <1>  -0.2760 
  6 C        1.4780    -1.2950    -0.4910 C.3   1 <1>   0.4240 
  7 C       -3.5440    -3.7910     0.5230 C.3   1 <1>  -0.1020 
  8 C       -1.1000    -4.1850     0.0670 C.3   1 <1>  -0.1020 
  9 O        0.8050    -1.7270    -1.6170 O.3   1 <1>  -0.6800 
 10 C        2.6730    -2.2220    -0.2000 C.ar  1 <1>  -0.1440 
 11 C        1.9750     0.1110    -0.8360 C.3   1 <1>  -0.2400 
 12 C        3.4890    -1.9630     0.8970 C.ar  1 <1>  -0.1500 
 13 C        2.9760    -3.3280    -0.9910 C.ar  1 <1>  -0.1500 
 14 C        4.5670    -2.7780     1.1970 C.ar  1 <1>  -0.1500 
 15 C        4.0530    -4.1450    -0.6940 C.ar  1 <1>  -0.1500 
 16 C        4.8500    -3.8720     0.4010 C.ar  1 <1>  -0.1500 
 17 H       -2.9280    -1.2260     0.5700 H     1 <1>   0.1500 
 18 H        0.8700    -0.6510     1.4570 H     1 <1>   0.0800 
 19 H        0.4940    -2.2890     1.1470 H     1 <1>   0.0800 
 20 H       -3.5170    -4.4950     1.3360 H     1 <1>   0.0800 
 21 H       -3.8270    -4.3120    -0.3750 H     1 <1>   0.0800 
 22 H       -4.3010    -3.0580     0.7390 H     1 <1>   0.0800 
 23 H       -0.8620    -4.7250     0.9660 H     1 <1>   0.0800 
 24 H       -0.2020    -3.7530    -0.3260 H     1 <1>   0.0800 
 25 H       -1.4500    -4.8880    -0.6690 H     1 <1>   0.0800 
 26 H        0.1620    -1.0390    -1.8750 H     1 <1>   0.4000 
 27 H        2.6780     0.0580    -1.6480 H     1 <1>   0.0800 
 28 H        2.4750     0.5480     0.0070 H     1 <1>   0.0800 
 29 H        1.1630     0.7580    -1.1130 H     1 <1>   0.0800 
 30 H        3.2930    -1.1180     1.5330 H     1 <1>   0.1500 
 31 H        2.3750    -3.5660    -1.8510 H     1 <1>   0.1500 
 32 H        5.1860    -2.5610     2.0500 H     1 <1>   0.1500 
 33 H        4.2690    -4.9940    -1.3190 H     1 <1>   0.1500 
 34 H        5.6870    -4.5070     0.6320 H     1 <1>   0.1500 
@<TRIPOS>BOND
  1   1   2  2   
  2   2   3  1   
  3   2   4  1   
  4   3   5  2   
  5   3  17  1   
  6   4   6  1   
  7   4  18  1   
  8   4  19  1   
  9   5   7  1   
 10   5   8  1   
 11   6   9  1   
 12   6  10  1   
 13   6  11  1   
 14   7  20  1   
 15   7  21  1   
 16   7  22  1   
 17   8  23  1   
 18   8  24  1   
 19   8  25  1   
 20   9  26  1   
 21  10  12  ar  
 22  10  13  ar  
 23  11  27  1   
 24  11  28  1   
 25  11  29  1   
 26  12  14  ar  
 27  12  30  1   
 28  13  15  ar  
 29  13  31  1   
 30  14  16  ar  
 31  14  32  1   
 32  15  16  ar  
 33  15  33  1   
 34  16  34  1   
@<TRIPOS>SUBSTRUCTURE
  1 ****   6 GROUP 4 **** **** 0

# MOE 2024.06 (io_trps.svl 2023.06)
