@<TRIPOS>MOLECULE
NONAME
40 41 1 0 0 
SMALL
USER_CHARGES


@<TRIPOS>ATOM
  1 O        0.8440     0.3830     0.8520 O.2   1 <1>  -0.5700 
  2 C        0.1550     1.1690     0.2240 C.2   1 <1>   0.5440 
  3 N       -1.1320     0.8130    -0.0710 N.am  1 <1>  -0.7300 
  4 C        0.6790     2.4450    -0.2220 C.ar  1 <1>   0.0860 
  5 C       -1.7860    -0.4520     0.3230 C.3   1 <1>   0.1400 
  6 C        1.9800     2.5740    -0.7430 C.ar  1 <1>   0.1170 
  7 C       -0.1220     3.5880    -0.1460 C.ar  1 <1>  -0.1500 
  8 C       -3.2080    -0.1510     0.7960 C.3   1 <1>  -0.1600 
  9 N        2.8080     1.4420    -0.8120 N.am  1 <1>  -0.5470 
 10 C        2.4170     3.8250    -1.1740 C.ar  1 <1>  -0.1500 
 11 C        0.3270     4.8190    -0.5770 C.ar  1 <1>  -0.1500 
 12 C       -3.9370    -1.4320     1.2170 C.3   1 <1>  -0.2400 
 13 C        4.0650     1.1850    -1.2900 C.2   1 <1>   0.5690 
 14 C        1.6020     4.9370    -1.0960 C.ar  1 <1>  -0.1500 
 15 O        4.7430     1.9980    -1.8730 O.2   1 <1>  -0.5700 
 16 C        4.6380    -0.2200    -1.0400 C.3   1 <1>   0.2610 
 17 O        3.6010    -1.1660    -0.8900 O.3   1 <1>  -0.5600 
 18 C        5.4490    -0.2950     0.2530 C.3   1 <1>  -0.1600 
 19 C        3.5330    -1.6800     0.4060 C.3   1 <1>   0.1200 
 20 C        4.4430    -0.8130     1.2620 C.3   1 <1>  -0.1600 
 21 H       -1.6690     1.4010    -0.7090 H     1 <1>   0.3700 
 22 H       -1.2290    -0.9240     1.1160 H     1 <1>   0.0800 
 23 H       -1.8060    -1.1190    -0.5220 H     1 <1>   0.0800 
 24 H       -1.1130     3.5090     0.2670 H     1 <1>   0.1500 
 25 H       -3.7600     0.3210     0.0020 H     1 <1>   0.0800 
 26 H       -3.1660     0.5210     1.6360 H     1 <1>   0.0800 
 27 H        2.3930     0.6030    -0.3760 H     1 <1>   0.3700 
 28 H        3.4050     3.9430    -1.5760 H     1 <1>   0.1500 
 29 H       -0.3080     5.6870    -0.5100 H     1 <1>   0.1500 
 30 H       -4.0050    -2.1180     0.3910 H     1 <1>   0.0800 
 31 H       -4.9330    -1.1970     1.5490 H     1 <1>   0.0800 
 32 H       -3.4140    -1.9140     2.0260 H     1 <1>   0.0800 
 33 H        1.9620     5.8930    -1.4360 H     1 <1>   0.1500 
 34 H        5.2350    -0.5070    -1.8870 H     1 <1>   0.0800 
 35 H        5.8660     0.6580     0.5310 H     1 <1>   0.0800 
 36 H        6.2480    -1.0030     0.1240 H     1 <1>   0.0800 
 37 H        3.8880    -2.6960     0.3730 H     1 <1>   0.0800 
 38 H        2.5100    -1.6600     0.7440 H     1 <1>   0.0800 
 39 H        3.8700    -0.0020     1.6780 H     1 <1>   0.0800 
 40 H        4.8990    -1.3710     2.0600 H     1 <1>   0.0800 
@<TRIPOS>BOND
  1   1   2  2   
  2   2   3  am  
  3   2   4  1   
  4   3   5  1   
  5   3  21  1   
  6   4   6  ar  
  7   4   7  ar  
  8   5   8  1   
  9   5  22  1   
 10   5  23  1   
 11   6   9  1   
 12   6  10  ar  
 13   7  11  ar  
 14   7  24  1   
 15   8  12  1   
 16   8  25  1   
 17   8  26  1   
 18   9  13  am  
 19   9  27  1   
 20  10  14  ar  
 21  10  28  1   
 22  11  14  ar  
 23  11  29  1   
 24  12  30  1   
 25  12  31  1   
 26  12  32  1   
 27  13  15  2   
 28  13  16  1   
 29  14  33  1   
 30  16  17  1   
 31  16  18  1   
 32  16  34  1   
 33  17  19  1   
 34  18  20  1   
 35  18  35  1   
 36  18  36  1   
 37  19  20  1   
 38  19  37  1   
 39  19  38  1   
 40  20  39  1   
 41  20  40  1   
@<TRIPOS>SUBSTRUCTURE
  1 ****   9 GROUP 4 **** **** 0

# MOE 2024.06 (io_trps.svl 2023.06)
