@<TRIPOS>MOLECULE
NONAME
43 44 1 0 0 
SMALL
USER_CHARGES


@<TRIPOS>ATOM
  1 BR      -0.7660     0.0660     2.0480 Br    1 <1>  -0.1110 
  2 C       -1.9110    -0.8000     0.7590 C.ar  1 <1>   0.1110 
  3 C       -1.5180    -1.9960     0.1750 C.ar  1 <1>   0.0820 
  4 C       -3.1080    -0.1780     0.4550 C.ar  1 <1>  -0.1500 
  5 O       -0.3040    -2.5180     0.4920 O.3   1 <1>  -0.3630 
  6 C       -2.4040    -2.6060    -0.7210 C.ar  1 <1>   0.0820 
  7 C       -3.9630    -0.7730    -0.4620 C.ar  1 <1>  -0.1440 
  8 C        0.6560    -2.6370    -0.5440 C.3   1 <1>   0.2000 
  9 O       -2.1700    -3.8040    -1.3100 O.3   1 <1>  -0.3630 
 10 C       -3.6000    -1.9810    -1.0450 C.ar  1 <1>  -0.1500 
 11 C       -5.2810    -0.1220    -0.8150 C.3   1 <1>   0.4870 
 12 C        1.7820    -3.5270    -0.0340 C.3   1 <1>  -0.1600 
 13 C        1.3410    -1.2900    -0.7690 C.3   1 <1>  -0.1600 
 14 C       -1.9700    -4.9220    -0.4690 C.3   1 <1>   0.0400 
 15 N       -6.2820    -0.6560     0.1320 N.4   1 <1>  -0.9060 
 16 C        2.6560    -2.6130     0.8300 C.3   1 <1>  -0.1600 
 17 C        2.4330    -1.1900     0.3030 C.3   1 <1>  -0.1600 
 18 C       -7.6420    -0.0820    -0.0800 C.3   1 <1>   0.3430 
 19 C       -8.6610    -0.6430     0.9200 C.3   1 <1>   0.1200 
 20 O       -9.8740    -0.0380     0.6520 O.3   1 <1>  -0.6800 
 21 H       -3.3400     0.7570     0.9360 H     1 <1>   0.1500 
 22 H        0.1930    -3.0280    -1.4320 H     1 <1>   0.0800 
 23 H       -4.2370    -2.4700    -1.7630 H     1 <1>   0.1500 
 24 H       -5.5520    -0.3620    -1.8310 H     1 <1>   0.0800 
 25 H       -5.2010     0.9500    -0.7190 H     1 <1>   0.0800 
 26 H        2.3580    -3.8710    -0.8750 H     1 <1>   0.0800 
 27 H        1.4130    -4.3790     0.5090 H     1 <1>   0.0800 
 28 H        0.6540    -0.4640    -0.7380 H     1 <1>   0.0800 
 29 H        1.8100    -1.3070    -1.7380 H     1 <1>   0.0800 
 30 H       -1.9830    -5.8070    -1.0780 H     1 <1>   0.0800 
 31 H       -2.7630    -4.9620     0.2570 H     1 <1>   0.0800 
 32 H       -1.0190    -4.8380     0.0240 H     1 <1>   0.0800 
 33 H       -5.9460    -0.4640     1.0840 H     1 <1>   0.4500 
 34 H       -6.2940    -1.6780     0.0300 H     1 <1>   0.4500 
 35 H        3.6920    -2.9000     0.7830 H     1 <1>   0.0800 
 36 H        2.3240    -2.6670     1.8530 H     1 <1>   0.0800 
 37 H        2.1040    -0.5550     1.1080 H     1 <1>   0.0800 
 38 H        3.3380    -0.7810    -0.1130 H     1 <1>   0.0800 
 39 H       -7.9830    -0.3070    -1.0780 H     1 <1>   0.0800 
 40 H       -7.6070     0.9900     0.0340 H     1 <1>   0.0800 
 41 H       -8.3880    -0.4050     1.9340 H     1 <1>   0.0800 
 42 H       -8.7860    -1.7050     0.7990 H     1 <1>   0.0800 
 43 H      -10.5830    -0.3500     1.2550 H     1 <1>   0.4000 
@<TRIPOS>BOND
  1   1   2  1   
  2   2   3  ar  
  3   2   4  ar  
  4   3   5  1   
  5   3   6  ar  
  6   4   7  ar  
  7   4  21  1   
  8   5   8  1   
  9   6   9  1   
 10   6  10  ar  
 11   7  10  ar  
 12   7  11  1   
 13   8  12  1   
 14   8  13  1   
 15   8  22  1   
 16   9  14  1   
 17  10  23  1   
 18  11  15  1   
 19  11  24  1   
 20  11  25  1   
 21  12  16  1   
 22  12  26  1   
 23  12  27  1   
 24  13  17  1   
 25  13  28  1   
 26  13  29  1   
 27  14  30  1   
 28  14  31  1   
 29  14  32  1   
 30  15  18  1   
 31  15  33  1   
 32  15  34  1   
 33  16  17  1   
 34  16  35  1   
 35  16  36  1   
 36  17  37  1   
 37  17  38  1   
 38  18  19  1   
 39  18  39  1   
 40  18  40  1   
 41  19  20  1   
 42  19  41  1   
 43  19  42  1   
 44  20  43  1   
@<TRIPOS>SUBSTRUCTURE
  1 ****   3 GROUP 4 **** **** 0

# MOE 2024.06 (io_trps.svl 2023.06)
