@<TRIPOS>MOLECULE
NONAME
25 27 1 0 0 
SMALL
USER_CHARGES


@<TRIPOS>ATOM
  1 N       -3.8520    -3.0780     0.0040 N.pl3 1 <1>  -0.8440 
  2 C       -2.5990    -3.4780     0.0040 C.cat 1 <1>   1.2000 
  3 C       -4.7760    -4.2460     0.0050 C.3   1 <1>   0.1680 
  4 N       -2.4870    -4.7880     0.0050 N.pl3 1 <1>  -0.7050 
  5 N       -1.4180    -2.8600     0.0030 N.pl3 1 <1>  -0.7050 
  6 C       -3.8060    -5.4550     0.0060 C.3   1 <1>   0.1680 
  7 C       -1.1410    -5.0920     0.0050 C.ar  1 <1>   0.3110 
  8 C       -0.4650    -3.8790     0.0040 C.ar  1 <1>   0.3110 
  9 C       -1.1170    -1.4050     0.0020 C.3   1 <1>   0.0880 
 10 C       -0.4550    -6.2990     0.0050 C.ar  1 <1>  -0.1500 
 11 C        0.9250    -3.8500     0.0030 C.ar  1 <1>  -0.1500 
 12 C        0.9270    -6.2670     0.0050 C.ar  1 <1>  -0.1500 
 13 C        1.6120    -5.0490     0.0040 C.ar  1 <1>  -0.1500 
 14 H       -4.1580    -2.1070     0.0030 H     1 <1>   0.4500 
 15 H       -5.3970    -4.2500    -0.8760 H     1 <1>   0.0800 
 16 H       -5.3960    -4.2480     0.8870 H     1 <1>   0.0800 
 17 H       -3.9320    -6.0600    -0.8770 H     1 <1>   0.0800 
 18 H       -3.9320    -6.0590     0.8890 H     1 <1>   0.0800 
 19 H       -2.0260    -0.8280     0.0020 H     1 <1>   0.0800 
 20 H       -0.5450    -1.1510    -0.8750 H     1 <1>   0.0800 
 21 H       -0.5440    -1.1500     0.8780 H     1 <1>   0.0800 
 22 H       -0.9940    -7.2290     0.0060 H     1 <1>   0.1500 
 23 H        1.4480    -2.9100     0.0030 H     1 <1>   0.1500 
 24 H        1.4890    -7.1870     0.0050 H     1 <1>   0.1500 
 25 H        2.6910    -5.0540     0.0040 H     1 <1>   0.1500 
@<TRIPOS>BOND
  1   1   2  ar  
  2   1   3  1   
  3   1  14  1   
  4   2   4  ar  
  5   2   5  ar  
  6   3   6  1   
  7   3  15  1   
  8   3  16  1   
  9   4   6  1   
 10   4   7  1   
 11   5   8  1   
 12   5   9  1   
 13   6  17  1   
 14   6  18  1   
 15   7   8  ar  
 16   7  10  ar  
 17   8  11  ar  
 18   9  19  1   
 19   9  20  1   
 20   9  21  1   
 21  10  12  ar  
 22  10  22  1   
 23  11  13  ar  
 24  11  23  1   
 25  12  13  ar  
 26  12  24  1   
 27  13  25  1   
@<TRIPOS>SUBSTRUCTURE
  1 ****   7 GROUP 4 **** **** 0

# MOE 2024.06 (io_trps.svl 2023.06)
