@<TRIPOS>MOLECULE
NONAME
48 51 1 0 0 
SMALL
USER_CHARGES


@<TRIPOS>ATOM
  1 S        0.0620     0.3130     0.0230 S.o2  1 <1>   1.4470 
  2 O       -0.2820     1.0220     1.2380 O.2   1 <1>  -0.6500 
  3 O       -0.2840     0.8860    -1.2590 O.2   1 <1>  -0.6500 
  4 N        1.7480     0.1330     0.0350 N.am  1 <1>  -0.8490 
  5 C       -0.5310    -1.4010     0.0970 C.ar  1 <1>  -0.0090 
  6 C        2.4140     1.3590    -0.4320 C.3   1 <1>   0.1960 
  7 C        2.2650    -0.2810     1.3390 C.3   1 <1>   0.1960 
  8 C       -0.2710    -2.2880    -0.9410 C.ar  1 <1>  -0.1500 
  9 C       -1.2440    -1.8740     1.1940 C.ar  1 <1>  -0.1500 
 10 C        3.9310     1.3400    -0.1790 C.3   1 <1>  -0.1600 
 11 C        3.7190    -0.7560     1.1960 C.3   1 <1>  -0.1600 
 12 C       -0.7050    -3.6020    -0.8900 C.ar  1 <1>  -0.1500 
 13 C       -1.6820    -3.1860     1.2540 C.ar  1 <1>  -0.1500 
 14 C        4.4690    -0.0900     0.0200 C.3   1 <1>  -0.0190 
 15 C       -1.4110    -4.0520     0.2100 C.ar  1 <1>  -0.1500 
 16 C        5.9890    -0.1350     0.2330 C.2   1 <1>   0.5690 
 17 O        6.4730     0.7500     0.8990 O.2   1 <1>  -0.5700 
 18 N        6.7440    -1.1640    -0.3020 N.am  1 <1>  -0.4770 
 19 C        8.1330    -1.3540    -0.2250 C.ar  1 <1>   0.1170 
 20 C        6.1550    -2.3260    -1.0290 C.3   1 <1>   0.1400 
 21 C        8.5130    -2.5560    -0.7850 C.ar  1 <1>  -0.1430 
 22 C        9.1120    -0.5230     0.3100 C.ar  1 <1>  -0.1500 
 23 C        7.3120    -3.2980    -1.3060 C.3   1 <1>  -0.0170 
 24 C        9.8350    -2.9570    -0.8260 C.ar  1 <1>  -0.1500 
 25 C       10.4410    -0.9120     0.2770 C.ar  1 <1>  -0.1500 
 26 C       10.8040    -2.1250    -0.2890 C.ar  1 <1>  -0.1500 
 27 H        1.9850     2.2210     0.0550 H     1 <1>   0.0800 
 28 H        2.2340     1.4590    -1.4910 H     1 <1>   0.0800 
 29 H        1.6710    -1.0830     1.7450 H     1 <1>   0.0800 
 30 H        2.2140     0.5510     2.0250 H     1 <1>   0.0800 
 31 H        0.2780    -1.9410    -1.8000 H     1 <1>   0.1500 
 32 H       -1.4630    -1.2060     2.0110 H     1 <1>   0.1500 
 33 H        4.1390     1.9240     0.7010 H     1 <1>   0.0800 
 34 H        4.4360     1.8170    -1.0000 H     1 <1>   0.0800 
 35 H        3.7310    -1.8220     1.0650 H     1 <1>   0.0800 
 36 H        4.2290    -0.5430     2.1190 H     1 <1>   0.0800 
 37 H       -0.4950    -4.2720    -1.7060 H     1 <1>   0.1500 
 38 H       -2.2340    -3.5320     2.1110 H     1 <1>   0.1500 
 39 H        4.2200    -0.6210    -0.8800 H     1 <1>   0.0800 
 40 H       -1.7520    -5.0720     0.2530 H     1 <1>   0.1500 
 41 H        5.7270    -1.9910    -1.9570 H     1 <1>   0.0800 
 42 H        5.4030    -2.8010    -0.4250 H     1 <1>   0.0800 
 43 H        8.8460     0.4190     0.7500 H     1 <1>   0.1500 
 44 H        7.4060    -3.4970    -2.3590 H     1 <1>   0.0800 
 45 H        7.1740    -4.2200    -0.7710 H     1 <1>   0.0800 
 46 H       10.1100    -3.8990    -1.2670 H     1 <1>   0.1500 
 47 H       11.1950    -0.2670     0.6930 H     1 <1>   0.1500 
 48 H       11.8380    -2.4200    -0.3110 H     1 <1>   0.1500 
@<TRIPOS>BOND
  1   1   2  2   
  2   1   3  2   
  3   1   4  am  
  4   1   5  1   
  5   4   6  1   
  6   4   7  1   
  7   5   8  ar  
  8   5   9  ar  
  9   6  10  1   
 10   6  27  1   
 11   6  28  1   
 12   7  11  1   
 13   7  29  1   
 14   7  30  1   
 15   8  12  ar  
 16   8  31  1   
 17   9  13  ar  
 18   9  32  1   
 19  10  14  1   
 20  10  33  1   
 21  10  34  1   
 22  11  14  1   
 23  11  35  1   
 24  11  36  1   
 25  12  15  ar  
 26  12  37  1   
 27  13  15  ar  
 28  13  38  1   
 29  14  16  1   
 30  14  39  1   
 31  15  40  1   
 32  16  17  2   
 33  16  18  am  
 34  18  19  1   
 35  18  20  1   
 36  19  21  ar  
 37  19  22  ar  
 38  20  23  1   
 39  20  41  1   
 40  20  42  1   
 41  21  23  1   
 42  21  24  ar  
 43  22  25  ar  
 44  22  43  1   
 45  23  44  1   
 46  23  45  1   
 47  24  26  ar  
 48  24  46  1   
 49  25  26  ar  
 50  25  47  1   
 51  26  48  1   
@<TRIPOS>SUBSTRUCTURE
  1 ****  14 GROUP 4 **** **** 0

# MOE 2024.06 (io_trps.svl 2023.06)
