@<TRIPOS>MOLECULE
NONAME
48 50 1 0 0 
SMALL
USER_CHARGES


@<TRIPOS>ATOM
  1 S        0.0360     0.3750    -0.9150 S.o2  1 <1>   1.4470 
  2 O       -0.3190     1.2450     0.1850 O.2   1 <1>  -0.6500 
  3 O        0.6480     0.9430    -2.0960 O.2   1 <1>  -0.6500 
  4 N        1.1230    -0.7650    -0.2970 N.am  1 <1>  -0.8490 
  5 C       -1.3880    -0.6400    -1.4060 C.ar  1 <1>  -0.0090 
  6 C        0.6500    -1.4320     0.9380 C.3   1 <1>   0.1960 
  7 C        2.4640    -0.2020    -0.1050 C.3   1 <1>   0.1960 
  8 C       -2.4720    -0.8140    -0.5560 C.ar  1 <1>  -0.1500 
  9 C       -1.4120    -1.2960    -2.6290 C.ar  1 <1>  -0.1500 
 10 C        1.7840    -1.9200     1.8770 C.3   1 <1>   0.2000 
 11 C        3.4830    -1.2790     0.3510 C.3   1 <1>   0.2000 
 12 C       -3.5680    -1.6120    -0.8840 C.ar  1 <1>   0.0860 
 13 C       -2.4820    -2.0950    -2.9880 C.ar  1 <1>  -0.1500 
 14 O        2.9130    -2.2860     1.1460 O.3   1 <1>  -0.5600 
 15 C        1.3710    -3.1340     2.7060 C.3   1 <1>  -0.2400 
 16 C        4.6540    -0.6810     1.1310 C.3   1 <1>  -0.2400 
 17 C       -4.6700    -1.7640     0.0470 C.2   1 <1>   0.5440 
 18 C       -3.5470    -2.2540    -2.1220 C.ar  1 <1>  -0.1500 
 19 O       -4.4430    -1.8310     1.2370 O.2   1 <1>  -0.5700 
 20 N       -5.9580    -1.8280    -0.4340 N.am  1 <1>  -0.5470 
 21 C       -7.1930    -1.9840     0.2160 C.ar  1 <1>   0.1170 
 22 C       -7.4030    -1.6580     1.5530 C.ar  1 <1>  -0.1500 
 23 C       -8.2700    -2.4710    -0.5170 C.ar  1 <1>  -0.1500 
 24 C       -8.6450    -1.8200     2.1390 C.ar  1 <1>  -0.1500 
 25 C       -9.5150    -2.6340     0.0640 C.ar  1 <1>  -0.1500 
 26 C       -9.7040    -2.3090     1.3950 C.ar  1 <1>  -0.1500 
 27 H        0.0450    -2.2750     0.6520 H     1 <1>   0.0800 
 28 H        0.0210    -0.7740     1.5130 H     1 <1>   0.0800 
 29 H        2.4180     0.5880     0.6260 H     1 <1>   0.0800 
 30 H        2.8170     0.2330    -1.0250 H     1 <1>   0.0800 
 31 H       -2.4740    -0.3160     0.4000 H     1 <1>   0.1500 
 32 H       -0.5800    -1.1800    -3.3060 H     1 <1>   0.1500 
 33 H        2.0680    -1.1210     2.5410 H     1 <1>   0.0800 
 34 H        3.8670    -1.7720    -0.5250 H     1 <1>   0.0800 
 35 H       -2.4780    -2.5980    -3.9420 H     1 <1>   0.1500 
 36 H        1.1290    -3.9600     2.0610 H     1 <1>   0.0800 
 37 H        0.5120    -2.8980     3.3070 H     1 <1>   0.0800 
 38 H        2.1770    -3.4190     3.3580 H     1 <1>   0.0800 
 39 H        4.3080    -0.1970     2.0260 H     1 <1>   0.0800 
 40 H        5.1680     0.0420     0.5240 H     1 <1>   0.0800 
 41 H        5.3490    -1.4590     1.3930 H     1 <1>   0.0800 
 42 H       -4.3620    -2.8950    -2.4080 H     1 <1>   0.1500 
 43 H       -6.0320    -1.7480    -1.4450 H     1 <1>   0.3700 
 44 H       -6.5960    -1.2700     2.1460 H     1 <1>   0.1500 
 45 H       -8.1390    -2.7300    -1.5510 H     1 <1>   0.1500 
 46 H       -8.7860    -1.5650     3.1750 H     1 <1>   0.1500 
 47 H      -10.3380    -3.0140    -0.5170 H     1 <1>   0.1500 
 48 H      -10.6710    -2.4350     1.8520 H     1 <1>   0.1500 
@<TRIPOS>BOND
  1   1   2  2   
  2   1   3  2   
  3   1   4  am  
  4   1   5  1   
  5   4   6  1   
  6   4   7  1   
  7   5   8  ar  
  8   5   9  ar  
  9   6  10  1   
 10   6  27  1   
 11   6  28  1   
 12   7  11  1   
 13   7  29  1   
 14   7  30  1   
 15   8  12  ar  
 16   8  31  1   
 17   9  13  ar  
 18   9  32  1   
 19  10  14  1   
 20  10  15  1   
 21  10  33  1   
 22  11  14  1   
 23  11  16  1   
 24  11  34  1   
 25  12  17  1   
 26  12  18  ar  
 27  13  18  ar  
 28  13  35  1   
 29  15  36  1   
 30  15  37  1   
 31  15  38  1   
 32  16  39  1   
 33  16  40  1   
 34  16  41  1   
 35  17  19  2   
 36  17  20  am  
 37  18  42  1   
 38  20  21  1   
 39  20  43  1   
 40  21  22  ar  
 41  21  23  ar  
 42  22  24  ar  
 43  22  44  1   
 44  23  25  ar  
 45  23  45  1   
 46  24  26  ar  
 47  24  46  1   
 48  25  26  ar  
 49  25  47  1   
 50  26  48  1   
@<TRIPOS>SUBSTRUCTURE
  1 ****   8 GROUP 4 **** **** 0

# MOE 2024.06 (io_trps.svl 2023.06)
