@<TRIPOS>MOLECULE
NONAME
23 23 1 0 0 
SMALL
USER_CHARGES


@<TRIPOS>ATOM
  1 O        0.4050    -1.1910     0.1990 O.co2 1 <1>  -0.9000 
  2 C       -0.0330    -1.6380    -0.8600 C.2   1 <1>   0.9060 
  3 O        0.7210    -2.0620    -1.7370 O.co2 1 <1>  -0.9000 
  4 C       -1.4270    -2.2080    -0.8580 C.3   1 <1>  -0.1860 
  5 C       -1.2620    -3.7210    -0.6130 C.3   1 <1>   0.4230 
  6 C       -2.3970    -1.5450     0.1460 C.3   1 <1>  -0.1600 
  7 N       -0.0140    -3.9950     0.1230 N.4   1 <1>  -0.8530 
  8 C       -2.4360    -4.3460     0.1580 C.3   1 <1>  -0.1600 
  9 C       -3.7940    -2.1910     0.0970 C.3   1 <1>  -0.1600 
 10 C       -3.7700    -3.6950    -0.2350 C.3   1 <1>  -0.1600 
 11 H       -1.8270    -2.0670    -1.8440 H     1 <1>   0.0800 
 12 H       -1.1940    -4.1920    -1.5810 H     1 <1>   0.0800 
 13 H       -1.9960    -1.6400     1.1410 H     1 <1>   0.0800 
 14 H       -2.4740    -0.4910    -0.0620 H     1 <1>   0.0800 
 15 H        0.0590    -3.3210     0.9020 H     1 <1>   0.4500 
 16 H        0.7390    -3.6440    -0.5080 H     1 <1>   0.4500 
 17 H        0.1520    -4.9590     0.3970 H     1 <1>   0.4500 
 18 H       -2.4800    -5.4000    -0.0500 H     1 <1>   0.0800 
 19 H       -2.3000    -4.2120     1.2180 H     1 <1>   0.0800 
 20 H       -4.2710    -2.0390     1.0500 H     1 <1>   0.0800 
 21 H       -4.3940    -1.6860    -0.6410 H     1 <1>   0.0800 
 22 H       -3.9230    -3.8240    -1.2930 H     1 <1>   0.0800 
 23 H       -4.5860    -4.1850     0.2700 H     1 <1>   0.0800 
@<TRIPOS>BOND
  1   1   2  ar  
  2   2   3  ar  
  3   2   4  1   
  4   4   5  1   
  5   4   6  1   
  6   4  11  1   
  7   5   7  1   
  8   5   8  1   
  9   5  12  1   
 10   6   9  1   
 11   6  13  1   
 12   6  14  1   
 13   7  15  1   
 14   7  16  1   
 15   7  17  1   
 16   8  10  1   
 17   8  18  1   
 18   8  19  1   
 19   9  10  1   
 20   9  20  1   
 21   9  21  1   
 22  10  22  1   
 23  10  23  1   
@<TRIPOS>SUBSTRUCTURE
  1 ****   4 GROUP 4 **** **** 0

# MOE 2024.06 (io_trps.svl 2023.06)
