@<TRIPOS>MOLECULE
NONAME
38 38 1 0 0 
SMALL
USER_CHARGES


@<TRIPOS>ATOM
  1 O       -4.5890     1.1450     0.8780 O.2   1 <1>  -0.5700 
  2 C       -5.6050     1.7850     0.7490 C.2   1 <1>   0.5690 
  3 N       -5.6070     3.0340     0.2110 N.am  1 <1>  -0.7300 
  4 C       -6.9150     1.1570     1.2140 C.3   1 <1>   0.1810 
  5 C       -4.4230     3.7620    -0.2810 C.3   1 <1>   0.1400 
  6 O       -8.0400     1.9800     0.9120 O.3   1 <1>  -0.3620 
  7 C       -4.7210     4.2910    -1.6780 C.3   1 <1>  -0.2400 
  8 C       -9.2910     1.6110     1.2780 C.ar  1 <1>   0.0820 
  9 C      -10.3120     2.4970     0.9760 C.ar  1 <1>  -0.1500 
 10 C       -9.5910     0.4160     1.9260 C.ar  1 <1>  -0.1500 
 11 C      -11.6260     2.2050     1.3100 C.ar  1 <1>  -0.1440 
 12 C      -10.9000     0.1250     2.2650 C.ar  1 <1>  -0.1500 
 13 C      -11.9150     1.0140     1.9610 C.ar  1 <1>  -0.1500 
 14 C      -12.7310     3.1730     0.9570 C.3   1 <1>   0.4860 
 15 N      -13.1860     2.8100    -0.4000 N.4   1 <1>  -0.9060 
 16 C      -14.2520     3.6850    -0.9270 C.3   1 <1>   0.3430 
 17 C      -14.6050     3.2050    -2.3260 C.3   1 <1>  -0.2400 
 18 H       -6.5030     3.5200     0.1350 H     1 <1>   0.3700 
 19 H       -6.8720     1.0150     2.2780 H     1 <1>   0.0800 
 20 H       -7.0430     0.2110     0.7220 H     1 <1>   0.0800 
 21 H       -3.5710     3.1020    -0.3110 H     1 <1>   0.0800 
 22 H       -4.2010     4.5760     0.3880 H     1 <1>   0.0800 
 23 H       -4.9440     3.4760    -2.3430 H     1 <1>   0.0800 
 24 H       -3.8600     4.8120    -2.0560 H     1 <1>   0.0800 
 25 H       -5.5500     4.9750    -1.6540 H     1 <1>   0.0800 
 26 H      -10.0500     3.4160     0.4810 H     1 <1>   0.1500 
 27 H       -8.8270    -0.2970     2.1760 H     1 <1>   0.1500 
 28 H      -11.1260    -0.8000     2.7710 H     1 <1>   0.1500 
 29 H      -12.9240     0.7620     2.2430 H     1 <1>   0.1500 
 30 H      -12.3540     4.1830     0.9740 H     1 <1>   0.0800 
 31 H      -13.5390     3.0880     1.6660 H     1 <1>   0.0800 
 32 H      -13.4990     1.8320    -0.3800 H     1 <1>   0.4500 
 33 H      -12.3690     2.8250    -1.0210 H     1 <1>   0.4500 
 34 H      -13.9110     4.7080    -0.9670 H     1 <1>   0.0800 
 35 H      -15.1240     3.6370    -0.2930 H     1 <1>   0.0800 
 36 H      -13.7550     3.2680    -2.9820 H     1 <1>   0.0800 
 37 H      -15.3810     3.8320    -2.7300 H     1 <1>   0.0800 
 38 H      -14.9750     2.1950    -2.3060 H     1 <1>   0.0800 
@<TRIPOS>BOND
  1   1   2  2   
  2   2   3  am  
  3   2   4  1   
  4   3   5  1   
  5   3  18  1   
  6   4   6  1   
  7   4  19  1   
  8   4  20  1   
  9   5   7  1   
 10   5  21  1   
 11   5  22  1   
 12   6   8  1   
 13   7  23  1   
 14   7  24  1   
 15   7  25  1   
 16   8   9  ar  
 17   8  10  ar  
 18   9  11  ar  
 19   9  26  1   
 20  10  12  ar  
 21  10  27  1   
 22  11  13  ar  
 23  11  14  1   
 24  12  13  ar  
 25  12  28  1   
 26  13  29  1   
 27  14  15  1   
 28  14  30  1   
 29  14  31  1   
 30  15  16  1   
 31  15  32  1   
 32  15  33  1   
 33  16  17  1   
 34  16  34  1   
 35  16  35  1   
 36  17  36  1   
 37  17  37  1   
 38  17  38  1   
@<TRIPOS>SUBSTRUCTURE
  1 ****   8 GROUP 4 **** **** 0

# MOE 2024.06 (io_trps.svl 2023.06)
