@<TRIPOS>MOLECULE
NONAME
38 39 1 0 0 
SMALL
USER_CHARGES


@<TRIPOS>ATOM
  1 S        1.1540    -1.3560    -1.0340 S.3   1 <1>  -0.0800 
  2 C        2.2160    -2.2110     0.0740 C.2   1 <1>  -0.1400 
  3 C        2.3760    -0.1350    -1.3410 C.2   1 <1>  -0.1100 
  4 C        3.3990    -1.5700     0.1740 C.2   1 <1>  -0.1500 
  5 C        1.6540    -3.4780     0.7110 C.3   1 <1>   0.0810 
  6 C        3.4900    -0.3920    -0.6320 C.2   1 <1>  -0.1500 
  7 C        2.7200    -4.3750     1.3150 C.2   1 <1>   0.5690 
  8 O        2.5460    -4.8480     2.4120 O.2   1 <1>  -0.5700 
  9 N        3.8410    -4.6200     0.5950 N.am  1 <1>  -0.7300 
 10 C        5.0790    -5.1810     1.1360 C.3   1 <1>   0.3640 
 11 C        6.1930    -4.1440     0.9500 C.ar  1 <1>  -0.1430 
 12 C        5.3560    -6.5390     0.4970 C.3   1 <1>  -0.2400 
 13 C        6.6970    -3.6990    -0.2770 C.ar  1 <1>  -0.1430 
 14 C        6.7120    -3.5980     2.1180 C.ar  1 <1>  -0.1500 
 15 C        7.7000    -2.7390    -0.2930 C.ar  1 <1>  -0.1500 
 16 C        6.2260    -4.2030    -1.6370 C.3   1 <1>  -0.0970 
 17 C        7.7090    -2.6410     2.0860 C.ar  1 <1>  -0.1500 
 18 C        8.2090    -2.2050     0.8760 C.ar  1 <1>  -0.1430 
 19 C        9.3060    -1.1570     0.8270 C.3   1 <1>  -0.0970 
 20 H        2.1260     0.6550    -2.0260 H     1 <1>   0.1500 
 21 H        4.2330    -1.8680     0.7890 H     1 <1>   0.1500 
 22 H        1.1300    -4.0470    -0.0330 H     1 <1>   0.0800 
 23 H        0.9500    -3.2030     1.4750 H     1 <1>   0.0800 
 24 H        4.3880     0.2010    -0.6370 H     1 <1>   0.1500 
 25 H        3.9950    -4.0690    -0.2490 H     1 <1>   0.3700 
 26 H        4.9440    -5.3530     2.1910 H     1 <1>   0.0800 
 27 H        5.3330    -6.4930    -0.5730 H     1 <1>   0.0800 
 28 H        4.6160    -7.2440     0.8280 H     1 <1>   0.0800 
 29 H        6.3230    -6.8900     0.8090 H     1 <1>   0.0800 
 30 H        6.3390    -3.9140     3.0770 H     1 <1>   0.1500 
 31 H        8.0980    -2.3990    -1.2330 H     1 <1>   0.1500 
 32 H        5.1680    -4.3720    -1.6600 H     1 <1>   0.0800 
 33 H        6.7350    -5.1190    -1.8790 H     1 <1>   0.0800 
 34 H        6.4500    -3.4850    -2.4060 H     1 <1>   0.0800 
 35 H        8.0900    -2.2410     3.0080 H     1 <1>   0.1500 
 36 H        9.1720    -0.5150    -0.0250 H     1 <1>   0.0800 
 37 H       10.2640    -1.6380     0.7540 H     1 <1>   0.0800 
 38 H        9.2890    -0.5500     1.7140 H     1 <1>   0.0800 
@<TRIPOS>BOND
  1   1   2  1   
  2   1   3  1   
  3   2   4  2   
  4   2   5  1   
  5   3   6  2   
  6   3  20  1   
  7   4   6  1   
  8   4  21  1   
  9   5   7  1   
 10   5  22  1   
 11   5  23  1   
 12   6  24  1   
 13   7   8  2   
 14   7   9  am  
 15   9  10  1   
 16   9  25  1   
 17  10  11  1   
 18  10  12  1   
 19  10  26  1   
 20  11  13  ar  
 21  11  14  ar  
 22  12  27  1   
 23  12  28  1   
 24  12  29  1   
 25  13  15  ar  
 26  13  16  1   
 27  14  17  ar  
 28  14  30  1   
 29  15  18  ar  
 30  15  31  1   
 31  16  32  1   
 32  16  33  1   
 33  16  34  1   
 34  17  18  ar  
 35  17  35  1   
 36  18  19  1   
 37  19  36  1   
 38  19  37  1   
 39  19  38  1   
@<TRIPOS>SUBSTRUCTURE
  1 ****  11 GROUP 4 **** **** 0

# MOE 2024.06 (io_trps.svl 2023.06)
