@<TRIPOS>MOLECULE
NONAME
24 24 1 0 0 
SMALL
USER_CHARGES


@<TRIPOS>ATOM
  1 S        0.2470    -0.0900    -0.4820 S.3   1 <1>  -0.3320 
  2 C       -1.3210    -0.9600    -0.3700 C.ar  1 <1>   0.4120 
  3 C        1.3230    -0.7210     0.8920 C.3   1 <1>   0.1310 
  4 N       -2.1660    -0.6540    -1.3380 N.ar  1 <1>  -0.6200 
  5 C       -1.5710    -1.8600     0.6570 C.ar  1 <1>  -0.1500 
  6 C        2.6860    -0.0590     0.8450 C.2   1 <1>   0.6590 
  7 C       -3.3300    -1.2810    -1.2830 C.ar  1 <1>   0.1600 
  8 C       -2.7910    -2.5030     0.6960 C.ar  1 <1>  -0.1500 
  9 O        3.0490     0.6940     1.7120 O.2   1 <1>  -0.5700 
 10 O        3.4620    -0.3830    -0.1820 O.3   1 <1>  -0.4300 
 11 C       -3.6870    -2.1970    -0.3080 C.ar  1 <1>  -0.1500 
 12 C        4.7430     0.1790    -0.3430 C.3   1 <1>   0.1200 
 13 C        5.3540    -0.3950    -1.6160 C.3   1 <1>  -0.2400 
 14 H        1.4210    -1.7820     0.7660 H     1 <1>   0.0800 
 15 H        0.8320    -0.4880     1.8180 H     1 <1>   0.0800 
 16 H       -0.8470    -2.0660     1.4170 H     1 <1>   0.1500 
 17 H       -4.0390    -1.0510    -2.0600 H     1 <1>   0.1500 
 18 H       -3.0350    -3.2100     1.4700 H     1 <1>   0.1500 
 19 H       -4.6550    -2.6630    -0.3360 H     1 <1>   0.1500 
 20 H        5.3370    -0.0700     0.5200 H     1 <1>   0.0800 
 21 H        4.6370     1.2490    -0.4130 H     1 <1>   0.0800 
 22 H        5.4440    -1.4630    -1.5360 H     1 <1>   0.0800 
 23 H        6.3330     0.0220    -1.7690 H     1 <1>   0.0800 
 24 H        4.7410    -0.1480    -2.4640 H     1 <1>   0.0800 
@<TRIPOS>BOND
  1   1   2  1   
  2   1   3  1   
  3   2   4  ar  
  4   2   5  ar  
  5   3   6  1   
  6   3  14  1   
  7   3  15  1   
  8   4   7  ar  
  9   5   8  ar  
 10   5  16  1   
 11   6   9  2   
 12   6  10  1   
 13   7  11  ar  
 14   7  17  1   
 15   8  11  ar  
 16   8  18  1   
 17  10  12  1   
 18  11  19  1   
 19  12  13  1   
 20  12  20  1   
 21  12  21  1   
 22  13  22  1   
 23  13  23  1   
 24  13  24  1   
@<TRIPOS>SUBSTRUCTURE
  1 ****   1 GROUP 4 **** **** 0

# MOE 2024.06 (io_trps.svl 2023.06)
