@<TRIPOS>MOLECULE
NONAME
44 45 1 0 0 
SMALL
USER_CHARGES


@<TRIPOS>ATOM
  1 S        0.0840     0.3460    -0.7210 S.o2  1 <1>   1.4470 
  2 O       -0.1760     0.3340    -2.1450 O.2   1 <1>  -0.6500 
  3 O       -0.1960    -0.8400     0.0590 O.2   1 <1>  -0.6500 
  4 N       -0.8610     1.5960    -0.0740 N.am  1 <1>  -0.8490 
  5 C        1.7820     0.8990    -0.3960 C.ar  1 <1>  -0.0090 
  6 C       -0.8220     2.8140    -0.8820 C.3   1 <1>   0.1960 
  7 C       -2.2370     1.1500     0.1850 C.3   1 <1>   0.1960 
  8 C        2.1500     1.3800     0.8560 C.ar  1 <1>  -0.1500 
  9 C        2.7580     0.8530    -1.3860 C.ar  1 <1>  -0.1500 
 10 C       -1.3890     3.9930    -0.0770 C.3   1 <1>  -0.1600 
 11 C       -3.1900     2.3190     0.4960 C.3   1 <1>  -0.1600 
 12 C        3.4410     1.8090     1.1080 C.ar  1 <1>  -0.1500 
 13 C        4.0530     1.2780    -1.1430 C.ar  1 <1>  -0.1500 
 14 C       -2.4300     3.5670     0.9800 C.3   1 <1>  -0.0190 
 15 C        4.4020     1.7630     0.1130 C.ar  1 <1>   0.0830 
 16 C       -3.3530     4.7160     1.3780 C.2   1 <1>   0.5690 
 17 O        5.6410     2.2020     0.4380 O.3   1 <1>  -0.3630 
 18 O       -3.2360     5.2020     2.4770 O.2   1 <1>  -0.5700 
 19 N       -4.2790     5.1660     0.4870 N.am  1 <1>  -0.7300 
 20 C        6.7000     2.1760    -0.4900 C.3   1 <1>   0.1200 
 21 C       -5.2370     6.2720     0.7370 C.3   1 <1>   0.0600 
 22 C        7.9470     2.7230     0.1980 C.3   1 <1>  -0.2400 
 23 H       -1.4000     2.6640    -1.7800 H     1 <1>   0.0800 
 24 H        0.1900     3.0420    -1.1730 H     1 <1>   0.0800 
 25 H       -2.2190     0.4770     1.0270 H     1 <1>   0.0800 
 26 H       -2.6130     0.6020    -0.6640 H     1 <1>   0.0800 
 27 H        1.4130     1.4210     1.6410 H     1 <1>   0.1500 
 28 H        2.4990     0.4780    -2.3620 H     1 <1>   0.1500 
 29 H       -1.8180     4.6950    -0.7700 H     1 <1>   0.0800 
 30 H       -0.5810     4.4990     0.4230 H     1 <1>   0.0800 
 31 H       -3.8990     2.0060     1.2420 H     1 <1>   0.0800 
 32 H       -3.7450     2.5530    -0.3950 H     1 <1>   0.0800 
 33 H        3.7120     2.1810     2.0800 H     1 <1>   0.1500 
 34 H        4.7720     1.2250    -1.9400 H     1 <1>   0.1500 
 35 H       -1.8910     3.2790     1.8670 H     1 <1>   0.0800 
 36 H       -4.3400     4.7210    -0.4290 H     1 <1>   0.3700 
 37 H        6.4310     2.7890    -1.3330 H     1 <1>   0.0800 
 38 H        6.8540     1.1570    -0.8020 H     1 <1>   0.0800 
 39 H       -5.0960     6.6750     1.7270 H     1 <1>   0.0800 
 40 H       -6.2460     5.9070     0.6540 H     1 <1>   0.0800 
 41 H       -5.0820     7.0590     0.0190 H     1 <1>   0.0800 
 42 H        7.7770     3.7350     0.5210 H     1 <1>   0.0800 
 43 H        8.7750     2.7160    -0.4870 H     1 <1>   0.0800 
 44 H        8.1980     2.1130     1.0480 H     1 <1>   0.0800 
@<TRIPOS>BOND
  1   1   2  2   
  2   1   3  2   
  3   1   4  am  
  4   1   5  1   
  5   4   6  1   
  6   4   7  1   
  7   5   8  ar  
  8   5   9  ar  
  9   6  10  1   
 10   6  23  1   
 11   6  24  1   
 12   7  11  1   
 13   7  25  1   
 14   7  26  1   
 15   8  12  ar  
 16   8  27  1   
 17   9  13  ar  
 18   9  28  1   
 19  10  14  1   
 20  10  29  1   
 21  10  30  1   
 22  11  14  1   
 23  11  31  1   
 24  11  32  1   
 25  12  15  ar  
 26  12  33  1   
 27  13  15  ar  
 28  13  34  1   
 29  14  16  1   
 30  14  35  1   
 31  15  17  1   
 32  16  18  2   
 33  16  19  am  
 34  17  20  1   
 35  19  21  1   
 36  19  36  1   
 37  20  22  1   
 38  20  37  1   
 39  20  38  1   
 40  21  39  1   
 41  21  40  1   
 42  21  41  1   
 43  22  42  1   
 44  22  43  1   
 45  22  44  1   
@<TRIPOS>SUBSTRUCTURE
  1 ****   4 GROUP 4 **** **** 0

# MOE 2024.06 (io_trps.svl 2023.06)
