@<TRIPOS>MOLECULE
NONAME
34 34 1 0 0 
SMALL
USER_CHARGES


@<TRIPOS>ATOM
  1 CL      -0.9280    -2.4170     2.4290 Cl    1 <1>  -0.1770 
  2 C       -1.9400    -1.8140     1.1370 C.ar  1 <1>   0.1770 
  3 C       -1.6270    -2.0440    -0.2090 C.ar  1 <1>   0.0860 
  4 C       -3.0550    -1.0920     1.5210 C.ar  1 <1>  -0.1500 
  5 C       -0.4750    -2.8040    -0.6570 C.2   1 <1>   0.5440 
  6 C       -2.4930    -1.4930    -1.1590 C.ar  1 <1>  -0.1500 
  7 C       -3.8850    -0.5750     0.5490 C.ar  1 <1>   0.1770 
  8 O        0.1070    -2.4790    -1.6720 O.2   1 <1>  -0.5700 
  9 N       -0.0360    -3.9090     0.0080 N.am  1 <1>  -0.7300 
 10 C       -3.6130    -0.7670    -0.7920 C.ar  1 <1>  -0.1500 
 11 CL      -5.2940     0.3350     1.0180 Cl    1 <1>  -0.1770 
 12 C        1.1110    -4.7820    -0.4040 C.3   1 <1>   0.2810 
 13 C        0.6850    -6.2580    -0.4910 C.2   1 <1>   0.6590 
 14 C        2.2970    -4.5780     0.5760 C.3   1 <1>  -0.0800 
 15 O        0.9180    -6.9400    -1.4580 O.2   1 <1>  -0.5700 
 16 O        0.0470    -6.7490     0.5720 O.3   1 <1>  -0.4300 
 17 C        2.7330    -3.1050     0.6690 C.3   1 <1>  -0.2400 
 18 C        3.5180    -5.4220     0.1710 C.3   1 <1>  -0.2400 
 19 C       -0.3900    -8.0920     0.6170 C.3   1 <1>   0.0400 
 20 H       -3.2740    -0.9320     2.5610 H     1 <1>   0.1500 
 21 H       -2.2780    -1.6400    -2.2060 H     1 <1>   0.1500 
 22 H       -0.4700    -4.1750     0.8960 H     1 <1>   0.3700 
 23 H       -4.2710    -0.3510    -1.5360 H     1 <1>   0.1500 
 24 H        1.4350    -4.4920    -1.3880 H     1 <1>   0.0800 
 25 H        1.9850    -4.9020     1.5550 H     1 <1>   0.0800 
 26 H        2.9900    -2.7260    -0.3060 H     1 <1>   0.0800 
 27 H        3.5880    -3.0030     1.3140 H     1 <1>   0.0800 
 28 H        1.9450    -2.4950     1.0720 H     1 <1>   0.0800 
 29 H        3.8480    -5.1590    -0.8200 H     1 <1>   0.0800 
 30 H        3.2880    -6.4730     0.1860 H     1 <1>   0.0800 
 31 H        4.3320    -5.2560     0.8550 H     1 <1>   0.0800 
 32 H        0.4640    -8.7400     0.5160 H     1 <1>   0.0800 
 33 H       -1.0800    -8.2600    -0.1920 H     1 <1>   0.0800 
 34 H       -0.8760    -8.2620     1.5610 H     1 <1>   0.0800 
@<TRIPOS>BOND
  1   1   2  1   
  2   2   3  ar  
  3   2   4  ar  
  4   3   5  1   
  5   3   6  ar  
  6   4   7  ar  
  7   4  20  1   
  8   5   8  2   
  9   5   9  am  
 10   6  10  ar  
 11   6  21  1   
 12   7  10  ar  
 13   7  11  1   
 14   9  12  1   
 15   9  22  1   
 16  10  23  1   
 17  12  13  1   
 18  12  14  1   
 19  12  24  1   
 20  13  15  2   
 21  13  16  1   
 22  14  17  1   
 23  14  18  1   
 24  14  25  1   
 25  16  19  1   
 26  17  26  1   
 27  17  27  1   
 28  17  28  1   
 29  18  29  1   
 30  18  30  1   
 31  18  31  1   
 32  19  32  1   
 33  19  33  1   
 34  19  34  1   
@<TRIPOS>SUBSTRUCTURE
  1 ****   9 GROUP 4 **** **** 0

# MOE 2024.06 (io_trps.svl 2023.06)
