@<TRIPOS>MOLECULE
NONAME
43 45 1 0 0 
SMALL
USER_CHARGES


@<TRIPOS>ATOM
  1 S       -0.8870     0.6010     1.3310 S.3   1 <1>  -0.0800 
  2 C       -1.7430     1.0630    -0.1470 C.2   1 <1>  -0.0450 
  3 C        0.5620     1.4330     0.8210 C.2   1 <1>  -0.1400 
  4 C       -3.1120     0.6480    -0.3110 C.2   1 <1>   0.7150 
  5 C       -0.9070     1.7990    -0.9280 C.2   1 <1>  -0.1500 
  6 C        0.3880     2.0120    -0.3750 C.2   1 <1>  -0.1810 
  7 C        1.8020     1.4430     1.6870 C.3   1 <1>   0.0200 
  8 O       -3.5820    -0.2950     0.2990 O.2   1 <1>  -0.5700 
  9 N       -3.9730     1.3640    -1.1150 N.am  1 <1>  -0.6600 
 10 C        1.4960     2.8020    -1.0500 C.3   1 <1>   0.0210 
 11 C        2.9920     1.9590     0.8550 C.3   1 <1>  -0.1600 
 12 C       -5.2220     0.7070    -1.5990 C.3   1 <1>   0.1400 
 13 C       -4.1430     2.8220    -0.8650 C.3   1 <1>   0.1400 
 14 C        2.6050     3.1570    -0.0380 C.3   1 <1>  -0.1600 
 15 C       -6.3410     0.8970    -0.5580 C.3   1 <1>   0.3430 
 16 C       -5.2720     3.0460     0.1650 C.3   1 <1>   0.3430 
 17 N       -6.5570     2.3520    -0.2210 N.4   1 <1>  -0.9590 
 18 C       -7.5920     2.4950     0.8250 C.3   1 <1>   0.4810 
 19 C       -8.0710     3.9270     0.7840 C.2   1 <1>  -0.2880 
 20 C       -9.2260     4.3380     0.2510 C.2   1 <1>  -0.3000 
 21 H       -1.1640     2.2000    -1.8920 H     1 <1>   0.1500 
 22 H        2.0090     0.4510     2.0490 H     1 <1>   0.0800 
 23 H        1.6310     2.0890     2.5300 H     1 <1>   0.0800 
 24 H        1.0970     3.7050    -1.4770 H     1 <1>   0.0800 
 25 H        1.9080     2.2050    -1.8450 H     1 <1>   0.0800 
 26 H        3.3440     1.1600     0.2250 H     1 <1>   0.0800 
 27 H        3.7960     2.2350     1.5150 H     1 <1>   0.0800 
 28 H       -5.0470    -0.3450    -1.7490 H     1 <1>   0.0800 
 29 H       -5.5130     1.1290    -2.5460 H     1 <1>   0.0800 
 30 H       -4.3770     3.3230    -1.7890 H     1 <1>   0.0800 
 31 H       -3.2290     3.2480    -0.4850 H     1 <1>   0.0800 
 32 H        2.2550     3.9580     0.5920 H     1 <1>   0.0800 
 33 H        3.4710     3.5110    -0.5690 H     1 <1>   0.0800 
 34 H       -6.0610     0.3550     0.3310 H     1 <1>   0.0800 
 35 H       -7.2530     0.4650    -0.9360 H     1 <1>   0.0800 
 36 H       -5.4430     4.1040     0.2720 H     1 <1>   0.0800 
 37 H       -4.9340     2.6700     1.1170 H     1 <1>   0.0800 
 38 H       -6.9350     2.8270    -1.0510 H     1 <1>   0.4500 
 39 H       -7.2030     2.2430     1.7990 H     1 <1>   0.0800 
 40 H       -8.4230     1.8420     0.6060 H     1 <1>   0.0800 
 41 H       -7.3840     4.6160     1.2460 H     1 <1>   0.1500 
 42 H       -9.5490     5.3680     0.2410 H     1 <1>   0.1500 
 43 H       -9.9590     3.6990    -0.2160 H     1 <1>   0.1500 
@<TRIPOS>BOND
  1   1   2  1   
  2   1   3  1   
  3   2   4  1   
  4   2   5  2   
  5   3   6  2   
  6   3   7  1   
  7   4   8  2   
  8   4   9  am  
  9   5   6  1   
 10   5  21  1   
 11   6  10  1   
 12   7  11  1   
 13   7  22  1   
 14   7  23  1   
 15   9  12  1   
 16   9  13  1   
 17  10  14  1   
 18  10  24  1   
 19  10  25  1   
 20  11  14  1   
 21  11  26  1   
 22  11  27  1   
 23  12  15  1   
 24  12  28  1   
 25  12  29  1   
 26  13  16  1   
 27  13  30  1   
 28  13  31  1   
 29  14  32  1   
 30  14  33  1   
 31  15  17  1   
 32  15  34  1   
 33  15  35  1   
 34  16  17  1   
 35  16  36  1   
 36  16  37  1   
 37  17  18  1   
 38  17  38  1   
 39  18  19  1   
 40  18  39  1   
 41  18  40  1   
 42  19  20  2   
 43  19  41  1   
 44  20  42  1   
 45  20  43  1   
@<TRIPOS>SUBSTRUCTURE
  1 ****   4 GROUP 4 **** **** 0

# MOE 2024.06 (io_trps.svl 2023.06)
