@<TRIPOS>MOLECULE
NONAME
36 39 1 0 0 
SMALL
USER_CHARGES


@<TRIPOS>ATOM
  1 CL      -0.4700     0.2220     0.2080 Cl    1 <1>  -0.1770 
  2 C       -1.8780     1.2560     0.2920 C.ar  1 <1>   0.1770 
  3 C       -1.8000     2.6210     0.0270 C.ar  1 <1>  -0.1790 
  4 C       -3.0790     0.6470     0.6080 C.ar  1 <1>  -0.1500 
  5 C       -0.5600     3.2850    -0.3050 C.2   1 <1>   0.9790 
  6 C       -2.9890     3.3490     0.0800 C.ar  1 <1>  -0.1500 
  7 C       -4.2420     1.3940     0.6530 C.ar  1 <1>  -0.1500 
  8 O       -0.5170     4.0280    -1.3010 O.co2 1 <1>  -0.9000 
  9 O        0.4440     3.1780     0.4160 O.co2 1 <1>  -0.9000 
 10 C       -4.2090     2.7580     0.3840 C.ar  1 <1>   0.1170 
 11 N       -5.3960     3.5190     0.4020 N.am  1 <1>  -0.2370 
 12 C       -5.5890     4.7160     1.0720 C.2   1 <1>   0.5690 
 13 C       -6.5290     3.2350    -0.3420 C.2   1 <1>   0.5690 
 14 O       -4.7880     5.3880     1.6660 O.2   1 <1>  -0.5700 
 15 C       -7.0510     5.0540     0.9740 C.3   1 <1>  -0.0190 
 16 O       -6.8410     2.1950    -0.8640 O.2   1 <1>  -0.5700 
 17 C       -7.3400     4.4990    -0.4210 C.3   1 <1>  -0.0190 
 18 C       -7.8780     6.3490     1.1770 C.3   1 <1>   0.0580 
 19 C       -8.8130     4.8180    -0.7990 C.3   1 <1>   0.0580 
 20 C       -9.2670     5.7460     1.4100 C.2   1 <1>  -0.2880 
 21 C       -8.0140     7.1560    -0.1470 C.3   1 <1>  -0.1600 
 22 C       -9.7060     4.9270     0.4420 C.2   1 <1>  -0.2880 
 23 C       -8.7420     6.3060    -1.2480 C.3   1 <1>  -0.1600 
 24 H       -3.0970    -0.4080     0.8070 H     1 <1>   0.1500 
 25 H       -2.9390     4.4040    -0.1300 H     1 <1>   0.1500 
 26 H       -5.1760     0.9160     0.8880 H     1 <1>   0.1500 
 27 H       -7.4500     4.3640     1.7030 H     1 <1>   0.0800 
 28 H       -6.7480     5.0490    -1.1350 H     1 <1>   0.0800 
 29 H       -7.5310     6.9320     2.0130 H     1 <1>   0.0800 
 30 H       -9.2090     4.1740    -1.5660 H     1 <1>   0.0800 
 31 H       -9.7670     5.9970     2.3310 H     1 <1>   0.1500 
 32 H       -7.0350     7.4490    -0.4860 H     1 <1>   0.0800 
 33 H       -8.5770     8.0540     0.0390 H     1 <1>   0.0800 
 34 H      -10.6310     4.3750     0.4290 H     1 <1>   0.1500 
 35 H       -9.7430     6.6790    -1.3870 H     1 <1>   0.0800 
 36 H       -8.2330     6.4020    -2.1920 H     1 <1>   0.0800 
@<TRIPOS>BOND
  1   1   2  1   
  2   2   3  ar  
  3   2   4  ar  
  4   3   5  1   
  5   3   6  ar  
  6   4   7  ar  
  7   4  24  1   
  8   5   8  ar  
  9   5   9  ar  
 10   6  10  ar  
 11   6  25  1   
 12   7  10  ar  
 13   7  26  1   
 14  10  11  1   
 15  11  12  am  
 16  11  13  am  
 17  12  14  2   
 18  12  15  1   
 19  13  16  2   
 20  13  17  1   
 21  15  17  1   
 22  15  18  1   
 23  15  27  1   
 24  17  19  1   
 25  17  28  1   
 26  18  20  1   
 27  18  21  1   
 28  18  29  1   
 29  19  22  1   
 30  19  23  1   
 31  19  30  1   
 32  20  22  2   
 33  20  31  1   
 34  21  23  1   
 35  21  32  1   
 36  21  33  1   
 37  22  34  1   
 38  23  35  1   
 39  23  36  1   
@<TRIPOS>SUBSTRUCTURE
  1 ****  11 GROUP 4 **** **** 0

# MOE 2024.06 (io_trps.svl 2023.06)
