@<TRIPOS>MOLECULE
NONAME
56 58 1 0 0 
SMALL
USER_CHARGES


@<TRIPOS>ATOM
  1 O       -1.8440    -1.1390    -1.6630 O.2   1 <1>  -0.5700 
  2 C       -2.5290    -1.5030    -0.7260 C.2   1 <1>   0.7060 
  3 O       -3.7560    -0.9940    -0.6480 O.3   1 <1>  -0.2320 
  4 C       -2.0970    -2.4270     0.2870 C.2   1 <1>  -0.1240 
  5 C       -4.6280    -1.2880     0.3390 C.ar  1 <1>   0.0830 
  6 C       -2.9380    -2.7740     1.3010 C.2   1 <1>  -0.1670 
  7 C       -0.6690    -2.9660     0.1310 C.3   1 <1>   0.1220 
  8 C       -4.2550    -2.1890     1.3480 C.ar  1 <1>   0.0280 
  9 C       -5.8820    -0.6820     0.3140 C.ar  1 <1>  -0.1440 
 10 C       -2.5740    -3.7700     2.4040 C.3   1 <1>  -0.1020 
 11 C       -0.6530    -4.3420    -0.5250 C.ar  1 <1>  -0.1440 
 12 C       -5.2020    -2.4560     2.3420 C.ar  1 <1>  -0.1500 
 13 C       -6.8020    -0.9860     1.3080 C.ar  1 <1>   0.0830 
 14 C       -6.2220     0.2970    -0.8120 C.3   1 <1>  -0.0960 
 15 C       -1.1130    -4.5010    -1.8240 C.ar  1 <1>  -0.1500 
 16 C       -0.1710    -5.4500     0.1580 C.ar  1 <1>  -0.1500 
 17 C       -6.4490    -1.8690     2.3260 C.ar  1 <1>  -0.1500 
 18 O       -8.0280    -0.4160     1.2540 O.3   1 <1>  -0.3630 
 19 C       -1.1050    -5.7470    -2.4260 C.ar  1 <1>  -0.1500 
 20 C       -0.1620    -6.6970    -0.4420 C.ar  1 <1>  -0.1500 
 21 C       -9.1550    -1.0160     1.8760 C.3   1 <1>   0.1810 
 22 C       -0.6300    -6.8470    -1.7350 C.ar  1 <1>  -0.1500 
 23 C      -10.4600    -0.4450     1.3270 C.2   1 <1>   0.5690 
 24 O      -11.1480     0.1850     2.1000 O.2   1 <1>  -0.5700 
 25 N      -10.8560    -0.6690     0.0260 N.am  1 <1>  -0.6600 
 26 C      -12.1340    -0.1020    -0.4810 C.3   1 <1>   0.1400 
 27 C      -10.0650    -1.4400    -0.9710 C.3   1 <1>   0.1400 
 28 C      -11.8690     1.2550    -1.1290 C.3   1 <1>  -0.2400 
 29 C      -10.5120    -2.9000    -0.9600 C.3   1 <1>  -0.2400 
 30 H       -0.1910    -3.0090     1.0920 H     1 <1>   0.0800 
 31 H       -0.0650    -2.2990    -0.4580 H     1 <1>   0.0800 
 32 H       -2.6010    -3.2830     3.3620 H     1 <1>   0.0800 
 33 H       -1.6000    -4.1980     2.2820 H     1 <1>   0.0800 
 34 H       -3.2780    -4.5840     2.4040 H     1 <1>   0.0800 
 35 H       -4.9710    -3.1290     3.1460 H     1 <1>   0.1500 
 36 H       -5.4110     0.9880    -0.9600 H     1 <1>   0.0800 
 37 H       -7.1020     0.8740    -0.5960 H     1 <1>   0.0800 
 38 H       -6.3820    -0.2440    -1.7260 H     1 <1>   0.0800 
 39 H       -1.4800    -3.6540    -2.3790 H     1 <1>   0.1500 
 40 H        0.2030    -5.3530     1.1620 H     1 <1>   0.1500 
 41 H       -7.1380    -2.0990     3.1170 H     1 <1>   0.1500 
 42 H       -1.4660    -5.8580    -3.4340 H     1 <1>   0.1500 
 43 H        0.2110    -7.5510     0.0950 H     1 <1>   0.1500 
 44 H       -9.0950    -0.8230     2.9310 H     1 <1>   0.0800 
 45 H       -9.1250    -2.0740     1.6960 H     1 <1>   0.0800 
 46 H       -0.6230    -7.8160    -2.2030 H     1 <1>   0.1500 
 47 H      -12.8300     0.0180     0.3330 H     1 <1>   0.0800 
 48 H      -12.5770    -0.7750    -1.1950 H     1 <1>   0.0800 
 49 H       -9.0140    -1.3790    -0.7540 H     1 <1>   0.0800 
 50 H      -10.2130    -1.0210    -1.9520 H     1 <1>   0.0800 
 51 H      -11.4410     1.9260    -0.4050 H     1 <1>   0.0800 
 52 H      -12.7950     1.6760    -1.4770 H     1 <1>   0.0800 
 53 H      -11.2010     1.1550    -1.9640 H     1 <1>   0.0800 
 54 H      -10.3600    -3.3330     0.0120 H     1 <1>   0.0800 
 55 H       -9.9350    -3.4580    -1.6740 H     1 <1>   0.0800 
 56 H      -11.5500    -2.9780    -1.2260 H     1 <1>   0.0800 
@<TRIPOS>BOND
  1   1   2  2   
  2   2   3  1   
  3   2   4  1   
  4   3   5  1   
  5   4   6  2   
  6   4   7  1   
  7   5   8  ar  
  8   5   9  ar  
  9   6   8  1   
 10   6  10  1   
 11   7  11  1   
 12   7  30  1   
 13   7  31  1   
 14   8  12  ar  
 15   9  13  ar  
 16   9  14  1   
 17  10  32  1   
 18  10  33  1   
 19  10  34  1   
 20  11  15  ar  
 21  11  16  ar  
 22  12  17  ar  
 23  12  35  1   
 24  13  17  ar  
 25  13  18  1   
 26  14  36  1   
 27  14  37  1   
 28  14  38  1   
 29  15  19  ar  
 30  15  39  1   
 31  16  20  ar  
 32  16  40  1   
 33  17  41  1   
 34  18  21  1   
 35  19  22  ar  
 36  19  42  1   
 37  20  22  ar  
 38  20  43  1   
 39  21  23  1   
 40  21  44  1   
 41  21  45  1   
 42  22  46  1   
 43  23  24  2   
 44  23  25  am  
 45  25  26  1   
 46  25  27  1   
 47  26  28  1   
 48  26  47  1   
 49  26  48  1   
 50  27  29  1   
 51  27  49  1   
 52  27  50  1   
 53  28  51  1   
 54  28  52  1   
 55  28  53  1   
 56  29  54  1   
 57  29  55  1   
 58  29  56  1   
@<TRIPOS>SUBSTRUCTURE
  1 ****   5 GROUP 4 **** **** 0

# MOE 2024.06 (io_trps.svl 2023.06)
