@<TRIPOS>MOLECULE
NONAME
44 46 1 0 0 
SMALL
USER_CHARGES


@<TRIPOS>ATOM
  1 S       -0.4370    -0.2050    -0.1110 S.3   1 <1>  -0.0800 
  2 C        1.2280    -0.1390    -0.6620 C.2   1 <1>   0.1040 
  3 C       -0.5770     1.5450    -0.1290 C.2   1 <1>  -0.1400 
  4 N        1.9410    -1.3090    -0.8880 N.am  1 <1>  -0.4940 
  5 C        1.6220     1.1580    -0.8290 C.2   1 <1>  -0.0860 
  6 C        0.5750     2.1080    -0.5310 C.2   1 <1>  -0.1810 
  7 C       -1.9100     2.1330     0.2840 C.3   1 <1>   0.0200 
  8 C        1.7390    -2.5910    -0.4560 C.2   1 <1>   0.5690 
  9 C        2.9530     1.5240    -1.2210 C.2   1 <1>   0.7160 
 10 C        0.7700     3.6130    -0.6710 C.3   1 <1>   0.0210 
 11 C       -1.7510     3.1950     1.3780 C.3   1 <1>  -0.1600 
 12 O        0.9170    -2.9150     0.3600 O.2   1 <1>  -0.5700 
 13 C        2.6440    -3.6550    -1.0250 C.3   1 <1>  -0.1790 
 14 O        3.1510     2.0360    -2.3090 O.2   1 <1>  -0.5700 
 15 N        4.0290     1.2880    -0.3880 N.am  1 <1>  -0.6600 
 16 C        0.4290     4.3710     0.6190 C.3   1 <1>  -0.1600 
 17 C       -1.0780     4.4950     0.9060 C.3   1 <1>  -0.1600 
 18 C        5.4270     1.6650    -0.7580 C.3   1 <1>   0.1400 
 19 C        3.8870     0.8900     1.0480 C.3   1 <1>   0.1400 
 20 C        6.0030     2.6600     0.2620 C.3   1 <1>   0.1200 
 21 C        4.5580     1.9270     1.9630 C.3   1 <1>   0.1200 
 22 O        5.8800     2.1580     1.5640 O.3   1 <1>  -0.5600 
 23 H        2.7730    -1.1900    -1.4650 H     1 <1>   0.3700 
 24 H       -2.5380     1.3440     0.6600 H     1 <1>   0.0800 
 25 H       -2.3970     2.5540    -0.5780 H     1 <1>   0.0800 
 26 H        0.1620     3.9730    -1.4830 H     1 <1>   0.0800 
 27 H        1.7910     3.8340    -0.9230 H     1 <1>   0.0800 
 28 H       -1.1980     2.7770     2.2020 H     1 <1>   0.0800 
 29 H       -2.7320     3.4410     1.7440 H     1 <1>   0.0800 
 30 H        3.6590    -3.4690    -0.7290 H     1 <1>   0.0800 
 31 H        2.5730    -3.6590    -2.0970 H     1 <1>   0.0800 
 32 H        2.3450    -4.6190    -0.6550 H     1 <1>   0.0800 
 33 H        0.8270     5.3660     0.5260 H     1 <1>   0.0800 
 34 H        0.9250     3.9050     1.4530 H     1 <1>   0.0800 
 35 H       -1.2010     5.2260     1.6870 H     1 <1>   0.0800 
 36 H       -1.5860     4.8750     0.0370 H     1 <1>   0.0800 
 37 H        5.4630     2.1040    -1.7390 H     1 <1>   0.0800 
 38 H        6.0400     0.7810    -0.7710 H     1 <1>   0.0800 
 39 H        4.3550    -0.0670     1.1980 H     1 <1>   0.0800 
 40 H        2.8540     0.7980     1.3300 H     1 <1>   0.0800 
 41 H        5.4870     3.6030     0.2040 H     1 <1>   0.0800 
 42 H        7.0480     2.8250     0.0710 H     1 <1>   0.0800 
 43 H        4.5800     1.5690     2.9770 H     1 <1>   0.0800 
 44 H        4.0210     2.8600     1.9370 H     1 <1>   0.0800 
@<TRIPOS>BOND
  1   1   2  1   
  2   1   3  1   
  3   2   4  1   
  4   2   5  2   
  5   3   6  2   
  6   3   7  1   
  7   4   8  am  
  8   4  23  1   
  9   5   6  1   
 10   5   9  1   
 11   6  10  1   
 12   7  11  1   
 13   7  24  1   
 14   7  25  1   
 15   8  12  2   
 16   8  13  1   
 17   9  14  2   
 18   9  15  am  
 19  10  16  1   
 20  10  26  1   
 21  10  27  1   
 22  11  17  1   
 23  11  28  1   
 24  11  29  1   
 25  13  30  1   
 26  13  31  1   
 27  13  32  1   
 28  15  18  1   
 29  15  19  1   
 30  16  17  1   
 31  16  33  1   
 32  16  34  1   
 33  17  35  1   
 34  17  36  1   
 35  18  20  1   
 36  18  37  1   
 37  18  38  1   
 38  19  21  1   
 39  19  39  1   
 40  19  40  1   
 41  20  22  1   
 42  20  41  1   
 43  20  42  1   
 44  21  22  1   
 45  21  43  1   
 46  21  44  1   
@<TRIPOS>SUBSTRUCTURE
  1 ****   5 GROUP 4 **** **** 0

# MOE 2024.06 (io_trps.svl 2023.06)
