@<TRIPOS>MOLECULE
NONAME
50 52 1 0 0 
SMALL
USER_CHARGES


@<TRIPOS>ATOM
  1 O        1.5360    -0.1560    -0.1860 O.3   1 <1>  -0.3630 
  2 C        1.5610     1.1980    -0.2280 C.ar  1 <1>   0.0830 
  3 C        0.9920    -0.9140    -1.2440 C.3   1 <1>   0.0400 
  4 C        1.0280     1.9540    -1.2670 C.ar  1 <1>  -0.1500 
  5 C        2.1590     1.8470     0.8380 C.ar  1 <1>  -0.1500 
  6 C        1.0980     3.3340    -1.2220 C.ar  1 <1>  -0.1500 
  7 C        2.2260     3.2270     0.8740 C.ar  1 <1>  -0.1500 
  8 C        1.6930     4.0090    -0.1540 C.ar  1 <1>   0.0860 
  9 C        1.7570     5.4530    -0.1150 C.2   1 <1>   0.3030 
 10 N        0.8020     6.2930    -0.3070 N.2   1 <1>  -0.5030 
 11 C        3.1260     6.0430     0.1740 C.3   1 <1>  -0.1790 
 12 N       -0.4730     5.8760    -0.5310 N.pl3 1 <1>  -0.4870 
 13 C       -1.2100     5.2280     0.5910 C.3   1 <1>   0.1100 
 14 C       -1.3050     6.7960    -1.3450 C.3   1 <1>   0.1100 
 15 C       -1.8560     6.3010     1.4830 C.3   1 <1>   0.3430 
 16 C       -1.9430     7.8630    -0.4450 C.3   1 <1>   0.3430 
 17 N       -2.7180     7.2510     0.6960 N.4   1 <1>  -0.9590 
 18 C       -3.3170     8.2970     1.5640 C.3   1 <1>   0.4860 
 19 C       -4.3330     9.0720     0.7490 C.ar  1 <1>  -0.1430 
 20 C       -4.0360    10.3500     0.2960 C.ar  1 <1>  -0.1500 
 21 C       -5.5630     8.5070     0.4430 C.ar  1 <1>  -0.1500 
 22 C       -4.9550    11.0500    -0.4660 C.ar  1 <1>  -0.1500 
 23 C       -6.4810     9.2090    -0.3190 C.ar  1 <1>  -0.1500 
 24 C       -6.1760    10.4790    -0.7750 C.ar  1 <1>  -0.1500 
 25 H        1.0970    -1.9550    -0.9960 H     1 <1>   0.0800 
 26 H        1.5370    -0.6970    -2.1450 H     1 <1>   0.0800 
 27 H       -0.0490    -0.6680    -1.3520 H     1 <1>   0.0800 
 28 H        0.5600     1.4860    -2.1120 H     1 <1>   0.1500 
 29 H        2.5730     1.2580     1.6370 H     1 <1>   0.1500 
 30 H        0.6870     3.9140    -2.0310 H     1 <1>   0.1500 
 31 H        2.6970     3.7030     1.7150 H     1 <1>   0.1500 
 32 H        3.8840     5.4930    -0.3550 H     1 <1>   0.0800 
 33 H        3.3310     6.0040     1.2280 H     1 <1>   0.0800 
 34 H        3.1670     7.0680    -0.1450 H     1 <1>   0.0800 
 35 H       -1.9590     4.5670     0.1920 H     1 <1>   0.0800 
 36 H       -0.5320     4.6390     1.1830 H     1 <1>   0.0800 
 37 H       -0.6820     7.2740    -2.0810 H     1 <1>   0.0800 
 38 H       -2.0620     6.2350    -1.8630 H     1 <1>   0.0800 
 39 H       -1.0630     6.8500     1.9650 H     1 <1>   0.0800 
 40 H       -2.4410     5.8180     2.2480 H     1 <1>   0.0800 
 41 H       -2.5920     8.4840    -1.0410 H     1 <1>   0.0800 
 42 H       -1.1530     8.4840    -0.0550 H     1 <1>   0.0800 
 43 H       -3.4940     6.7270     0.2770 H     1 <1>   0.4500 
 44 H       -3.8110     7.8440     2.4080 H     1 <1>   0.0800 
 45 H       -2.5520     8.9620     1.9310 H     1 <1>   0.0800 
 46 H       -3.0940    10.8180     0.5290 H     1 <1>   0.1500 
 47 H       -5.8280     7.5240     0.7930 H     1 <1>   0.1500 
 48 H       -4.7250    12.0420    -0.8180 H     1 <1>   0.1500 
 49 H       -7.4360     8.7720    -0.5570 H     1 <1>   0.1500 
 50 H       -6.8920    11.0250    -1.3670 H     1 <1>   0.1500 
@<TRIPOS>BOND
  1   1   2  1   
  2   1   3  1   
  3   2   4  ar  
  4   2   5  ar  
  5   3  25  1   
  6   3  26  1   
  7   3  27  1   
  8   4   6  ar  
  9   4  28  1   
 10   5   7  ar  
 11   5  29  1   
 12   6   8  ar  
 13   6  30  1   
 14   7   8  ar  
 15   7  31  1   
 16   8   9  1   
 17   9  10  2   
 18   9  11  1   
 19  10  12  1   
 20  11  32  1   
 21  11  33  1   
 22  11  34  1   
 23  12  13  1   
 24  12  14  1   
 25  13  15  1   
 26  13  35  1   
 27  13  36  1   
 28  14  16  1   
 29  14  37  1   
 30  14  38  1   
 31  15  17  1   
 32  15  39  1   
 33  15  40  1   
 34  16  17  1   
 35  16  41  1   
 36  16  42  1   
 37  17  18  1   
 38  17  43  1   
 39  18  19  1   
 40  18  44  1   
 41  18  45  1   
 42  19  20  ar  
 43  19  21  ar  
 44  20  22  ar  
 45  20  46  1   
 46  21  23  ar  
 47  21  47  1   
 48  22  24  ar  
 49  22  48  1   
 50  23  24  ar  
 51  23  49  1   
 52  24  50  1   
@<TRIPOS>SUBSTRUCTURE
  1 ****  12 GROUP 4 **** **** 0

# MOE 2024.06 (io_trps.svl 2023.06)
