@<TRIPOS>MOLECULE
NONAME
32 33 1 0 0 
SMALL
USER_CHARGES


@<TRIPOS>ATOM
  1 F       -0.1260    -1.0950     0.4380 F     1 <1>  -0.3400 
  2 C        0.6130    -1.6480    -0.5170 C.3   1 <1>   1.1640 
  3 F        0.1610    -1.1630    -1.6660 F     1 <1>  -0.3400 
  4 F        0.3120    -2.9410    -0.5150 F     1 <1>  -0.3400 
  5 C        2.1180    -1.3900    -0.3390 C.ar  1 <1>  -0.1440 
  6 C        3.0580    -2.2760    -0.8560 C.ar  1 <1>  -0.1500 
  7 C        2.5790    -0.2620     0.3320 C.ar  1 <1>  -0.1500 
  8 C        4.4120    -2.0430    -0.6990 C.ar  1 <1>  -0.1500 
  9 C        3.9340    -0.0320     0.4860 C.ar  1 <1>  -0.1500 
 10 C        4.8740    -0.9210    -0.0230 C.ar  1 <1>   0.1170 
 11 N        6.2590    -0.7330     0.0990 N.am  1 <1>  -0.5470 
 12 C        7.0030     0.0570     0.9340 C.2   1 <1>   0.5690 
 13 O        6.5280     0.7670     1.7850 O.2   1 <1>  -0.5700 
 14 C        8.5220     0.0210     0.7790 C.3   1 <1>  -0.0190 
 15 C        9.0250     0.4660    -0.6000 C.3   1 <1>  -0.1600 
 16 C        9.1550    -1.3620     1.0190 C.3   1 <1>  -0.1600 
 17 C       10.4020    -0.1760    -0.7210 C.3   1 <1>  -0.1600 
 18 C       10.2520    -1.5340    -0.0390 C.3   1 <1>  -0.1600 
 19 H        2.7380    -3.1580    -1.3870 H     1 <1>   0.1500 
 20 H        1.8840     0.4530     0.7430 H     1 <1>   0.1500 
 21 H        5.1170    -2.7460    -1.1050 H     1 <1>   0.1500 
 22 H        4.2550     0.8510     1.0070 H     1 <1>   0.1500 
 23 H        6.8210    -1.3090    -0.5240 H     1 <1>   0.3700 
 24 H        8.9400     0.6970     1.5050 H     1 <1>   0.0800 
 25 H        9.0720     1.5390    -0.6790 H     1 <1>   0.0800 
 26 H        8.3880     0.0860    -1.3800 H     1 <1>   0.0800 
 27 H        8.4340    -2.1550     0.9310 H     1 <1>   0.0800 
 28 H        9.5760    -1.3990     2.0090 H     1 <1>   0.0800 
 29 H       11.1210     0.4180    -0.1810 H     1 <1>   0.0800 
 30 H       10.7190    -0.2680    -1.7450 H     1 <1>   0.0800 
 31 H        9.9380    -2.2650    -0.7650 H     1 <1>   0.0800 
 32 H       11.1810    -1.8580     0.3980 H     1 <1>   0.0800 
@<TRIPOS>BOND
  1   1   2  1   
  2   2   3  1   
  3   2   4  1   
  4   2   5  1   
  5   5   6  ar  
  6   5   7  ar  
  7   6   8  ar  
  8   6  19  1   
  9   7   9  ar  
 10   7  20  1   
 11   8  10  ar  
 12   8  21  1   
 13   9  10  ar  
 14   9  22  1   
 15  10  11  1   
 16  11  12  am  
 17  11  23  1   
 18  12  13  2   
 19  12  14  1   
 20  14  15  1   
 21  14  16  1   
 22  14  24  1   
 23  15  17  1   
 24  15  25  1   
 25  15  26  1   
 26  16  18  1   
 27  16  27  1   
 28  16  28  1   
 29  17  18  1   
 30  17  29  1   
 31  17  30  1   
 32  18  31  1   
 33  18  32  1   
@<TRIPOS>SUBSTRUCTURE
  1 ****  10 GROUP 4 **** **** 0

# MOE 2024.06 (io_trps.svl 2023.06)
