@<TRIPOS>MOLECULE
NONAME
39 39 1 0 0 
SMALL
USER_CHARGES


@<TRIPOS>ATOM
  1 S       -1.8440     0.5160     1.5540 S.3   1 <1>  -0.0800 
  2 C       -1.9830     0.7060    -0.1890 C.2   1 <1>  -0.1400 
  3 C       -0.3260     1.3940     1.5710 C.2   1 <1>  -0.1100 
  4 C       -0.9300     1.3900    -0.6760 C.2   1 <1>  -0.1500 
  5 C       -3.2070     0.1050    -0.8400 C.3   1 <1>   0.5230 
  6 C        0.0120     1.7810     0.3280 C.2   1 <1>  -0.1500 
  7 N       -4.4070     0.7490    -0.2200 N.4   1 <1>  -0.9590 
  8 C       -5.6520    -0.0690    -0.4510 C.3   1 <1>   0.3430 
  9 C       -4.5050     2.1770    -0.6830 C.3   1 <1>   0.2630 
 10 C       -6.8840     0.3910     0.3840 C.3   1 <1>   0.3430 
 11 N       -8.1490    -0.4070     0.1640 N.4   1 <1>  -0.9590 
 12 C       -9.2900     0.2620     0.8580 C.3   1 <1>   0.3430 
 13 C       -8.0490    -1.8310     0.6090 C.3   1 <1>   0.3430 
 14 C      -10.6020    -0.1860     0.2230 C.3   1 <1>  -0.2400 
 15 C       -7.8260    -2.7160    -0.6110 C.3   1 <1>  -0.2400 
 16 H        0.1630     1.5280     2.5210 H     1 <1>   0.1500 
 17 H       -0.7510     1.6470    -1.7070 H     1 <1>   0.1500 
 18 H       -3.2090    -0.9580    -0.6570 H     1 <1>   0.0800 
 19 H       -3.1860     0.2740    -1.9050 H     1 <1>   0.0800 
 20 H        0.9020     2.3330     0.0700 H     1 <1>   0.1500 
 21 H       -4.1590     0.7670     0.7850 H     1 <1>   0.4500 
 22 H       -5.4400    -1.0950    -0.1960 H     1 <1>   0.0800 
 23 H       -5.9070    -0.0300    -1.4980 H     1 <1>   0.0800 
 24 H       -4.6900     2.2210    -1.7440 H     1 <1>   0.0800 
 25 H       -3.5810     2.6980    -0.4780 H     1 <1>   0.0800 
 26 H       -5.2980     2.6940    -0.1690 H     1 <1>   0.0800 
 27 H       -7.0860     1.4210     0.1390 H     1 <1>   0.0800 
 28 H       -6.6270     0.3460     1.4300 H     1 <1>   0.0800 
 29 H       -8.4090    -0.4150    -0.8350 H     1 <1>   0.4500 
 30 H       -9.2100     1.3330     0.7540 H     1 <1>   0.0800 
 31 H       -9.2850     0.0250     1.9110 H     1 <1>   0.0800 
 32 H       -8.9660    -2.1370     1.0890 H     1 <1>   0.0800 
 33 H       -7.2480    -1.9560     1.3210 H     1 <1>   0.0800 
 34 H      -10.6300     0.0610    -0.8230 H     1 <1>   0.0800 
 35 H      -11.4160     0.3310     0.7020 H     1 <1>   0.0800 
 36 H      -10.7700    -1.2400     0.3510 H     1 <1>   0.0800 
 37 H       -8.6490    -2.6280    -1.2990 H     1 <1>   0.0800 
 38 H       -7.7810    -3.7430    -0.2920 H     1 <1>   0.0800 
 39 H       -6.9060    -2.4910    -1.1160 H     1 <1>   0.0800 
@<TRIPOS>BOND
  1   1   2  1   
  2   1   3  1   
  3   2   4  2   
  4   2   5  1   
  5   3   6  2   
  6   3  16  1   
  7   4   6  1   
  8   4  17  1   
  9   5   7  1   
 10   5  18  1   
 11   5  19  1   
 12   6  20  1   
 13   7   8  1   
 14   7   9  1   
 15   7  21  1   
 16   8  10  1   
 17   8  22  1   
 18   8  23  1   
 19   9  24  1   
 20   9  25  1   
 21   9  26  1   
 22  10  11  1   
 23  10  27  1   
 24  10  28  1   
 25  11  12  1   
 26  11  13  1   
 27  11  29  1   
 28  12  14  1   
 29  12  30  1   
 30  12  31  1   
 31  13  15  1   
 32  13  32  1   
 33  13  33  1   
 34  14  34  1   
 35  14  35  1   
 36  14  36  1   
 37  15  37  1   
 38  15  38  1   
 39  15  39  1   
@<TRIPOS>SUBSTRUCTURE
  1 ****   7 GROUP 4 **** **** 0

# MOE 2024.06 (io_trps.svl 2023.06)
