@<TRIPOS>MOLECULE
NONAME
39 40 1 0 0 
SMALL
USER_CHARGES


@<TRIPOS>ATOM
  1 CL      -0.1990     1.7800     1.8470 Cl    1 <1>  -0.1770 
  2 C       -1.7720     1.8810     1.1000 C.ar  1 <1>   0.1770 
  3 C       -1.9700     2.5630    -0.0920 C.ar  1 <1>  -0.0090 
  4 C       -2.8160     1.2530     1.7530 C.ar  1 <1>  -0.1500 
  5 S       -0.6040     3.3900    -0.9410 S.o2  1 <1>   1.4470 
  6 C       -3.2610     2.5920    -0.6060 C.ar  1 <1>  -0.1500 
  7 C       -4.0890     1.3010     1.2180 C.ar  1 <1>  -0.1500 
  8 O        0.4610     2.4360    -1.1570 O.2   1 <1>  -0.6500 
  9 O       -1.1210     4.1150    -2.0820 O.2   1 <1>  -0.6500 
 10 N       -0.0940     4.5600     0.1790 N.am  1 <1>  -0.8490 
 11 C       -4.3470     1.9750     0.0230 C.ar  1 <1>   0.0860 
 12 C       -1.0430     5.6750     0.2610 C.3   1 <1>   0.1960 
 13 C        1.2880     4.9950    -0.0580 C.3   1 <1>   0.1960 
 14 C       -5.6800     2.0420    -0.5510 C.2   1 <1>   0.6340 
 15 C       -0.7980     6.5930     1.4650 C.3   1 <1>  -0.1600 
 16 C        1.9360     5.4350     1.2580 C.3   1 <1>  -0.1600 
 17 O       -5.9350     2.6680    -1.5580 O.2   1 <1>  -0.5700 
 18 O       -6.6650     1.3840     0.0670 O.3   1 <1>  -0.4300 
 19 C        0.3960     7.5370     1.2680 C.3   1 <1>  -0.1600 
 20 C        1.7540     6.9170     1.6220 C.3   1 <1>  -0.1600 
 21 C       -7.9920     1.3960    -0.4250 C.3   1 <1>   0.0400 
 22 H       -2.6260     0.7320     2.6750 H     1 <1>   0.1500 
 23 H       -3.4380     3.1150    -1.5340 H     1 <1>   0.1500 
 24 H       -4.8940     0.8080     1.7380 H     1 <1>   0.1500 
 25 H       -2.0380     5.2760     0.3600 H     1 <1>   0.0800 
 26 H       -1.0180     6.2490    -0.6510 H     1 <1>   0.0800 
 27 H        1.3300     5.7710    -0.8040 H     1 <1>   0.0800 
 28 H        1.8730     4.1670    -0.4230 H     1 <1>   0.0800 
 29 H       -0.6950     6.0130     2.3650 H     1 <1>   0.0800 
 30 H       -1.6770     7.2040     1.5790 H     1 <1>   0.0800 
 31 H        2.9920     5.2430     1.1930 H     1 <1>   0.0800 
 32 H        1.5580     4.8130     2.0510 H     1 <1>   0.0800 
 33 H        0.2590     8.4070     1.8870 H     1 <1>   0.0800 
 34 H        0.4140     7.8810     0.2470 H     1 <1>   0.0800 
 35 H        2.5210     7.4940     1.1330 H     1 <1>   0.0800 
 36 H        1.9160     7.0170     2.6820 H     1 <1>   0.0800 
 37 H       -8.6050     0.8030     0.2300 H     1 <1>   0.0800 
 38 H       -7.9980     0.9790    -1.4170 H     1 <1>   0.0800 
 39 H       -8.3460     2.4120    -0.4460 H     1 <1>   0.0800 
@<TRIPOS>BOND
  1   1   2  1   
  2   2   3  ar  
  3   2   4  ar  
  4   3   5  1   
  5   3   6  ar  
  6   4   7  ar  
  7   4  22  1   
  8   5   8  2   
  9   5   9  2   
 10   5  10  am  
 11   6  11  ar  
 12   6  23  1   
 13   7  11  ar  
 14   7  24  1   
 15  10  12  1   
 16  10  13  1   
 17  11  14  1   
 18  12  15  1   
 19  12  25  1   
 20  12  26  1   
 21  13  16  1   
 22  13  27  1   
 23  13  28  1   
 24  14  17  2   
 25  14  18  1   
 26  15  19  1   
 27  15  29  1   
 28  15  30  1   
 29  16  20  1   
 30  16  31  1   
 31  16  32  1   
 32  18  21  1   
 33  19  20  1   
 34  19  33  1   
 35  19  34  1   
 36  20  35  1   
 37  20  36  1   
 38  21  37  1   
 39  21  38  1   
 40  21  39  1   
@<TRIPOS>SUBSTRUCTURE
  1 ****   3 GROUP 4 **** **** 0

# MOE 2024.06 (io_trps.svl 2023.06)
