@<TRIPOS>MOLECULE
NONAME
27 26 1 0 0 
SMALL
USER_CHARGES


@<TRIPOS>ATOM
  1 O       -1.0310     1.2300    -0.7670 O.2   1 <1>  -0.5700 
  2 C       -0.1950     1.3270     0.0860 C.2   1 <1>   0.4480 
  3 C        1.1680     1.9740    -0.2020 C.3   1 <1>   0.1800 
  4 C       -0.5210     0.7640     1.4620 C.3   1 <1>  -0.1790 
  5 C        1.1430     3.5210    -0.3380 C.2   1 <1>  -0.1240 
  6 C        2.2840     1.4700     0.7150 C.2   1 <1>   0.4480 
  7 C        2.0130     4.0210    -1.3220 C.2   1 <1>  -0.2880 
  8 C        0.3050     4.2340     0.5330 C.2   1 <1>   0.4950 
  9 O        2.3420     0.3300     1.0840 O.2   1 <1>  -0.5700 
 10 C        3.3650     2.4330     1.1740 C.3   1 <1>  -0.1790 
 11 O        2.7400     3.2820    -1.9750 O.3   1 <1>  -0.8500 
 12 C        2.2350     5.4780    -1.6780 C.3   1 <1>  -0.1020 
 13 O       -0.2280     3.7410     1.5280 O.2   1 <1>  -0.5700 
 14 C       -0.0290     5.7050     0.3850 C.3   1 <1>  -0.1790 
 15 H        1.4110     1.5690    -1.1650 H     1 <1>   0.0800 
 16 H       -0.0360     1.3250     2.2380 H     1 <1>   0.0800 
 17 H       -0.1990    -0.2590     1.5150 H     1 <1>   0.0800 
 18 H       -1.5820     0.8040     1.6210 H     1 <1>   0.0800 
 19 H        3.8870     2.8190     0.3170 H     1 <1>   0.0800 
 20 H        4.0680     1.9210     1.8030 H     1 <1>   0.0800 
 21 H        2.9300     3.2460     1.7220 H     1 <1>   0.0800 
 22 H        3.1190     5.5660    -2.2840 H     1 <1>   0.0800 
 23 H        2.3890     6.0720    -0.7990 H     1 <1>   0.0800 
 24 H        1.4070     5.8470    -2.2520 H     1 <1>   0.0800 
 25 H       -0.1910     5.9450    -0.6460 H     1 <1>   0.0800 
 26 H        0.7650     6.3000     0.7920 H     1 <1>   0.0800 
 27 H       -0.9340     5.9270     0.9200 H     1 <1>   0.0800 
@<TRIPOS>BOND
  1   1   2  2   
  2   2   3  1   
  3   2   4  1   
  4   3   5  1   
  5   3   6  1   
  6   3  15  1   
  7   4  16  1   
  8   4  17  1   
  9   4  18  1   
 10   5   7  2   
 11   5   8  1   
 12   6   9  2   
 13   6  10  1   
 14   7  11  1   
 15   7  12  1   
 16   8  13  2   
 17   8  14  1   
 18  10  19  1   
 19  10  20  1   
 20  10  21  1   
 21  12  22  1   
 22  12  23  1   
 23  12  24  1   
 24  14  25  1   
 25  14  26  1   
 26  14  27  1   
@<TRIPOS>SUBSTRUCTURE
  1 ****   5 GROUP 4 **** **** 0

# MOE 2024.06 (io_trps.svl 2023.06)
