@<TRIPOS>MOLECULE
NONAME
38 40 1 0 0 
SMALL
USER_CHARGES


@<TRIPOS>ATOM
  1 O       -0.0740    -0.9780     1.6580 O.2   1 <1>  -0.5700 
  2 C       -0.0600    -1.5370     0.5790 C.2   1 <1>   0.7060 
  3 O        1.0400    -1.4920    -0.1820 O.3   1 <1>  -0.4300 
  4 C       -1.2090    -2.2140     0.0690 C.2   1 <1>  -0.1240 
  5 C        2.2360    -0.7830     0.0810 C.3   1 <1>   0.2000 
  6 C       -1.2650    -3.3000    -0.7610 C.2   1 <1>  -0.0380 
  7 C       -2.5080    -1.5470     0.5540 C.3   1 <1>   0.4570 
  8 C        2.9370    -1.3400     1.3230 C.3   1 <1>  -0.2400 
  9 C        1.9660     0.7220     0.1520 C.3   1 <1>  -0.2400 
 10 N       -2.4740    -3.8260    -1.1600 N.pl3 1 <1>  -0.5840 
 11 C       -0.0670    -4.0580    -1.3120 C.3   1 <1>  -0.1020 
 12 N       -3.7070    -2.3300     0.1780 N.pl3 1 <1>   0.3140 
 13 C       -2.6070    -0.1390    -0.0330 C.ar  1 <1>  -0.1440 
 14 C       -3.6710    -3.3660    -0.6330 C.2   1 <1>   0.2700 
 15 N       -4.9640    -2.1450     0.5420 N.2   1 <1>  -0.4180 
 16 C       -2.7580     0.0480    -1.4010 C.ar  1 <1>   0.1600 
 17 C       -2.5270     0.9730     0.7830 C.ar  1 <1>  -0.1500 
 18 N       -4.8490    -3.8330    -0.8060 N.2   1 <1>  -0.3380 
 19 N       -5.6410    -3.0570    -0.0620 N.2   1 <1>   0.0000 
 20 N       -2.8320     1.2240    -2.0010 N.ar  1 <1>  -0.6200 
 21 C       -2.6070     2.2060     0.1730 C.ar  1 <1>  -0.1500 
 22 C       -2.7580     2.2750    -1.2010 C.ar  1 <1>   0.1600 
 23 H        2.8730    -0.9660    -0.7680 H     1 <1>   0.0800 
 24 H       -2.5030    -1.4910     1.6280 H     1 <1>   0.0800 
 25 H        2.3850    -1.1160     2.2170 H     1 <1>   0.0800 
 26 H        3.9100    -0.8920     1.4170 H     1 <1>   0.0800 
 27 H        3.0620    -2.4030     1.2330 H     1 <1>   0.0800 
 28 H        1.4030     0.9780     1.0310 H     1 <1>   0.0800 
 29 H        1.4300     1.0430    -0.7230 H     1 <1>   0.0800 
 30 H        2.8990     1.2530     0.1910 H     1 <1>   0.0800 
 31 H       -2.5360    -4.6430    -1.7810 H     1 <1>   0.4000 
 32 H       -0.2500    -5.1180    -1.2780 H     1 <1>   0.0800 
 33 H        0.8240    -3.8730    -0.7430 H     1 <1>   0.0800 
 34 H        0.1090    -3.7720    -2.3340 H     1 <1>   0.0800 
 35 H       -2.8200    -0.8140    -2.0460 H     1 <1>   0.1500 
 36 H       -2.4000     0.8940     1.8500 H     1 <1>   0.1500 
 37 H       -2.5530     3.1090     0.7550 H     1 <1>   0.1500 
 38 H       -2.8190     3.2440    -1.6660 H     1 <1>   0.1500 
@<TRIPOS>BOND
  1   1   2  2   
  2   2   3  1   
  3   2   4  1   
  4   3   5  1   
  5   4   6  2   
  6   4   7  1   
  7   5   8  1   
  8   5   9  1   
  9   5  23  1   
 10   6  10  1   
 11   6  11  1   
 12   7  12  1   
 13   7  13  1   
 14   7  24  1   
 15   8  25  1   
 16   8  26  1   
 17   8  27  1   
 18   9  28  1   
 19   9  29  1   
 20   9  30  1   
 21  10  14  1   
 22  10  31  1   
 23  11  32  1   
 24  11  33  1   
 25  11  34  1   
 26  12  14  1   
 27  12  15  1   
 28  13  16  ar  
 29  13  17  ar  
 30  14  18  2   
 31  15  19  2   
 32  16  20  ar  
 33  16  35  1   
 34  17  21  ar  
 35  17  36  1   
 36  18  19  1   
 37  20  22  ar  
 38  21  22  ar  
 39  21  37  1   
 40  22  38  1   
@<TRIPOS>SUBSTRUCTURE
  1 ****   7 GROUP 4 **** **** 0

# MOE 2024.06 (io_trps.svl 2023.06)
