@<TRIPOS>MOLECULE
NONAME
30 31 1 0 0 
SMALL
USER_CHARGES


@<TRIPOS>ATOM
  1 O        1.6110    -0.0420     0.6930 O.co2 1 <1>  -0.9000 
  2 C        2.0550    -1.1580     0.9700 C.2   1 <1>   0.9060 
  3 O        2.8770    -1.3280     1.8790 O.co2 1 <1>  -0.9000 
  4 C        1.5930    -2.3680     0.1730 C.3   1 <1>  -0.1860 
  5 C        2.5720    -3.5740     0.2370 C.3   1 <1>  -0.0190 
  6 C        1.2640    -2.0050    -1.2890 C.3   1 <1>  -0.0220 
  7 C        3.9530    -3.2900    -0.3850 C.2   1 <1>   0.5690 
  8 C        1.8820    -4.8160    -0.3760 C.3   1 <1>  -0.0220 
  9 C        0.9230    -3.2480    -2.0980 C.2   1 <1>  -0.2880 
 10 O        4.3340    -3.9230    -1.3430 O.2   1 <1>  -0.5700 
 11 N        4.7520    -2.3580     0.2040 N.am  1 <1>  -0.5470 
 12 C        1.1840    -4.4930    -1.6900 C.2   1 <1>  -0.2880 
 13 C        6.0260    -1.9230    -0.1150 C.ar  1 <1>   0.4270 
 14 N        6.7020    -1.4100     0.9040 N.ar  1 <1>  -0.6200 
 15 C        6.5700    -1.9970    -1.4100 C.ar  1 <1>   0.1600 
 16 C        7.9060    -0.9900     0.5620 C.ar  1 <1>   0.1600 
 17 N        7.7800    -1.5810    -1.7550 N.ar  1 <1>  -0.6200 
 18 C        8.4290    -1.0720    -0.7200 C.ar  1 <1>   0.1600 
 19 H        0.6760    -2.6710     0.6400 H     1 <1>   0.0800 
 20 H        2.7550    -3.8010     1.2730 H     1 <1>   0.0800 
 21 H        2.1000    -1.5000    -1.7410 H     1 <1>   0.0800 
 22 H        0.4280    -1.3270    -1.2980 H     1 <1>   0.0800 
 23 H        1.1460    -5.1880     0.3140 H     1 <1>   0.0800 
 24 H        2.6070    -5.5970    -0.5280 H     1 <1>   0.0800 
 25 H        0.4520    -3.0230    -3.0390 H     1 <1>   0.1500 
 26 H        4.3330    -1.8800     1.0270 H     1 <1>   0.3700 
 27 H        0.9260    -5.3670    -2.2630 H     1 <1>   0.1500 
 28 H        5.9620    -2.4150    -2.1890 H     1 <1>   0.1500 
 29 H        8.5080    -0.5580     1.3400 H     1 <1>   0.1500 
 30 H        9.4230    -0.7030    -0.9000 H     1 <1>   0.1500 
@<TRIPOS>BOND
  1   1   2  ar  
  2   2   3  ar  
  3   2   4  1   
  4   4   5  1   
  5   4   6  1   
  6   4  19  1   
  7   5   7  1   
  8   5   8  1   
  9   5  20  1   
 10   6   9  1   
 11   6  21  1   
 12   6  22  1   
 13   7  10  2   
 14   7  11  am  
 15   8  12  1   
 16   8  23  1   
 17   8  24  1   
 18   9  12  2   
 19   9  25  1   
 20  11  13  1   
 21  11  26  1   
 22  12  27  1   
 23  13  14  ar  
 24  13  15  ar  
 25  14  16  ar  
 26  15  17  ar  
 27  15  28  1   
 28  16  18  ar  
 29  16  29  1   
 30  17  18  ar  
 31  18  30  1   
@<TRIPOS>SUBSTRUCTURE
  1 ****  11 GROUP 4 **** **** 0

# MOE 2024.06 (io_trps.svl 2023.06)
