@<TRIPOS>MOLECULE
NONAME
40 41 1 0 0 
SMALL
USER_CHARGES


@<TRIPOS>ATOM
  1 O        0.4860    -1.0740     0.4070 O.2   1 <1>  -0.5700 
  2 C        0.0940    -2.0140    -0.2610 C.2   1 <1>   0.5440 
  3 N        1.0560    -2.7580    -0.9060 N.am  1 <1>  -0.6600 
  4 C       -1.3160    -2.3640    -0.3110 C.ar  1 <1>   0.0860 
  5 C        2.3180    -2.0820    -1.3260 C.3   1 <1>   0.1400 
  6 C        1.2520    -4.1790    -0.5060 C.3   1 <1>   0.1400 
  7 C       -2.1970    -1.9550     0.6920 C.ar  1 <1>  -0.1500 
  8 C       -1.8510    -3.1200    -1.3580 C.ar  1 <1>  -0.1500 
  9 C        3.3540    -2.1560    -0.1890 C.3   1 <1>   0.3430 
 10 C        2.3120    -4.2720     0.6140 C.3   1 <1>   0.3430 
 11 C       -3.5380    -2.2920     0.6680 C.ar  1 <1>  -0.1500 
 12 C       -3.1890    -3.4630    -1.3890 C.ar  1 <1>  -0.1500 
 13 N        3.6050    -3.5790     0.2530 N.4   1 <1>  -0.9590 
 14 C       -4.0450    -3.0560    -0.3790 C.ar  1 <1>   0.0830 
 15 C        4.5610    -3.6070     1.4000 C.3   1 <1>   0.2630 
 16 O       -5.3380    -3.4330    -0.4850 O.3   1 <1>  -0.3630 
 17 C       -6.3080    -3.0340     0.4560 C.3   1 <1>   0.2580 
 18 C       -7.6440    -3.6050     0.0240 C.2   1 <1>  -0.2880 
 19 C       -8.4240    -4.4020     0.7620 C.2   1 <1>  -0.3000 
 20 H        2.1160    -1.0490    -1.5560 H     1 <1>   0.0800 
 21 H        2.7020    -2.5470    -2.2170 H     1 <1>   0.0800 
 22 H        1.5620    -4.7550    -1.3600 H     1 <1>   0.0800 
 23 H        0.3240    -4.5930    -0.1490 H     1 <1>   0.0800 
 24 H       -1.8190    -1.3580     1.5050 H     1 <1>   0.1500 
 25 H       -1.2130    -3.4390    -2.1630 H     1 <1>   0.1500 
 26 H        2.9780    -1.5770     0.6400 H     1 <1>   0.0800 
 27 H        4.2750    -1.7030    -0.5180 H     1 <1>   0.0800 
 28 H        2.5020    -5.3090     0.8360 H     1 <1>   0.0800 
 29 H        1.9010    -3.8160     1.5000 H     1 <1>   0.0800 
 30 H       -4.1690    -1.9510     1.4670 H     1 <1>   0.1500 
 31 H       -3.5870    -4.0470    -2.2000 H     1 <1>   0.1500 
 32 H        4.0230    -4.0820    -0.5420 H     1 <1>   0.4500 
 33 H        4.1480    -3.0780     2.2440 H     1 <1>   0.0800 
 34 H        5.4920    -3.1400     1.1240 H     1 <1>   0.0800 
 35 H        4.7620    -4.6240     1.6960 H     1 <1>   0.0800 
 36 H       -6.3450    -1.9590     0.4700 H     1 <1>   0.0800 
 37 H       -6.0240    -3.4120     1.4220 H     1 <1>   0.0800 
 38 H       -7.9090    -3.2960    -0.9730 H     1 <1>   0.1500 
 39 H       -9.3680    -4.7940     0.4250 H     1 <1>   0.1500 
 40 H       -8.1880    -4.7330     1.7590 H     1 <1>   0.1500 
@<TRIPOS>BOND
  1   1   2  2   
  2   2   3  am  
  3   2   4  1   
  4   3   5  1   
  5   3   6  1   
  6   4   7  ar  
  7   4   8  ar  
  8   5   9  1   
  9   5  20  1   
 10   5  21  1   
 11   6  10  1   
 12   6  22  1   
 13   6  23  1   
 14   7  11  ar  
 15   7  24  1   
 16   8  12  ar  
 17   8  25  1   
 18   9  13  1   
 19   9  26  1   
 20   9  27  1   
 21  10  13  1   
 22  10  28  1   
 23  10  29  1   
 24  11  14  ar  
 25  11  30  1   
 26  12  14  ar  
 27  12  31  1   
 28  13  15  1   
 29  13  32  1   
 30  14  16  1   
 31  15  33  1   
 32  15  34  1   
 33  15  35  1   
 34  16  17  1   
 35  17  18  1   
 36  17  36  1   
 37  17  37  1   
 38  18  19  2   
 39  18  38  1   
 40  19  39  1   
 41  19  40  1   
@<TRIPOS>SUBSTRUCTURE
  1 ****   4 GROUP 4 **** **** 0

# MOE 2024.06 (io_trps.svl 2023.06)
