@<TRIPOS>MOLECULE
NONAME
47 49 1 0 0 
SMALL
USER_CHARGES


@<TRIPOS>ATOM
  1 CL       1.2530    -0.9050     3.3570 Cl    1 <1>  -0.1770 
  2 C        2.4990    -1.4560     2.2640 C.ar  1 <1>   0.1770 
  3 C        2.1460    -2.2000     1.1530 C.ar  1 <1>  -0.1500 
  4 C        3.8200    -1.1410     2.5250 C.ar  1 <1>  -0.1500 
  5 C        3.1370    -2.6340     0.2890 C.ar  1 <1>  -0.1500 
  6 C        4.8030    -1.5800     1.6560 C.ar  1 <1>  -0.1500 
  7 C        4.4740    -2.3310     0.5300 C.ar  1 <1>   0.1990 
  8 N        5.4530    -2.7770    -0.3510 N.am  1 <1>  -0.6930 
  9 S        6.4480    -4.1180     0.1050 S.o2  1 <1>   1.3330 
 10 C        6.0890    -1.7890    -1.2870 C.3   1 <1>   0.3370 
 11 O        7.5120    -4.2080    -0.8680 O.2   1 <1>  -0.6500 
 12 O        6.7630    -3.9890     1.5040 O.2   1 <1>  -0.6500 
 13 C        5.3480    -5.4950    -0.1360 C.3   1 <1>  -0.1350 
 14 C        7.1970    -0.9430    -0.6110 C.2   1 <1>   0.5690 
 15 C        5.0060    -0.9400    -1.9740 C.3   1 <1>  -0.2400 
 16 O        6.9810     0.2040    -0.2890 O.2   1 <1>  -0.5700 
 17 N        8.4030    -1.5230    -0.3790 N.am  1 <1>  -0.7300 
 18 C        9.5050    -0.9310     0.3960 C.3   1 <1>   0.2200 
 19 C       10.8920    -1.3940    -0.0990 C.3   1 <1>  -0.0800 
 20 C        9.4740    -1.4290     1.8500 C.3   1 <1>  -0.1600 
 21 C       11.7250    -1.2000     1.1600 C.3   1 <1>  -0.1600 
 22 C       10.9550    -2.9300    -0.2340 C.3   1 <1>  -0.1600 
 23 C       10.8500    -2.0930     2.0250 C.3   1 <1>  -0.0800 
 24 C       10.8570    -3.4080     1.2250 C.3   1 <1>  -0.1600 
 25 H        1.1110    -2.4290     0.9720 H     1 <1>   0.1500 
 26 H        4.0720    -0.5610     3.3940 H     1 <1>   0.1500 
 27 H        2.8780    -3.2070    -0.5820 H     1 <1>   0.1500 
 28 H        5.8350    -1.3440     1.8510 H     1 <1>   0.1500 
 29 H        6.5690    -2.3420    -2.0740 H     1 <1>   0.0800 
 30 H        4.4950    -5.4040     0.5080 H     1 <1>   0.0800 
 31 H        5.8530    -6.4120     0.0920 H     1 <1>   0.0800 
 32 H        5.0130    -5.5290    -1.1540 H     1 <1>   0.0800 
 33 H        4.5120    -0.3020    -1.2620 H     1 <1>   0.0800 
 34 H        4.2840    -1.5720    -2.4570 H     1 <1>   0.0800 
 35 H        5.4630    -0.3120    -2.7170 H     1 <1>   0.0800 
 36 H        8.5210    -2.5260    -0.5710 H     1 <1>   0.3700 
 37 H        9.4390     0.1450     0.3740 H     1 <1>   0.0800 
 38 H       11.2470    -0.8530    -0.9590 H     1 <1>   0.0800 
 39 H        8.6670    -2.1140     2.0420 H     1 <1>   0.0800 
 40 H        9.3860    -0.5880     2.5140 H     1 <1>   0.0800 
 41 H       11.7410    -0.1770     1.4990 H     1 <1>   0.0800 
 42 H       12.7310    -1.5730     1.0600 H     1 <1>   0.0800 
 43 H       11.9060    -3.2190    -0.6490 H     1 <1>   0.0800 
 44 H       10.1790    -3.3420    -0.8530 H     1 <1>   0.0800 
 45 H       11.1600    -2.1990     3.0500 H     1 <1>   0.0800 
 46 H       11.7180    -4.0010     1.4820 H     1 <1>   0.0800 
 47 H        9.9650    -3.9850     1.3990 H     1 <1>   0.0800 
@<TRIPOS>BOND
  1   1   2  1   
  2   2   3  ar  
  3   2   4  ar  
  4   3   5  ar  
  5   3  25  1   
  6   4   6  ar  
  7   4  26  1   
  8   5   7  ar  
  9   5  27  1   
 10   6   7  ar  
 11   6  28  1   
 12   7   8  1   
 13   8   9  am  
 14   8  10  1   
 15   9  11  2   
 16   9  12  2   
 17   9  13  1   
 18  10  14  1   
 19  10  15  1   
 20  10  29  1   
 21  13  30  1   
 22  13  31  1   
 23  13  32  1   
 24  14  16  2   
 25  14  17  am  
 26  15  33  1   
 27  15  34  1   
 28  15  35  1   
 29  17  18  1   
 30  17  36  1   
 31  18  19  1   
 32  18  20  1   
 33  18  37  1   
 34  19  21  1   
 35  19  22  1   
 36  19  38  1   
 37  20  23  1   
 38  20  39  1   
 39  20  40  1   
 40  21  23  1   
 41  21  41  1   
 42  21  42  1   
 43  22  24  1   
 44  22  43  1   
 45  22  44  1   
 46  23  24  1   
 47  23  45  1   
 48  24  46  1   
 49  24  47  1   
@<TRIPOS>SUBSTRUCTURE
  1 ****   8 GROUP 4 **** **** 0

# MOE 2024.06 (io_trps.svl 2023.06)
