@<TRIPOS>MOLECULE
NONAME
39 39 1 0 0 
SMALL
USER_CHARGES


@<TRIPOS>ATOM
  1 S        0.1510    -0.0340     0.2000 S.o2  1 <1>   1.3330 
  2 O        0.1910    -1.3860    -0.3060 O.2   1 <1>  -0.6500 
  3 O       -1.1020     0.6770     0.2830 O.2   1 <1>  -0.6500 
  4 N        1.2420     0.9030    -0.7750 N.am  1 <1>  -0.6930 
  5 C        0.9300    -0.0120     1.7980 C.3   1 <1>  -0.1350 
  6 C        1.3060     2.2930    -0.6820 C.ar  1 <1>   0.1990 
  7 C        2.2820     0.1500    -1.5190 C.3   1 <1>   0.1160 
  8 C        2.4280     2.9840    -0.1820 C.ar  1 <1>   0.0860 
  9 C        0.2100     3.0280    -1.1260 C.ar  1 <1>  -0.1500 
 10 C        3.6070     2.3060     0.3000 C.2   1 <1>   0.5440 
 11 C        2.3930     4.3800    -0.1530 C.ar  1 <1>  -0.1500 
 12 C        0.1970     4.4070    -1.0880 C.ar  1 <1>  -0.1500 
 13 O        3.5460     1.4790     1.1890 O.2   1 <1>  -0.5700 
 14 N        4.8270     2.5990    -0.2450 N.am  1 <1>  -0.7300 
 15 C        1.2960     5.0880    -0.5990 C.ar  1 <1>  -0.1500 
 16 C        6.1240     2.0350     0.1890 C.3   1 <1>   0.1400 
 17 C        7.1130     3.1780     0.4140 C.3   1 <1>  -0.1600 
 18 C        8.4790     2.6480     0.8650 C.3   1 <1>  -0.1600 
 19 C        9.4680     3.7950     1.0900 C.3   1 <1>  -0.2400 
 20 H        0.3370    -0.5580     2.5050 H     1 <1>   0.0800 
 21 H        1.0380     0.9970     2.1440 H     1 <1>   0.0800 
 22 H        1.9020    -0.4610     1.7430 H     1 <1>   0.0800 
 23 H        1.8120    -0.5670    -2.1700 H     1 <1>   0.0800 
 24 H        2.9200    -0.3720    -0.8260 H     1 <1>   0.0800 
 25 H        2.8780     0.8190    -2.1130 H     1 <1>   0.0800 
 26 H       -0.6480     2.5000    -1.5060 H     1 <1>   0.1500 
 27 H        3.2420     4.9160     0.2360 H     1 <1>   0.1500 
 28 H       -0.6670     4.9490    -1.4360 H     1 <1>   0.1500 
 29 H        4.8780     3.2690    -1.0130 H     1 <1>   0.3700 
 30 H        1.2890     6.1650    -0.5660 H     1 <1>   0.1500 
 31 H        6.4920     1.3670    -0.5720 H     1 <1>   0.0800 
 32 H        5.9980     1.4750     1.1010 H     1 <1>   0.0800 
 33 H        6.7210     3.8350     1.1710 H     1 <1>   0.0800 
 34 H        7.2320     3.7330    -0.5000 H     1 <1>   0.0800 
 35 H        8.8760     1.9810     0.1180 H     1 <1>   0.0800 
 36 H        8.3680     2.0930     1.7820 H     1 <1>   0.0800 
 37 H        9.6150     4.3510     0.1800 H     1 <1>   0.0800 
 38 H       10.4190     3.4040     1.4070 H     1 <1>   0.0800 
 39 H        9.1040     4.4630     1.8500 H     1 <1>   0.0800 
@<TRIPOS>BOND
  1   1   2  2   
  2   1   3  2   
  3   1   4  am  
  4   1   5  1   
  5   4   6  1   
  6   4   7  1   
  7   5  20  1   
  8   5  21  1   
  9   5  22  1   
 10   6   8  ar  
 11   6   9  ar  
 12   7  23  1   
 13   7  24  1   
 14   7  25  1   
 15   8  10  1   
 16   8  11  ar  
 17   9  12  ar  
 18   9  26  1   
 19  10  13  2   
 20  10  14  am  
 21  11  15  ar  
 22  11  27  1   
 23  12  15  ar  
 24  12  28  1   
 25  14  16  1   
 26  14  29  1   
 27  15  30  1   
 28  16  17  1   
 29  16  31  1   
 30  16  32  1   
 31  17  18  1   
 32  17  33  1   
 33  17  34  1   
 34  18  19  1   
 35  18  35  1   
 36  18  36  1   
 37  19  37  1   
 38  19  38  1   
 39  19  39  1   
@<TRIPOS>SUBSTRUCTURE
  1 ****  10 GROUP 4 **** **** 0

# MOE 2024.06 (io_trps.svl 2023.06)
