@<TRIPOS>MOLECULE
NONAME
32 33 1 0 0 
SMALL
USER_CHARGES


@<TRIPOS>ATOM
  1 CL       0.7460     0.1530    -1.0980 Cl    1 <1>  -0.1770 
  2 C        0.4000     1.7590    -0.5060 C.ar  1 <1>   0.1770 
  3 C        1.3070     2.3820     0.3340 C.ar  1 <1>  -0.1440 
  4 C       -0.7710     2.3810    -0.9000 C.ar  1 <1>  -0.1500 
  5 C        1.0110     3.6660     0.7630 C.ar  1 <1>   0.1770 
  6 C        2.5730     1.6870     0.7780 C.3   1 <1>   0.4870 
  7 C       -1.0510     3.6620    -0.4510 C.ar  1 <1>  -0.1500 
  8 CL       2.1470     4.5030     1.7910 Cl    1 <1>  -0.1770 
  9 C       -0.1530     4.3090     0.3830 C.ar  1 <1>  -0.1500 
 10 N        3.7020     2.2460     0.0020 N.4   1 <1>  -0.9060 
 11 C        5.0160     1.6550     0.3990 C.3   1 <1>   0.3430 
 12 C        6.1990     2.3140    -0.3280 C.3   1 <1>   0.2000 
 13 O        7.3640     1.7940     0.2030 O.3   1 <1>  -0.5600 
 14 C        6.3360     3.8190    -0.1180 C.3   1 <1>  -0.1600 
 15 C        8.4380     2.6550    -0.0260 C.3   1 <1>   0.1200 
 16 C        7.8340     4.0390    -0.2540 C.3   1 <1>  -0.1600 
 17 H       -1.4590     1.8680    -1.5520 H     1 <1>   0.1500 
 18 H        2.4950     0.6240     0.6140 H     1 <1>   0.0800 
 19 H        2.7260     1.8570     1.8320 H     1 <1>   0.0800 
 20 H       -1.9630     4.1530    -0.7510 H     1 <1>   0.1500 
 21 H       -0.3580     5.3060     0.7360 H     1 <1>   0.1500 
 22 H        3.7190     3.2630     0.1590 H     1 <1>   0.4500 
 23 H        3.5240     2.0930    -0.9980 H     1 <1>   0.4500 
 24 H        5.0250     0.6000     0.1800 H     1 <1>   0.0800 
 25 H        5.1640     1.7850     1.4580 H     1 <1>   0.0800 
 26 H        6.1940     2.0710    -1.3770 H     1 <1>   0.0800 
 27 H        6.0220     4.0880     0.8760 H     1 <1>   0.0800 
 28 H        5.7780     4.3880    -0.8400 H     1 <1>   0.0800 
 29 H        8.9740     2.3100    -0.8940 H     1 <1>   0.0800 
 30 H        9.0840     2.6320     0.8360 H     1 <1>   0.0800 
 31 H        8.2040     4.7500     0.4640 H     1 <1>   0.0800 
 32 H        8.0890     4.3810    -1.2430 H     1 <1>   0.0800 
@<TRIPOS>BOND
  1   1   2  1   
  2   2   3  ar  
  3   2   4  ar  
  4   3   5  ar  
  5   3   6  1   
  6   4   7  ar  
  7   4  17  1   
  8   5   8  1   
  9   5   9  ar  
 10   6  10  1   
 11   6  18  1   
 12   6  19  1   
 13   7   9  ar  
 14   7  20  1   
 15   9  21  1   
 16  10  11  1   
 17  10  22  1   
 18  10  23  1   
 19  11  12  1   
 20  11  24  1   
 21  11  25  1   
 22  12  13  1   
 23  12  14  1   
 24  12  26  1   
 25  13  15  1   
 26  14  16  1   
 27  14  27  1   
 28  14  28  1   
 29  15  16  1   
 30  15  29  1   
 31  15  30  1   
 32  16  31  1   
 33  16  32  1   
@<TRIPOS>SUBSTRUCTURE
  1 ****  10 GROUP 4 **** **** 0

# MOE 2024.06 (io_trps.svl 2023.06)
