@<TRIPOS>MOLECULE
NONAME
54 57 1 0 0 
SMALL
USER_CHARGES


@<TRIPOS>ATOM
  1 O       -0.9300     2.8050    -0.7630 O.2   1 <1>  -0.5700 
  2 C       -0.7890     2.1140     0.2200 C.2   1 <1>   0.5690 
  3 N        0.3850     1.4850     0.5010 N.am  1 <1>  -0.5790 
  4 C       -1.9820     1.9190     1.1710 C.3   1 <1>   0.1710 
  5 C        1.6080     1.5650    -0.3110 C.3   1 <1>   0.0490 
  6 N       -3.1620     1.1800     0.6200 N.3   1 <1>  -0.8100 
  7 C        2.4740     0.3530    -0.3960 C.3   1 <1>  -0.2000 
  8 C        2.9220     1.5440     0.3960 C.3   1 <1>  -0.2000 
  9 C       -3.9000     1.9980    -0.3790 C.3   1 <1>   0.1100 
 10 C       -2.7870    -0.1330     0.0330 C.3   1 <1>   0.1100 
 11 C       -5.1520     1.2740    -0.9280 C.3   1 <1>   0.3430 
 12 C       -4.0040    -0.8870    -0.5580 C.3   1 <1>   0.3430 
 13 N       -5.2700    -0.1090    -0.3570 N.4   1 <1>  -0.9590 
 14 C       -6.5070    -0.8210    -0.7530 C.3   1 <1>   0.7100 
 15 C       -7.7420     0.0000    -0.3850 C.ar  1 <1>  -0.1440 
 16 C       -6.5120    -2.2180    -0.1390 C.ar  1 <1>  -0.1440 
 17 C       -8.7840     0.0700    -1.3010 C.ar  1 <1>  -0.1500 
 18 C       -7.8630     0.6890     0.8200 C.ar  1 <1>  -0.1500 
 19 C       -6.6160    -2.4250     1.2320 C.ar  1 <1>  -0.1500 
 20 C       -6.3860    -3.3190    -0.9770 C.ar  1 <1>  -0.1500 
 21 C       -9.9170     0.8150    -1.0260 C.ar  1 <1>  -0.1500 
 22 C       -8.9970     1.4340     1.0930 C.ar  1 <1>  -0.1500 
 23 C       -6.5840    -3.7070     1.7520 C.ar  1 <1>  -0.1500 
 24 C       -6.3550    -4.6000    -0.4560 C.ar  1 <1>  -0.1500 
 25 C      -10.0230     1.4990     0.1700 C.ar  1 <1>  -0.1500 
 26 C       -6.4510    -4.7940     0.9090 C.ar  1 <1>  -0.1500 
 27 H        0.4870     0.9380     1.3560 H     1 <1>   0.3700 
 28 H       -2.3020     2.8930     1.4980 H     1 <1>   0.0800 
 29 H       -1.6360     1.3970     2.0450 H     1 <1>   0.0800 
 30 H        1.5050     2.1920    -1.1840 H     1 <1>   0.1000 
 31 H        2.9790     0.1440    -1.3230 H     1 <1>   0.1000 
 32 H        2.1860    -0.5410     0.1290 H     1 <1>   0.1000 
 33 H        2.9390     1.4840     1.4700 H     1 <1>   0.1000 
 34 H        3.7270     2.1410     0.0040 H     1 <1>   0.1000 
 35 H       -3.2600     2.2410    -1.2100 H     1 <1>   0.0800 
 36 H       -4.2040     2.9280     0.0710 H     1 <1>   0.0800 
 37 H       -2.3320    -0.7470     0.7920 H     1 <1>   0.0800 
 38 H       -2.0600     0.0050    -0.7510 H     1 <1>   0.0800 
 39 H       -5.0890     1.2300    -2.0030 H     1 <1>   0.0800 
 40 H       -6.0250     1.8550    -0.6770 H     1 <1>   0.0800 
 41 H       -4.0780    -1.8500    -0.0760 H     1 <1>   0.0800 
 42 H       -3.8370    -1.0590    -1.6080 H     1 <1>   0.0800 
 43 H       -5.3140     0.0340     0.6570 H     1 <1>   0.4500 
 44 H       -6.5010    -0.9360    -1.8240 H     1 <1>   0.0800 
 45 H       -8.7340    -0.4570    -2.2400 H     1 <1>   0.1500 
 46 H       -7.0890     0.6630     1.5650 H     1 <1>   0.1500 
 47 H       -6.7270    -1.6040     1.9170 H     1 <1>   0.1500 
 48 H       -6.3140    -3.2000    -2.0450 H     1 <1>   0.1500 
 49 H      -10.7210     0.8630    -1.7420 H     1 <1>   0.1500 
 50 H       -9.0870     1.9640     2.0270 H     1 <1>   0.1500 
 51 H       -6.6690    -3.8640     2.8150 H     1 <1>   0.1500 
 52 H       -6.2590    -5.4510    -1.1100 H     1 <1>   0.1500 
 53 H      -10.9060     2.0770     0.3840 H     1 <1>   0.1500 
 54 H       -6.4290    -5.7920     1.3150 H     1 <1>   0.1500 
@<TRIPOS>BOND
  1   1   2  2   
  2   2   3  am  
  3   2   4  1   
  4   3   5  1   
  5   3  27  1   
  6   4   6  1   
  7   4  28  1   
  8   4  29  1   
  9   5   7  1   
 10   5   8  1   
 11   5  30  1   
 12   6   9  1   
 13   6  10  1   
 14   7   8  1   
 15   7  31  1   
 16   7  32  1   
 17   8  33  1   
 18   8  34  1   
 19   9  11  1   
 20   9  35  1   
 21   9  36  1   
 22  10  12  1   
 23  10  37  1   
 24  10  38  1   
 25  11  13  1   
 26  11  39  1   
 27  11  40  1   
 28  12  13  1   
 29  12  41  1   
 30  12  42  1   
 31  13  14  1   
 32  13  43  1   
 33  14  15  1   
 34  14  16  1   
 35  14  44  1   
 36  15  17  ar  
 37  15  18  ar  
 38  16  19  ar  
 39  16  20  ar  
 40  17  21  ar  
 41  17  45  1   
 42  18  22  ar  
 43  18  46  1   
 44  19  23  ar  
 45  19  47  1   
 46  20  24  ar  
 47  20  48  1   
 48  21  25  ar  
 49  21  49  1   
 50  22  25  ar  
 51  22  50  1   
 52  23  26  ar  
 53  23  51  1   
 54  24  26  ar  
 55  24  52  1   
 56  25  53  1   
 57  26  54  1   
@<TRIPOS>SUBSTRUCTURE
  1 ****  13 GROUP 4 **** **** 0

# MOE 2024.06 (io_trps.svl 2023.06)
