@<TRIPOS>MOLECULE
NONAME
41 42 1 0 0 
SMALL
USER_CHARGES


@<TRIPOS>ATOM
  1 O        0.4080     0.2200    -0.9270 O.3   1 <1>  -0.6800 
  2 C        1.6400     0.7930    -0.6440 C.3   1 <1>   0.1200 
  3 C        1.4860     2.3310    -0.5250 C.3   1 <1>   0.4230 
  4 N        2.8000     3.0370    -0.3270 N.4   1 <1>  -0.9590 
  5 C        0.5460     2.6890     0.6410 C.3   1 <1>  -0.1600 
  6 C        2.6390     4.5200    -0.2320 C.3   1 <1>   0.3430 
  7 C        3.8280     2.7060    -1.3560 C.3   1 <1>   0.4860 
  8 C        0.3690     4.2000     0.8210 C.3   1 <1>  -0.1600 
  9 C        1.7340     4.8800     0.9440 C.3   1 <1>  -0.1600 
 10 C        5.1650     3.2560    -0.9000 C.ar  1 <1>  -0.1430 
 11 C        5.8910     2.6690     0.1340 C.ar  1 <1>  -0.1430 
 12 C        5.6650     4.3850    -1.5340 C.ar  1 <1>  -0.1500 
 13 C        7.0910     3.2420     0.5270 C.ar  1 <1>  -0.1500 
 14 C        5.4310     1.4100     0.8600 C.3   1 <1>  -0.0970 
 15 C        6.8650     4.9420    -1.1340 C.ar  1 <1>  -0.1500 
 16 C        7.5830     4.3740    -0.0990 C.ar  1 <1>  -0.1430 
 17 C        8.9010     4.9810     0.3490 C.3   1 <1>  -0.0970 
 18 H        0.4570    -0.7590    -0.9720 H     1 <1>   0.4000 
 19 H        2.2970     0.5210    -1.4490 H     1 <1>   0.0800 
 20 H        1.9950     0.3720     0.2810 H     1 <1>   0.0800 
 21 H        1.0430     2.6860    -1.4420 H     1 <1>   0.0800 
 22 H        3.1920     2.7420     0.5730 H     1 <1>   0.4500 
 23 H        0.9200     2.2570     1.5530 H     1 <1>   0.0800 
 24 H       -0.4240     2.2550     0.4610 H     1 <1>   0.0800 
 25 H        2.2100     4.9010    -1.1450 H     1 <1>   0.0800 
 26 H        3.5990     4.9910    -0.0870 H     1 <1>   0.0800 
 27 H        3.5560     3.1340    -2.3070 H     1 <1>   0.0800 
 28 H        3.9220     1.6410    -1.4770 H     1 <1>   0.0800 
 29 H       -0.2200     4.3980     1.7010 H     1 <1>   0.0800 
 30 H       -0.1620     4.6040    -0.0260 H     1 <1>   0.0800 
 31 H        1.6000     5.9470     0.9700 H     1 <1>   0.0800 
 32 H        2.2110     4.5940     1.8650 H     1 <1>   0.0800 
 33 H        5.1330     4.8480    -2.3470 H     1 <1>   0.1500 
 34 H        7.6610     2.8040     1.3290 H     1 <1>   0.1500 
 35 H        4.6970     1.6520     1.6060 H     1 <1>   0.0800 
 36 H        6.2630     0.9410     1.3570 H     1 <1>   0.0800 
 37 H        5.0260     0.6900     0.1720 H     1 <1>   0.0800 
 38 H        7.2420     5.8190    -1.6330 H     1 <1>   0.1500 
 39 H        9.5960     4.2070     0.6210 H     1 <1>   0.0800 
 40 H        8.7400     5.6170     1.2000 H     1 <1>   0.0800 
 41 H        9.3390     5.5640    -0.4410 H     1 <1>   0.0800 
@<TRIPOS>BOND
  1   1   2  1   
  2   1  18  1   
  3   2   3  1   
  4   2  19  1   
  5   2  20  1   
  6   3   4  1   
  7   3   5  1   
  8   3  21  1   
  9   4   6  1   
 10   4   7  1   
 11   4  22  1   
 12   5   8  1   
 13   5  23  1   
 14   5  24  1   
 15   6   9  1   
 16   6  25  1   
 17   6  26  1   
 18   7  10  1   
 19   7  27  1   
 20   7  28  1   
 21   8   9  1   
 22   8  29  1   
 23   8  30  1   
 24   9  31  1   
 25   9  32  1   
 26  10  11  ar  
 27  10  12  ar  
 28  11  13  ar  
 29  11  14  1   
 30  12  15  ar  
 31  12  33  1   
 32  13  16  ar  
 33  13  34  1   
 34  14  35  1   
 35  14  36  1   
 36  14  37  1   
 37  15  16  ar  
 38  15  38  1   
 39  16  17  1   
 40  17  39  1   
 41  17  40  1   
 42  17  41  1   
@<TRIPOS>SUBSTRUCTURE
  1 ****   4 GROUP 4 **** **** 0

# MOE 2024.06 (io_trps.svl 2023.06)
