@<TRIPOS>MOLECULE
NONAME
46 49 1 0 0 
SMALL
USER_CHARGES


@<TRIPOS>ATOM
  1 O       -0.6970    -0.3480     0.2920 O.3   1 <1>  -0.3630 
  2 C       -1.8540    -0.9710    -0.0380 C.ar  1 <1>   0.0820 
  3 C       -0.1000    -0.5160     1.5570 C.3   1 <1>   0.1200 
  4 C       -2.3030    -0.7970    -1.3360 C.ar  1 <1>  -0.1500 
  5 C       -2.5920    -1.7580     0.8400 C.ar  1 <1>  -0.1500 
  6 C        1.1960     0.2880     1.5780 C.3   1 <1>  -0.2400 
  7 C       -3.4760    -1.3930    -1.7610 C.ar  1 <1>  -0.1500 
  8 C       -3.7680    -2.3540     0.4160 C.ar  1 <1>  -0.1500 
  9 C       -4.2210    -2.1700    -0.8840 C.ar  1 <1>  -0.1430 
 10 C       -5.5190    -2.8030    -1.3460 C.3   1 <1>   0.4860 
 11 N       -6.6550    -2.0710    -0.7300 N.4   1 <1>  -0.9590 
 12 C       -7.9570    -2.7520    -0.9760 C.3   1 <1>   0.5230 
 13 C       -6.6870    -0.6110    -1.1100 C.3   1 <1>   0.3430 
 14 C       -9.0250    -1.9170    -0.3100 C.2   1 <1>  -0.3320 
 15 C       -7.6300     0.1830    -0.1900 C.3   1 <1>   0.0210 
 16 N      -10.2820    -2.3470     0.0230 N.pl3 1 <1>   0.0330 
 17 C       -8.8890    -0.6200     0.0440 C.2   1 <1>  -0.1810 
 18 C      -10.9440    -1.2980     0.6100 C.ar  1 <1>  -0.1520 
 19 C      -10.0940    -0.1950     0.6390 C.ar  1 <1>   0.0000 
 20 C      -12.2390    -1.2170     1.1270 C.ar  1 <1>  -0.1500 
 21 C      -10.5400     1.0080     1.1950 C.ar  1 <1>  -0.1500 
 22 C      -12.6650    -0.0280     1.6700 C.ar  1 <1>  -0.1500 
 23 C      -11.8160     1.0850     1.7040 C.ar  1 <1>  -0.1500 
 24 H        0.1000    -1.5630     1.7040 H     1 <1>   0.0800 
 25 H       -0.7820    -0.1550     2.3080 H     1 <1>   0.0800 
 26 H       -1.7190    -0.1920    -2.0080 H     1 <1>   0.1500 
 27 H       -2.2640    -1.9150     1.8510 H     1 <1>   0.1500 
 28 H        1.8640    -0.0690     0.8140 H     1 <1>   0.0800 
 29 H        1.6780     0.1810     2.5320 H     1 <1>   0.0800 
 30 H        0.9870     1.3300     1.4130 H     1 <1>   0.0800 
 31 H       -3.7920    -1.2410    -2.7790 H     1 <1>   0.1500 
 32 H       -4.3170    -2.9630     1.1150 H     1 <1>   0.1500 
 33 H       -5.5340    -3.8380    -1.0440 H     1 <1>   0.0800 
 34 H       -5.5850    -2.7580    -2.4210 H     1 <1>   0.0800 
 35 H       -6.5220    -2.0840     0.2870 H     1 <1>   0.4500 
 36 H       -7.9440    -3.7410    -0.5490 H     1 <1>   0.0800 
 37 H       -8.1560    -2.8240    -2.0330 H     1 <1>   0.0800 
 38 H       -7.0300    -0.5160    -2.1270 H     1 <1>   0.0800 
 39 H       -5.7000    -0.1810    -1.0450 H     1 <1>   0.0800 
 40 H       -7.8720     1.1250    -0.6490 H     1 <1>   0.0800 
 41 H       -7.1480     0.3810     0.7500 H     1 <1>   0.0800 
 42 H      -10.7020    -3.2730    -0.1190 H     1 <1>   0.2700 
 43 H      -12.8890    -2.0740     1.0990 H     1 <1>   0.1500 
 44 H       -9.8840     1.8580     1.2170 H     1 <1>   0.1500 
 45 H      -13.6580     0.0600     2.0750 H     1 <1>   0.1500 
 46 H      -12.1760     2.0030     2.1350 H     1 <1>   0.1500 
@<TRIPOS>BOND
  1   1   2  1   
  2   1   3  1   
  3   2   4  ar  
  4   2   5  ar  
  5   3   6  1   
  6   3  24  1   
  7   3  25  1   
  8   4   7  ar  
  9   4  26  1   
 10   5   8  ar  
 11   5  27  1   
 12   6  28  1   
 13   6  29  1   
 14   6  30  1   
 15   7   9  ar  
 16   7  31  1   
 17   8   9  ar  
 18   8  32  1   
 19   9  10  1   
 20  10  11  1   
 21  10  33  1   
 22  10  34  1   
 23  11  12  1   
 24  11  13  1   
 25  11  35  1   
 26  12  14  1   
 27  12  36  1   
 28  12  37  1   
 29  13  15  1   
 30  13  38  1   
 31  13  39  1   
 32  14  16  1   
 33  14  17  2   
 34  15  17  1   
 35  15  40  1   
 36  15  41  1   
 37  16  18  1   
 38  16  42  1   
 39  17  19  1   
 40  18  19  ar  
 41  18  20  ar  
 42  19  21  ar  
 43  20  22  ar  
 44  20  43  1   
 45  21  23  ar  
 46  21  44  1   
 47  22  23  ar  
 48  22  45  1   
 49  23  46  1   
@<TRIPOS>SUBSTRUCTURE
  1 ****  13 GROUP 4 **** **** 0

# MOE 2024.06 (io_trps.svl 2023.06)
