@<TRIPOS>MOLECULE
NONAME
40 42 1 0 0 
SMALL
USER_CHARGES


@<TRIPOS>ATOM
  1 S       -0.0950    -0.8500     1.1080 S.o2  1 <1>   1.4470 
  2 O       -0.0430    -1.8940     2.1080 O.2   1 <1>  -0.6500 
  3 O        0.4560     0.4530     1.4100 O.2   1 <1>  -0.6500 
  4 N        0.7340    -1.4280    -0.2530 N.am  1 <1>  -0.8490 
  5 C       -1.7940    -0.6480     0.5040 C.ar  1 <1>  -0.0090 
  6 C        2.1900    -1.3000    -0.0870 C.3   1 <1>   0.1960 
  7 C        0.4050    -2.8290    -0.5680 C.3   1 <1>   0.1960 
  8 C       -2.8670    -1.2360     1.1470 C.ar  1 <1>  -0.1500 
  9 C       -2.0600     0.1130    -0.6280 C.ar  1 <1>  -0.1500 
 10 C        2.9420    -1.8350    -1.3190 C.3   1 <1>   0.1200 
 11 C        1.1940    -3.3190    -1.7960 C.3   1 <1>   0.1200 
 12 C       -4.1880    -1.0970     0.7050 C.ar  1 <1>   0.0280 
 13 C       -3.3460     0.2730    -1.0930 C.ar  1 <1>  -0.1500 
 14 O        2.5690    -3.1570    -1.5920 O.3   1 <1>  -0.5600 
 15 C       -4.4370    -0.3200    -0.4480 C.ar  1 <1>   0.1170 
 16 C       -5.2990    -1.7130     1.3800 C.2   1 <1>  -0.1670 
 17 N       -5.7570    -0.1590    -0.9190 N.am  1 <1>  -0.4770 
 18 C       -6.5500    -1.5360     0.8970 C.2   1 <1>  -0.1360 
 19 C       -5.0770    -2.5570     2.6300 C.3   1 <1>  -0.1020 
 20 C       -6.8200    -0.7570    -0.2620 C.2   1 <1>   0.6160 
 21 C       -6.0320     0.6730    -2.1300 C.3   1 <1>   0.0600 
 22 O       -7.9690    -0.6290    -0.6580 O.2   1 <1>  -0.5700 
 23 H        2.5110    -1.8420     0.7870 H     1 <1>   0.0800 
 24 H        2.4490    -0.2640     0.0520 H     1 <1>   0.0800 
 25 H       -0.6480    -2.9190    -0.7700 H     1 <1>   0.0800 
 26 H        0.6410    -3.4670     0.2680 H     1 <1>   0.0800 
 27 H       -2.6630    -1.8210     2.0250 H     1 <1>   0.1500 
 28 H       -1.2380     0.5840    -1.1430 H     1 <1>   0.1500 
 29 H        4.0030    -1.8230    -1.1430 H     1 <1>   0.0800 
 30 H        2.7260    -1.2310    -2.1830 H     1 <1>   0.0800 
 31 H        0.9090    -2.7680    -2.6750 H     1 <1>   0.0800 
 32 H        1.0100    -4.3650    -1.9660 H     1 <1>   0.0800 
 33 H       -3.4910     0.8720    -1.9710 H     1 <1>   0.1500 
 34 H       -7.4150    -1.9710     1.3600 H     1 <1>   0.1500 
 35 H       -4.6220    -1.9640     3.4030 H     1 <1>   0.0800 
 36 H       -4.4390    -3.3940     2.4050 H     1 <1>   0.0800 
 37 H       -6.0090    -2.9390     3.0070 H     1 <1>   0.0800 
 38 H       -5.6960     1.6800    -1.9590 H     1 <1>   0.0800 
 39 H       -7.0820     0.7050    -2.3610 H     1 <1>   0.0800 
 40 H       -5.5150     0.2590    -2.9770 H     1 <1>   0.0800 
@<TRIPOS>BOND
  1   1   2  2   
  2   1   3  2   
  3   1   4  am  
  4   1   5  1   
  5   4   6  1   
  6   4   7  1   
  7   5   8  ar  
  8   5   9  ar  
  9   6  10  1   
 10   6  23  1   
 11   6  24  1   
 12   7  11  1   
 13   7  25  1   
 14   7  26  1   
 15   8  12  ar  
 16   8  27  1   
 17   9  13  ar  
 18   9  28  1   
 19  10  14  1   
 20  10  29  1   
 21  10  30  1   
 22  11  14  1   
 23  11  31  1   
 24  11  32  1   
 25  12  15  ar  
 26  12  16  1   
 27  13  15  ar  
 28  13  33  1   
 29  15  17  1   
 30  16  18  2   
 31  16  19  1   
 32  17  20  am  
 33  17  21  1   
 34  18  20  1   
 35  18  34  1   
 36  19  35  1   
 37  19  36  1   
 38  19  37  1   
 39  20  22  2   
 40  21  38  1   
 41  21  39  1   
 42  21  40  1   
@<TRIPOS>SUBSTRUCTURE
  1 ****   5 GROUP 4 **** **** 0

# MOE 2024.06 (io_trps.svl 2023.06)
