@<TRIPOS>MOLECULE
NONAME
45 47 1 0 0 
SMALL
USER_CHARGES


@<TRIPOS>ATOM
  1 O        0.3370     0.1660    -0.1630 O.3   1 <1>  -0.6800 
  2 C        1.5640     0.7810     0.0360 C.3   1 <1>   0.1200 
  3 C        1.4280     2.3050    -0.2160 C.3   1 <1>   0.4230 
  4 N        2.7460     3.0320    -0.1540 N.4   1 <1>  -0.9590 
  5 C        0.4610     2.9320     0.8060 C.3   1 <1>  -0.1600 
  6 C        2.5920     4.4960    -0.4230 C.3   1 <1>   0.3430 
  7 C        3.7870     2.4610    -1.0600 C.3   1 <1>   0.4860 
  8 C        0.2940     4.4440     0.6170 C.3   1 <1>  -0.1600 
  9 C        1.6620     5.1290     0.6100 C.3   1 <1>  -0.1600 
 10 C        5.1160     3.1350    -0.7760 C.ar  1 <1>  -0.1440 
 11 C        5.6570     4.0260    -1.6920 C.ar  1 <1>  -0.1500 
 12 C        5.8050     2.8720     0.4000 C.ar  1 <1>  -0.1500 
 13 C        6.8610     4.6520    -1.4250 C.ar  1 <1>  -0.1500 
 14 C        7.0070     3.5050     0.6580 C.ar  1 <1>  -0.1500 
 15 C        7.5560     4.4070    -0.2470 C.ar  1 <1>   0.0000 
 16 C        8.8130     5.0650     0.0280 C.ar  1 <1>   0.0000 
 17 C        9.9740     4.3290     0.2490 C.ar  1 <1>  -0.1500 
 18 C        8.9000     6.4540     0.0800 C.ar  1 <1>  -0.1500 
 19 C       11.1780     4.9550     0.5140 C.ar  1 <1>  -0.1500 
 20 C       10.1020     7.0860     0.3430 C.ar  1 <1>  -0.1500 
 21 C       11.2440     6.3360     0.5610 C.ar  1 <1>  -0.1500 
 22 H        0.3700    -0.7950     0.0320 H     1 <1>   0.4000 
 23 H        2.2520     0.3240    -0.6520 H     1 <1>   0.0800 
 24 H        1.8720     0.5870     1.0490 H     1 <1>   0.0800 
 25 H        1.0130     2.4360    -1.2030 H     1 <1>   0.0800 
 26 H        3.1040     2.9560     0.8040 H     1 <1>   0.4500 
 27 H        0.8070     2.7280     1.8040 H     1 <1>   0.0800 
 28 H       -0.5070     2.4710     0.7070 H     1 <1>   0.0800 
 29 H        2.1850     4.6460    -1.4100 H     1 <1>   0.0800 
 30 H        3.5510     4.9880    -0.3740 H     1 <1>   0.0800 
 31 H        3.5090     2.6130    -2.0900 H     1 <1>   0.0800 
 32 H        3.9000     1.4040    -0.8900 H     1 <1>   0.0800 
 33 H       -0.3150     4.8470     1.4100 H     1 <1>   0.0800 
 34 H       -0.2130     4.6360    -0.3150 H     1 <1>   0.0800 
 35 H        1.5360     6.1720     0.3770 H     1 <1>   0.0800 
 36 H        2.1130     5.0700     1.5860 H     1 <1>   0.0800 
 37 H        5.1570     4.2420    -2.6210 H     1 <1>   0.1500 
 38 H        5.4230     2.1760     1.1260 H     1 <1>   0.1500 
 39 H        7.2800     5.3390    -2.1410 H     1 <1>   0.1500 
 40 H        7.5370     3.3020     1.5730 H     1 <1>   0.1500 
 41 H        9.9320     3.2550     0.2090 H     1 <1>   0.1500 
 42 H        8.0170     7.0440    -0.0850 H     1 <1>   0.1500 
 43 H       12.0650     4.3700     0.6820 H     1 <1>   0.1500 
 44 H       10.1510     8.1600     0.3800 H     1 <1>   0.1500 
 45 H       12.1800     6.8260     0.7670 H     1 <1>   0.1500 
@<TRIPOS>BOND
  1   1   2  1   
  2   1  22  1   
  3   2   3  1   
  4   2  23  1   
  5   2  24  1   
  6   3   4  1   
  7   3   5  1   
  8   3  25  1   
  9   4   6  1   
 10   4   7  1   
 11   4  26  1   
 12   5   8  1   
 13   5  27  1   
 14   5  28  1   
 15   6   9  1   
 16   6  29  1   
 17   6  30  1   
 18   7  10  1   
 19   7  31  1   
 20   7  32  1   
 21   8   9  1   
 22   8  33  1   
 23   8  34  1   
 24   9  35  1   
 25   9  36  1   
 26  10  11  ar  
 27  10  12  ar  
 28  11  13  ar  
 29  11  37  1   
 30  12  14  ar  
 31  12  38  1   
 32  13  15  ar  
 33  13  39  1   
 34  14  15  ar  
 35  14  40  1   
 36  15  16  1   
 37  16  17  ar  
 38  16  18  ar  
 39  17  19  ar  
 40  17  41  1   
 41  18  20  ar  
 42  18  42  1   
 43  19  21  ar  
 44  19  43  1   
 45  20  21  ar  
 46  20  44  1   
 47  21  45  1   
@<TRIPOS>SUBSTRUCTURE
  1 ****  10 GROUP 4 **** **** 0

# MOE 2024.06 (io_trps.svl 2023.06)
