@<TRIPOS>MOLECULE
NONAME
50 52 1 0 0 
SMALL
USER_CHARGES


@<TRIPOS>ATOM
  1 N        0.2640     0.1880    -0.5350 N.4   1 <1>  -0.9590 
  2 C        1.6660     0.6850    -0.3790 C.3   1 <1>   0.4230 
  3 C       -0.7100     0.6420     0.5130 C.3   1 <1>   0.3430 
  4 C        0.2160    -1.3010    -0.6930 C.3   1 <1>   0.3430 
  5 C        2.2660     0.3480     0.9920 C.3   1 <1>  -0.1600 
  6 C        1.7290     2.1940    -0.6250 C.3   1 <1>  -0.1600 
  7 C       -2.1300     0.2560     0.0990 C.3   1 <1>  -0.1600 
  8 C       -1.1850    -1.7300    -1.1320 C.3   1 <1>  -0.1600 
  9 C        3.7040     0.8600     1.0870 C.3   1 <1>   0.3430 
 10 C        3.1690     2.6970    -0.5220 C.3   1 <1>   0.3430 
 11 C       -2.2600    -1.2510    -0.1490 C.3   1 <1>  -0.1600 
 12 N        3.7560     2.3250     0.8050 N.4   1 <1>  -0.9590 
 13 C        5.1540     2.8380     1.0100 C.3   1 <1>   0.4230 
 14 C        5.2060     4.3650     0.9190 C.3   1 <1>  -0.1600 
 15 C        6.1490     2.3160    -0.0420 C.3   1 <1>  -0.1600 
 16 C        5.8060     4.6940    -0.4490 C.3   1 <1>  -0.0800 
 17 C        6.7750     3.5450    -0.7100 C.3   1 <1>  -0.1600 
 18 C        6.4890     6.0640    -0.4820 C.3   1 <1>  -0.2400 
 19 H       -0.1010     0.5580    -1.4240 H     1 <1>   0.4500 
 20 H        2.2740     0.2090    -1.1340 H     1 <1>   0.0800 
 21 H       -0.6600     1.7120     0.6370 H     1 <1>   0.0800 
 22 H       -0.4780     0.1780     1.4570 H     1 <1>   0.0800 
 23 H        0.4570    -1.7800     0.2430 H     1 <1>   0.0800 
 24 H        0.9300    -1.6230    -1.4350 H     1 <1>   0.0800 
 25 H        2.2820    -0.7170     1.1360 H     1 <1>   0.0800 
 26 H        1.6940     0.7880     1.7890 H     1 <1>   0.0800 
 27 H        1.1270     2.7320     0.0850 H     1 <1>   0.0800 
 28 H        1.3660     2.4160    -1.6130 H     1 <1>   0.0800 
 29 H       -2.4090     0.8000    -0.7880 H     1 <1>   0.0800 
 30 H       -2.8150     0.5460     0.8780 H     1 <1>   0.0800 
 31 H       -1.2200    -2.8040    -1.1970 H     1 <1>   0.0800 
 32 H       -1.3890    -1.3450    -2.1160 H     1 <1>   0.0800 
 33 H        4.3240     0.3310     0.3800 H     1 <1>   0.0800 
 34 H        4.0910     0.6630     2.0760 H     1 <1>   0.0800 
 35 H        3.1780     3.7690    -0.6410 H     1 <1>   0.0800 
 36 H        3.7590     2.2720    -1.3180 H     1 <1>   0.0800 
 37 H       -3.2400    -1.4750    -0.5400 H     1 <1>   0.0800 
 38 H       -2.1560    -1.7800     0.7850 H     1 <1>   0.0800 
 39 H        3.2040     2.8050     1.5300 H     1 <1>   0.4500 
 40 H        5.4950     2.5470     1.9920 H     1 <1>   0.0800 
 41 H        5.8840     4.7120     1.6810 H     1 <1>   0.0800 
 42 H        4.2560     4.8450     1.0780 H     1 <1>   0.0800 
 43 H        5.6830     1.6990    -0.7870 H     1 <1>   0.0800 
 44 H        6.9230     1.7410     0.4370 H     1 <1>   0.0800 
 45 H        5.0360     4.6770    -1.2010 H     1 <1>   0.0800 
 46 H        6.9440     3.3950    -1.7640 H     1 <1>   0.0800 
 47 H        7.7230     3.7560    -0.2420 H     1 <1>   0.0800 
 48 H        7.2780     6.1230     0.2470 H     1 <1>   0.0800 
 49 H        5.7770     6.8440    -0.2780 H     1 <1>   0.0800 
 50 H        6.9150     6.2420    -1.4550 H     1 <1>   0.0800 
@<TRIPOS>BOND
  1   1   2  1   
  2   1   3  1   
  3   1   4  1   
  4   1  19  1   
  5   2   5  1   
  6   2   6  1   
  7   2  20  1   
  8   3   7  1   
  9   3  21  1   
 10   3  22  1   
 11   4   8  1   
 12   4  23  1   
 13   4  24  1   
 14   5   9  1   
 15   5  25  1   
 16   5  26  1   
 17   6  10  1   
 18   6  27  1   
 19   6  28  1   
 20   7  11  1   
 21   7  29  1   
 22   7  30  1   
 23   8  11  1   
 24   8  31  1   
 25   8  32  1   
 26   9  12  1   
 27   9  33  1   
 28   9  34  1   
 29  10  12  1   
 30  10  35  1   
 31  10  36  1   
 32  11  37  1   
 33  11  38  1   
 34  12  13  1   
 35  12  39  1   
 36  13  14  1   
 37  13  15  1   
 38  13  40  1   
 39  14  16  1   
 40  14  41  1   
 41  14  42  1   
 42  15  17  1   
 43  15  43  1   
 44  15  44  1   
 45  16  17  1   
 46  16  18  1   
 47  16  45  1   
 48  17  46  1   
 49  17  47  1   
 50  18  48  1   
 51  18  49  1   
 52  18  50  1   
@<TRIPOS>SUBSTRUCTURE
  1 ****   6 GROUP 4 **** **** 0

# MOE 2024.06 (io_trps.svl 2023.06)
