@<TRIPOS>MOLECULE
NONAME
42 43 1 0 0 
SMALL
USER_CHARGES


@<TRIPOS>ATOM
  1 CL       3.0330     2.0680    -2.6290 Cl    1 <1>  -0.1770 
  2 C        1.7820     2.5730    -1.5130 C.ar  1 <1>   0.1770 
  3 C        1.9220     2.3350    -0.1500 C.ar  1 <1>   0.0830 
  4 C        0.6700     3.2220    -2.0170 C.ar  1 <1>  -0.1500 
  5 O        3.0350     1.6960     0.2910 O.3   1 <1>  -0.3630 
  6 C        0.9170     2.7600     0.7140 C.ar  1 <1>  -0.1500 
  7 C       -0.3230     3.6450    -1.1490 C.ar  1 <1>  -0.1500 
  8 C        3.6010     2.0490     1.5450 C.3   1 <1>   0.1810 
  9 C       -0.1970     3.4130     0.2120 C.ar  1 <1>  -0.1500 
 10 C        5.0140     1.4890     1.6990 C.2   1 <1>   0.5690 
 11 O        5.2060     0.7650     2.6500 O.2   1 <1>  -0.5700 
 12 N        6.0280     1.8130     0.8240 N.am  1 <1>  -0.6600 
 13 C        5.8710     2.6930    -0.3700 C.3   1 <1>   0.1400 
 14 C        7.3810     1.2070     0.9610 C.3   1 <1>   0.1400 
 15 C        6.9190     3.8070    -0.3300 C.3   1 <1>  -0.1600 
 16 C        8.4390     2.3120     1.0190 C.3   1 <1>  -0.1600 
 17 C        8.3510     3.2470    -0.2020 C.3   1 <1>  -0.0190 
 18 C        9.4130     4.3430    -0.1310 C.2   1 <1>   0.6590 
 19 O        9.1470     5.4970     0.0900 O.2   1 <1>  -0.5700 
 20 O       10.6610     3.9380    -0.3300 O.3   1 <1>  -0.4300 
 21 C       11.7420     4.8400    -0.2840 C.3   1 <1>   0.1200 
 22 C       13.0250     4.0540    -0.5380 C.3   1 <1>  -0.2400 
 23 H        0.5870     3.3940    -3.0750 H     1 <1>   0.1500 
 24 H        0.9840     2.5800     1.7710 H     1 <1>   0.1500 
 25 H       -1.1920     4.1520    -1.5320 H     1 <1>   0.1500 
 26 H        2.9760     1.6470     2.3210 H     1 <1>   0.0800 
 27 H        3.6310     3.1200     1.6210 H     1 <1>   0.0800 
 28 H       -0.9740     3.7410     0.8820 H     1 <1>   0.1500 
 29 H        4.8950     3.1390    -0.4060 H     1 <1>   0.0800 
 30 H        5.9950     2.0990    -1.2600 H     1 <1>   0.0800 
 31 H        7.5630     0.5650     0.1170 H     1 <1>   0.0800 
 32 H        7.4440     0.6070     1.8530 H     1 <1>   0.0800 
 33 H        6.7050     4.4540     0.5040 H     1 <1>   0.0800 
 34 H        6.8420     4.3970    -1.2260 H     1 <1>   0.0800 
 35 H        9.4140     1.8600     1.0620 H     1 <1>   0.0800 
 36 H        8.3000     2.8780     1.9240 H     1 <1>   0.0800 
 37 H        8.5590     2.6690    -1.0840 H     1 <1>   0.0800 
 38 H       11.7580     5.3030     0.6890 H     1 <1>   0.0800 
 39 H       11.5920     5.5920    -1.0400 H     1 <1>   0.0800 
 40 H       13.1540     3.3000     0.2180 H     1 <1>   0.0800 
 41 H       13.8690     4.7190    -0.5060 H     1 <1>   0.0800 
 42 H       12.9900     3.5910    -1.5080 H     1 <1>   0.0800 
@<TRIPOS>BOND
  1   1   2  1   
  2   2   3  ar  
  3   2   4  ar  
  4   3   5  1   
  5   3   6  ar  
  6   4   7  ar  
  7   4  23  1   
  8   5   8  1   
  9   6   9  ar  
 10   6  24  1   
 11   7   9  ar  
 12   7  25  1   
 13   8  10  1   
 14   8  26  1   
 15   8  27  1   
 16   9  28  1   
 17  10  11  2   
 18  10  12  am  
 19  12  13  1   
 20  12  14  1   
 21  13  15  1   
 22  13  29  1   
 23  13  30  1   
 24  14  16  1   
 25  14  31  1   
 26  14  32  1   
 27  15  17  1   
 28  15  33  1   
 29  15  34  1   
 30  16  17  1   
 31  16  35  1   
 32  16  36  1   
 33  17  18  1   
 34  17  37  1   
 35  18  19  2   
 36  18  20  1   
 37  20  21  1   
 38  21  22  1   
 39  21  38  1   
 40  21  39  1   
 41  22  40  1   
 42  22  41  1   
 43  22  42  1   
@<TRIPOS>SUBSTRUCTURE
  1 ****  13 GROUP 4 **** **** 0

# MOE 2024.06 (io_trps.svl 2023.06)
