@<TRIPOS>MOLECULE
NONAME
36 38 1 0 0 
SMALL
USER_CHARGES


@<TRIPOS>ATOM
  1 O       -0.0400     1.0880    -1.9620 O.2   1 <1>  -0.5700 
  2 C        0.0650     1.7320    -0.9370 C.2   1 <1>   0.5440 
  3 N       -1.0010     1.8150    -0.0840 N.am  1 <1>  -0.5790 
  4 C        1.3140     2.3950    -0.6070 C.ar  1 <1>   0.0860 
  5 C       -2.3210     1.2040    -0.2920 C.3   1 <1>   0.0490 
  6 C        1.3350     3.6160     0.0630 C.ar  1 <1>  -0.1500 
  7 C        2.5400     1.8260    -0.9450 C.ar  1 <1>  -0.1500 
  8 C       -3.5150     1.9120     0.2560 C.3   1 <1>  -0.2000 
  9 C       -3.0290     0.6480     0.8980 C.3   1 <1>  -0.2000 
 10 C        2.5260     4.2400     0.3920 C.ar  1 <1>   0.1000 
 11 C        3.7590     2.4150    -0.6170 C.ar  1 <1>   0.0860 
 12 N        2.5190     5.4530     1.0530 N.pl3 1 <1>  -0.9000 
 13 C        3.7240     3.6350     0.0530 C.ar  1 <1>  -0.1500 
 14 C        5.0150     1.7720    -0.9580 C.2   1 <1>   0.5440 
 15 O        5.1220     1.1290    -1.9830 O.2   1 <1>  -0.5700 
 16 N        6.0870     1.8730    -0.1140 N.am  1 <1>  -0.5790 
 17 C        7.4150     1.2830    -0.3320 C.3   1 <1>   0.0490 
 18 C        8.1420     0.7390     0.8520 C.3   1 <1>  -0.2000 
 19 C        8.6020     2.0110     0.2050 C.3   1 <1>  -0.2000 
 20 H       -0.8780     2.2680     0.8200 H     1 <1>   0.3700 
 21 H       -2.4120     0.6890    -1.2360 H     1 <1>   0.1000 
 22 H        0.4110     4.0960     0.3260 H     1 <1>   0.1500 
 23 H        2.5450     0.8900    -1.4810 H     1 <1>   0.1500 
 24 H       -4.4330     1.8780    -0.3030 H     1 <1>   0.1000 
 25 H       -3.3780     2.8480     0.7690 H     1 <1>   0.1000 
 26 H       -2.5490     0.6960     1.8600 H     1 <1>   0.1000 
 27 H       -3.6170    -0.2450     0.7740 H     1 <1>   0.1000 
 28 H        3.3590     6.0330     0.9670 H     1 <1>   0.4000 
 29 H        1.6680     6.0190     0.9730 H     1 <1>   0.4000 
 30 H        4.6420     4.1300     0.3090 H     1 <1>   0.1500 
 31 H        5.9650     2.3230     0.7920 H     1 <1>   0.3700 
 32 H        7.5060     0.7680    -1.2770 H     1 <1>   0.1000 
 33 H        8.7440    -0.1430     0.7240 H     1 <1>   0.1000 
 34 H        7.6700     0.7810     1.8180 H     1 <1>   0.1000 
 35 H        8.4540     2.9440     0.7180 H     1 <1>   0.1000 
 36 H        9.5160     1.9910    -0.3630 H     1 <1>   0.1000 
@<TRIPOS>BOND
  1   1   2  2   
  2   2   3  am  
  3   2   4  1   
  4   3   5  1   
  5   3  20  1   
  6   4   6  ar  
  7   4   7  ar  
  8   5   8  1   
  9   5   9  1   
 10   5  21  1   
 11   6  10  ar  
 12   6  22  1   
 13   7  11  ar  
 14   7  23  1   
 15   8   9  1   
 16   8  24  1   
 17   8  25  1   
 18   9  26  1   
 19   9  27  1   
 20  10  12  1   
 21  10  13  ar  
 22  11  13  ar  
 23  11  14  1   
 24  12  28  1   
 25  12  29  1   
 26  13  30  1   
 27  14  15  2   
 28  14  16  am  
 29  16  17  1   
 30  16  31  1   
 31  17  18  1   
 32  17  19  1   
 33  17  32  1   
 34  18  19  1   
 35  18  33  1   
 36  18  34  1   
 37  19  35  1   
 38  19  36  1   
@<TRIPOS>SUBSTRUCTURE
  1 ****   7 GROUP 4 **** **** 0

# MOE 2024.06 (io_trps.svl 2023.06)
