@<TRIPOS>MOLECULE
NONAME
44 45 1 0 0 
SMALL
USER_CHARGES


@<TRIPOS>ATOM
  1 BR      -0.4390    -0.1540     0.2040 Br    1 <1>  -0.1110 
  2 C        1.1980     0.8340     0.4650 C.ar  1 <1>   0.1110 
  3 C        1.3030     2.1360    -0.0040 C.ar  1 <1>   0.0820 
  4 C        2.2340     0.2040     1.1240 C.ar  1 <1>  -0.1500 
  5 O        0.2340     2.6830    -0.6400 O.3   1 <1>  -0.3630 
  6 C        2.5020     2.8110     0.2040 C.ar  1 <1>  -0.1500 
  7 C        3.4160     0.8980     1.3190 C.ar  1 <1>  -0.1500 
  8 C        0.2230     4.0290    -1.0560 C.3   1 <1>   0.1200 
  9 C        3.5700     2.2050     0.8630 C.ar  1 <1>  -0.0090 
 10 C       -1.1400     4.3170    -1.6750 C.3   1 <1>  -0.2400 
 11 S        5.1350     3.0870     1.1050 S.o2  1 <1>   1.4470 
 12 O        5.6490     2.8870     2.4390 O.2   1 <1>  -0.6500 
 13 O        5.0980     4.4060     0.5220 O.2   1 <1>  -0.6500 
 14 N        6.2020     2.2910     0.0810 N.am  1 <1>  -0.9140 
 15 C        7.5920     2.6030     0.4040 C.3   1 <1>   0.1960 
 16 C        8.5610     1.8190    -0.4990 C.3   1 <1>   0.3430 
 17 N        9.9930     1.9640    -0.0770 N.4   1 <1>  -0.9590 
 18 C       10.5370     3.3670    -0.1450 C.3   1 <1>   0.3430 
 19 C       10.9040     1.0210    -0.8140 C.3   1 <1>   0.3430 
 20 C       12.0290     3.4170     0.2620 C.3   1 <1>   0.1200 
 21 C       12.3690     1.1660    -0.3410 C.3   1 <1>   0.1200 
 22 O       12.4870     2.1500     0.6520 O.3   1 <1>  -0.5600 
 23 H        2.1150    -0.8060     1.4770 H     1 <1>   0.1500 
 24 H        2.6250     3.8210    -0.1440 H     1 <1>   0.1500 
 25 H        4.2310     0.4180     1.8360 H     1 <1>   0.1500 
 26 H        1.0060     4.1710    -1.7810 H     1 <1>   0.0800 
 27 H        0.3890     4.6550    -0.1960 H     1 <1>   0.0800 
 28 H       -1.3040     3.6760    -2.5230 H     1 <1>   0.0800 
 29 H       -1.1830     5.3390    -2.0040 H     1 <1>   0.0800 
 30 H       -1.9160     4.1560    -0.9490 H     1 <1>   0.0800 
 31 H        5.9730     2.7070    -0.8230 H     1 <1>   0.4200 
 32 H        7.7860     2.3230     1.4260 H     1 <1>   0.0800 
 33 H        7.7530     3.6640     0.2980 H     1 <1>   0.0800 
 34 H        8.4480     2.1550    -1.5170 H     1 <1>   0.0800 
 35 H        8.2850     0.7780    -0.4540 H     1 <1>   0.0800 
 36 H       10.0950     1.6880     0.9150 H     1 <1>   0.4500 
 37 H        9.9790     4.0140     0.5120 H     1 <1>   0.0800 
 38 H       10.4370     3.7560    -1.1450 H     1 <1>   0.0800 
 39 H       10.8590     1.2160    -1.8730 H     1 <1>   0.0800 
 40 H       10.5870     0.0020    -0.6590 H     1 <1>   0.0800 
 41 H       12.1640     4.0860     1.0950 H     1 <1>   0.0800 
 42 H       12.6370     3.7690    -0.5530 H     1 <1>   0.0800 
 43 H       13.0140     1.4270    -1.1630 H     1 <1>   0.0800 
 44 H       12.7190     0.2380     0.0770 H     1 <1>   0.0800 
@<TRIPOS>BOND
  1   1   2  1   
  2   2   3  ar  
  3   2   4  ar  
  4   3   5  1   
  5   3   6  ar  
  6   4   7  ar  
  7   4  23  1   
  8   5   8  1   
  9   6   9  ar  
 10   6  24  1   
 11   7   9  ar  
 12   7  25  1   
 13   8  10  1   
 14   8  26  1   
 15   8  27  1   
 16   9  11  1   
 17  10  28  1   
 18  10  29  1   
 19  10  30  1   
 20  11  12  2   
 21  11  13  2   
 22  11  14  am  
 23  14  15  1   
 24  14  31  1   
 25  15  16  1   
 26  15  32  1   
 27  15  33  1   
 28  16  17  1   
 29  16  34  1   
 30  16  35  1   
 31  17  18  1   
 32  17  19  1   
 33  17  36  1   
 34  18  20  1   
 35  18  37  1   
 36  18  38  1   
 37  19  21  1   
 38  19  39  1   
 39  19  40  1   
 40  20  22  1   
 41  20  41  1   
 42  20  42  1   
 43  21  22  1   
 44  21  43  1   
 45  21  44  1   
@<TRIPOS>SUBSTRUCTURE
  1 ****  14 GROUP 4 **** **** 0

# MOE 2024.06 (io_trps.svl 2023.06)
