@<TRIPOS>MOLECULE
NONAME
35 36 1 0 0 
SMALL
USER_CHARGES


@<TRIPOS>ATOM
  1 O        0.4080    -1.2220     1.2040 O.2   1 <1>  -0.5700 
  2 C        0.2990    -1.6750     0.0920 C.2   1 <1>   0.6300 
  3 N        1.1790    -1.4500    -0.9150 N.am  1 <1>  -0.7300 
  4 C       -0.8920    -2.5670    -0.2190 C.3   1 <1>  -0.1000 
  5 C        2.5020    -0.7850    -0.8870 C.3   1 <1>   0.3640 
  6 C       -1.0840    -3.8630     0.5130 C.3   1 <1>  -0.2000 
  7 C       -0.7280    -3.8770    -0.9400 C.3   1 <1>  -0.2000 
  8 C        3.5680    -1.8110    -0.5170 C.ar  1 <1>  -0.1440 
  9 C        2.5730     0.4760    -0.0070 C.3   1 <1>  -0.1600 
 10 C        3.5710    -2.4290     0.7250 C.ar  1 <1>  -0.1500 
 11 C        4.5590    -2.1440    -1.4310 C.ar  1 <1>  -0.1500 
 12 C        1.5710     1.5680    -0.4140 C.3   1 <1>  -0.2400 
 13 C        4.5410    -3.3620     1.0470 C.ar  1 <1>  -0.1500 
 14 C        5.5300    -3.0760    -1.1080 C.ar  1 <1>  -0.1500 
 15 C        5.5250    -3.6920     0.1320 C.ar  1 <1>  -0.1430 
 16 C        6.5900    -4.7140     0.4880 C.3   1 <1>  -0.0970 
 17 H        1.0310    -1.9880    -1.7650 H     1 <1>   0.3700 
 18 H       -1.7740    -1.9860    -0.4140 H     1 <1>   0.1000 
 19 H        2.7000    -0.4580    -1.8930 H     1 <1>   0.0800 
 20 H       -2.0800    -4.1380     0.8140 H     1 <1>   0.1000 
 21 H       -0.3410    -4.1490     1.2390 H     1 <1>   0.1000 
 22 H        0.2570    -4.2210    -1.2070 H     1 <1>   0.1000 
 23 H       -1.4780    -4.1750    -1.6520 H     1 <1>   0.1000 
 24 H        3.5670     0.8790    -0.0900 H     1 <1>   0.0800 
 25 H        2.4330     0.2170     1.0270 H     1 <1>   0.0800 
 26 H        2.8130    -2.1860     1.4500 H     1 <1>   0.1500 
 27 H        4.5840    -1.6800    -2.4000 H     1 <1>   0.1500 
 28 H        0.5620     1.2200    -0.2830 H     1 <1>   0.0800 
 29 H        1.7120     1.8480    -1.4430 H     1 <1>   0.0800 
 30 H        1.7090     2.4380     0.2020 H     1 <1>   0.0800 
 31 H        4.5230    -3.8270     2.0170 H     1 <1>   0.1500 
 32 H        6.2910    -3.3200    -1.8280 H     1 <1>   0.1500 
 33 H        6.1910    -5.4510     1.1610 H     1 <1>   0.0800 
 34 H        7.4200    -4.2220     0.9610 H     1 <1>   0.0800 
 35 H        6.9400    -5.2160    -0.3960 H     1 <1>   0.0800 
@<TRIPOS>BOND
  1   1   2  2   
  2   2   3  am  
  3   2   4  1   
  4   3   5  1   
  5   3  17  1   
  6   4   6  1   
  7   4   7  1   
  8   4  18  1   
  9   5   8  1   
 10   5   9  1   
 11   5  19  1   
 12   6   7  1   
 13   6  20  1   
 14   6  21  1   
 15   7  22  1   
 16   7  23  1   
 17   8  10  ar  
 18   8  11  ar  
 19   9  12  1   
 20   9  24  1   
 21   9  25  1   
 22  10  13  ar  
 23  10  26  1   
 24  11  14  ar  
 25  11  27  1   
 26  12  28  1   
 27  12  29  1   
 28  12  30  1   
 29  13  15  ar  
 30  13  31  1   
 31  14  15  ar  
 32  14  32  1   
 33  15  16  1   
 34  16  33  1   
 35  16  34  1   
 36  16  35  1   
@<TRIPOS>SUBSTRUCTURE
  1 ****   8 GROUP 4 **** **** 0

# MOE 2024.06 (io_trps.svl 2023.06)
