@<TRIPOS>MOLECULE
NONAME
40 40 1 0 0 
SMALL
USER_CHARGES


@<TRIPOS>ATOM
  1 O        0.3960    -0.1740    -1.0720 O.3   1 <1>  -0.6800 
  2 C        1.4090     0.7570    -0.9270 C.3   1 <1>   0.1200 
  3 C        2.6260     0.0280    -0.3380 C.3   1 <1>   0.3430 
  4 N        3.8290     0.9140    -0.1830 N.4   1 <1>  -0.9590 
  5 C        5.0230     0.0810     0.1350 C.3   1 <1>   0.3430 
  6 C        3.6090     1.9790     0.8380 C.3   1 <1>   0.3430 
  7 C        6.3030     0.8830    -0.1000 C.3   1 <1>  -0.1600 
  8 C        3.5990     3.3410     0.1450 C.3   1 <1>  -0.1600 
  9 C        7.5500     0.0210     0.1270 C.3   1 <1>  -0.0170 
 10 C        3.3670     4.4690     1.1560 C.3   1 <1>  -0.2400 
 11 C        8.7910     0.8590    -0.1190 C.ar  1 <1>  -0.1430 
 12 C        9.3890     1.5480     0.9250 C.ar  1 <1>  -0.1500 
 13 C        9.3320     0.9510    -1.3920 C.ar  1 <1>  -0.1500 
 14 C       10.5130     2.3240     0.6980 C.ar  1 <1>  -0.1500 
 15 C       10.4550     1.7260    -1.6210 C.ar  1 <1>  -0.1500 
 16 C       11.0460     2.4140    -0.5760 C.ar  1 <1>  -0.1500 
 17 H       -0.4150     0.2240    -1.4550 H     1 <1>   0.4000 
 18 H        1.0540     1.5310    -0.2690 H     1 <1>   0.0800 
 19 H        1.6310     1.1600    -1.9000 H     1 <1>   0.0800 
 20 H        2.8690    -0.7900    -0.9960 H     1 <1>   0.0800 
 21 H        2.3530    -0.3830     0.6200 H     1 <1>   0.0800 
 22 H        4.0100     1.3720    -1.0870 H     1 <1>   0.4500 
 23 H        5.0390    -0.7880    -0.5040 H     1 <1>   0.0800 
 24 H        4.9800    -0.2560     1.1590 H     1 <1>   0.0800 
 25 H        4.3960     1.9620     1.5740 H     1 <1>   0.0800 
 26 H        2.6720     1.8240     1.3500 H     1 <1>   0.0800 
 27 H        6.3500     1.7230     0.5690 H     1 <1>   0.0800 
 28 H        6.3220     1.2480    -1.1120 H     1 <1>   0.0800 
 29 H        2.8170     3.3780    -0.5930 H     1 <1>   0.0800 
 30 H        4.5440     3.5090    -0.3430 H     1 <1>   0.0800 
 31 H        7.5520    -0.8230    -0.5420 H     1 <1>   0.0800 
 32 H        7.5680    -0.3570     1.1350 H     1 <1>   0.0800 
 33 H        2.4190     4.3530     1.6520 H     1 <1>   0.0800 
 34 H        3.3670     5.4210     0.6520 H     1 <1>   0.0800 
 35 H        4.1470     4.4850     1.8980 H     1 <1>   0.0800 
 36 H        8.9890     1.4880     1.9220 H     1 <1>   0.1500 
 37 H        8.8860     0.4210    -2.2150 H     1 <1>   0.1500 
 38 H       10.9740     2.8560     1.5110 H     1 <1>   0.1500 
 39 H       10.8720     1.7940    -2.6100 H     1 <1>   0.1500 
 40 H       11.9190     3.0170    -0.7530 H     1 <1>   0.1500 
@<TRIPOS>BOND
  1   1   2  1   
  2   1  17  1   
  3   2   3  1   
  4   2  18  1   
  5   2  19  1   
  6   3   4  1   
  7   3  20  1   
  8   3  21  1   
  9   4   5  1   
 10   4   6  1   
 11   4  22  1   
 12   5   7  1   
 13   5  23  1   
 14   5  24  1   
 15   6   8  1   
 16   6  25  1   
 17   6  26  1   
 18   7   9  1   
 19   7  27  1   
 20   7  28  1   
 21   8  10  1   
 22   8  29  1   
 23   8  30  1   
 24   9  11  1   
 25   9  31  1   
 26   9  32  1   
 27  10  33  1   
 28  10  34  1   
 29  10  35  1   
 30  11  12  ar  
 31  11  13  ar  
 32  12  14  ar  
 33  12  36  1   
 34  13  15  ar  
 35  13  37  1   
 36  14  16  ar  
 37  14  38  1   
 38  15  16  ar  
 39  15  39  1   
 40  16  40  1   
@<TRIPOS>SUBSTRUCTURE
  1 ****   7 GROUP 4 **** **** 0

# MOE 2024.06 (io_trps.svl 2023.06)
