@<TRIPOS>MOLECULE
NONAME
46 47 1 0 0 
SMALL
USER_CHARGES


@<TRIPOS>ATOM
  1 S       -0.0240    -0.1980     0.5990 S.o2  1 <1>   1.4470 
  2 O       -0.2260    -0.6170     1.9680 O.2   1 <1>  -0.6500 
  3 O       -0.0130    -1.1780    -0.4630 O.2   1 <1>  -0.6500 
  4 N       -1.3470     0.8140     0.2620 N.am  1 <1>  -0.8490 
  5 C        1.4010     0.9140     0.4520 C.ar  1 <1>  -0.0090 
  6 C       -2.5610     0.0050     0.0100 C.3   1 <1>   0.1960 
  7 C       -1.6020     1.7940     1.3410 C.3   1 <1>   0.1960 
  8 C        2.0870     1.3610     1.5770 C.ar  1 <1>  -0.1500 
  9 C        1.8260     1.3710    -0.7910 C.ar  1 <1>  -0.1500 
 10 C       -3.8400     0.8610    -0.1750 C.3   1 <1>   0.3430 
 11 C       -2.7670     2.7580     0.9980 C.3   1 <1>   0.3430 
 12 C        3.1500     2.2380     1.4640 C.ar  1 <1>  -0.1500 
 13 C        2.8900     2.2480    -0.9140 C.ar  1 <1>  -0.1500 
 14 N       -3.5290     2.3310    -0.2320 N.4   1 <1>  -0.9590 
 15 C        3.5590     2.6910     0.2220 C.ar  1 <1>   0.0830 
 16 C       -4.7360     3.1550    -0.5180 C.3   1 <1>   0.3430 
 17 O        4.6060     3.5500     0.1990 O.3   1 <1>  -0.3630 
 18 C       -4.3340     4.5780    -0.9100 C.3   1 <1>  -0.1600 
 19 C        5.1500     4.0180    -1.0130 C.3   1 <1>   0.1200 
 20 C       -5.5610     5.4020    -1.3160 C.3   1 <1>  -0.2400 
 21 C        6.3250     4.9330    -0.6810 C.3   1 <1>  -0.2400 
 22 H       -2.7190    -0.6870     0.8220 H     1 <1>   0.0800 
 23 H       -2.4150    -0.5840    -0.8810 H     1 <1>   0.0800 
 24 H       -0.7150     2.3770     1.5240 H     1 <1>   0.0800 
 25 H       -1.8390     1.2780     2.2570 H     1 <1>   0.0800 
 26 H        1.7920     1.0170     2.5550 H     1 <1>   0.1500 
 27 H        1.3170     1.0310    -1.6780 H     1 <1>   0.1500 
 28 H       -4.5110     0.6630     0.6450 H     1 <1>   0.0800 
 29 H       -4.3360     0.5520    -1.0810 H     1 <1>   0.0800 
 30 H       -2.3600     3.7440     0.8440 H     1 <1>   0.0800 
 31 H       -3.4320     2.8130     1.8440 H     1 <1>   0.0800 
 32 H        3.6760     2.5770     2.3400 H     1 <1>   0.1500 
 33 H        3.1840     2.5720    -1.8950 H     1 <1>   0.1500 
 34 H       -2.8610     2.4290    -1.0120 H     1 <1>   0.4500 
 35 H       -5.3810     3.1820     0.3460 H     1 <1>   0.0800 
 36 H       -5.2860     2.7160    -1.3340 H     1 <1>   0.0800 
 37 H       -3.6520     4.5480    -1.7430 H     1 <1>   0.0800 
 38 H       -3.8530     5.0750    -0.0860 H     1 <1>   0.0800 
 39 H        4.3860     4.5590    -1.5440 H     1 <1>   0.0800 
 40 H        5.4800     3.1710    -1.5900 H     1 <1>   0.0800 
 41 H       -6.0600     4.9580    -2.1620 H     1 <1>   0.0800 
 42 H       -5.2610     6.3990    -1.5920 H     1 <1>   0.0800 
 43 H       -6.2620     5.4770    -0.5020 H     1 <1>   0.0800 
 44 H        5.9890     5.7680    -0.0920 H     1 <1>   0.0800 
 45 H        6.7640     5.3080    -1.5880 H     1 <1>   0.0800 
 46 H        7.0760     4.3880    -0.1370 H     1 <1>   0.0800 
@<TRIPOS>BOND
  1   1   2  2   
  2   1   3  2   
  3   1   4  am  
  4   1   5  1   
  5   4   6  1   
  6   4   7  1   
  7   5   8  ar  
  8   5   9  ar  
  9   6  10  1   
 10   6  22  1   
 11   6  23  1   
 12   7  11  1   
 13   7  24  1   
 14   7  25  1   
 15   8  12  ar  
 16   8  26  1   
 17   9  13  ar  
 18   9  27  1   
 19  10  14  1   
 20  10  28  1   
 21  10  29  1   
 22  11  14  1   
 23  11  30  1   
 24  11  31  1   
 25  12  15  ar  
 26  12  32  1   
 27  13  15  ar  
 28  13  33  1   
 29  14  16  1   
 30  14  34  1   
 31  15  17  1   
 32  16  18  1   
 33  16  35  1   
 34  16  36  1   
 35  17  19  1   
 36  18  20  1   
 37  18  37  1   
 38  18  38  1   
 39  19  21  1   
 40  19  39  1   
 41  19  40  1   
 42  20  41  1   
 43  20  42  1   
 44  20  43  1   
 45  21  44  1   
 46  21  45  1   
 47  21  46  1   
@<TRIPOS>SUBSTRUCTURE
  1 ****   5 GROUP 4 **** **** 0

# MOE 2024.06 (io_trps.svl 2023.06)
