@<TRIPOS>MOLECULE
NONAME
47 49 1 0 0 
SMALL
USER_CHARGES


@<TRIPOS>ATOM
  1 O        1.5400    -0.3210    -2.0210 O.2   1 <1>  -0.5700 
  2 C        0.9540     0.3860    -1.2370 C.2   1 <1>   0.5690 
  3 N        1.1710     0.3800     0.1040 N.am  1 <1>  -0.7300 
  4 C       -0.0890     1.3760    -1.7690 C.3   1 <1>   0.1710 
  5 C        2.1690    -0.3190     0.9340 C.3   1 <1>   0.3640 
  6 N       -1.0600     1.8580    -0.7400 N.3   1 <1>  -0.8100 
  7 C        3.4140     0.5500     1.0790 C.ar  1 <1>  -0.1440 
  8 C        2.4990    -1.7200     0.4180 C.3   1 <1>  -0.2400 
  9 C       -2.0530     0.8050    -0.4160 C.3   1 <1>   0.1100 
 10 C       -1.7730     3.0640    -1.2120 C.3   1 <1>   0.1100 
 11 C        3.8190     0.9840     2.3340 C.ar  1 <1>  -0.1500 
 12 C        4.1590     0.9220    -0.0330 C.ar  1 <1>  -0.1500 
 13 C       -3.0570     1.2590     0.6600 C.3   1 <1>   0.2090 
 14 C       -2.7660     3.6020    -0.1630 C.3   1 <1>   0.2090 
 15 C        4.9470     1.7750     2.4750 C.ar  1 <1>  -0.1500 
 16 C        5.2860     1.7120     0.1060 C.ar  1 <1>  -0.1500 
 17 N       -3.7270     2.5420     0.2770 N.pl3 1 <1>  -0.8380 
 18 C        5.6810     2.1400     1.3610 C.ar  1 <1>  -0.1500 
 19 C       -5.0480     2.8090     0.5730 C.ar  1 <1>   0.7200 
 20 N       -5.5180     4.0110     0.2360 N.ar  1 <1>  -0.6200 
 21 N       -5.7460     1.8450     1.1740 N.ar  1 <1>  -0.6200 
 22 C       -6.7730     4.2520     0.5240 C.ar  1 <1>   0.1600 
 23 C       -6.9980     2.1130     1.4500 C.ar  1 <1>   0.1600 
 24 C       -7.5710     3.3210     1.1410 C.ar  1 <1>  -0.1500 
 25 H        0.6300     1.0910     0.6050 H     1 <1>   0.3700 
 26 H       -0.6160     0.9180    -2.5870 H     1 <1>   0.0800 
 27 H        0.4570     2.2160    -2.1590 H     1 <1>   0.0800 
 28 H        1.7290    -0.4430     1.9090 H     1 <1>   0.0800 
 29 H        3.0400    -1.6730    -0.5080 H     1 <1>   0.0800 
 30 H        1.5970    -2.2850     0.2770 H     1 <1>   0.0800 
 31 H        3.1170    -2.2270     1.1350 H     1 <1>   0.0800 
 32 H       -1.5480    -0.0760    -0.0610 H     1 <1>   0.0800 
 33 H       -2.6030     0.5360    -1.3020 H     1 <1>   0.0800 
 34 H       -2.3160     2.8410    -2.1150 H     1 <1>   0.0800 
 35 H       -1.0590     3.8380    -1.4330 H     1 <1>   0.0800 
 36 H        3.2600     0.7100     3.2110 H     1 <1>   0.1500 
 37 H        3.8590     0.5950    -1.0140 H     1 <1>   0.1500 
 38 H       -2.5400     1.3990     1.5920 H     1 <1>   0.0800 
 39 H       -3.7790     0.4740     0.7970 H     1 <1>   0.0800 
 40 H       -3.2840     4.4420    -0.5900 H     1 <1>   0.0800 
 41 H       -2.2180     3.9540     0.6930 H     1 <1>   0.0800 
 42 H        5.2540     2.1060     3.4520 H     1 <1>   0.1500 
 43 H        5.8550     1.9930    -0.7630 H     1 <1>   0.1500 
 44 H        6.5580     2.7540     1.4700 H     1 <1>   0.1500 
 45 H       -7.1750     5.2150     0.2610 H     1 <1>   0.1500 
 46 H       -7.5820     1.3490     1.9350 H     1 <1>   0.1500 
 47 H       -8.5980     3.5300     1.3720 H     1 <1>   0.1500 
@<TRIPOS>BOND
  1   1   2  2   
  2   2   3  am  
  3   2   4  1   
  4   3   5  1   
  5   3  25  1   
  6   4   6  1   
  7   4  26  1   
  8   4  27  1   
  9   5   7  1   
 10   5   8  1   
 11   5  28  1   
 12   6   9  1   
 13   6  10  1   
 14   7  11  ar  
 15   7  12  ar  
 16   8  29  1   
 17   8  30  1   
 18   8  31  1   
 19   9  13  1   
 20   9  32  1   
 21   9  33  1   
 22  10  14  1   
 23  10  34  1   
 24  10  35  1   
 25  11  15  ar  
 26  11  36  1   
 27  12  16  ar  
 28  12  37  1   
 29  13  17  1   
 30  13  38  1   
 31  13  39  1   
 32  14  17  1   
 33  14  40  1   
 34  14  41  1   
 35  15  18  ar  
 36  15  42  1   
 37  16  18  ar  
 38  16  43  1   
 39  17  19  1   
 40  18  44  1   
 41  19  20  ar  
 42  19  21  ar  
 43  20  22  ar  
 44  21  23  ar  
 45  22  24  ar  
 46  22  45  1   
 47  23  24  ar  
 48  23  46  1   
 49  24  47  1   
@<TRIPOS>SUBSTRUCTURE
  1 ****   6 GROUP 4 **** **** 0

# MOE 2024.06 (io_trps.svl 2023.06)
