@<TRIPOS>MOLECULE
NONAME
36 37 1 0 0 
SMALL
USER_CHARGES


@<TRIPOS>ATOM
  1 CL       3.7300    -1.2090     2.0730 Cl    1 <1>  -0.1770 
  2 C        2.5800    -1.9020     0.9540 C.ar  1 <1>   0.1770 
  3 C        2.4710    -1.3890    -0.3370 C.ar  1 <1>   0.0860 
  4 C        1.8110    -2.9660     1.3880 C.ar  1 <1>  -0.1500 
  5 C        3.2790    -0.2770    -0.7810 C.2   1 <1>   0.5440 
  6 C        1.5430    -1.9880    -1.1880 C.ar  1 <1>  -0.1500 
  7 C        0.9030    -3.5490     0.5220 C.ar  1 <1>  -0.1500 
  8 O        2.7880     0.8320    -0.8180 O.2   1 <1>  -0.5700 
  9 N        4.6010    -0.4230    -1.1600 N.am  1 <1>  -0.6600 
 10 C        0.7710    -3.0570    -0.7660 C.ar  1 <1>  -0.1500 
 11 C        5.4180     0.7560    -1.5790 C.3   1 <1>   0.1400 
 12 C        5.4130    -1.6550    -0.9340 C.3   1 <1>   0.1400 
 13 C        6.4880     1.0470    -0.5140 C.3   1 <1>   0.3430 
 14 C        6.5260    -1.3790     0.1000 C.3   1 <1>   0.3430 
 15 N        7.3500    -0.1600    -0.2390 N.4   1 <1>  -0.9590 
 16 C        8.3480     0.1370     0.8100 C.3   1 <1>   0.4810 
 17 C        9.4290    -0.9140     0.7060 C.2   1 <1>  -0.2880 
 18 C       10.6390    -0.7230     0.1700 C.2   1 <1>  -0.3000 
 19 H        1.9200    -3.3340     2.3930 H     1 <1>   0.1500 
 20 H        1.4260    -1.6040    -2.1870 H     1 <1>   0.1500 
 21 H        0.2980    -4.3780     0.8480 H     1 <1>   0.1500 
 22 H        0.0590    -3.5050    -1.4400 H     1 <1>   0.1500 
 23 H        4.8010     1.6300    -1.7070 H     1 <1>   0.0800 
 24 H        5.8830     0.5520    -2.5280 H     1 <1>   0.0800 
 25 H        5.8530    -1.9650    -1.8660 H     1 <1>   0.0800 
 26 H        4.7960    -2.4650    -0.5850 H     1 <1>   0.0800 
 27 H        5.9850     1.3510     0.3900 H     1 <1>   0.0800 
 28 H        7.1000     1.8690    -0.8460 H     1 <1>   0.0800 
 29 H        7.1630    -2.2450     0.1660 H     1 <1>   0.0800 
 30 H        6.0640    -1.2390     1.0640 H     1 <1>   0.0800 
 31 H        7.8910    -0.3720    -1.0870 H     1 <1>   0.4500 
 32 H        7.8990     0.1360     1.7910 H     1 <1>   0.0800 
 33 H        8.7860     1.1070     0.6320 H     1 <1>   0.0800 
 34 H        9.1370    -1.8630     1.1230 H     1 <1>   0.1500 
 35 H       11.3970    -1.4890     0.1140 H     1 <1>   0.1500 
 36 H       10.9930     0.2030    -0.2540 H     1 <1>   0.1500 
@<TRIPOS>BOND
  1   1   2  1   
  2   2   3  ar  
  3   2   4  ar  
  4   3   5  1   
  5   3   6  ar  
  6   4   7  ar  
  7   4  19  1   
  8   5   8  2   
  9   5   9  am  
 10   6  10  ar  
 11   6  20  1   
 12   7  10  ar  
 13   7  21  1   
 14   9  11  1   
 15   9  12  1   
 16  10  22  1   
 17  11  13  1   
 18  11  23  1   
 19  11  24  1   
 20  12  14  1   
 21  12  25  1   
 22  12  26  1   
 23  13  15  1   
 24  13  27  1   
 25  13  28  1   
 26  14  15  1   
 27  14  29  1   
 28  14  30  1   
 29  15  16  1   
 30  15  31  1   
 31  16  17  1   
 32  16  32  1   
 33  16  33  1   
 34  17  18  2   
 35  17  34  1   
 36  18  35  1   
 37  18  36  1   
@<TRIPOS>SUBSTRUCTURE
  1 ****   9 GROUP 4 **** **** 0

# MOE 2024.06 (io_trps.svl 2023.06)
