@<TRIPOS>MOLECULE
NONAME
34 36 1 0 0 
SMALL
USER_CHARGES


@<TRIPOS>ATOM
  1 O        1.2200    -1.1150    -1.3860 O.co2 1 <1>  -0.9000 
  2 C        1.1260    -2.3240    -1.1240 C.2   1 <1>   0.9060 
  3 O        1.8350    -3.1450    -1.7300 O.co2 1 <1>  -0.9000 
  4 C        0.1610    -2.8050     0.0090 C.3   1 <1>   0.1740 
  5 O        0.6860    -2.4830     1.3110 O.3   1 <1>  -0.4300 
  6 C       -0.1490    -4.3380    -0.0310 C.3   1 <1>  -0.0800 
  7 C       -1.2110    -2.0700    -0.0870 C.3   1 <1>  -0.0800 
  8 C        1.8350    -2.8390     1.8740 C.2   1 <1>   0.6590 
  9 C       -1.0710    -4.7450     1.1450 C.3   1 <1>  -0.1600 
 10 C       -0.8750    -4.7140    -1.3450 C.3   1 <1>  -0.1600 
 11 C       -2.1410    -2.4680     1.0860 C.3   1 <1>  -0.1600 
 12 C       -1.9270    -2.4370    -1.4070 C.3   1 <1>  -0.1600 
 13 O        1.9120    -2.8960     3.0730 O.2   1 <1>  -0.5700 
 14 C        3.0630    -3.1460     1.0470 C.3   1 <1>  -0.1790 
 15 C       -2.4090    -3.9850     1.0570 C.3   1 <1>  -0.0800 
 16 C       -2.2060    -3.9510    -1.4560 C.3   1 <1>  -0.0800 
 17 C       -3.1070    -4.3410    -0.2690 C.3   1 <1>  -0.1600 
 18 H        0.7720    -4.8910     0.0160 H     1 <1>   0.0800 
 19 H       -1.0370    -1.0080    -0.0680 H     1 <1>   0.0800 
 20 H       -0.5940    -4.5310     2.0860 H     1 <1>   0.0800 
 21 H       -1.2520    -5.8040     1.1130 H     1 <1>   0.0800 
 22 H       -1.0580    -5.7740    -1.3670 H     1 <1>   0.0800 
 23 H       -0.2550    -4.4840    -2.1930 H     1 <1>   0.0800 
 24 H       -3.0700    -1.9320     1.0080 H     1 <1>   0.0800 
 25 H       -1.6930    -2.1950     2.0250 H     1 <1>   0.0800 
 26 H       -2.8500    -1.8920    -1.4820 H     1 <1>   0.0800 
 27 H       -1.3170    -2.1490    -2.2470 H     1 <1>   0.0800 
 28 H        2.8990    -4.0120     0.4370 H     1 <1>   0.0800 
 29 H        3.8960    -3.3360     1.6960 H     1 <1>   0.0800 
 30 H        3.3020    -2.3040     0.4240 H     1 <1>   0.0800 
 31 H       -3.0390    -4.2580     1.8860 H     1 <1>   0.0800 
 32 H       -2.6920    -4.2010    -2.3830 H     1 <1>   0.0800 
 33 H       -4.0450    -3.8200    -0.3390 H     1 <1>   0.0800 
 34 H       -3.3130    -5.3960    -0.3010 H     1 <1>   0.0800 
@<TRIPOS>BOND
  1   1   2  ar  
  2   2   3  ar  
  3   2   4  1   
  4   4   5  1   
  5   4   6  1   
  6   4   7  1   
  7   5   8  1   
  8   6   9  1   
  9   6  10  1   
 10   6  18  1   
 11   7  11  1   
 12   7  12  1   
 13   7  19  1   
 14   8  13  2   
 15   8  14  1   
 16   9  15  1   
 17   9  20  1   
 18   9  21  1   
 19  10  16  1   
 20  10  22  1   
 21  10  23  1   
 22  11  15  1   
 23  11  24  1   
 24  11  25  1   
 25  12  16  1   
 26  12  26  1   
 27  12  27  1   
 28  14  28  1   
 29  14  29  1   
 30  14  30  1   
 31  15  17  1   
 32  15  31  1   
 33  16  17  1   
 34  16  32  1   
 35  17  33  1   
 36  17  34  1   
@<TRIPOS>SUBSTRUCTURE
  1 ****   4 GROUP 4 **** **** 0

# MOE 2024.06 (io_trps.svl 2023.06)
