@<TRIPOS>MOLECULE
NONAME
51 53 1 0 0 
SMALL
USER_CHARGES


@<TRIPOS>ATOM
  1 S        0.2160     1.2070    -1.6670 S.o2  1 <1>   1.4470 
  2 O       -0.2570     2.1000    -2.7030 O.2   1 <1>  -0.6500 
  3 O        0.2330    -0.2150    -1.9360 O.2   1 <1>  -0.6500 
  4 N       -0.8000     1.4240    -0.3280 N.am  1 <1>  -0.8490 
  5 C        1.8430     1.7510    -1.0460 C.ar  1 <1>  -0.0090 
  6 C       -0.5140     0.4740     0.7610 C.3   1 <1>   0.1960 
  7 C       -2.2150     1.3070    -0.7100 C.3   1 <1>   0.1960 
  8 C        2.1640     3.0870    -0.7910 C.ar  1 <1>  -0.1440 
  9 C        2.8120     0.7920    -0.7780 C.ar  1 <1>  -0.1500 
 10 C       -1.4710     0.6910     1.9470 C.3   1 <1>   0.1200 
 11 C       -3.1370     1.4960     0.5090 C.3   1 <1>   0.1200 
 12 C        3.4160     3.4190    -0.2970 C.ar  1 <1>  -0.1500 
 13 C        1.1680     4.2140    -1.0360 C.3   1 <1>  -0.0960 
 14 C        4.0750     1.0990    -0.2780 C.ar  1 <1>   0.0860 
 15 O       -2.8030     0.5950     1.5280 O.3   1 <1>  -0.5600 
 16 C        4.3560     2.4410    -0.0430 C.ar  1 <1>  -0.1500 
 17 C        5.0410     0.0500    -0.0080 C.2   1 <1>   0.5440 
 18 O        4.6760    -1.0340     0.4000 O.2   1 <1>  -0.5700 
 19 N        6.3700     0.2610    -0.2130 N.am  1 <1>  -0.7300 
 20 C        7.4360    -0.6740     0.1550 C.3   1 <1>   0.3640 
 21 C        8.6620     0.1450     0.5450 C.ar  1 <1>  -0.1440 
 22 C        7.7070    -1.6070    -1.0220 C.3   1 <1>  -0.2400 
 23 C        9.1000     0.1330     1.8620 C.ar  1 <1>  -0.1500 
 24 C        9.3500     0.9160    -0.3840 C.ar  1 <1>  -0.1500 
 25 C       10.2060     0.8720     2.2440 C.ar  1 <1>  -0.1500 
 26 C       10.4560     1.6560    -0.0040 C.ar  1 <1>  -0.1500 
 27 C       10.8860     1.6350     1.3110 C.ar  1 <1>  -0.1500 
 28 H        0.4980     0.6040     1.1020 H     1 <1>   0.0800 
 29 H       -0.6220    -0.5410     0.4130 H     1 <1>   0.0800 
 30 H       -2.4010     0.3410    -1.1490 H     1 <1>   0.0800 
 31 H       -2.4550     2.0570    -1.4450 H     1 <1>   0.0800 
 32 H        2.5880    -0.2470    -0.9600 H     1 <1>   0.1500 
 33 H       -1.3160     1.6620     2.3840 H     1 <1>   0.0800 
 34 H       -1.3080    -0.0590     2.6990 H     1 <1>   0.0800 
 35 H       -4.1600     1.3150     0.2330 H     1 <1>   0.0800 
 36 H       -3.0520     2.4970     0.8940 H     1 <1>   0.0800 
 37 H        3.6660     4.4480    -0.1030 H     1 <1>   0.1500 
 38 H        1.0000     4.3370    -2.0920 H     1 <1>   0.0800 
 39 H        1.5320     5.1480    -0.6460 H     1 <1>   0.0800 
 40 H        0.2290     4.0020    -0.5580 H     1 <1>   0.0800 
 41 H        5.3160     2.7230     0.3530 H     1 <1>   0.1500 
 42 H        6.7110     1.1630    -0.5400 H     1 <1>   0.3700 
 43 H        7.1130    -1.2640     0.9970 H     1 <1>   0.0800 
 44 H        7.9520    -1.0560    -1.9100 H     1 <1>   0.0800 
 45 H        6.8370    -2.2110    -1.2100 H     1 <1>   0.0800 
 46 H        8.5270    -2.2590    -0.7820 H     1 <1>   0.0800 
 47 H        8.5800    -0.4530     2.6000 H     1 <1>   0.1500 
 48 H        9.0330     0.9450    -1.4110 H     1 <1>   0.1500 
 49 H       10.5380     0.8540     3.2670 H     1 <1>   0.1500 
 50 H       10.9840     2.2480    -0.7310 H     1 <1>   0.1500 
 51 H       11.7460     2.2090     1.6070 H     1 <1>   0.1500 
@<TRIPOS>BOND
  1   1   2  2   
  2   1   3  2   
  3   1   4  am  
  4   1   5  1   
  5   4   6  1   
  6   4   7  1   
  7   5   8  ar  
  8   5   9  ar  
  9   6  10  1   
 10   6  28  1   
 11   6  29  1   
 12   7  11  1   
 13   7  30  1   
 14   7  31  1   
 15   8  12  ar  
 16   8  13  1   
 17   9  14  ar  
 18   9  32  1   
 19  10  15  1   
 20  10  33  1   
 21  10  34  1   
 22  11  15  1   
 23  11  35  1   
 24  11  36  1   
 25  12  16  ar  
 26  12  37  1   
 27  13  38  1   
 28  13  39  1   
 29  13  40  1   
 30  14  16  ar  
 31  14  17  1   
 32  16  41  1   
 33  17  18  2   
 34  17  19  am  
 35  19  20  1   
 36  19  42  1   
 37  20  21  1   
 38  20  22  1   
 39  20  43  1   
 40  21  23  ar  
 41  21  24  ar  
 42  22  44  1   
 43  22  45  1   
 44  22  46  1   
 45  23  25  ar  
 46  23  47  1   
 47  24  26  ar  
 48  24  48  1   
 49  25  27  ar  
 50  25  49  1   
 51  26  27  ar  
 52  26  50  1   
 53  27  51  1   
@<TRIPOS>SUBSTRUCTURE
  1 ****  14 GROUP 4 **** **** 0

# MOE 2024.06 (io_trps.svl 2023.06)
