@<TRIPOS>MOLECULE
NONAME
38 40 1 0 0 
SMALL
USER_CHARGES


@<TRIPOS>ATOM
  1 O        0.0290    -0.3370     0.7840 O.2   1 <1>  -0.5700 
  2 C        0.0960    -1.4450     0.3070 C.2   1 <1>   0.4950 
  3 C        1.3200    -2.0240    -0.1630 C.2   1 <1>   0.0290 
  4 C       -1.2220    -2.1970     0.2210 C.3   1 <1>  -0.0990 
  5 C        1.2730    -3.3410    -0.7370 C.2   1 <1>   0.4950 
  6 C        2.4920    -1.3080    -0.0520 C.2   1 <1>  -0.0500 
  7 C       -1.0480    -3.7210     0.2530 C.3   1 <1>   0.0000 
  8 O        2.2380    -3.9190    -1.1870 O.2   1 <1>  -0.5700 
  9 C       -0.0350    -4.1100    -0.8330 C.3   1 <1>  -0.0990 
 10 N        3.7290    -1.7250    -0.4440 N.pl3 1 <1>  -0.6000 
 11 C       -2.3960    -4.3990    -0.0350 C.3   1 <1>  -0.2400 
 12 C       -0.5600    -4.1820     1.6390 C.3   1 <1>  -0.2400 
 13 C        4.9710    -1.0770    -0.3640 C.ar  1 <1>   0.1000 
 14 C        5.1560     0.0870     0.3830 C.ar  1 <1>  -0.1500 
 15 C        6.0550    -1.6260    -1.0540 C.ar  1 <1>  -0.1500 
 16 C        6.4110     0.6590     0.4090 C.ar  1 <1>   0.0830 
 17 C        7.3120    -1.0380    -1.0170 C.ar  1 <1>  -0.1500 
 18 O        6.8050     1.7630     1.0530 O.3   1 <1>  -0.3620 
 19 C        7.4600     0.1140    -0.2710 C.ar  1 <1>   0.0830 
 20 C        8.1910     1.9320     0.7640 C.3   1 <1>   0.4000 
 21 O        8.5630     0.8500    -0.0870 O.3   1 <1>  -0.3630 
 22 H       -1.8520    -1.8880     1.0370 H     1 <1>   0.0800 
 23 H       -1.7090    -1.8980    -0.6900 H     1 <1>   0.0800 
 24 H        2.4460    -0.3220     0.3820 H     1 <1>   0.1500 
 25 H       -0.4500    -3.9260    -1.8080 H     1 <1>   0.0800 
 26 H        0.1750    -5.1630    -0.7680 H     1 <1>   0.0800 
 27 H        3.7580    -2.6630    -0.8810 H     1 <1>   0.4000 
 28 H       -2.7780    -4.1060    -0.9970 H     1 <1>   0.0800 
 29 H       -3.1230    -4.1280     0.7120 H     1 <1>   0.0800 
 30 H       -2.2910    -5.4700    -0.0270 H     1 <1>   0.0800 
 31 H       -1.2750    -3.9120     2.3980 H     1 <1>   0.0800 
 32 H        0.3850    -3.7420     1.9040 H     1 <1>   0.0800 
 33 H       -0.4430    -5.2520     1.6600 H     1 <1>   0.0800 
 34 H        4.3560     0.5400     0.9350 H     1 <1>   0.1500 
 35 H        5.9120    -2.5240    -1.6280 H     1 <1>   0.1500 
 36 H        8.1500    -1.4540    -1.5460 H     1 <1>   0.1500 
 37 H        8.3400     2.8640     0.2480 H     1 <1>   0.0800 
 38 H        8.7580     1.8850     1.6760 H     1 <1>   0.0800 
@<TRIPOS>BOND
  1   1   2  2   
  2   2   3  1   
  3   2   4  1   
  4   3   5  1   
  5   3   6  2   
  6   4   7  1   
  7   4  22  1   
  8   4  23  1   
  9   5   8  2   
 10   5   9  1   
 11   6  10  1   
 12   6  24  1   
 13   7   9  1   
 14   7  11  1   
 15   7  12  1   
 16   9  25  1   
 17   9  26  1   
 18  10  13  1   
 19  10  27  1   
 20  11  28  1   
 21  11  29  1   
 22  11  30  1   
 23  12  31  1   
 24  12  32  1   
 25  12  33  1   
 26  13  14  ar  
 27  13  15  ar  
 28  14  16  ar  
 29  14  34  1   
 30  15  17  ar  
 31  15  35  1   
 32  16  18  1   
 33  16  19  ar  
 34  17  19  ar  
 35  17  36  1   
 36  18  20  1   
 37  19  21  1   
 38  20  21  1   
 39  20  37  1   
 40  20  38  1   
@<TRIPOS>SUBSTRUCTURE
  1 ****   6 GROUP 4 **** **** 0

# MOE 2024.06 (io_trps.svl 2023.06)
