@<TRIPOS>MOLECULE
NONAME
50 51 1 0 0 
SMALL
USER_CHARGES


@<TRIPOS>ATOM
  1 O        1.0230    -0.6990     0.7090 O.3   1 <1>  -0.5600 
  2 C        0.1130    -1.4490     1.4510 C.3   1 <1>   0.1200 
  3 C        2.2040    -1.3710     0.4100 C.3   1 <1>   0.1200 
  4 C       -1.1000    -0.5710     1.7590 C.3   1 <1>   0.1200 
  5 C        3.1190    -0.4010    -0.3430 C.3   1 <1>   0.1100 
  6 O       -2.0600    -1.3280     2.4180 O.3   1 <1>  -0.6800 
  7 N        4.4110    -1.0260    -0.7040 N.3   1 <1>  -0.8100 
  8 C        4.2870    -1.9490    -1.8610 C.3   1 <1>   0.1100 
  9 C        5.4250     0.0200    -0.9950 C.3   1 <1>   0.1100 
 10 C        5.6370    -2.6090    -2.2370 C.3   1 <1>   0.3430 
 11 C        6.7850    -0.5660    -1.4450 C.3   1 <1>   0.3430 
 12 N        6.7570    -2.0650    -1.4050 N.4   1 <1>  -0.9590 
 13 C        8.0750    -2.7080    -1.6410 C.3   1 <1>   0.4860 
 14 C        9.0740    -2.1500    -0.6450 C.ar  1 <1>  -0.1430 
 15 C        9.0400    -2.4870     0.7060 C.ar  1 <1>  -0.1430 
 16 C       10.0380    -1.2640    -1.1060 C.ar  1 <1>  -0.1500 
 17 C        9.9600    -1.9120     1.5700 C.ar  1 <1>  -0.1500 
 18 C        8.0310    -3.4710     1.2880 C.3   1 <1>  -0.0970 
 19 C       10.9500    -0.7010    -0.2340 C.ar  1 <1>  -0.1500 
 20 C       10.9120    -1.0190     1.1100 C.ar  1 <1>  -0.1430 
 21 C       11.9120    -0.4040     2.0730 C.3   1 <1>  -0.0970 
 22 H        0.5840    -1.7590     2.3680 H     1 <1>   0.0800 
 23 H       -0.1790    -2.3040     0.8670 H     1 <1>   0.0800 
 24 H        1.9610    -2.2250    -0.1950 H     1 <1>   0.0800 
 25 H        2.6700    -1.6780     1.3300 H     1 <1>   0.0800 
 26 H       -1.5350    -0.1830     0.8550 H     1 <1>   0.0800 
 27 H       -0.8160     0.2400     2.4070 H     1 <1>   0.0800 
 28 H        3.2990     0.4380     0.3080 H     1 <1>   0.0800 
 29 H        2.6180    -0.0430    -1.2270 H     1 <1>   0.0800 
 30 H       -2.4750    -1.9680     1.8090 H     1 <1>   0.4000 
 31 H        3.9090    -1.4110    -2.7160 H     1 <1>   0.0800 
 32 H        3.5790    -2.7270    -1.6340 H     1 <1>   0.0800 
 33 H        5.5850     0.6120    -0.1090 H     1 <1>   0.0800 
 34 H        5.0590     0.6840    -1.7610 H     1 <1>   0.0800 
 35 H        5.8350    -2.4390    -3.2820 H     1 <1>   0.0800 
 36 H        5.5560    -3.6730    -2.0870 H     1 <1>   0.0800 
 37 H        7.5550    -0.1920    -0.7890 H     1 <1>   0.0800 
 38 H        7.0100    -0.2260    -2.4420 H     1 <1>   0.0800 
 39 H        6.4820    -2.2550    -0.4310 H     1 <1>   0.4500 
 40 H        8.4110    -2.5080    -2.6440 H     1 <1>   0.0800 
 41 H        7.9980    -3.7750    -1.5120 H     1 <1>   0.0800 
 42 H       10.0950    -0.9990    -2.1480 H     1 <1>   0.1500 
 43 H        9.9430    -2.1620     2.6170 H     1 <1>   0.1500 
 44 H        7.8910    -4.3150     0.6370 H     1 <1>   0.0800 
 45 H        7.0880    -2.9830     1.4560 H     1 <1>   0.0800 
 46 H        8.3810    -3.8500     2.2330 H     1 <1>   0.0800 
 47 H       11.6940    -0.0170    -0.6040 H     1 <1>   0.1500 
 48 H       11.4720    -0.2810     3.0460 H     1 <1>   0.0800 
 49 H       12.2300     0.5610     1.7220 H     1 <1>   0.0800 
 50 H       12.7730    -1.0420     2.1600 H     1 <1>   0.0800 
@<TRIPOS>BOND
  1   1   2  1   
  2   1   3  1   
  3   2   4  1   
  4   2  22  1   
  5   2  23  1   
  6   3   5  1   
  7   3  24  1   
  8   3  25  1   
  9   4   6  1   
 10   4  26  1   
 11   4  27  1   
 12   5   7  1   
 13   5  28  1   
 14   5  29  1   
 15   6  30  1   
 16   7   8  1   
 17   7   9  1   
 18   8  10  1   
 19   8  31  1   
 20   8  32  1   
 21   9  11  1   
 22   9  33  1   
 23   9  34  1   
 24  10  12  1   
 25  10  35  1   
 26  10  36  1   
 27  11  12  1   
 28  11  37  1   
 29  11  38  1   
 30  12  13  1   
 31  12  39  1   
 32  13  14  1   
 33  13  40  1   
 34  13  41  1   
 35  14  15  ar  
 36  14  16  ar  
 37  15  17  ar  
 38  15  18  1   
 39  16  19  ar  
 40  16  42  1   
 41  17  20  ar  
 42  17  43  1   
 43  18  44  1   
 44  18  45  1   
 45  18  46  1   
 46  19  20  ar  
 47  19  47  1   
 48  20  21  1   
 49  21  48  1   
 50  21  49  1   
 51  21  50  1   
@<TRIPOS>SUBSTRUCTURE
  1 ****   7 GROUP 4 **** **** 0

# MOE 2024.06 (io_trps.svl 2023.06)
