@<TRIPOS>MOLECULE
NONAME
39 40 1 0 0 
SMALL
USER_CHARGES


@<TRIPOS>ATOM
  1 O       -0.4420    -0.2240     0.3080 O.2   1 <1>  -0.5700 
  2 C       -0.2020    -1.4090     0.4560 C.2   1 <1>   0.6900 
  3 N       -1.2170    -2.2840     0.7520 N.am  1 <1>  -0.6600 
  4 N        1.0650    -1.8980     0.3430 N.am  1 <1>  -0.5470 
  5 C       -2.5600    -1.7800     1.1570 C.3   1 <1>   0.1400 
  6 C       -1.2170    -3.7170     0.3460 C.3   1 <1>   0.1400 
  7 C        2.3060    -1.3480    -0.0240 C.ar  1 <1>   0.1170 
  8 C       -3.5290    -1.9110    -0.0210 C.3   1 <1>  -0.0190 
  9 C       -2.1820    -3.9080    -0.8310 C.3   1 <1>  -0.1600 
 10 C        3.4500    -2.1370     0.1470 C.ar  1 <1>   0.0820 
 11 C        2.4470    -0.0700    -0.5530 C.ar  1 <1>  -0.1500 
 12 C       -4.8960    -1.3880     0.3900 C.2   1 <1>   0.5690 
 13 C       -3.5890    -3.3720    -0.5150 C.3   1 <1>  -0.1600 
 14 O        3.2720    -3.3930     0.6620 O.3   1 <1>  -0.3630 
 15 C        4.7010    -1.6370    -0.2030 C.ar  1 <1>  -0.1500 
 16 C        3.6930     0.4220    -0.9000 C.ar  1 <1>  -0.1500 
 17 O       -5.5300    -1.9490     1.2460 O.2   1 <1>  -0.5700 
 18 N       -5.3950    -0.2880    -0.2020 N.am  1 <1>  -0.8000 
 19 C        4.3720    -4.2330     0.9330 C.3   1 <1>   0.0400 
 20 C        4.8200    -0.3600    -0.7250 C.ar  1 <1>  -0.1500 
 21 H        1.1580    -2.8470     0.6930 H     1 <1>   0.3700 
 22 H       -2.4980    -0.7510     1.4700 H     1 <1>   0.0800 
 23 H       -2.9180    -2.3570     1.9930 H     1 <1>   0.0800 
 24 H       -1.5350    -4.3170     1.1820 H     1 <1>   0.0800 
 25 H       -0.2330    -4.0400     0.0550 H     1 <1>   0.0800 
 26 H       -3.1570    -1.2920    -0.8180 H     1 <1>   0.0800 
 27 H       -2.2410    -4.9530    -1.0770 H     1 <1>   0.0800 
 28 H       -1.7840    -3.3930    -1.6890 H     1 <1>   0.0800 
 29 H        1.5850     0.5520    -0.7010 H     1 <1>   0.1500 
 30 H       -4.2100    -3.4340    -1.3920 H     1 <1>   0.0800 
 31 H       -4.0370    -3.9860     0.2500 H     1 <1>   0.0800 
 32 H        5.5940    -2.2190    -0.0820 H     1 <1>   0.1500 
 33 H        3.7820     1.4150    -1.3060 H     1 <1>   0.1500 
 34 H       -6.3090     0.0630     0.0890 H     1 <1>   0.3700 
 35 H       -4.8970     0.2590    -0.9030 H     1 <1>   0.3700 
 36 H        3.9990    -5.1490     1.3560 H     1 <1>   0.0800 
 37 H        5.0200    -3.7440     1.6390 H     1 <1>   0.0800 
 38 H        4.8890    -4.4410     0.0130 H     1 <1>   0.0800 
 39 H        5.7880     0.0260    -0.9950 H     1 <1>   0.1500 
@<TRIPOS>BOND
  1   1   2  2   
  2   2   3  am  
  3   2   4  am  
  4   3   5  1   
  5   3   6  1   
  6   4   7  1   
  7   4  21  1   
  8   5   8  1   
  9   5  22  1   
 10   5  23  1   
 11   6   9  1   
 12   6  24  1   
 13   6  25  1   
 14   7  10  ar  
 15   7  11  ar  
 16   8  12  1   
 17   8  13  1   
 18   8  26  1   
 19   9  13  1   
 20   9  27  1   
 21   9  28  1   
 22  10  14  1   
 23  10  15  ar  
 24  11  16  ar  
 25  11  29  1   
 26  12  17  2   
 27  12  18  am  
 28  13  30  1   
 29  13  31  1   
 30  14  19  1   
 31  15  20  ar  
 32  15  32  1   
 33  16  20  ar  
 34  16  33  1   
 35  18  34  1   
 36  18  35  1   
 37  19  36  1   
 38  19  37  1   
 39  19  38  1   
 40  20  39  1   
@<TRIPOS>SUBSTRUCTURE
  1 ****   2 GROUP 4 **** **** 0

# MOE 2024.06 (io_trps.svl 2023.06)
