@<TRIPOS>MOLECULE
NONAME
29 29 1 0 0 
SMALL
USER_CHARGES


@<TRIPOS>ATOM
  1 S        0.1810     0.0620     1.1990 S.o2  1 <1>   1.2040 
  2 O        1.2210     0.0650     2.2120 O.2   1 <1>  -0.6500 
  3 O       -1.0940    -0.5170     1.5900 O.2   1 <1>  -0.6500 
  4 C       -0.1400     1.7880     0.7480 C.ar  1 <1>  -0.0090 
  5 C        0.7820    -0.6350    -0.4320 C.3   1 <1>   1.1250 
  6 C        0.9050     2.6860     0.5780 C.ar  1 <1>  -0.1500 
  7 C       -1.4340     2.2520     0.5420 C.ar  1 <1>  -0.1500 
  8 F        1.9020    -0.0750    -0.8880 F     1 <1>  -0.3400 
  9 F       -0.0910    -0.4900    -1.4320 F     1 <1>  -0.3400 
 10 F        1.0470    -1.9430    -0.4080 F     1 <1>  -0.3400 
 11 C        0.6910     4.0050     0.1960 C.ar  1 <1>   0.1170 
 12 C       -1.6780     3.5650     0.1800 C.ar  1 <1>  -0.1500 
 13 N        1.7410     4.9190     0.0000 N.am  1 <1>  -0.5470 
 14 C       -0.6200     4.4490     0.0070 C.ar  1 <1>   0.0830 
 15 C        3.0770     4.7460    -0.2140 C.2   1 <1>   0.5690 
 16 O       -0.7950     5.7580    -0.3430 O.3   1 <1>  -0.3630 
 17 O        3.6180     3.6710    -0.2670 O.2   1 <1>  -0.5700 
 18 C        3.9110     5.9860    -0.4100 C.3   1 <1>  -0.1790 
 19 C       -2.0810     6.2950    -0.5670 C.3   1 <1>   0.0400 
 20 H        1.9110     2.3480     0.7560 H     1 <1>   0.1500 
 21 H       -2.2690     1.5820     0.6720 H     1 <1>   0.1500 
 22 H       -2.6970     3.8740     0.0400 H     1 <1>   0.1500 
 23 H        1.3990     5.8770    -0.0950 H     1 <1>   0.3700 
 24 H        4.9450     5.7130    -0.5180 H     1 <1>   0.0800 
 25 H        3.8100     6.6330     0.4410 H     1 <1>   0.0800 
 26 H        3.5940     6.5020    -1.2970 H     1 <1>   0.0800 
 27 H       -1.9710     7.3310    -0.8320 H     1 <1>   0.0800 
 28 H       -2.6590     6.2110     0.3370 H     1 <1>   0.0800 
 29 H       -2.5490     5.7610    -1.3750 H     1 <1>   0.0800 
@<TRIPOS>BOND
  1   1   2  2   
  2   1   3  2   
  3   1   4  1   
  4   1   5  1   
  5   4   6  ar  
  6   4   7  ar  
  7   5   8  1   
  8   5   9  1   
  9   5  10  1   
 10   6  11  ar  
 11   6  20  1   
 12   7  12  ar  
 13   7  21  1   
 14  11  13  1   
 15  11  14  ar  
 16  12  14  ar  
 17  12  22  1   
 18  13  15  am  
 19  13  23  1   
 20  14  16  1   
 21  15  17  2   
 22  15  18  1   
 23  16  19  1   
 24  18  24  1   
 25  18  25  1   
 26  18  26  1   
 27  19  27  1   
 28  19  28  1   
 29  19  29  1   
@<TRIPOS>SUBSTRUCTURE
  1 ****   6 GROUP 4 **** **** 0

# MOE 2024.06 (io_trps.svl 2023.06)
