@<TRIPOS>MOLECULE
NONAME
35 36 1 0 0 
SMALL
USER_CHARGES


@<TRIPOS>ATOM
  1 O       -0.5060     0.0230    -1.3000 O.2   1 <1>  -0.5700 
  2 C       -1.2200    -0.4110    -0.4140 C.2   1 <1>   0.6900 
  3 N       -2.3630     0.2460    -0.0580 N.am  1 <1>  -0.6600 
  4 N       -0.8950    -1.5640     0.2170 N.am  1 <1>  -0.7300 
  5 C       -2.8940     1.3260    -0.9350 C.3   1 <1>   0.2780 
  6 C       -3.0330     0.1180     1.2670 C.3   1 <1>   0.1400 
  7 C        0.2700    -2.4030    -0.0940 C.3   1 <1>   0.2200 
  8 C       -4.4120     1.4060    -0.8300 C.2   1 <1>  -0.2880 
  9 C       -4.5250    -0.1980     1.0880 C.3   1 <1>  -0.0220 
 10 C       -0.1980    -3.6300    -0.8830 C.3   1 <1>  -0.1600 
 11 C        0.9510    -2.8110     1.2170 C.3   1 <1>  -0.1600 
 12 C       -5.1490     0.7250     0.0540 C.2   1 <1>  -0.2880 
 13 C        0.9640    -4.6000    -1.1440 C.3   1 <1>  -0.1600 
 14 C        2.1160    -3.7790     0.9600 C.3   1 <1>  -0.1600 
 15 C        1.6510    -5.0080     0.1670 C.3   1 <1>  -0.1600 
 16 H       -1.6240    -2.0090     0.7640 H     1 <1>   0.3700 
 17 H       -2.6220     1.1210    -1.9570 H     1 <1>   0.0800 
 18 H       -2.4530     2.2650    -0.6490 H     1 <1>   0.0800 
 19 H       -2.9350     1.0570     1.7840 H     1 <1>   0.0800 
 20 H       -2.5650    -0.6390     1.8710 H     1 <1>   0.0800 
 21 H        0.9710    -1.8440    -0.6940 H     1 <1>   0.0800 
 22 H       -4.8410     2.0710    -1.5590 H     1 <1>   0.1500 
 23 H       -5.0200    -0.0700     2.0330 H     1 <1>   0.0800 
 24 H       -4.6480    -1.2200     0.7790 H     1 <1>   0.0800 
 25 H       -0.6090    -3.3080    -1.8240 H     1 <1>   0.0800 
 26 H       -0.9650    -4.1440    -0.3320 H     1 <1>   0.0800 
 27 H        0.2350    -3.2890     1.8610 H     1 <1>   0.0800 
 28 H        1.3230    -1.9300     1.7100 H     1 <1>   0.0800 
 29 H       -6.2240     0.7710     0.0980 H     1 <1>   0.1500 
 30 H        1.6840    -4.1250    -1.7900 H     1 <1>   0.0800 
 31 H        0.5970    -5.4770    -1.6480 H     1 <1>   0.0800 
 32 H        2.5390    -4.0920     1.8990 H     1 <1>   0.0800 
 33 H        2.8860    -3.2690     0.4050 H     1 <1>   0.0800 
 34 H        2.4980    -5.6370    -0.0510 H     1 <1>   0.0800 
 35 H        0.9630    -5.5800     0.7670 H     1 <1>   0.0800 
@<TRIPOS>BOND
  1   1   2  2   
  2   2   3  am  
  3   2   4  am  
  4   3   5  1   
  5   3   6  1   
  6   4   7  1   
  7   4  16  1   
  8   5   8  1   
  9   5  17  1   
 10   5  18  1   
 11   6   9  1   
 12   6  19  1   
 13   6  20  1   
 14   7  10  1   
 15   7  11  1   
 16   7  21  1   
 17   8  12  2   
 18   8  22  1   
 19   9  12  1   
 20   9  23  1   
 21   9  24  1   
 22  10  13  1   
 23  10  25  1   
 24  10  26  1   
 25  11  14  1   
 26  11  27  1   
 27  11  28  1   
 28  12  29  1   
 29  13  15  1   
 30  13  30  1   
 31  13  31  1   
 32  14  15  1   
 33  14  32  1   
 34  14  33  1   
 35  15  34  1   
 36  15  35  1   
@<TRIPOS>SUBSTRUCTURE
  1 ****   4 GROUP 4 **** **** 0

# MOE 2024.06 (io_trps.svl 2023.06)
