@<TRIPOS>MOLECULE
NONAME
31 31 1 0 0 
SMALL
USER_CHARGES


@<TRIPOS>ATOM
  1 CL      -0.4690    -0.4800     0.5440 Cl    1 <1>  -0.1770 
  2 C       -1.7480     0.6690     0.2100 C.ar  1 <1>   0.1770 
  3 C       -1.4600     2.0240     0.0880 C.ar  1 <1>   0.0830 
  4 C       -3.0340     0.1870     0.0740 C.ar  1 <1>  -0.1500 
  5 O       -0.1660     2.4300     0.2360 O.3   1 <1>  -0.3630 
  6 C       -2.5100     2.8990    -0.1810 C.ar  1 <1>  -0.1500 
  7 C       -4.0830     1.0570    -0.1910 C.ar  1 <1>   0.1170 
  8 C        0.1830     3.7950     0.1750 C.3   1 <1>   0.0400 
  9 C       -3.8000     2.4140    -0.3190 C.ar  1 <1>  -0.1500 
 10 N       -5.3780     0.5340    -0.3380 N.am  1 <1>  -0.5470 
 11 C       -6.5950     1.1130    -0.1360 C.2   1 <1>   0.6900 
 12 O       -6.7110     2.2270     0.3330 O.2   1 <1>  -0.5700 
 13 N       -7.6920     0.3910    -0.4730 N.am  1 <1>  -0.7300 
 14 C       -9.0850     0.8500    -0.2890 C.3   1 <1>   0.1400 
 15 C       -9.9480    -0.3350     0.1440 C.3   1 <1>  -0.1600 
 16 C      -11.4070     0.0870     0.3500 C.3   1 <1>  -0.2400 
 17 H       -3.2110    -0.8660     0.1800 H     1 <1>   0.1500 
 18 H       -2.3480     3.9550    -0.2870 H     1 <1>   0.1500 
 19 H        1.2420     3.8750     0.3390 H     1 <1>   0.0800 
 20 H       -0.3480     4.3260     0.9460 H     1 <1>   0.0800 
 21 H       -0.0660     4.1760    -0.8000 H     1 <1>   0.0800 
 22 H       -4.5960     3.1050    -0.5320 H     1 <1>   0.1500 
 23 H       -5.4270    -0.4640    -0.5050 H     1 <1>   0.3700 
 24 H       -7.5820    -0.4520    -1.0310 H     1 <1>   0.3700 
 25 H       -9.4490     1.2600    -1.2160 H     1 <1>   0.0800 
 26 H       -9.1200     1.6230     0.4620 H     1 <1>   0.0800 
 27 H       -9.5650    -0.7330     1.0680 H     1 <1>   0.0800 
 28 H       -9.9100    -1.1040    -0.6080 H     1 <1>   0.0800 
 29 H      -11.4750     0.8440     1.1120 H     1 <1>   0.0800 
 30 H      -11.9960    -0.7600     0.6580 H     1 <1>   0.0800 
 31 H      -11.8210     0.4770    -0.5640 H     1 <1>   0.0800 
@<TRIPOS>BOND
  1   1   2  1   
  2   2   3  ar  
  3   2   4  ar  
  4   3   5  1   
  5   3   6  ar  
  6   4   7  ar  
  7   4  17  1   
  8   5   8  1   
  9   6   9  ar  
 10   6  18  1   
 11   7   9  ar  
 12   7  10  1   
 13   8  19  1   
 14   8  20  1   
 15   8  21  1   
 16   9  22  1   
 17  10  11  am  
 18  10  23  1   
 19  11  12  2   
 20  11  13  am  
 21  13  14  1   
 22  13  24  1   
 23  14  15  1   
 24  14  25  1   
 25  14  26  1   
 26  15  16  1   
 27  15  27  1   
 28  15  28  1   
 29  16  29  1   
 30  16  30  1   
 31  16  31  1   
@<TRIPOS>SUBSTRUCTURE
  1 ****   7 GROUP 4 **** **** 0

# MOE 2024.06 (io_trps.svl 2023.06)
