@<TRIPOS>MOLECULE
NONAME
55 57 1 0 0 
SMALL
USER_CHARGES


@<TRIPOS>ATOM
  1 S        0.3350    -0.0710     1.1340 S.o2  1 <1>   1.4470 
  2 O        0.8640     0.1100     2.4700 O.2   1 <1>  -0.6500 
  3 O       -0.6040     0.8950     0.6070 O.2   1 <1>  -0.6500 
  4 N        1.6680    -0.0870     0.0850 N.am  1 <1>  -0.8490 
  5 C       -0.3510    -1.7400     0.9480 C.ar  1 <1>  -0.0090 
  6 C        2.7280    -0.9960     0.5540 C.3   1 <1>   0.1960 
  7 C        2.1990     1.2660    -0.1070 C.3   1 <1>   0.1960 
  8 C       -0.8330    -2.1760    -0.2800 C.ar  1 <1>  -0.1500 
  9 C       -0.3930    -2.6300     2.0140 C.ar  1 <1>  -0.1500 
 10 C        3.8370    -1.1140    -0.5000 C.3   1 <1>  -0.0190 
 11 C        3.3050     1.2560    -1.1690 C.3   1 <1>  -0.1600 
 12 C       -1.3390    -3.4540    -0.4530 C.ar  1 <1>  -0.1430 
 13 C       -0.8940    -3.9100     1.8620 C.ar  1 <1>  -0.1500 
 14 C        4.9130    -2.0840    -0.0370 C.2   1 <1>   0.5690 
 15 C        4.4280     0.2720    -0.8120 C.3   1 <1>  -0.1600 
 16 C       -1.3710    -4.3320     0.6250 C.ar  1 <1>   0.0830 
 17 C       -1.8560    -3.8830    -1.8190 C.3   1 <1>  -0.0960 
 18 O        5.2300    -2.1080     1.1270 O.2   1 <1>  -0.5700 
 19 N        5.5010    -2.8910    -0.9580 N.am  1 <1>  -0.7300 
 20 O       -1.8720    -5.5770     0.4130 O.3   1 <1>  -0.3630 
 21 C        6.5580    -3.8990    -0.6550 C.3   1 <1>   0.1400 
 22 C       -1.9730    -6.5260     1.4510 C.3   1 <1>   0.0400 
 23 C        7.9540    -3.3780    -1.0270 C.3   1 <1>   0.2000 
 24 O        8.8940    -4.3860    -0.8160 O.3   1 <1>  -0.5600 
 25 C        8.4290    -2.1930    -0.1950 C.3   1 <1>  -0.1600 
 26 C       10.0870    -3.8860    -0.2910 C.3   1 <1>   0.1200 
 27 C        9.9310    -2.3730    -0.2060 C.3   1 <1>  -0.1600 
 28 H        2.3190    -1.9760     0.7350 H     1 <1>   0.0800 
 29 H        3.1410    -0.6320     1.4820 H     1 <1>   0.0800 
 30 H        2.5840     1.6440     0.8270 H     1 <1>   0.0800 
 31 H        1.4110     1.9240    -0.4360 H     1 <1>   0.0800 
 32 H       -0.8070    -1.4910    -1.1110 H     1 <1>   0.1500 
 33 H       -0.0260    -2.3160     2.9780 H     1 <1>   0.1500 
 34 H        3.3900    -1.5130    -1.3930 H     1 <1>   0.0800 
 35 H        3.7110     2.2480    -1.2670 H     1 <1>   0.0800 
 36 H        2.8700     0.9860    -2.1150 H     1 <1>   0.0800 
 37 H       -0.9050    -4.5600     2.7160 H     1 <1>   0.1500 
 38 H        5.1300     0.2030    -1.6250 H     1 <1>   0.0800 
 39 H        4.9560     0.6340     0.0550 H     1 <1>   0.0800 
 40 H       -1.7630    -3.0920    -2.5390 H     1 <1>   0.0800 
 41 H       -2.8930    -4.1590    -1.7430 H     1 <1>   0.0800 
 42 H       -1.2990    -4.7340    -2.1670 H     1 <1>   0.0800 
 43 H        5.2240    -2.8270    -1.9380 H     1 <1>   0.3700 
 44 H        6.3550    -4.7970    -1.2120 H     1 <1>   0.0800 
 45 H        6.5390    -4.1380     0.3950 H     1 <1>   0.0800 
 46 H       -2.4070    -7.4210     1.0430 H     1 <1>   0.0800 
 47 H       -2.6070    -6.1310     2.2240 H     1 <1>   0.0800 
 48 H       -0.9880    -6.7370     1.8280 H     1 <1>   0.0800 
 49 H        7.9930    -3.1360    -2.0740 H     1 <1>   0.0800 
 50 H        8.0490    -2.2760     0.8100 H     1 <1>   0.0800 
 51 H        8.1150    -1.2540    -0.6140 H     1 <1>   0.0800 
 52 H       10.9020    -4.1770    -0.9300 H     1 <1>   0.0800 
 53 H       10.2160    -4.3160     0.6880 H     1 <1>   0.0800 
 54 H       10.4050    -1.9670     0.6710 H     1 <1>   0.0800 
 55 H       10.3590    -1.9210    -1.0840 H     1 <1>   0.0800 
@<TRIPOS>BOND
  1   1   2  2   
  2   1   3  2   
  3   1   4  am  
  4   1   5  1   
  5   4   6  1   
  6   4   7  1   
  7   5   8  ar  
  8   5   9  ar  
  9   6  10  1   
 10   6  28  1   
 11   6  29  1   
 12   7  11  1   
 13   7  30  1   
 14   7  31  1   
 15   8  12  ar  
 16   8  32  1   
 17   9  13  ar  
 18   9  33  1   
 19  10  14  1   
 20  10  15  1   
 21  10  34  1   
 22  11  15  1   
 23  11  35  1   
 24  11  36  1   
 25  12  16  ar  
 26  12  17  1   
 27  13  16  ar  
 28  13  37  1   
 29  14  18  2   
 30  14  19  am  
 31  15  38  1   
 32  15  39  1   
 33  16  20  1   
 34  17  40  1   
 35  17  41  1   
 36  17  42  1   
 37  19  21  1   
 38  19  43  1   
 39  20  22  1   
 40  21  23  1   
 41  21  44  1   
 42  21  45  1   
 43  22  46  1   
 44  22  47  1   
 45  22  48  1   
 46  23  24  1   
 47  23  25  1   
 48  23  49  1   
 49  24  26  1   
 50  25  27  1   
 51  25  50  1   
 52  25  51  1   
 53  26  27  1   
 54  26  52  1   
 55  26  53  1   
 56  27  54  1   
 57  27  55  1   
@<TRIPOS>SUBSTRUCTURE
  1 ****   6 GROUP 4 **** **** 0

# MOE 2024.06 (io_trps.svl 2023.06)
