@<TRIPOS>MOLECULE
NONAME
54 56 1 0 0 
SMALL
USER_CHARGES


@<TRIPOS>ATOM
  1 S        0.8610    -0.3130    -1.2140 S.o2  1 <1>   1.4470 
  2 O       -0.4510     0.0450    -1.7100 O.2   1 <1>  -0.6500 
  3 O        1.7810    -1.0340    -2.0670 O.2   1 <1>  -0.6500 
  4 N        0.6320    -1.2710     0.1640 N.am  1 <1>  -0.8490 
  5 C        1.7090     1.1480    -0.5520 C.ar  1 <1>  -0.0090 
  6 C       -0.4020    -0.8010     1.0720 C.3   1 <1>   0.1960 
  7 C        0.2650    -2.6380    -0.1600 C.3   1 <1>   0.1960 
  8 C        3.0810     1.1340    -0.3630 C.ar  1 <1>  -0.1500 
  9 C        1.0200     2.2990    -0.1980 C.ar  1 <1>  -0.1500 
 10 C       -0.6760    -1.9940     1.9770 C.3   1 <1>  -0.1600 
 11 C       -0.2710    -3.2130     1.1470 C.3   1 <1>  -0.1600 
 12 C        3.7880     2.2170     0.1570 C.ar  1 <1>   0.0860 
 13 C        1.6880     3.3910     0.3260 C.ar  1 <1>  -0.1500 
 14 C        3.0600     3.3600     0.5080 C.ar  1 <1>  -0.1430 
 15 C        5.2290     2.1020     0.2990 C.2   1 <1>   0.5440 
 16 C        3.7460     4.5890     1.0930 C.3   1 <1>  -0.0960 
 17 O        5.9890     2.9470    -0.1300 O.2   1 <1>  -0.5700 
 18 N        5.7730     0.9950     0.8910 N.am  1 <1>  -0.7300 
 19 C        7.2260     0.7160     1.0410 C.3   1 <1>   0.1400 
 20 C        7.9200     0.6420    -0.3370 C.3   1 <1>   0.3430 
 21 N        9.1370     1.5100    -0.4430 N.4   1 <1>  -0.9590 
 22 C        8.8220     2.9810    -0.3610 C.3   1 <1>   0.3430 
 23 C        9.9200     1.2430    -1.6950 C.3   1 <1>   0.3430 
 24 C       10.0980     3.8420    -0.4940 C.3   1 <1>   0.1200 
 25 C       11.1310     2.1970    -1.8250 C.3   1 <1>   0.1200 
 26 O       11.2330     3.0440    -0.7120 O.3   1 <1>  -0.5600 
 27 H       -1.2990    -0.5550     0.5260 H     1 <1>   0.0800 
 28 H       -0.0720     0.0590     1.6300 H     1 <1>   0.0800 
 29 H        1.1150    -3.1900    -0.5270 H     1 <1>   0.0800 
 30 H       -0.5130    -2.6410    -0.9070 H     1 <1>   0.0800 
 31 H        3.6190     0.2450    -0.6430 H     1 <1>   0.1500 
 32 H       -0.0480     2.3440    -0.3370 H     1 <1>   0.1500 
 33 H       -1.7110    -2.0270     2.2690 H     1 <1>   0.0800 
 34 H       -0.0640    -1.9260     2.8590 H     1 <1>   0.0800 
 35 H        0.5050    -3.7660     1.6470 H     1 <1>   0.0800 
 36 H       -1.1030    -3.8680     0.9580 H     1 <1>   0.0800 
 37 H        1.1250     4.2710     0.5890 H     1 <1>   0.1500 
 38 H        4.3910     4.3070     1.9060 H     1 <1>   0.0800 
 39 H        3.0270     5.2960     1.4660 H     1 <1>   0.0800 
 40 H        4.3360     5.0740     0.3350 H     1 <1>   0.0800 
 41 H        5.1360     0.3490     1.3710 H     1 <1>   0.3700 
 42 H        7.3470    -0.2250     1.5490 H     1 <1>   0.0800 
 43 H        7.6620     1.4880     1.6510 H     1 <1>   0.0800 
 44 H        7.2110     0.9390    -1.0930 H     1 <1>   0.0800 
 45 H        8.1950    -0.3830    -0.5230 H     1 <1>   0.0800 
 46 H        9.7890     1.3290     0.3340 H     1 <1>   0.4500 
 47 H        8.3360     3.2110     0.5730 H     1 <1>   0.0800 
 48 H        8.1330     3.2510    -1.1450 H     1 <1>   0.0800 
 49 H        9.2860     1.3690    -2.5580 H     1 <1>   0.0800 
 50 H       10.2730     0.2250    -1.6990 H     1 <1>   0.0800 
 51 H       10.2610     4.4030     0.4100 H     1 <1>   0.0800 
 52 H       10.0020     4.5390    -1.3080 H     1 <1>   0.0800 
 53 H       11.0460     2.8030    -2.7110 H     1 <1>   0.0800 
 54 H       12.0440     1.6310    -1.8920 H     1 <1>   0.0800 
@<TRIPOS>BOND
  1   1   2  2   
  2   1   3  2   
  3   1   4  am  
  4   1   5  1   
  5   4   6  1   
  6   4   7  1   
  7   5   8  ar  
  8   5   9  ar  
  9   6  10  1   
 10   6  27  1   
 11   6  28  1   
 12   7  11  1   
 13   7  29  1   
 14   7  30  1   
 15   8  12  ar  
 16   8  31  1   
 17   9  13  ar  
 18   9  32  1   
 19  10  11  1   
 20  10  33  1   
 21  10  34  1   
 22  11  35  1   
 23  11  36  1   
 24  12  14  ar  
 25  12  15  1   
 26  13  14  ar  
 27  13  37  1   
 28  14  16  1   
 29  15  17  2   
 30  15  18  am  
 31  16  38  1   
 32  16  39  1   
 33  16  40  1   
 34  18  19  1   
 35  18  41  1   
 36  19  20  1   
 37  19  42  1   
 38  19  43  1   
 39  20  21  1   
 40  20  44  1   
 41  20  45  1   
 42  21  22  1   
 43  21  23  1   
 44  21  46  1   
 45  22  24  1   
 46  22  47  1   
 47  22  48  1   
 48  23  25  1   
 49  23  49  1   
 50  23  50  1   
 51  24  26  1   
 52  24  51  1   
 53  24  52  1   
 54  25  26  1   
 55  25  53  1   
 56  25  54  1   
@<TRIPOS>SUBSTRUCTURE
  1 ****  12 GROUP 4 **** **** 0

# MOE 2024.06 (io_trps.svl 2023.06)
