@<TRIPOS>MOLECULE
NONAME
35 35 1 0 0 
SMALL
USER_CHARGES


@<TRIPOS>ATOM
  1 CL      -0.3660     0.2740    -0.1480 Cl    1 <1>  -0.1770 
  2 C        1.2550     0.9280    -0.0780 C.ar  1 <1>   0.1770 
  3 C        1.4540     2.2950     0.0570 C.ar  1 <1>  -0.1440 
  4 C        2.3190     0.0480    -0.1600 C.ar  1 <1>  -0.1500 
  5 C        2.7560     2.7690     0.1080 C.ar  1 <1>  -0.1500 
  6 C        0.2790     3.2580     0.1460 C.3   1 <1>  -0.0960 
  7 C        3.6140     0.5320    -0.1070 C.ar  1 <1>  -0.1500 
  8 C        3.8360     1.9010     0.0270 C.ar  1 <1>   0.0820 
  9 O        5.0690     2.4630     0.0870 O.3   1 <1>  -0.3630 
 10 C        6.2360     1.6850     0.0160 C.3   1 <1>   0.1200 
 11 C        7.4210     2.6460     0.1140 C.3   1 <1>  -0.1600 
 12 C        8.7450     1.8950     0.0460 C.3   1 <1>   0.3430 
 13 N        9.8570     2.8720     0.1460 N.4   1 <1>  -0.9060 
 14 C       11.1940     2.2060     0.0860 C.3   1 <1>   0.3430 
 15 C       12.3440     3.2170     0.1890 C.3   1 <1>   0.1200 
 16 O       13.5260     2.5060     0.1240 O.3   1 <1>  -0.6800 
 17 H        2.1270    -1.0050    -0.2630 H     1 <1>   0.1500 
 18 H        2.9470     3.8220     0.2120 H     1 <1>   0.1500 
 19 H       -0.3300     3.0150     0.9990 H     1 <1>   0.0800 
 20 H       -0.3230     3.1850    -0.7420 H     1 <1>   0.0800 
 21 H        0.6180     4.2730     0.2460 H     1 <1>   0.0800 
 22 H        4.4240    -0.1690    -0.1730 H     1 <1>   0.1500 
 23 H        6.2330     1.1600    -0.9250 H     1 <1>   0.0800 
 24 H        6.2260     0.9880     0.8370 H     1 <1>   0.0800 
 25 H        7.3500     3.1750     1.0490 H     1 <1>   0.0800 
 26 H        7.3570     3.3460    -0.7010 H     1 <1>   0.0800 
 27 H        8.8100     1.3550    -0.8870 H     1 <1>   0.0800 
 28 H        8.8030     1.1850     0.8570 H     1 <1>   0.0800 
 29 H        9.7680     3.3940     1.0270 H     1 <1>   0.4500 
 30 H        9.7740     3.5550    -0.6190 H     1 <1>   0.4500 
 31 H       11.2920     1.6710    -0.8450 H     1 <1>   0.0800 
 32 H       11.2860     1.5010     0.8960 H     1 <1>   0.0800 
 33 H       12.3220     3.7410     1.1300 H     1 <1>   0.0800 
 34 H       12.3290     3.9130    -0.6330 H     1 <1>   0.0800 
 35 H       14.3130     3.0910     0.1840 H     1 <1>   0.4000 
@<TRIPOS>BOND
  1   1   2  1   
  2   2   3  ar  
  3   2   4  ar  
  4   3   5  ar  
  5   3   6  1   
  6   4   7  ar  
  7   4  17  1   
  8   5   8  ar  
  9   5  18  1   
 10   6  19  1   
 11   6  20  1   
 12   6  21  1   
 13   7   8  ar  
 14   7  22  1   
 15   8   9  1   
 16   9  10  1   
 17  10  11  1   
 18  10  23  1   
 19  10  24  1   
 20  11  12  1   
 21  11  25  1   
 22  11  26  1   
 23  12  13  1   
 24  12  27  1   
 25  12  28  1   
 26  13  14  1   
 27  13  29  1   
 28  13  30  1   
 29  14  15  1   
 30  14  31  1   
 31  14  32  1   
 32  15  16  1   
 33  15  33  1   
 34  15  34  1   
 35  16  35  1   
@<TRIPOS>SUBSTRUCTURE
  1 ****  10 GROUP 4 **** **** 0

# MOE 2024.06 (io_trps.svl 2023.06)
