@<TRIPOS>MOLECULE
NONAME
47 49 1 0 0 
SMALL
USER_CHARGES


@<TRIPOS>ATOM
  1 S        0.1440    -0.4990     1.9330 S.o2  1 <1>   1.4470 
  2 O        0.4980    -1.8010     2.4560 O.2   1 <1>  -0.6500 
  3 O       -0.1710     0.5700     2.8580 O.2   1 <1>  -0.6500 
  4 N        1.4610     0.0450     1.0120 N.am  1 <1>  -0.8490 
  5 C       -1.1790    -0.6820     0.7050 C.ar  1 <1>  -0.0090 
  6 C        2.7180    -0.0930     1.7510 C.3   1 <1>   0.1960 
  7 C        1.2620     1.4150     0.5290 C.3   1 <1>   0.1960 
  8 C       -2.4400    -0.1350     0.9150 C.ar  1 <1>  -0.1500 
  9 C       -0.9640    -1.3770    -0.4790 C.ar  1 <1>  -0.1500 
 10 C        3.9060     0.2680     0.8550 C.3   1 <1>  -0.1600 
 11 C        2.3970     1.8130    -0.4160 C.3   1 <1>  -0.1600 
 12 C       -3.4470    -0.2700    -0.0250 C.ar  1 <1>  -0.1500 
 13 C       -1.9660    -1.5160    -1.4230 C.ar  1 <1>  -0.1500 
 14 C        3.7650     1.6850     0.2760 C.3   1 <1>  -0.0190 
 15 C       -3.2140    -0.9600    -1.2020 C.ar  1 <1>  -0.1440 
 16 C        4.9220     2.0200    -0.6650 C.2   1 <1>   0.5690 
 17 C       -4.3160    -1.1120    -2.2350 C.3   1 <1>  -0.0970 
 18 O        4.9840     1.4680    -1.7350 O.2   1 <1>  -0.5700 
 19 N        5.8410     2.9360    -0.2320 N.am  1 <1>  -0.5470 
 20 C        7.0080     3.4700    -0.8180 C.ar  1 <1>   0.1170 
 21 C        7.8020     4.3500    -0.0810 C.ar  1 <1>   0.1900 
 22 C        7.4370     3.1810    -2.1110 C.ar  1 <1>  -0.1500 
 23 F        7.4360     4.6540     1.1420 F     1 <1>  -0.1900 
 24 C        8.9590     4.9220    -0.5700 C.ar  1 <1>  -0.1500 
 25 C        8.5960     3.7440    -2.6230 C.ar  1 <1>  -0.1500 
 26 C        9.3590     4.6130    -1.8590 C.ar  1 <1>  -0.1500 
 27 H        2.8360    -1.1130     2.0810 H     1 <1>   0.0800 
 28 H        2.6990     0.5410     2.6240 H     1 <1>   0.0800 
 29 H        1.2220     2.0990     1.3620 H     1 <1>   0.0800 
 30 H        0.3280     1.4810    -0.0050 H     1 <1>   0.0800 
 31 H       -2.6370     0.4040     1.8270 H     1 <1>   0.1500 
 32 H        0.0030    -1.8140    -0.6620 H     1 <1>   0.1500 
 33 H        3.9630    -0.4490     0.0530 H     1 <1>   0.0800 
 34 H        4.8160     0.1940     1.4240 H     1 <1>   0.0800 
 35 H        2.2500     2.8260    -0.7470 H     1 <1>   0.0800 
 36 H        2.3630     1.1770    -1.2850 H     1 <1>   0.0800 
 37 H       -4.4130     0.1640     0.1660 H     1 <1>   0.1500 
 38 H       -1.7690    -2.0600    -2.3310 H     1 <1>   0.1500 
 39 H        3.7820     2.3810     1.0950 H     1 <1>   0.0800 
 40 H       -4.9950    -0.2790    -2.1880 H     1 <1>   0.0800 
 41 H       -4.8640    -2.0180    -2.0510 H     1 <1>   0.0800 
 42 H       -3.8990    -1.1530    -3.2260 H     1 <1>   0.0800 
 43 H        5.6770     3.3010     0.7070 H     1 <1>   0.3700 
 44 H        6.8720     2.5140    -2.7360 H     1 <1>   0.1500 
 45 H        9.5340     5.5940     0.0420 H     1 <1>   0.1500 
 46 H        8.9050     3.5030    -3.6260 H     1 <1>   0.1500 
 47 H       10.2570     5.0450    -2.2670 H     1 <1>   0.1500 
@<TRIPOS>BOND
  1   1   2  2   
  2   1   3  2   
  3   1   4  am  
  4   1   5  1   
  5   4   6  1   
  6   4   7  1   
  7   5   8  ar  
  8   5   9  ar  
  9   6  10  1   
 10   6  27  1   
 11   6  28  1   
 12   7  11  1   
 13   7  29  1   
 14   7  30  1   
 15   8  12  ar  
 16   8  31  1   
 17   9  13  ar  
 18   9  32  1   
 19  10  14  1   
 20  10  33  1   
 21  10  34  1   
 22  11  14  1   
 23  11  35  1   
 24  11  36  1   
 25  12  15  ar  
 26  12  37  1   
 27  13  15  ar  
 28  13  38  1   
 29  14  16  1   
 30  14  39  1   
 31  15  17  1   
 32  16  18  2   
 33  16  19  am  
 34  17  40  1   
 35  17  41  1   
 36  17  42  1   
 37  19  20  1   
 38  19  43  1   
 39  20  21  ar  
 40  20  22  ar  
 41  21  23  1   
 42  21  24  ar  
 43  22  25  ar  
 44  22  44  1   
 45  24  26  ar  
 46  24  45  1   
 47  25  26  ar  
 48  25  46  1   
 49  26  47  1   
@<TRIPOS>SUBSTRUCTURE
  1 ****  11 GROUP 4 **** **** 0

# MOE 2024.06 (io_trps.svl 2023.06)
