@<TRIPOS>MOLECULE
NONAME
43 44 1 0 0 
SMALL
USER_CHARGES


@<TRIPOS>ATOM
  1 S       -0.2660     0.2440    -0.4130 S.o2  1 <1>   1.3330 
  2 O        0.8440    -0.5350    -0.9100 O.2   1 <1>  -0.6500 
  3 O       -0.6560     1.4700    -1.0700 O.2   1 <1>  -0.6500 
  4 N       -1.6260    -0.7660    -0.3470 N.am  1 <1>  -0.8490 
  5 C        0.0770     0.6340     1.2920 C.3   1 <1>  -0.1350 
  6 C       -2.8370    -0.1140     0.1680 C.3   1 <1>   0.1960 
  7 C       -1.3780    -2.0850     0.2380 C.3   1 <1>   0.1960 
  8 C       -4.0730    -0.9830    -0.0940 C.3   1 <1>  -0.0190 
  9 C       -2.5740    -3.0080    -0.0210 C.3   1 <1>  -0.1600 
 10 C       -5.3050    -0.3040     0.4830 C.2   1 <1>   0.5690 
 11 C       -3.8850    -2.3950     0.4890 C.3   1 <1>  -0.1600 
 12 O       -5.2610     0.1350     1.6070 O.2   1 <1>  -0.5700 
 13 N       -6.4190    -0.2160    -0.2860 N.am  1 <1>  -0.7300 
 14 C       -7.6840     0.4150     0.1240 C.3   1 <1>   0.2200 
 15 C       -8.8010    -0.6320     0.0710 C.3   1 <1>  -0.1600 
 16 C       -7.9780     1.5900    -0.8140 C.3   1 <1>  -0.1600 
 17 C      -10.1660    -0.0030     0.3880 C.3   1 <1>  -0.1600 
 18 C       -9.3400     2.2240    -0.4980 C.3   1 <1>  -0.1600 
 19 C      -10.4640     1.1790    -0.5450 C.3   1 <1>  -0.1600 
 20 H        0.9380     1.2700     1.3490 H     1 <1>   0.0800 
 21 H        0.2780    -0.2590     1.8500 H     1 <1>   0.0800 
 22 H       -0.7520     1.1490     1.7350 H     1 <1>   0.0800 
 23 H       -2.9750     0.8370    -0.3200 H     1 <1>   0.0800 
 24 H       -2.7360     0.0620     1.2260 H     1 <1>   0.0800 
 25 H       -1.2100    -1.9940     1.2980 H     1 <1>   0.0800 
 26 H       -0.5000    -2.5230    -0.2100 H     1 <1>   0.0800 
 27 H       -4.1930    -1.0580    -1.1600 H     1 <1>   0.0800 
 28 H       -2.4040    -3.9540     0.4610 H     1 <1>   0.0800 
 29 H       -2.6440    -3.1890    -1.0800 H     1 <1>   0.0800 
 30 H       -4.7160    -3.0210     0.2110 H     1 <1>   0.0800 
 31 H       -3.8590    -2.3360     1.5650 H     1 <1>   0.0800 
 32 H       -6.4200    -0.5980    -1.2310 H     1 <1>   0.3700 
 33 H       -7.5970     0.7840     1.1340 H     1 <1>   0.0800 
 34 H       -8.5940    -1.4090     0.7860 H     1 <1>   0.0800 
 35 H       -8.8400    -1.0710    -0.9110 H     1 <1>   0.0800 
 36 H       -7.9800     1.2480    -1.8330 H     1 <1>   0.0800 
 37 H       -7.2070     2.3330    -0.7030 H     1 <1>   0.0800 
 38 H      -10.1700     0.3410     1.4090 H     1 <1>   0.0800 
 39 H      -10.9390    -0.7460     0.2880 H     1 <1>   0.0800 
 40 H       -9.5460     3.0090    -1.2050 H     1 <1>   0.0800 
 41 H       -9.3070     2.6660     0.4840 H     1 <1>   0.0800 
 42 H      -11.3950     1.6380    -0.2600 H     1 <1>   0.0800 
 43 H      -10.5720     0.8180    -1.5540 H     1 <1>   0.0800 
@<TRIPOS>BOND
  1   1   2  2   
  2   1   3  2   
  3   1   4  am  
  4   1   5  1   
  5   4   6  1   
  6   4   7  1   
  7   5  20  1   
  8   5  21  1   
  9   5  22  1   
 10   6   8  1   
 11   6  23  1   
 12   6  24  1   
 13   7   9  1   
 14   7  25  1   
 15   7  26  1   
 16   8  10  1   
 17   8  11  1   
 18   8  27  1   
 19   9  11  1   
 20   9  28  1   
 21   9  29  1   
 22  10  12  2   
 23  10  13  am  
 24  11  30  1   
 25  11  31  1   
 26  13  14  1   
 27  13  32  1   
 28  14  15  1   
 29  14  16  1   
 30  14  33  1   
 31  15  17  1   
 32  15  34  1   
 33  15  35  1   
 34  16  18  1   
 35  16  36  1   
 36  16  37  1   
 37  17  19  1   
 38  17  38  1   
 39  17  39  1   
 40  18  19  1   
 41  18  40  1   
 42  18  41  1   
 43  19  42  1   
 44  19  43  1   
@<TRIPOS>SUBSTRUCTURE
  1 ****  10 GROUP 4 **** **** 0

# MOE 2024.06 (io_trps.svl 2023.06)
