@<TRIPOS>MOLECULE
NONAME
60 62 1 0 0 
SMALL
USER_CHARGES


@<TRIPOS>ATOM
  1 O       -5.6100    -9.2970    -0.5580 O.3   1 <1>  -0.3630 
  2 C       -6.9500    -9.1240    -0.5360 C.ar  1 <1>   0.0820 
  3 C       -4.8830    -8.4260     0.2820 C.3   1 <1>   0.1200 
  4 C       -7.5470    -8.3670    -1.5400 C.ar  1 <1>  -0.1440 
  5 C       -7.7170    -9.6870     0.4820 C.ar  1 <1>  -0.1440 
  6 C       -3.4500    -8.2800    -0.2360 C.3   1 <1>   0.2000 
  7 C       -8.9130    -8.1430    -1.4950 C.ar  1 <1>  -0.1500 
  8 C       -6.7250    -7.7920    -2.6840 C.3   1 <1>  -0.0960 
  9 C       -9.0800    -9.4460     0.5060 C.ar  1 <1>  -0.1500 
 10 C       -7.1040   -10.5700     1.5600 C.3   1 <1>  -0.0960 
 11 O       -2.9140    -9.5470    -0.3850 O.3   1 <1>  -0.6800 
 12 C       -2.5160    -7.4760     0.6940 C.3   1 <1>   0.1100 
 13 C       -9.6820    -8.6730    -0.4720 C.ar  1 <1>  -0.1440 
 14 N       -2.9400    -6.0860     1.0210 N.3   1 <1>  -0.8100 
 15 C      -11.1790    -8.4250    -0.4290 C.3   1 <1>  -0.0970 
 16 C       -3.8150    -5.9460     2.2030 C.3   1 <1>   0.1100 
 17 C       -3.3360    -5.2550    -0.1340 C.3   1 <1>   0.1100 
 18 C       -3.9800    -4.4650     2.6030 C.3   1 <1>   0.3430 
 19 C       -3.5080    -3.7780     0.2720 C.3   1 <1>   0.3430 
 20 N       -4.4420    -3.6290     1.4440 N.4   1 <1>  -0.9590 
 21 C       -4.6290    -2.2030     1.8210 C.3   1 <1>   0.4860 
 22 C       -5.2860    -1.4890     0.6570 C.ar  1 <1>  -0.1440 
 23 C       -6.6300    -1.6960     0.3760 C.ar  1 <1>  -0.1500 
 24 C       -4.5460    -0.6300    -0.1430 C.ar  1 <1>  -0.1500 
 25 C       -7.2210    -1.0630    -0.7020 C.ar  1 <1>  -0.1500 
 26 C       -5.1400     0.0030    -1.2210 C.ar  1 <1>  -0.1500 
 27 C       -6.4760    -0.2160    -1.5020 C.ar  1 <1>  -0.1500 
 28 H       -4.8870    -8.8290     1.2790 H     1 <1>   0.0800 
 29 H       -5.3760    -7.4720     0.2770 H     1 <1>   0.0800 
 30 H       -3.4650    -7.8280    -1.2120 H     1 <1>   0.0800 
 31 H       -9.3860    -7.5570    -2.2630 H     1 <1>   0.1500 
 32 H       -6.1070    -8.5620    -3.1100 H     1 <1>   0.0800 
 33 H       -6.0960    -6.9990    -2.3240 H     1 <1>   0.0800 
 34 H       -7.3620    -7.4050    -3.4590 H     1 <1>   0.0800 
 35 H       -9.6840    -9.8700     1.2890 H     1 <1>   0.1500 
 36 H       -6.7420    -9.9660     2.3710 H     1 <1>   0.0800 
 37 H       -6.2890   -11.1450     1.1570 H     1 <1>   0.0800 
 38 H       -7.8360   -11.2580     1.9430 H     1 <1>   0.0800 
 39 H       -3.5870   -10.1220    -0.8100 H     1 <1>   0.4000 
 40 H       -1.5550    -7.4210     0.2110 H     1 <1>   0.0800 
 41 H       -2.3780    -8.0260     1.6090 H     1 <1>   0.0800 
 42 H      -11.5070    -8.2990     0.5870 H     1 <1>   0.0800 
 43 H      -11.6980    -9.2620    -0.8610 H     1 <1>   0.0800 
 44 H      -11.4340    -7.5370    -0.9800 H     1 <1>   0.0800 
 45 H       -3.3790    -6.4790     3.0310 H     1 <1>   0.0800 
 46 H       -4.7840    -6.3690     2.0130 H     1 <1>   0.0800 
 47 H       -4.2580    -5.6150    -0.5570 H     1 <1>   0.0800 
 48 H       -2.5750    -5.3180    -0.8940 H     1 <1>   0.0800 
 49 H       -3.0280    -4.1030     2.9550 H     1 <1>   0.0800 
 50 H       -4.6850    -4.3960     3.4150 H     1 <1>   0.0800 
 51 H       -3.8840    -3.2230    -0.5720 H     1 <1>   0.0800 
 52 H       -2.5400    -3.3800     0.5270 H     1 <1>   0.0800 
 53 H       -5.3570    -3.9750     1.1340 H     1 <1>   0.4500 
 54 H       -3.6780    -1.7470     2.0460 H     1 <1>   0.0800 
 55 H       -5.2620    -2.1260     2.6890 H     1 <1>   0.0800 
 56 H       -7.2350    -2.3440     0.9880 H     1 <1>   0.1500 
 57 H       -3.5050    -0.4380     0.0590 H     1 <1>   0.1500 
 58 H       -8.2640    -1.2230    -0.9210 H     1 <1>   0.1500 
 59 H       -4.5660     0.6700    -1.8430 H     1 <1>   0.1500 
 60 H       -6.9380     0.2780    -2.3410 H     1 <1>   0.1500 
@<TRIPOS>BOND
  1   1   2  1   
  2   1   3  1   
  3   2   4  ar  
  4   2   5  ar  
  5   3   6  1   
  6   3  28  1   
  7   3  29  1   
  8   4   7  ar  
  9   4   8  1   
 10   5   9  ar  
 11   5  10  1   
 12   6  11  1   
 13   6  12  1   
 14   6  30  1   
 15   7  13  ar  
 16   7  31  1   
 17   8  32  1   
 18   8  33  1   
 19   8  34  1   
 20   9  13  ar  
 21   9  35  1   
 22  10  36  1   
 23  10  37  1   
 24  10  38  1   
 25  11  39  1   
 26  12  14  1   
 27  12  40  1   
 28  12  41  1   
 29  13  15  1   
 30  14  16  1   
 31  14  17  1   
 32  15  42  1   
 33  15  43  1   
 34  15  44  1   
 35  16  18  1   
 36  16  45  1   
 37  16  46  1   
 38  17  19  1   
 39  17  47  1   
 40  17  48  1   
 41  18  20  1   
 42  18  49  1   
 43  18  50  1   
 44  19  20  1   
 45  19  51  1   
 46  19  52  1   
 47  20  21  1   
 48  20  53  1   
 49  21  22  1   
 50  21  54  1   
 51  21  55  1   
 52  22  23  ar  
 53  22  24  ar  
 54  23  25  ar  
 55  23  56  1   
 56  24  26  ar  
 57  24  57  1   
 58  25  27  ar  
 59  25  58  1   
 60  26  27  ar  
 61  26  59  1   
 62  27  60  1   
@<TRIPOS>SUBSTRUCTURE
  1 ****  17 GROUP 4 **** **** 0

# MOE 2024.06 (io_trps.svl 2023.06)
