@<TRIPOS>MOLECULE
NONAME
38 39 1 0 0 
SMALL
USER_CHARGES


@<TRIPOS>ATOM
  1 O        0.0760    -0.6720    -1.1260 O.2   1 <1>  -0.5700 
  2 C       -0.0600    -1.4800    -0.2380 C.2   1 <1>   0.5690 
  3 N       -1.2660    -1.7800     0.3440 N.am  1 <1>  -0.5470 
  4 C        1.2160    -2.1910     0.2470 C.3   1 <1>   0.4040 
  5 C       -2.5450    -1.2490     0.1080 C.ar  1 <1>   0.1170 
  6 N        2.4910    -1.4350    -0.0760 N.4   1 <1>  -0.9590 
  7 C       -3.6530    -2.0020     0.4850 C.ar  1 <1>  -0.1500 
  8 C       -2.7630     0.0010    -0.4660 C.ar  1 <1>  -0.1500 
  9 C        3.7490    -2.2250     0.0520 C.3   1 <1>   0.4230 
 10 C        2.5360    -0.1500     0.6870 C.3   1 <1>   0.3430 
 11 C       -4.9370    -1.5270     0.2920 C.ar  1 <1>  -0.1500 
 12 C       -4.0470     0.4790    -0.6620 C.ar  1 <1>  -0.1500 
 13 C        4.9340    -1.3780    -0.4320 C.3   1 <1>  -0.1600 
 14 C        3.6650    -3.5070    -0.7770 C.3   1 <1>  -0.2400 
 15 C        3.6990     0.7130     0.2020 C.3   1 <1>  -0.1600 
 16 C       -5.1360    -0.2850    -0.2830 C.ar  1 <1>  -0.1500 
 17 C        5.0310    -0.0360     0.3020 C.3   1 <1>  -0.1600 
 18 H       -1.2840    -2.5430     1.0210 H     1 <1>   0.3700 
 19 H        1.2350    -3.1530    -0.2330 H     1 <1>   0.0800 
 20 H        1.1490    -2.3480     1.3090 H     1 <1>   0.0800 
 21 H        2.3980    -1.1570    -1.0660 H     1 <1>   0.4500 
 22 H       -3.5210    -2.9700     0.9300 H     1 <1>   0.1500 
 23 H       -1.9370     0.6180    -0.7650 H     1 <1>   0.1500 
 24 H        3.9090    -2.4810     1.0880 H     1 <1>   0.0800 
 25 H        2.6550    -0.3520     1.7400 H     1 <1>   0.0800 
 26 H        1.6150     0.3960     0.5470 H     1 <1>   0.0800 
 27 H       -5.7850    -2.1210     0.5860 H     1 <1>   0.1500 
 28 H       -4.1990     1.4460    -1.1100 H     1 <1>   0.1500 
 29 H        4.8450    -1.2020    -1.4910 H     1 <1>   0.0800 
 30 H        5.8480    -1.9240    -0.2750 H     1 <1>   0.0800 
 31 H        3.3910    -3.2940    -1.7950 H     1 <1>   0.0800 
 32 H        2.9720    -4.2080    -0.3500 H     1 <1>   0.0800 
 33 H        4.6260    -3.9910    -0.7880 H     1 <1>   0.0800 
 34 H        3.7470     1.6080     0.7980 H     1 <1>   0.0800 
 35 H        3.5190     1.0150    -0.8150 H     1 <1>   0.0800 
 36 H       -6.1350     0.0870    -0.4360 H     1 <1>   0.1500 
 37 H        5.8190     0.5610    -0.1290 H     1 <1>   0.0800 
 38 H        5.2770    -0.2050     1.3370 H     1 <1>   0.0800 
@<TRIPOS>BOND
  1   1   2  2   
  2   2   3  am  
  3   2   4  1   
  4   3   5  1   
  5   3  18  1   
  6   4   6  1   
  7   4  19  1   
  8   4  20  1   
  9   5   7  ar  
 10   5   8  ar  
 11   6   9  1   
 12   6  10  1   
 13   6  21  1   
 14   7  11  ar  
 15   7  22  1   
 16   8  12  ar  
 17   8  23  1   
 18   9  13  1   
 19   9  14  1   
 20   9  24  1   
 21  10  15  1   
 22  10  25  1   
 23  10  26  1   
 24  11  16  ar  
 25  11  27  1   
 26  12  16  ar  
 27  12  28  1   
 28  13  17  1   
 29  13  29  1   
 30  13  30  1   
 31  14  31  1   
 32  14  32  1   
 33  14  33  1   
 34  15  17  1   
 35  15  34  1   
 36  15  35  1   
 37  16  36  1   
 38  17  37  1   
 39  17  38  1   
@<TRIPOS>SUBSTRUCTURE
  1 ****   2 GROUP 4 **** **** 0

# MOE 2024.06 (io_trps.svl 2023.06)
