@<TRIPOS>MOLECULE
NONAME
34 34 1 0 0 
SMALL
USER_CHARGES


@<TRIPOS>ATOM
  1 CL       0.4450     0.7960    -1.9510 Cl    1 <1>  -0.1770 
  2 C       -0.5580     1.8020    -0.9280 C.ar  1 <1>   0.1770 
  3 C        0.0240     2.7680    -0.1160 C.ar  1 <1>   0.0830 
  4 C       -1.9250     1.6070    -0.9530 C.ar  1 <1>  -0.1500 
  5 O        1.3730     2.8990    -0.1460 O.3   1 <1>  -0.3630 
  6 C       -0.8050     3.5480     0.6830 C.ar  1 <1>  -0.1500 
  7 C       -2.7600     2.3830    -0.1580 C.ar  1 <1>  -0.0090 
  8 C        2.0580     3.8420     0.6680 C.3   1 <1>   0.1810 
  9 C       -2.1750     3.3500     0.6550 C.ar  1 <1>  -0.1500 
 10 S       -4.5550     2.1460    -0.1670 S.o2  1 <1>   1.4470 
 11 C        3.5630     3.7550     0.4470 C.2   1 <1>   0.5690 
 12 O       -5.0010     1.7970     1.1620 O.2   1 <1>  -0.6500 
 13 O       -4.9510     1.3520    -1.3060 O.2   1 <1>  -0.6500 
 14 N       -5.1290     3.6750    -0.5400 N.am  1 <1>  -0.9140 
 15 O        4.2930     4.4970     1.0530 O.2   1 <1>  -0.5700 
 16 N        4.0740     2.8570    -0.4200 N.am  1 <1>  -0.8000 
 17 C       -6.4420     3.9550    -0.0210 C.3   1 <1>   0.2760 
 18 C       -7.1640     4.8050    -1.0600 C.3   1 <1>  -0.2400 
 19 C       -6.2940     4.7260     1.2870 C.3   1 <1>  -0.2400 
 20 H       -2.3370     0.8480    -1.5950 H     1 <1>   0.1500 
 21 H       -0.4100     4.3100     1.3300 H     1 <1>   0.1500 
 22 H        1.8390     3.6290     1.6980 H     1 <1>   0.0800 
 23 H        1.7180     4.8280     0.4110 H     1 <1>   0.0800 
 24 H       -2.8120     3.9580     1.2770 H     1 <1>   0.1500 
 25 H       -5.2390     3.6220    -1.5500 H     1 <1>   0.4200 
 26 H        5.0800     2.7940    -0.5730 H     1 <1>   0.3700 
 27 H        3.4720     2.2190    -0.9470 H     1 <1>   0.3700 
 28 H       -7.0000     3.0440     0.1390 H     1 <1>   0.0800 
 29 H       -6.6230     5.7140    -1.2520 H     1 <1>   0.0800 
 30 H       -8.1440     5.0630    -0.6990 H     1 <1>   0.0800 
 31 H       -7.2840     4.2560    -1.9770 H     1 <1>   0.0800 
 32 H       -5.7320     5.6300     1.1330 H     1 <1>   0.0800 
 33 H       -5.8000     4.1240     2.0270 H     1 <1>   0.0800 
 34 H       -7.2650     4.9870     1.6690 H     1 <1>   0.0800 
@<TRIPOS>BOND
  1   1   2  1   
  2   2   3  ar  
  3   2   4  ar  
  4   3   5  1   
  5   3   6  ar  
  6   4   7  ar  
  7   4  20  1   
  8   5   8  1   
  9   6   9  ar  
 10   6  21  1   
 11   7   9  ar  
 12   7  10  1   
 13   8  11  1   
 14   8  22  1   
 15   8  23  1   
 16   9  24  1   
 17  10  12  2   
 18  10  13  2   
 19  10  14  am  
 20  11  15  2   
 21  11  16  am  
 22  14  17  1   
 23  14  25  1   
 24  16  26  1   
 25  16  27  1   
 26  17  18  1   
 27  17  19  1   
 28  17  28  1   
 29  18  29  1   
 30  18  30  1   
 31  18  31  1   
 32  19  32  1   
 33  19  33  1   
 34  19  34  1   
@<TRIPOS>SUBSTRUCTURE
  1 ****   9 GROUP 4 **** **** 0

# MOE 2024.06 (io_trps.svl 2023.06)
