@<TRIPOS>MOLECULE
NONAME
48 49 1 0 0 
SMALL
USER_CHARGES


@<TRIPOS>ATOM
  1 O       -4.8110    -3.3790    -1.5580 O.2   1 <1>  -0.5700 
  2 C       -4.8520    -4.0060    -0.5320 C.2   1 <1>   0.6590 
  3 O       -5.9500    -4.1150     0.1990 O.3   1 <1>  -0.4300 
  4 C       -3.6190    -4.7310    -0.0010 C.3   1 <1>  -0.0190 
  5 C       -7.1550    -3.4930    -0.1870 C.3   1 <1>   0.1200 
  6 C       -2.4430    -3.7550     0.1960 C.3   1 <1>  -0.1600 
  7 C       -3.2100    -5.8770    -0.9460 C.3   1 <1>  -0.1600 
  8 C       -8.2130    -3.8170     0.8630 C.3   1 <1>  -0.2400 
  9 C       -1.1590    -4.4750     0.6030 C.3   1 <1>   0.3430 
 10 C       -1.9070    -6.5430    -0.5100 C.3   1 <1>   0.3430 
 11 N       -0.8280    -5.5170    -0.4160 N.4   1 <1>  -0.9590 
 12 C        0.4910    -6.1810    -0.1400 C.3   1 <1>   0.3430 
 13 C        1.6860    -5.2410    -0.3320 C.3   1 <1>   0.1200 
 14 O        2.8440    -5.9840    -0.0480 O.3   1 <1>  -0.3630 
 15 C        4.0780    -5.4220    -0.1070 C.ar  1 <1>   0.0820 
 16 C        5.1450    -6.2240     0.2590 C.ar  1 <1>  -0.1500 
 17 C        4.3130    -4.1080    -0.5060 C.ar  1 <1>  -0.1500 
 18 C        6.4410    -5.7370     0.2340 C.ar  1 <1>   0.0820 
 19 C        5.6070    -3.6160    -0.5330 C.ar  1 <1>  -0.1500 
 20 O        7.4230    -6.5940     0.6090 O.3   1 <1>  -0.3620 
 21 C        6.6700    -4.4230    -0.1650 C.ar  1 <1>  -0.1500 
 22 C        8.7770    -6.2000     0.6180 C.3   1 <1>   0.0400 
 23 H       -3.8750    -5.1530     0.9560 H     1 <1>   0.0800 
 24 H       -7.4410    -3.8720    -1.1540 H     1 <1>   0.0800 
 25 H       -6.9860    -2.4310    -0.2520 H     1 <1>   0.0800 
 26 H       -2.7010    -3.0390     0.9580 H     1 <1>   0.0800 
 27 H       -2.2650    -3.2020    -0.7120 H     1 <1>   0.0800 
 28 H       -3.0980    -5.5040    -1.9500 H     1 <1>   0.0800 
 29 H       -3.9920    -6.6160    -0.9670 H     1 <1>   0.0800 
 30 H       -8.3650    -4.8800     0.9220 H     1 <1>   0.0800 
 31 H       -9.1440    -3.3530     0.5920 H     1 <1>   0.0800 
 32 H       -7.9110    -3.4410     1.8240 H     1 <1>   0.0800 
 33 H       -1.2920    -4.9360     1.5690 H     1 <1>   0.0800 
 34 H       -0.3590    -3.7560     0.6780 H     1 <1>   0.0800 
 35 H       -1.6360    -7.3010    -1.2280 H     1 <1>   0.0800 
 36 H       -2.0450    -7.0190     0.4480 H     1 <1>   0.0800 
 37 H       -0.7770    -5.0540    -1.3350 H     1 <1>   0.4500 
 38 H        0.6160    -7.0150    -0.8120 H     1 <1>   0.0800 
 39 H        0.5020    -6.5570     0.8700 H     1 <1>   0.0800 
 40 H        1.6510    -4.4130     0.3530 H     1 <1>   0.0800 
 41 H        1.7490    -4.9010    -1.3510 H     1 <1>   0.0800 
 42 H        4.9740    -7.2380     0.5670 H     1 <1>   0.1500 
 43 H        3.5170    -3.4530    -0.8010 H     1 <1>   0.1500 
 44 H        5.7910    -2.6010    -0.8410 H     1 <1>   0.1500 
 45 H        7.6620    -4.0150    -0.1950 H     1 <1>   0.1500 
 46 H        9.3660    -7.0380     0.9460 H     1 <1>   0.0800 
 47 H        8.8970    -5.3790     1.3010 H     1 <1>   0.0800 
 48 H        9.0650    -5.9200    -0.3800 H     1 <1>   0.0800 
@<TRIPOS>BOND
  1   1   2  2   
  2   2   3  1   
  3   2   4  1   
  4   3   5  1   
  5   4   6  1   
  6   4   7  1   
  7   4  23  1   
  8   5   8  1   
  9   5  24  1   
 10   5  25  1   
 11   6   9  1   
 12   6  26  1   
 13   6  27  1   
 14   7  10  1   
 15   7  28  1   
 16   7  29  1   
 17   8  30  1   
 18   8  31  1   
 19   8  32  1   
 20   9  11  1   
 21   9  33  1   
 22   9  34  1   
 23  10  11  1   
 24  10  35  1   
 25  10  36  1   
 26  11  12  1   
 27  11  37  1   
 28  12  13  1   
 29  12  38  1   
 30  12  39  1   
 31  13  14  1   
 32  13  40  1   
 33  13  41  1   
 34  14  15  1   
 35  15  16  ar  
 36  15  17  ar  
 37  16  18  ar  
 38  16  42  1   
 39  17  19  ar  
 40  17  43  1   
 41  18  20  1   
 42  18  21  ar  
 43  19  21  ar  
 44  19  44  1   
 45  20  22  1   
 46  21  45  1   
 47  22  46  1   
 48  22  47  1   
 49  22  48  1   
@<TRIPOS>SUBSTRUCTURE
  1 ****  12 GROUP 4 **** **** 0

# MOE 2024.06 (io_trps.svl 2023.06)
