@<TRIPOS>MOLECULE
NONAME
49 51 1 0 0 
SMALL
USER_CHARGES


@<TRIPOS>ATOM
  1 S        0.4110    -0.1630     0.7200 S.o2  1 <1>   1.4470 
  2 O        0.1020     0.1180     2.1060 O.2   1 <1>  -0.6500 
  3 O       -0.2490    -1.2630     0.0520 O.2   1 <1>  -0.6500 
  4 N        0.0470     1.2380    -0.1610 N.am  1 <1>  -0.8490 
  5 C        2.2030    -0.3290     0.5060 C.ar  1 <1>  -0.0090 
  6 C       -1.3940     1.3380    -0.4370 C.3   1 <1>   0.1960 
  7 C        0.4970     2.4680     0.5120 C.3   1 <1>   0.1960 
  8 C        2.7760    -0.3010    -0.7600 C.ar  1 <1>  -0.1500 
  9 C        3.0480    -0.4970     1.5990 C.ar  1 <1>  -0.1500 
 10 C       -1.7230     2.6170    -1.2290 C.3   1 <1>   0.1200 
 11 C        0.1300     3.7150    -0.3130 C.3   1 <1>   0.1200 
 12 C        4.1430    -0.4330    -0.9310 C.ar  1 <1>  -0.1500 
 13 C        4.4160    -0.6300     1.4390 C.ar  1 <1>  -0.1500 
 14 O       -1.2460     3.7510    -0.5620 O.3   1 <1>  -0.5600 
 15 C        4.9720    -0.6000     0.1650 C.ar  1 <1>   0.0830 
 16 O        6.2940    -0.7320    -0.0860 O.3   1 <1>  -0.3630 
 17 C        7.2120    -1.0540     0.9500 C.3   1 <1>   0.1810 
 18 C        8.6160    -1.2860     0.4010 C.2   1 <1>   0.5690 
 19 O        9.0810    -2.3920     0.5580 O.2   1 <1>  -0.5700 
 20 N        9.3320    -0.2810    -0.2090 N.am  1 <1>  -0.6600 
 21 C        8.8270     1.0990    -0.4600 C.3   1 <1>   0.1400 
 22 C       10.7090    -0.5200    -0.7270 C.3   1 <1>   0.1400 
 23 C        9.7780     2.1200     0.1730 C.3   1 <1>  -0.1600 
 24 C       11.6800     0.4860    -0.0990 C.3   1 <1>  -0.1600 
 25 C       11.2190     1.9330    -0.3210 C.3   1 <1>  -0.1600 
 26 H       -1.9480     1.3420     0.4880 H     1 <1>   0.0800 
 27 H       -1.7130     0.4840    -1.0110 H     1 <1>   0.0800 
 28 H        1.5640     2.4380     0.6480 H     1 <1>   0.0800 
 29 H        0.0380     2.5530     1.4840 H     1 <1>   0.0800 
 30 H        2.1410    -0.1770    -1.6220 H     1 <1>   0.1500 
 31 H        2.6260    -0.5260     2.5900 H     1 <1>   0.1500 
 32 H       -2.7880     2.7230    -1.3390 H     1 <1>   0.0800 
 33 H       -1.2750     2.5780    -2.2070 H     1 <1>   0.0800 
 34 H        0.6510     3.7120    -1.2550 H     1 <1>   0.0800 
 35 H        0.3890     4.6090     0.2260 H     1 <1>   0.0800 
 36 H        4.5740    -0.4120    -1.9160 H     1 <1>   0.1500 
 37 H        5.0250    -0.7580     2.3150 H     1 <1>   0.1500 
 38 H        6.8710    -1.9530     1.4300 H     1 <1>   0.0800 
 39 H        7.2300    -0.2470     1.6570 H     1 <1>   0.0800 
 40 H        7.8400     1.2370    -0.0590 H     1 <1>   0.0800 
 41 H        8.7760     1.2600    -1.5240 H     1 <1>   0.0800 
 42 H       10.7040    -0.4060    -1.7970 H     1 <1>   0.0800 
 43 H       11.0350    -1.5210    -0.5020 H     1 <1>   0.0800 
 44 H        9.7450     2.0110     1.2430 H     1 <1>   0.0800 
 45 H        9.4420     3.1140    -0.0660 H     1 <1>   0.0800 
 46 H       12.6580     0.3470    -0.5240 H     1 <1>   0.0800 
 47 H       11.7500     0.2830     0.9560 H     1 <1>   0.0800 
 48 H       11.8750     2.6090     0.2010 H     1 <1>   0.0800 
 49 H       11.2700     2.1650    -1.3720 H     1 <1>   0.0800 
@<TRIPOS>BOND
  1   1   2  2   
  2   1   3  2   
  3   1   4  am  
  4   1   5  1   
  5   4   6  1   
  6   4   7  1   
  7   5   8  ar  
  8   5   9  ar  
  9   6  10  1   
 10   6  26  1   
 11   6  27  1   
 12   7  11  1   
 13   7  28  1   
 14   7  29  1   
 15   8  12  ar  
 16   8  30  1   
 17   9  13  ar  
 18   9  31  1   
 19  10  14  1   
 20  10  32  1   
 21  10  33  1   
 22  11  14  1   
 23  11  34  1   
 24  11  35  1   
 25  12  15  ar  
 26  12  36  1   
 27  13  15  ar  
 28  13  37  1   
 29  15  16  1   
 30  16  17  1   
 31  17  18  1   
 32  17  38  1   
 33  17  39  1   
 34  18  19  2   
 35  18  20  am  
 36  20  21  1   
 37  20  22  1   
 38  21  23  1   
 39  21  40  1   
 40  21  41  1   
 41  22  24  1   
 42  22  42  1   
 43  22  43  1   
 44  23  25  1   
 45  23  44  1   
 46  23  45  1   
 47  24  25  1   
 48  24  46  1   
 49  24  47  1   
 50  25  48  1   
 51  25  49  1   
@<TRIPOS>SUBSTRUCTURE
  1 ****  15 GROUP 4 **** **** 0

# MOE 2024.06 (io_trps.svl 2023.06)
