@<TRIPOS>MOLECULE
NONAME
34 36 1 0 0 
SMALL
USER_CHARGES


@<TRIPOS>ATOM
  1 O       -0.3340    -0.3040     0.0550 O.2   1 <1>  -0.5700 
  2 C       -0.9520    -1.3540    -0.0630 C.2   1 <1>   0.8410 
  3 N       -2.2710    -1.3490    -0.2800 N.2   1 <1>  -0.6610 
  4 N       -0.2860    -2.5260     0.0300 N.am  1 <1>  -0.4200 
  5 C       -2.8510    -2.5080    -0.3920 C.2   1 <1>   0.7110 
  6 C       -0.9620    -3.6610    -0.1010 C.2   1 <1>   0.5600 
  7 C        1.1480    -2.7560     0.2640 C.3   1 <1>   0.1400 
  8 N       -2.2270    -3.7030    -0.3120 N.2   1 <1>  -0.6610 
  9 N       -4.2090    -2.5410    -0.6120 N.pl3 1 <1>  -0.7880 
 10 N       -0.1380    -4.7250     0.0180 N.pl3 1 <1>  -0.7880 
 11 C        1.2560    -4.2900     0.2580 C.3   1 <1>   0.2090 
 12 C       -4.9890    -3.8000    -0.7940 C.3   1 <1>   0.2090 
 13 C       -5.0490    -1.3090    -0.6790 C.3   1 <1>   0.2090 
 14 C       -0.5190    -6.1550    -0.0620 C.3   1 <1>   0.1290 
 15 C       -6.0750    -3.8890     0.2830 C.3   1 <1>  -0.1600 
 16 C       -6.1380    -1.3720     0.3980 C.3   1 <1>  -0.1600 
 17 C       -6.9820    -2.6500     0.2830 C.3   1 <1>  -0.1600 
 18 H        1.4400    -2.3440     1.2140 H     1 <1>   0.0800 
 19 H        1.7290    -2.3170    -0.5260 H     1 <1>   0.0800 
 20 H        1.6090    -4.6560     1.2070 H     1 <1>   0.0800 
 21 H        1.9010    -4.6290    -0.5340 H     1 <1>   0.0800 
 22 H       -4.3640    -4.6730    -0.7390 H     1 <1>   0.0800 
 23 H       -5.4440    -3.7870    -1.7690 H     1 <1>   0.0800 
 24 H       -5.5020    -1.2500    -1.6530 H     1 <1>   0.0800 
 25 H       -4.4650    -0.4160    -0.5360 H     1 <1>   0.0800 
 26 H       -1.5780    -6.2460    -0.2350 H     1 <1>   0.0800 
 27 H       -0.2760    -6.6490     0.8620 H     1 <1>   0.0800 
 28 H        0.0070    -6.6280    -0.8720 H     1 <1>   0.0800 
 29 H       -5.5960    -3.9890     1.2410 H     1 <1>   0.0800 
 30 H       -6.6670    -4.7710     0.1180 H     1 <1>   0.0800 
 31 H       -6.7720    -0.5090     0.3110 H     1 <1>   0.0800 
 32 H       -5.6630    -1.3360     1.3630 H     1 <1>   0.0800 
 33 H       -7.6750    -2.7050     1.1040 H     1 <1>   0.0800 
 34 H       -7.5480    -2.6220    -0.6330 H     1 <1>   0.0800 
@<TRIPOS>BOND
  1   1   2  2   
  2   2   3  1   
  3   2   4  am  
  4   3   5  2   
  5   4   6  1   
  6   4   7  1   
  7   5   8  1   
  8   5   9  1   
  9   6   8  2   
 10   6  10  1   
 11   7  11  1   
 12   7  18  1   
 13   7  19  1   
 14   9  12  1   
 15   9  13  1   
 16  10  11  1   
 17  10  14  1   
 18  11  20  1   
 19  11  21  1   
 20  12  15  1   
 21  12  22  1   
 22  12  23  1   
 23  13  16  1   
 24  13  24  1   
 25  13  25  1   
 26  14  26  1   
 27  14  27  1   
 28  14  28  1   
 29  15  17  1   
 30  15  29  1   
 31  15  30  1   
 32  16  17  1   
 33  16  31  1   
 34  16  32  1   
 35  17  33  1   
 36  17  34  1   
@<TRIPOS>SUBSTRUCTURE
  1 ****   5 GROUP 4 **** **** 0

# MOE 2024.06 (io_trps.svl 2023.06)
