@<TRIPOS>MOLECULE
NONAME
41 43 1 0 0 
SMALL
USER_CHARGES


@<TRIPOS>ATOM
  1 F       -0.8830     0.0380    -1.1520 F     1 <1>  -0.1900 
  2 C       -1.5590    -0.9350    -0.6020 C.ar  1 <1>   0.1900 
  3 C       -1.3470    -2.2250    -1.0500 C.ar  1 <1>  -0.1500 
  4 C       -2.4560    -0.6370     0.4050 C.ar  1 <1>  -0.1500 
  5 C       -2.0600    -3.2650    -0.4690 C.ar  1 <1>  -0.1440 
  6 C       -3.1650    -1.6760     0.9830 C.ar  1 <1>  -0.1500 
  7 C       -2.9660    -2.9780     0.5480 C.ar  1 <1>  -0.1500 
  8 C       -1.8400    -4.7010    -0.9350 C.3   1 <1>   0.5020 
  9 N       -3.1270    -5.2240    -1.4340 N.am  1 <1>  -0.7300 
 10 C       -1.2460    -5.5640     0.1790 C.2   1 <1>  -0.1240 
 11 C       -3.7720    -6.2680    -0.8870 C.2   1 <1>   0.6900 
 12 C       -1.9330    -6.6420     0.6380 C.2   1 <1>  -0.0290 
 13 C        0.0200    -5.0790     0.6360 C.2   1 <1>   0.6160 
 14 O       -4.8830    -6.5690    -1.2570 O.2   1 <1>  -0.5700 
 15 N       -3.1630    -6.9690     0.1010 N.am  1 <1>  -0.5390 
 16 C       -1.4650    -7.5800     1.7390 C.3   1 <1>  -0.1020 
 17 O        0.2360    -4.9420     1.8270 O.2   1 <1>  -0.5700 
 18 N        1.0220    -4.7590    -0.2520 N.am  1 <1>  -0.6600 
 19 C        1.3940    -5.6710    -1.3740 C.3   1 <1>   0.1400 
 20 C        2.1230    -3.8260     0.1340 C.3   1 <1>   0.1400 
 21 C        2.7600    -6.3280    -1.1050 C.3   1 <1>   0.1200 
 22 C        3.4410    -4.5940     0.3190 C.3   1 <1>   0.1200 
 23 O        3.7260    -5.3580    -0.8200 O.3   1 <1>  -0.5600 
 24 H       -0.6320    -2.3980    -1.8330 H     1 <1>   0.1500 
 25 H       -2.5920     0.3790     0.7260 H     1 <1>   0.1500 
 26 H       -3.8690    -1.4750     1.7730 H     1 <1>   0.1500 
 27 H       -3.5210    -3.7780     1.0120 H     1 <1>   0.1500 
 28 H       -1.1600    -4.6950    -1.7670 H     1 <1>   0.0800 
 29 H       -3.6760    -4.6030    -2.0230 H     1 <1>   0.3700 
 30 H       -3.7160    -7.7470     0.4570 H     1 <1>   0.3700 
 31 H       -2.1100    -7.4880     2.5930 H     1 <1>   0.0800 
 32 H       -0.4610    -7.3610     2.0520 H     1 <1>   0.0800 
 33 H       -1.4890    -8.5970     1.3920 H     1 <1>   0.0800 
 34 H        1.4490    -5.1080    -2.2890 H     1 <1>   0.0800 
 35 H        0.6530    -6.4410    -1.4960 H     1 <1>   0.0800 
 36 H        1.8760    -3.3090     1.0460 H     1 <1>   0.0800 
 37 H        2.2500    -3.0870    -0.6370 H     1 <1>   0.0800 
 38 H        3.0890    -6.8740    -1.9710 H     1 <1>   0.0800 
 39 H        2.6970    -7.0060    -0.2710 H     1 <1>   0.0800 
 40 H        3.3790    -5.2480     1.1720 H     1 <1>   0.0800 
 41 H        4.2550    -3.9070     0.4690 H     1 <1>   0.0800 
@<TRIPOS>BOND
  1   1   2  1   
  2   2   3  ar  
  3   2   4  ar  
  4   3   5  ar  
  5   3  24  1   
  6   4   6  ar  
  7   4  25  1   
  8   5   7  ar  
  9   5   8  1   
 10   6   7  ar  
 11   6  26  1   
 12   7  27  1   
 13   8   9  1   
 14   8  10  1   
 15   8  28  1   
 16   9  11  am  
 17   9  29  1   
 18  10  12  2   
 19  10  13  1   
 20  11  14  2   
 21  11  15  am  
 22  12  15  1   
 23  12  16  1   
 24  13  17  2   
 25  13  18  am  
 26  15  30  1   
 27  16  31  1   
 28  16  32  1   
 29  16  33  1   
 30  18  19  1   
 31  18  20  1   
 32  19  21  1   
 33  19  34  1   
 34  19  35  1   
 35  20  22  1   
 36  20  36  1   
 37  20  37  1   
 38  21  23  1   
 39  21  38  1   
 40  21  39  1   
 41  22  23  1   
 42  22  40  1   
 43  22  41  1   
@<TRIPOS>SUBSTRUCTURE
  1 ****   8 GROUP 4 **** **** 0

# MOE 2024.06 (io_trps.svl 2023.06)
