@<TRIPOS>MOLECULE
NONAME
53 55 1 0 0 
SMALL
USER_CHARGES


@<TRIPOS>ATOM
  1 S       -0.0130     0.0720    -1.6880 S.o2  1 <1>   1.4470 
  2 O       -0.6040     1.1510    -2.4510 O.2   1 <1>  -0.6500 
  3 O        0.6760    -0.9680    -2.4250 O.2   1 <1>  -0.6500 
  4 N        1.2020     0.7620    -0.7220 N.am  1 <1>  -0.8490 
  5 C       -1.2450    -0.5800    -0.4880 C.ar  1 <1>  -0.0090 
  6 C        2.1090     1.5910    -1.5180 C.3   1 <1>   0.1960 
  7 C        1.9280    -0.2510     0.0480 C.3   1 <1>   0.1960 
  8 C       -1.7390    -1.8920    -0.5650 C.ar  1 <1>  -0.1440 
  9 C       -1.7390     0.2300     0.5460 C.ar  1 <1>  -0.1440 
 10 C        3.0950     2.3230    -0.6030 C.3   1 <1>  -0.1600 
 11 C        2.8970     0.4230     1.0220 C.3   1 <1>  -0.1600 
 12 C       -2.6370    -2.3710     0.3760 C.ar  1 <1>  -0.1500 
 13 C       -1.3430    -2.8670    -1.6690 C.3   1 <1>  -0.0970 
 14 C       -2.6360    -0.2690     1.4770 C.ar  1 <1>  -0.1500 
 15 C       -1.3390     1.6940     0.7200 C.3   1 <1>  -0.0970 
 16 C        3.8820     1.3400     0.2780 C.3   1 <1>  -0.0190 
 17 C       -3.0860    -1.5700     1.4050 C.ar  1 <1>  -0.1440 
 18 C        4.8130     2.0730     1.2420 C.2   1 <1>   0.5690 
 19 C       -4.0680    -2.1070     2.4310 C.3   1 <1>  -0.0970 
 20 O        4.3520     2.7860     2.1000 O.2   1 <1>  -0.5700 
 21 N        6.1500     1.9050     1.1110 N.am  1 <1>  -0.7300 
 22 C        7.1650     2.5960     1.9260 C.3   1 <1>   0.3200 
 23 C        8.3850     2.8510     1.0610 C.2   1 <1>  -0.0400 
 24 O        9.0150     1.8230     0.5220 O.3   1 <1>  -0.2800 
 25 C        8.9870     4.0090     0.7120 C.2   1 <1>  -0.1500 
 26 C       10.0280     2.2980    -0.1750 C.2   1 <1>  -0.0100 
 27 C       10.0680     3.6450    -0.1000 C.2   1 <1>  -0.1500 
 28 H        1.5420     2.3240    -2.0690 H     1 <1>   0.0800 
 29 H        2.6400     0.9760    -2.2260 H     1 <1>   0.0800 
 30 H        2.4710    -0.9030    -0.6180 H     1 <1>   0.0800 
 31 H        1.2310    -0.8490     0.6110 H     1 <1>   0.0800 
 32 H        2.5440     3.0090     0.0180 H     1 <1>   0.0800 
 33 H        3.7760     2.9000    -1.2030 H     1 <1>   0.0800 
 34 H        3.4410    -0.3290     1.5640 H     1 <1>   0.0800 
 35 H        2.3300     0.9960     1.7350 H     1 <1>   0.0800 
 36 H       -3.0000    -3.3820     0.3110 H     1 <1>   0.1500 
 37 H       -0.3180    -3.1700    -1.5490 H     1 <1>   0.0800 
 38 H       -1.4670    -2.4120    -2.6360 H     1 <1>   0.0800 
 39 H       -1.9530    -3.7510    -1.6490 H     1 <1>   0.0800 
 40 H       -2.9960     0.3620     2.2710 H     1 <1>   0.1500 
 41 H       -0.3680     1.7630     1.1760 H     1 <1>   0.0800 
 42 H       -2.0380     2.2120     1.3510 H     1 <1>   0.0800 
 43 H       -1.3220     2.2090    -0.2230 H     1 <1>   0.0800 
 44 H        4.4840     0.7260    -0.3670 H     1 <1>   0.0800 
 45 H       -3.9310    -3.1640     2.5660 H     1 <1>   0.0800 
 46 H       -5.0740    -1.9260     2.0990 H     1 <1>   0.0800 
 47 H       -3.9220    -1.6220     3.3800 H     1 <1>   0.0800 
 48 H        6.5530     1.3280     0.3710 H     1 <1>   0.3700 
 49 H        7.4360     1.9750     2.7610 H     1 <1>   0.0800 
 50 H        6.7710     3.5270     2.2980 H     1 <1>   0.0800 
 51 H        8.7210     5.0160     0.9810 H     1 <1>   0.1500 
 52 H       10.6720     1.6090    -0.6930 H     1 <1>   0.1500 
 53 H       10.7670     4.3250    -0.5540 H     1 <1>   0.1500 
@<TRIPOS>BOND
  1   1   2  2   
  2   1   3  2   
  3   1   4  am  
  4   1   5  1   
  5   4   6  1   
  6   4   7  1   
  7   5   8  ar  
  8   5   9  ar  
  9   6  10  1   
 10   6  28  1   
 11   6  29  1   
 12   7  11  1   
 13   7  30  1   
 14   7  31  1   
 15   8  12  ar  
 16   8  13  1   
 17   9  14  ar  
 18   9  15  1   
 19  10  16  1   
 20  10  32  1   
 21  10  33  1   
 22  11  16  1   
 23  11  34  1   
 24  11  35  1   
 25  12  17  ar  
 26  12  36  1   
 27  13  37  1   
 28  13  38  1   
 29  13  39  1   
 30  14  17  ar  
 31  14  40  1   
 32  15  41  1   
 33  15  42  1   
 34  15  43  1   
 35  16  18  1   
 36  16  44  1   
 37  17  19  1   
 38  18  20  2   
 39  18  21  am  
 40  19  45  1   
 41  19  46  1   
 42  19  47  1   
 43  21  22  1   
 44  21  48  1   
 45  22  23  1   
 46  22  49  1   
 47  22  50  1   
 48  23  24  1   
 49  23  25  2   
 50  24  26  1   
 51  25  27  1   
 52  25  51  1   
 53  26  27  2   
 54  26  52  1   
 55  27  53  1   
@<TRIPOS>SUBSTRUCTURE
  1 ****  11 GROUP 4 **** **** 0

# MOE 2024.06 (io_trps.svl 2023.06)
