@<TRIPOS>MOLECULE
NONAME
34 34 1 0 0 
SMALL
USER_CHARGES


@<TRIPOS>ATOM
  1 CL       1.0260    -0.5470     0.0300 Cl    1 <1>  -0.1770 
  2 C       -0.1660     0.6950    -0.3070 C.ar  1 <1>   0.1770 
  3 C        0.1440     2.0540    -0.4970 C.ar  1 <1>   0.0830 
  4 C       -1.4740     0.2500    -0.3790 C.ar  1 <1>  -0.1500 
  5 O        1.3750     2.6420    -0.4570 O.3   1 <1>  -0.3630 
  6 C       -0.8970     2.9370    -0.7580 C.ar  1 <1>  -0.1500 
  7 C       -2.4820     1.1560    -0.6400 C.ar  1 <1>   0.1770 
  8 C        2.5750     1.9540    -0.2090 C.3   1 <1>   0.1200 
  9 C       -2.2080     2.4960    -0.8310 C.ar  1 <1>  -0.1500 
 10 CL      -4.1330     0.5980    -0.7310 Cl    1 <1>  -0.1770 
 11 C        3.7130     2.9740    -0.2510 C.3   1 <1>   0.3430 
 12 N        5.0400     2.3250     0.0040 N.4   1 <1>  -0.9060 
 13 C        6.2110     3.2060    -0.0100 C.3   1 <1>   0.5030 
 14 C        6.3530     3.8560    -1.3860 C.3   1 <1>  -0.2400 
 15 C        7.4170     2.3170     0.2710 C.3   1 <1>  -0.2400 
 16 C        6.0780     4.2620     1.0870 C.3   1 <1>  -0.2400 
 17 H       -1.7090    -0.7890    -0.2340 H     1 <1>   0.1500 
 18 H       -0.6790     3.9810    -0.9060 H     1 <1>   0.1500 
 19 H        2.7000     1.2150    -0.9810 H     1 <1>   0.0800 
 20 H        2.5060     1.5020     0.7650 H     1 <1>   0.0800 
 21 H       -3.0120     3.1820    -1.0330 H     1 <1>   0.1500 
 22 H        3.5260     3.7270     0.4970 H     1 <1>   0.0800 
 23 H        3.7180     3.4440    -1.2200 H     1 <1>   0.0800 
 24 H        5.2070     1.5950    -0.6960 H     1 <1>   0.4500 
 25 H        5.0270     1.8610     0.9180 H     1 <1>   0.4500 
 26 H        6.3960     3.1150    -2.1640 H     1 <1>   0.0800 
 27 H        7.2680     4.4220    -1.4240 H     1 <1>   0.0800 
 28 H        5.5500     4.5400    -1.5880 H     1 <1>   0.0800 
 29 H        7.3380     1.8440     1.2340 H     1 <1>   0.0800 
 30 H        8.3160     2.9100     0.2740 H     1 <1>   0.0800 
 31 H        7.5310     1.5620    -0.4870 H     1 <1>   0.0800 
 32 H        5.9250     3.8070     2.0490 H     1 <1>   0.0800 
 33 H        5.2740     4.9470     0.8850 H     1 <1>   0.0800 
 34 H        6.9820     4.8440     1.1400 H     1 <1>   0.0800 
@<TRIPOS>BOND
  1   1   2  1   
  2   2   3  ar  
  3   2   4  ar  
  4   3   5  1   
  5   3   6  ar  
  6   4   7  ar  
  7   4  17  1   
  8   5   8  1   
  9   6   9  ar  
 10   6  18  1   
 11   7   9  ar  
 12   7  10  1   
 13   8  11  1   
 14   8  19  1   
 15   8  20  1   
 16   9  21  1   
 17  11  12  1   
 18  11  22  1   
 19  11  23  1   
 20  12  13  1   
 21  12  24  1   
 22  12  25  1   
 23  13  14  1   
 24  13  15  1   
 25  13  16  1   
 26  14  26  1   
 27  14  27  1   
 28  14  28  1   
 29  15  29  1   
 30  15  30  1   
 31  15  31  1   
 32  16  32  1   
 33  16  33  1   
 34  16  34  1   
@<TRIPOS>SUBSTRUCTURE
  1 ****   5 GROUP 4 **** **** 0

# MOE 2024.06 (io_trps.svl 2023.06)
