@<TRIPOS>MOLECULE
NONAME
38 42 1 0 0 
SMALL
USER_CHARGES


@<TRIPOS>ATOM
  1 O       -0.3180     0.0390    -1.6420 O.2   1 <1>  -0.5700 
  2 C       -0.3950    -0.7950    -0.7720 C.2   1 <1>   0.5690 
  3 N        0.5890    -1.1990     0.1080 N.am  1 <1>  -0.1200 
  4 C       -1.6150    -1.6150    -0.4600 C.3   1 <1>  -0.0190 
  5 N        2.0140    -1.1530    -0.2030 N.am  1 <1>  -0.4300 
  6 C        0.0370    -1.9300     1.1430 C.2   1 <1>   0.5690 
  7 C       -3.1250    -1.5190    -0.7990 C.3   1 <1>   0.1530 
  8 C       -1.4520    -1.7340     1.0670 C.3   1 <1>  -0.0190 
  9 C        2.6510    -2.0960    -0.9550 C.2   1 <1>   0.5440 
 10 O        0.6080    -2.5410     2.0140 O.2   1 <1>  -0.5700 
 11 C       -3.5230    -2.9850    -0.5730 C.2   1 <1>  -0.2880 
 12 C       -3.8810    -0.7140     0.3050 C.3   1 <1>  -0.1950 
 13 C       -2.6850    -2.4730     1.6640 C.3   1 <1>   0.1530 
 14 O        2.0080    -3.0430    -1.3760 O.2   1 <1>  -0.5700 
 15 C        4.0660    -1.9830    -1.2440 C.ar  1 <1>   0.0860 
 16 C       -3.2570    -3.4740     0.6490 C.2   1 <1>  -0.2880 
 17 C       -3.7380    -1.3180     1.6950 C.3   1 <1>  -0.1950 
 18 C       -5.0910    -1.2100     1.0400 C.3   1 <1>  -0.2000 
 19 C        4.8800    -3.1010    -1.3590 C.ar  1 <1>  -0.1500 
 20 C        4.7140    -0.7680    -1.4320 C.ar  1 <1>  -0.1500 
 21 C        6.2290    -2.9610    -1.6230 C.ar  1 <1>   0.1600 
 22 C        6.0700    -0.7340    -1.6930 C.ar  1 <1>   0.1600 
 23 N        6.8440    -1.8020    -1.7870 N.ar  1 <1>  -0.6200 
 24 H       -1.3070    -2.5520    -0.9020 H     1 <1>   0.0800 
 25 H        2.5410    -0.3830     0.2120 H     1 <1>   0.3700 
 26 H       -3.3240    -1.1890    -1.8040 H     1 <1>   0.0800 
 27 H       -1.5100    -0.7410     1.4830 H     1 <1>   0.0800 
 28 H       -3.9600    -3.5110    -1.4060 H     1 <1>   0.1500 
 29 H       -3.7460     0.3510     0.2120 H     1 <1>   0.1000 
 30 H       -2.5080    -2.8950     2.6390 H     1 <1>   0.0800 
 31 H       -3.4310    -4.4760     1.0010 H     1 <1>   0.1500 
 32 H       -3.5830    -0.6530     2.5280 H     1 <1>   0.1000 
 33 H       -5.7840    -0.4810     1.4230 H     1 <1>   0.1000 
 34 H       -5.6000    -2.1060     0.7280 H     1 <1>   0.1000 
 35 H        4.4540    -4.0820    -1.2420 H     1 <1>   0.1500 
 36 H        4.1660     0.1550    -1.3870 H     1 <1>   0.1500 
 37 H        6.8350    -3.8480    -1.7040 H     1 <1>   0.1500 
 38 H        6.5490     0.2210    -1.8350 H     1 <1>   0.1500 
@<TRIPOS>BOND
  1   1   2  2   
  2   2   3  am  
  3   2   4  1   
  4   3   5  1   
  5   3   6  am  
  6   4   7  1   
  7   4   8  1   
  8   4  24  1   
  9   5   9  am  
 10   5  25  1   
 11   6   8  1   
 12   6  10  2   
 13   7  11  1   
 14   7  12  1   
 15   7  26  1   
 16   8  13  1   
 17   8  27  1   
 18   9  14  2   
 19   9  15  1   
 20  11  16  2   
 21  11  28  1   
 22  12  17  1   
 23  12  18  1   
 24  12  29  1   
 25  13  16  1   
 26  13  17  1   
 27  13  30  1   
 28  15  19  ar  
 29  15  20  ar  
 30  16  31  1   
 31  17  18  1   
 32  17  32  1   
 33  18  33  1   
 34  18  34  1   
 35  19  21  ar  
 36  19  35  1   
 37  20  22  ar  
 38  20  36  1   
 39  21  23  ar  
 40  21  37  1   
 41  22  23  ar  
 42  22  38  1   
@<TRIPOS>SUBSTRUCTURE
  1 ****   3 GROUP 4 **** **** 0

# MOE 2024.06 (io_trps.svl 2023.06)
