@<TRIPOS>MOLECULE
NONAME
29 29 1 0 0 
SMALL
USER_CHARGES


@<TRIPOS>ATOM
  1 O       -0.7620    -1.1910    -2.4190 O.2   1 <1>  -0.5700 
  2 C       -0.3880    -1.5830    -1.3430 C.2   1 <1>   0.5690 
  3 N       -1.2220    -1.8280    -0.2850 N.am  1 <1>  -0.5470 
  4 C        1.0940    -1.8480    -1.1450 C.3   1 <1>  -0.0990 
  5 C       -2.6190    -1.6890    -0.1400 C.ar  1 <1>   0.1170 
  6 C        1.8770    -0.6210    -0.6460 C.3   1 <1>  -0.1600 
  7 C       -3.2940    -2.3950     0.8660 C.ar  1 <1>   0.0730 
  8 C       -3.3600    -0.8480    -0.9680 C.ar  1 <1>  -0.1500 
  9 C        1.4660    -0.1770     0.7660 C.3   1 <1>  -0.1600 
 10 C       -2.5740    -3.2600     1.7530 C.1   1 <1>   0.4840 
 11 C       -4.6700    -2.2520     1.0060 C.ar  1 <1>  -0.1500 
 12 C       -4.7270    -0.7140    -0.8200 C.ar  1 <1>  -0.1500 
 13 C        2.3370     0.9860     1.2470 C.3   1 <1>  -0.2400 
 14 N       -1.9440    -3.9180     2.4380 N.1   1 <1>  -0.5570 
 15 C       -5.3870    -1.4190     0.1690 C.ar  1 <1>  -0.1500 
 16 H       -0.7380    -2.2120     0.5280 H     1 <1>   0.3700 
 17 H        1.5000    -2.1500    -2.0940 H     1 <1>   0.0800 
 18 H        1.2270    -2.6700    -0.4660 H     1 <1>   0.0800 
 19 H        1.7290     0.1930    -1.3360 H     1 <1>   0.0800 
 20 H        2.9260    -0.8620    -0.6470 H     1 <1>   0.0800 
 21 H       -2.8710    -0.2820    -1.7410 H     1 <1>   0.1500 
 22 H        1.5670    -1.0000     1.4530 H     1 <1>   0.0800 
 23 H        0.4370     0.1420     0.7670 H     1 <1>   0.0800 
 24 H       -5.1890    -2.7970     1.7770 H     1 <1>   0.1500 
 25 H       -5.2770    -0.0600    -1.4760 H     1 <1>   0.1500 
 26 H        3.3720     0.6930     1.2830 H     1 <1>   0.0800 
 27 H        2.0340     1.2890     2.2340 H     1 <1>   0.0800 
 28 H        2.2380     1.8290     0.5860 H     1 <1>   0.0800 
 29 H       -6.4530    -1.3150     0.2840 H     1 <1>   0.1500 
@<TRIPOS>BOND
  1   1   2  2   
  2   2   3  am  
  3   2   4  1   
  4   3   5  1   
  5   3  16  1   
  6   4   6  1   
  7   4  17  1   
  8   4  18  1   
  9   5   7  ar  
 10   5   8  ar  
 11   6   9  1   
 12   6  19  1   
 13   6  20  1   
 14   7  10  1   
 15   7  11  ar  
 16   8  12  ar  
 17   8  21  1   
 18   9  13  1   
 19   9  22  1   
 20   9  23  1   
 21  10  14  3   
 22  11  15  ar  
 23  11  24  1   
 24  12  15  ar  
 25  12  25  1   
 26  13  26  1   
 27  13  27  1   
 28  13  28  1   
 29  15  29  1   
@<TRIPOS>SUBSTRUCTURE
  1 ****   3 GROUP 4 **** **** 0

# MOE 2024.06 (io_trps.svl 2023.06)
