@<TRIPOS>MOLECULE
NONAME
48 50 1 0 0 
SMALL
USER_CHARGES


@<TRIPOS>ATOM
  1 F       -1.1050     0.5170     0.6220 F     1 <1>  -0.1900 
  2 C       -0.1780     1.3210     0.1550 C.ar  1 <1>   0.1900 
  3 C       -0.5240     2.6100    -0.2680 C.ar  1 <1>   0.1000 
  4 C        1.1150     0.8380     0.1040 C.ar  1 <1>  -0.1500 
  5 N       -1.8180     3.1460    -0.2390 N.pl3 1 <1>  -0.8380 
  6 C        0.5060     3.4070    -0.7510 C.ar  1 <1>  -0.1500 
  7 C        2.1190     1.6590    -0.3840 C.ar  1 <1>  -0.1500 
  8 C       -2.3990     3.3790     1.1200 C.3   1 <1>   0.2090 
  9 C       -2.8120     2.5070    -1.1520 C.3   1 <1>   0.2090 
 10 C        1.8100     2.9420    -0.8100 C.ar  1 <1>  -0.1500 
 11 C       -3.6610     4.2530     1.0310 C.3   1 <1>   0.1400 
 12 C       -4.0880     3.3610    -1.2690 C.3   1 <1>   0.1400 
 13 N       -4.6640     3.6720     0.0800 N.am  1 <1>  -0.6600 
 14 C       -5.8860     3.2290     0.5170 C.2   1 <1>   0.6900 
 15 O       -6.1080     3.1230     1.7090 O.2   1 <1>  -0.5700 
 16 N       -6.8420     2.9380    -0.4100 N.am  1 <1>  -0.5470 
 17 C       -8.1410     2.4020    -0.3380 C.ar  1 <1>   0.1170 
 18 C       -8.9610     2.5050    -1.4670 C.ar  1 <1>   0.0820 
 19 C       -8.6380     1.7680     0.7950 C.ar  1 <1>  -0.1500 
 20 O       -8.4340     3.1240    -2.5690 O.3   1 <1>  -0.3620 
 21 C      -10.2520     1.9880    -1.4400 C.ar  1 <1>  -0.1500 
 22 C       -9.9230     1.2550     0.8200 C.ar  1 <1>  -0.1500 
 23 C       -9.2210     3.3520    -3.7180 C.3   1 <1>   0.0400 
 24 C      -10.7370     1.3650    -0.3030 C.ar  1 <1>   0.0820 
 25 O      -12.0100     0.8900    -0.3640 O.3   1 <1>  -0.3620 
 26 C      -12.6000     0.2590     0.7500 C.3   1 <1>   0.0400 
 27 H        1.3300    -0.1600     0.4410 H     1 <1>   0.1500 
 28 H        0.2700     4.4020    -1.0820 H     1 <1>   0.1500 
 29 H        3.1330     1.3030    -0.4320 H     1 <1>   0.1500 
 30 H       -1.6690     3.8660     1.7410 H     1 <1>   0.0800 
 31 H       -2.6540     2.4380     1.5750 H     1 <1>   0.0800 
 32 H       -3.0730     1.5320    -0.7770 H     1 <1>   0.0800 
 33 H       -2.3710     2.3840    -2.1260 H     1 <1>   0.0800 
 34 H        2.5890     3.5810    -1.1900 H     1 <1>   0.1500 
 35 H       -3.3820     5.2330     0.6880 H     1 <1>   0.0800 
 36 H       -4.0860     4.3610     2.0140 H     1 <1>   0.0800 
 37 H       -4.7970     2.8310    -1.8780 H     1 <1>   0.0800 
 38 H       -3.8440     4.2830    -1.7660 H     1 <1>   0.0800 
 39 H       -6.6380     3.3190    -1.3300 H     1 <1>   0.3700 
 40 H       -8.0220     1.6690     1.6700 H     1 <1>   0.1500 
 41 H      -10.9080     2.0490    -2.2850 H     1 <1>   0.1500 
 42 H      -10.2650     0.7760     1.7170 H     1 <1>   0.1500 
 43 H       -8.6220     3.8810    -4.4360 H     1 <1>   0.0800 
 44 H      -10.0740     3.9490    -3.4440 H     1 <1>   0.0800 
 45 H       -9.5280     2.4050    -4.1250 H     1 <1>   0.0800 
 46 H      -13.6020    -0.0240     0.4820 H     1 <1>   0.0800 
 47 H      -12.6240     0.9530     1.5720 H     1 <1>   0.0800 
 48 H      -12.0270    -0.6160     1.0000 H     1 <1>   0.0800 
@<TRIPOS>BOND
  1   1   2  1   
  2   2   3  ar  
  3   2   4  ar  
  4   3   5  1   
  5   3   6  ar  
  6   4   7  ar  
  7   4  27  1   
  8   5   8  1   
  9   5   9  1   
 10   6  10  ar  
 11   6  28  1   
 12   7  10  ar  
 13   7  29  1   
 14   8  11  1   
 15   8  30  1   
 16   8  31  1   
 17   9  12  1   
 18   9  32  1   
 19   9  33  1   
 20  10  34  1   
 21  11  13  1   
 22  11  35  1   
 23  11  36  1   
 24  12  13  1   
 25  12  37  1   
 26  12  38  1   
 27  13  14  am  
 28  14  15  2   
 29  14  16  am  
 30  16  17  1   
 31  16  39  1   
 32  17  18  ar  
 33  17  19  ar  
 34  18  20  1   
 35  18  21  ar  
 36  19  22  ar  
 37  19  40  1   
 38  20  23  1   
 39  21  24  ar  
 40  21  41  1   
 41  22  24  ar  
 42  22  42  1   
 43  23  43  1   
 44  23  44  1   
 45  23  45  1   
 46  24  25  1   
 47  25  26  1   
 48  26  46  1   
 49  26  47  1   
 50  26  48  1   
@<TRIPOS>SUBSTRUCTURE
  1 ****  14 GROUP 4 **** **** 0

# MOE 2024.06 (io_trps.svl 2023.06)
