@<TRIPOS>MOLECULE
NONAME
39 40 1 0 0 
SMALL
USER_CHARGES


@<TRIPOS>ATOM
  1 N        0.0480     0.0190     0.0150 N.4   1 <1>  -0.9590 
  2 C       -0.1160     0.7810     1.3000 C.3   1 <1>   0.3430 
  3 C       -1.1960    -0.7650    -0.2860 C.3   1 <1>   0.3430 
  4 C        1.2860    -0.7970    -0.0850 C.3   1 <1>   0.3430 
  5 C       -1.3780     1.6790     1.2620 C.3   1 <1>   0.1100 
  6 C       -2.4470     0.1490    -0.3040 C.3   1 <1>   0.1100 
  7 C        2.5220     0.1010    -0.0890 C.3   1 <1>  -0.1600 
  8 N       -2.1130     1.5630    -0.0190 N.3   1 <1>  -0.8100 
  9 C        3.7970    -0.7130    -0.3410 C.3   1 <1>  -0.0170 
 10 C       -3.3140     2.4100    -0.0260 C.3   1 <1>   0.0300 
 11 C        5.0050     0.2050    -0.3020 C.ar  1 <1>  -0.1440 
 12 C        5.6990     0.4010     0.8830 C.ar  1 <1>  -0.1500 
 13 C        5.4230     0.8600    -1.4510 C.ar  1 <1>  -0.1500 
 14 C        6.7950     1.2440     0.9200 C.ar  1 <1>  -0.1500 
 15 C        6.5200     1.7040    -1.4140 C.ar  1 <1>  -0.1500 
 16 C        7.2060     1.8970    -0.2290 C.ar  1 <1>  -0.1500 
 17 H        0.0470     0.7590    -0.7060 H     1 <1>   0.4500 
 18 H        0.7430     1.4070     1.4710 H     1 <1>   0.0800 
 19 H       -0.1930     0.0970     2.1280 H     1 <1>   0.0800 
 20 H       -1.3330    -1.5360     0.4530 H     1 <1>   0.0800 
 21 H       -1.1040    -1.2440    -1.2470 H     1 <1>   0.0800 
 22 H        1.2670    -1.3640    -1.0020 H     1 <1>   0.0800 
 23 H        1.3400    -1.4910     0.7390 H     1 <1>   0.0800 
 24 H       -1.0800     2.7030     1.4080 H     1 <1>   0.0800 
 25 H       -2.0250     1.4130     2.0820 H     1 <1>   0.0800 
 26 H       -3.1590    -0.2130     0.4190 H     1 <1>   0.0800 
 27 H       -2.9120     0.0830    -1.2740 H     1 <1>   0.0800 
 28 H        2.6250     0.6000     0.8580 H     1 <1>   0.0800 
 29 H        2.4320     0.8430    -0.8630 H     1 <1>   0.0800 
 30 H        3.7490    -1.1970    -1.3020 H     1 <1>   0.0800 
 31 H        3.9080    -1.4790     0.4080 H     1 <1>   0.0800 
 32 H       -3.0400     3.4390     0.1380 H     1 <1>   0.0800 
 33 H       -4.0030     2.1040     0.7430 H     1 <1>   0.0800 
 34 H       -3.8060     2.3430    -0.9830 H     1 <1>   0.0800 
 35 H        5.3940    -0.1010     1.7840 H     1 <1>   0.1500 
 36 H        4.9010     0.7200    -2.3810 H     1 <1>   0.1500 
 37 H        7.3320     1.3920     1.8410 H     1 <1>   0.1500 
 38 H        6.8410     2.2100    -2.3080 H     1 <1>   0.1500 
 39 H        8.0590     2.5520    -0.2000 H     1 <1>   0.1500 
@<TRIPOS>BOND
  1   1   2  1   
  2   1   3  1   
  3   1   4  1   
  4   1  17  1   
  5   2   5  1   
  6   2  18  1   
  7   2  19  1   
  8   3   6  1   
  9   3  20  1   
 10   3  21  1   
 11   4   7  1   
 12   4  22  1   
 13   4  23  1   
 14   5   8  1   
 15   5  24  1   
 16   5  25  1   
 17   6   8  1   
 18   6  26  1   
 19   6  27  1   
 20   7   9  1   
 21   7  28  1   
 22   7  29  1   
 23   8  10  1   
 24   9  11  1   
 25   9  30  1   
 26   9  31  1   
 27  10  32  1   
 28  10  33  1   
 29  10  34  1   
 30  11  12  ar  
 31  11  13  ar  
 32  12  14  ar  
 33  12  35  1   
 34  13  15  ar  
 35  13  36  1   
 36  14  16  ar  
 37  14  37  1   
 38  15  16  ar  
 39  15  38  1   
 40  16  39  1   
@<TRIPOS>SUBSTRUCTURE
  1 ****   7 GROUP 4 **** **** 0

# MOE 2024.06 (io_trps.svl 2023.06)
