@<TRIPOS>MOLECULE
NONAME
21 21 1 0 0 
SMALL
USER_CHARGES


@<TRIPOS>ATOM
  1 O        1.6130     2.1710    -2.0230 O.co2 1 <1>  -0.9000 
  2 C        2.1000     1.9230    -0.9290 C.2   1 <1>   0.9060 
  3 O        1.4360     1.8710     0.1140 O.co2 1 <1>  -0.9000 
  4 C        3.4870     1.3570    -0.8840 C.3   1 <1>  -0.1860 
  5 C        3.2760    -0.1510    -0.8520 C.3   1 <1>   0.5610 
  6 C        4.3840     1.8660     0.2700 C.3   1 <1>  -0.1600 
  7 N        2.4890    -0.5300     0.3150 N.4   1 <1>  -0.8530 
  8 C        4.5960    -0.8620    -0.6500 C.2   1 <1>  -0.2880 
  9 C        5.7710     1.2000     0.2320 C.3   1 <1>  -0.0220 
 10 C        5.6950    -0.2690    -0.1680 C.2   1 <1>  -0.2880 
 11 H        3.9620     1.6080    -1.8150 H     1 <1>   0.0800 
 12 H        2.7880    -0.4580    -1.7640 H     1 <1>   0.0800 
 13 H        4.4950     2.9350     0.1950 H     1 <1>   0.0800 
 14 H        3.9130     1.6640     1.2160 H     1 <1>   0.0800 
 15 H        3.1020    -0.5200     1.1260 H     1 <1>   0.4500 
 16 H        1.9970    -1.4100     0.1960 H     1 <1>   0.4500 
 17 H        1.7980     0.2490     0.4440 H     1 <1>   0.4500 
 18 H        4.5670    -1.9000    -0.9330 H     1 <1>   0.1500 
 19 H        6.2370     1.2960     1.1980 H     1 <1>   0.0800 
 20 H        6.3920     1.7150    -0.4830 H     1 <1>   0.0800 
 21 H        6.6330    -0.7870    -0.0390 H     1 <1>   0.1500 
@<TRIPOS>BOND
  1   1   2  ar  
  2   2   3  ar  
  3   2   4  1   
  4   4   5  1   
  5   4   6  1   
  6   4  11  1   
  7   5   7  1   
  8   5   8  1   
  9   5  12  1   
 10   6   9  1   
 11   6  13  1   
 12   6  14  1   
 13   7  15  1   
 14   7  16  1   
 15   7  17  1   
 16   8  10  2   
 17   8  18  1   
 18   9  10  1   
 19   9  19  1   
 20   9  20  1   
 21  10  21  1   
@<TRIPOS>SUBSTRUCTURE
  1 ****   4 GROUP 4 **** **** 0

# MOE 2024.06 (io_trps.svl 2023.06)
