@<TRIPOS>MOLECULE
NONAME
44 46 1 0 0 
SMALL
USER_CHARGES


@<TRIPOS>ATOM
  1 S        0.1520    -0.3520     0.3560 S.3   1 <1>  -0.0800 
  2 C        0.9030     1.2150     0.0110 C.2   1 <1>   0.1040 
  3 C       -1.4370     0.3630     0.2560 C.2   1 <1>  -0.1400 
  4 N        2.2860     1.3070    -0.1170 N.am  1 <1>  -0.4940 
  5 C       -0.0520     2.1930    -0.1370 C.2   1 <1>  -0.0860 
  6 C       -1.3780     1.6570    -0.0030 C.2   1 <1>  -0.1810 
  7 C       -2.7980    -0.2360     0.4050 C.3   1 <1>   0.0200 
  8 C        3.3030     0.4450     0.2020 C.2   1 <1>   0.5690 
  9 C        0.2060     3.5830    -0.3850 C.2   1 <1>   0.7160 
 10 C       -2.7630     2.2410    -0.0920 C.3   1 <1>   0.0210 
 11 C       -3.6850     1.0180     0.1900 C.3   1 <1>  -0.1600 
 12 O        3.1560    -0.5710     0.8300 O.2   1 <1>  -0.5700 
 13 C        4.7150     0.8150    -0.2300 C.3   1 <1>  -0.0990 
 14 O       -0.5550     4.2690    -1.0440 O.2   1 <1>  -0.5700 
 15 N        1.3460     4.1260     0.1460 N.am  1 <1>  -0.5470 
 16 C        4.8120     1.6250    -1.5370 C.3   1 <1>  -0.2400 
 17 C        2.1740     5.1910    -0.2410 C.ar  1 <1>   0.1170 
 18 C        3.5110     5.1620     0.1720 C.ar  1 <1>   0.0820 
 19 C        1.7300     6.2630    -1.0060 C.ar  1 <1>  -0.1500 
 20 O        3.9110     4.0900     0.9200 O.3   1 <1>  -0.3620 
 21 C        4.3750     6.1910    -0.1870 C.ar  1 <1>  -0.1500 
 22 C        2.5930     7.2850    -1.3590 C.ar  1 <1>  -0.1500 
 23 C        5.0940     4.1550     1.6890 C.3   1 <1>   0.0400 
 24 C        3.9140     7.2500    -0.9510 C.ar  1 <1>  -0.1500 
 25 H        2.6250     2.1610    -0.5640 H     1 <1>   0.3700 
 26 H       -2.9250    -0.6550     1.3870 H     1 <1>   0.0800 
 27 H       -2.9680    -0.9820    -0.3510 H     1 <1>   0.0800 
 28 H       -2.9350     2.6440    -1.0750 H     1 <1>   0.0800 
 29 H       -2.8960     3.0120     0.6460 H     1 <1>   0.0800 
 30 H       -4.2740     1.2020     1.0710 H     1 <1>   0.0800 
 31 H       -4.3500     0.8600    -0.6410 H     1 <1>   0.0800 
 32 H        5.2680    -0.1000    -0.3520 H     1 <1>   0.0800 
 33 H        5.1770     1.3630     0.5700 H     1 <1>   0.0800 
 34 H        1.7740     3.5400     0.8650 H     1 <1>   0.3700 
 35 H        4.3120     1.1050    -2.3360 H     1 <1>   0.0800 
 36 H        5.8440     1.7520    -1.8090 H     1 <1>   0.0800 
 37 H        4.3730     2.6010    -1.4240 H     1 <1>   0.0800 
 38 H        0.7060     6.3110    -1.3290 H     1 <1>   0.1500 
 39 H        5.4060     6.1880     0.1110 H     1 <1>   0.1500 
 40 H        2.2340     8.1090    -1.9520 H     1 <1>   0.1500 
 41 H        5.1330     3.2850     2.3200 H     1 <1>   0.0800 
 42 H        5.0690     5.0430     2.2970 H     1 <1>   0.0800 
 43 H        5.9430     4.1650     1.0290 H     1 <1>   0.0800 
 44 H        4.5830     8.0470    -1.2280 H     1 <1>   0.1500 
@<TRIPOS>BOND
  1   1   2  1   
  2   1   3  1   
  3   2   4  1   
  4   2   5  2   
  5   3   6  2   
  6   3   7  1   
  7   4   8  am  
  8   4  25  1   
  9   5   6  1   
 10   5   9  1   
 11   6  10  1   
 12   7  11  1   
 13   7  26  1   
 14   7  27  1   
 15   8  12  2   
 16   8  13  1   
 17   9  14  2   
 18   9  15  am  
 19  10  11  1   
 20  10  28  1   
 21  10  29  1   
 22  11  30  1   
 23  11  31  1   
 24  13  16  1   
 25  13  32  1   
 26  13  33  1   
 27  15  17  1   
 28  15  34  1   
 29  16  35  1   
 30  16  36  1   
 31  16  37  1   
 32  17  18  ar  
 33  17  19  ar  
 34  18  20  1   
 35  18  21  ar  
 36  19  22  ar  
 37  19  38  1   
 38  20  23  1   
 39  21  24  ar  
 40  21  39  1   
 41  22  24  ar  
 42  22  40  1   
 43  23  41  1   
 44  23  42  1   
 45  23  43  1   
 46  24  44  1   
@<TRIPOS>SUBSTRUCTURE
  1 ****  15 GROUP 4 **** **** 0

# MOE 2024.06 (io_trps.svl 2023.06)
