@<TRIPOS>MOLECULE
NONAME
49 51 1 0 0 
SMALL
USER_CHARGES


@<TRIPOS>ATOM
  1 CL       3.4490     1.1170     4.1500 Cl    1 <1>  -0.1770 
  2 C        3.5430     1.2060     2.4110 C.ar  1 <1>   0.1770 
  3 C        4.6980     0.8000     1.7740 C.ar  1 <1>  -0.1500 
  4 C        2.4580     1.6840     1.7010 C.ar  1 <1>  -0.1500 
  5 C        4.8010     0.8690     0.3850 C.ar  1 <1>   0.0860 
  6 C        2.5360     1.7500     0.3210 C.ar  1 <1>  -0.1500 
  7 C        6.0150     0.4490    -0.2910 C.2   1 <1>   0.5440 
  8 C        3.6940     1.3440    -0.3230 C.ar  1 <1>  -0.1500 
  9 O        6.5280    -0.6100     0.0180 O.2   1 <1>  -0.5700 
 10 N        6.6170     1.2220    -1.2640 N.am  1 <1>  -0.6600 
 11 C        6.4950     2.7030    -1.3260 C.3   1 <1>   0.1400 
 12 C        7.6470     0.6550    -2.1760 C.3   1 <1>   0.1400 
 13 C        7.8440     3.3310    -0.9660 C.3   1 <1>  -0.1600 
 14 C        9.0120     1.2460    -1.8210 C.3   1 <1>  -0.1600 
 15 C        8.9830     2.7880    -1.8520 C.3   1 <1>  -0.0190 
 16 C       10.3300     3.3910    -1.4630 C.2   1 <1>   0.5690 
 17 O       10.8790     4.1380    -2.2360 O.2   1 <1>  -0.5700 
 18 N       10.8780     3.0710    -0.2620 N.am  1 <1>  -0.7300 
 19 C       12.1740     3.5820     0.2400 C.3   1 <1>   0.1400 
 20 C       13.2760     2.5570    -0.0280 C.3   1 <1>  -0.0170 
 21 C       14.5980     3.0480     0.5380 C.ar  1 <1>  -0.1430 
 22 C       15.3770     3.9360    -0.1870 C.ar  1 <1>  -0.1500 
 23 C       15.0350     2.6180     1.7820 C.ar  1 <1>  -0.1500 
 24 C       16.5800     4.3910     0.3250 C.ar  1 <1>  -0.1500 
 25 C       16.2380     3.0720     2.2950 C.ar  1 <1>  -0.1500 
 26 C       17.0110     3.9590     1.5670 C.ar  1 <1>  -0.1500 
 27 H        5.5230     0.4230     2.3510 H     1 <1>   0.1500 
 28 H        1.5700     1.9930     2.2220 H     1 <1>   0.1500 
 29 H        1.6970     2.1120    -0.2490 H     1 <1>   0.1500 
 30 H        3.7460     1.3880    -1.3970 H     1 <1>   0.1500 
 31 H        5.7460     3.0580    -0.6400 H     1 <1>   0.0800 
 32 H        6.2060     2.9920    -2.3220 H     1 <1>   0.0800 
 33 H        7.3900     0.9000    -3.1920 H     1 <1>   0.0800 
 34 H        7.6790    -0.4190    -2.0920 H     1 <1>   0.0800 
 35 H        8.0530     3.1270     0.0700 H     1 <1>   0.0800 
 36 H        7.7800     4.3990    -1.0820 H     1 <1>   0.0800 
 37 H        9.7460     0.8860    -2.5190 H     1 <1>   0.0800 
 38 H        9.2870     0.8920    -0.8430 H     1 <1>   0.0800 
 39 H        8.7830     3.0910    -2.8650 H     1 <1>   0.0800 
 40 H       10.3880     2.4120     0.3460 H     1 <1>   0.3700 
 41 H       12.0990     3.7750     1.2970 H     1 <1>   0.0800 
 42 H       12.4170     4.5080    -0.2540 H     1 <1>   0.0800 
 43 H       13.3740     2.4110    -1.0900 H     1 <1>   0.0800 
 44 H       13.0160     1.6160     0.4210 H     1 <1>   0.0800 
 45 H       15.0490     4.2780    -1.1540 H     1 <1>   0.1500 
 46 H       14.4430     1.9290     2.3580 H     1 <1>   0.1500 
 47 H       17.1790     5.0800    -0.2440 H     1 <1>   0.1500 
 48 H       16.5730     2.7350     3.2610 H     1 <1>   0.1500 
 49 H       17.9460     4.3120     1.9650 H     1 <1>   0.1500 
@<TRIPOS>BOND
  1   1   2  1   
  2   2   3  ar  
  3   2   4  ar  
  4   3   5  ar  
  5   3  27  1   
  6   4   6  ar  
  7   4  28  1   
  8   5   7  1   
  9   5   8  ar  
 10   6   8  ar  
 11   6  29  1   
 12   7   9  2   
 13   7  10  am  
 14   8  30  1   
 15  10  11  1   
 16  10  12  1   
 17  11  13  1   
 18  11  31  1   
 19  11  32  1   
 20  12  14  1   
 21  12  33  1   
 22  12  34  1   
 23  13  15  1   
 24  13  35  1   
 25  13  36  1   
 26  14  15  1   
 27  14  37  1   
 28  14  38  1   
 29  15  16  1   
 30  15  39  1   
 31  16  17  2   
 32  16  18  am  
 33  18  19  1   
 34  18  40  1   
 35  19  20  1   
 36  19  41  1   
 37  19  42  1   
 38  20  21  1   
 39  20  43  1   
 40  20  44  1   
 41  21  22  ar  
 42  21  23  ar  
 43  22  24  ar  
 44  22  45  1   
 45  23  25  ar  
 46  23  46  1   
 47  24  26  ar  
 48  24  47  1   
 49  25  26  ar  
 50  25  48  1   
 51  26  49  1   
@<TRIPOS>SUBSTRUCTURE
  1 ****  13 GROUP 4 **** **** 0

# MOE 2024.06 (io_trps.svl 2023.06)
