@<TRIPOS>MOLECULE
NONAME
40 40 1 0 0 
SMALL
USER_CHARGES


@<TRIPOS>ATOM
  1 O       -0.6430    -0.7330     1.9060 O.2   1 <1>  -0.5700 
  2 C       -0.5690    -1.4810     0.9590 C.2   1 <1>   0.4950 
  3 C       -1.6540    -1.6960     0.0490 C.2   1 <1>   0.0290 
  4 C        0.7680    -2.1800     0.7800 C.3   1 <1>  -0.0990 
  5 C       -1.4790    -2.6500    -1.0100 C.2   1 <1>   0.4950 
  6 C       -2.8260    -0.9870     0.2220 C.2   1 <1>  -0.0500 
  7 C        0.6450    -3.5420     0.0830 C.3   1 <1>   0.0000 
  8 O       -2.3460    -2.9590    -1.8000 O.2   1 <1>  -0.5700 
  9 C       -0.1440    -3.3470    -1.2190 C.3   1 <1>  -0.0990 
 10 N       -3.9320    -1.0760    -0.5580 N.pl3 1 <1>  -0.8690 
 11 C       -0.0640    -4.5570     0.9990 C.3   1 <1>  -0.2400 
 12 C        2.0470    -4.0820    -0.2420 C.3   1 <1>  -0.2400 
 13 C       -5.1890    -0.3180    -0.3950 C.3   1 <1>   0.2090 
 14 C       -6.2740    -1.2480     0.1760 C.3   1 <1>   0.3430 
 15 N       -7.5730    -0.5490     0.4800 N.4   1 <1>  -0.9590 
 16 C       -8.4800    -1.4700     1.2320 C.3   1 <1>   0.2630 
 17 C       -8.2520    -0.0480    -0.7580 C.3   1 <1>   0.2630 
 18 H        1.4030    -1.5270     0.2080 H     1 <1>   0.0800 
 19 H        1.2270    -2.3080     1.7450 H     1 <1>   0.0800 
 20 H       -2.8790    -0.2910     1.0470 H     1 <1>   0.1500 
 21 H       -0.3190    -4.3040    -1.6800 H     1 <1>   0.0800 
 22 H        0.4260    -2.7570    -1.9130 H     1 <1>   0.0800 
 23 H       -3.8780    -1.7230    -1.3740 H     1 <1>   0.4000 
 24 H        0.4970    -4.6980     1.9080 H     1 <1>   0.0800 
 25 H       -0.1480    -5.5110     0.5100 H     1 <1>   0.0800 
 26 H       -1.0540    -4.2350     1.2690 H     1 <1>   0.0800 
 27 H        2.5820    -3.4040    -0.8840 H     1 <1>   0.0800 
 28 H        2.6200    -4.2140     0.6600 H     1 <1>   0.0800 
 29 H        1.9800    -5.0340    -0.7390 H     1 <1>   0.0800 
 30 H       -5.0160     0.5020     0.2810 H     1 <1>   0.0800 
 31 H       -5.4840     0.0710    -1.3540 H     1 <1>   0.0800 
 32 H       -5.8840    -1.6800     1.0840 H     1 <1>   0.0800 
 33 H       -6.4470    -2.0470    -0.5250 H     1 <1>   0.0800 
 34 H       -7.3650     0.2560     1.0930 H     1 <1>   0.4500 
 35 H       -8.7200    -2.3340     0.6330 H     1 <1>   0.0800 
 36 H       -9.3970    -0.9650     1.4910 H     1 <1>   0.0800 
 37 H       -8.0060    -1.8030     2.1420 H     1 <1>   0.0800 
 38 H       -8.4650    -0.8670    -1.4270 H     1 <1>   0.0800 
 39 H       -7.6260     0.6630    -1.2730 H     1 <1>   0.0800 
 40 H       -9.1810     0.4380    -0.5050 H     1 <1>   0.0800 
@<TRIPOS>BOND
  1   1   2  2   
  2   2   3  1   
  3   2   4  1   
  4   3   5  1   
  5   3   6  2   
  6   4   7  1   
  7   4  18  1   
  8   4  19  1   
  9   5   8  2   
 10   5   9  1   
 11   6  10  1   
 12   6  20  1   
 13   7   9  1   
 14   7  11  1   
 15   7  12  1   
 16   9  21  1   
 17   9  22  1   
 18  10  13  1   
 19  10  23  1   
 20  11  24  1   
 21  11  25  1   
 22  11  26  1   
 23  12  27  1   
 24  12  28  1   
 25  12  29  1   
 26  13  14  1   
 27  13  30  1   
 28  13  31  1   
 29  14  15  1   
 30  14  32  1   
 31  14  33  1   
 32  15  16  1   
 33  15  17  1   
 34  15  34  1   
 35  16  35  1   
 36  16  36  1   
 37  16  37  1   
 38  17  38  1   
 39  17  39  1   
 40  17  40  1   
@<TRIPOS>SUBSTRUCTURE
  1 ****   6 GROUP 4 **** **** 0

# MOE 2024.06 (io_trps.svl 2023.06)
