@<TRIPOS>MOLECULE
NONAME
47 48 1 0 0 
SMALL
USER_CHARGES


@<TRIPOS>ATOM
  1 O        0.3930     1.0640     1.4500 O.2   1 <1>  -0.5700 
  2 C        1.4340     1.4190     0.9470 C.2   1 <1>   0.6900 
  3 N        2.6110     0.8910     1.3610 N.am  1 <1>  -0.5390 
  4 N        1.4510     2.3540    -0.0140 N.am  1 <1>  -0.7300 
  5 C        3.8530     1.2630     0.8810 C.2   1 <1>  -0.0290 
  6 C        2.6890     2.9710    -0.5290 C.3   1 <1>   0.5020 
  7 C        3.9560     2.2570    -0.0490 C.2   1 <1>  -0.1240 
  8 C        4.9960     0.4390     1.4720 C.3   1 <1>  -0.0220 
  9 C        2.6970     4.4350    -0.0960 C.ar  1 <1>  -0.1430 
 10 C        5.1180     2.7720    -0.7060 C.2   1 <1>   0.7060 
 11 C        5.1250    -0.9360     0.8000 C.3   1 <1>  -0.1600 
 12 C        2.8350     5.4420    -1.0400 C.ar  1 <1>  -0.1500 
 13 C        2.5810     4.7840     1.2430 C.ar  1 <1>  -0.1500 
 14 O        5.0850     3.2320    -1.8340 O.2   1 <1>  -0.5700 
 15 O        6.2900     2.7590    -0.0680 O.3   1 <1>  -0.4300 
 16 C        5.5050    -0.8320    -0.6820 C.3   1 <1>  -0.2400 
 17 C        2.8490     6.7710    -0.6540 C.ar  1 <1>  -0.1500 
 18 C        2.5950     6.1130     1.6280 C.ar  1 <1>  -0.1500 
 19 C        7.4610     3.2790    -0.6570 C.3   1 <1>   0.1200 
 20 C        2.7280     7.1150     0.6820 C.ar  1 <1>  -0.1430 
 21 C        8.6090     3.0850     0.3280 C.3   1 <1>  -0.2400 
 22 C        2.7450     8.5750     1.1040 C.3   1 <1>  -0.0170 
 23 C        4.1770     9.0360     1.3830 C.3   1 <1>  -0.2400 
 24 H        2.5040     0.1570     2.0590 H     1 <1>   0.3700 
 25 H        0.5920     2.8770    -0.1650 H     1 <1>   0.3700 
 26 H        2.6450     2.9170    -1.6040 H     1 <1>   0.0800 
 27 H        4.8130     0.2990     2.5230 H     1 <1>   0.0800 
 28 H        5.9370     0.9470     1.4040 H     1 <1>   0.0800 
 29 H        4.1960    -1.4740     0.8920 H     1 <1>   0.0800 
 30 H        5.8830    -1.5030     1.3140 H     1 <1>   0.0800 
 31 H        2.9400     5.1980    -2.0840 H     1 <1>   0.1500 
 32 H        2.4790     4.0190     1.9950 H     1 <1>   0.1500 
 33 H        4.7260    -0.3450    -1.2420 H     1 <1>   0.0800 
 34 H        5.6500    -1.8150    -1.0930 H     1 <1>   0.0800 
 35 H        6.4180    -0.2750    -0.8000 H     1 <1>   0.0800 
 36 H        2.9590     7.5380    -1.4010 H     1 <1>   0.1500 
 37 H        2.5040     6.3630     2.6700 H     1 <1>   0.1500 
 38 H        7.3010     4.3240    -0.8660 H     1 <1>   0.0800 
 39 H        7.6460     2.7500    -1.5760 H     1 <1>   0.0800 
 40 H        8.4030     3.6100     1.2440 H     1 <1>   0.0800 
 41 H        9.5170     3.4750    -0.0930 H     1 <1>   0.0800 
 42 H        8.7470     2.0390     0.5350 H     1 <1>   0.0800 
 43 H        2.1460     8.7040     1.9880 H     1 <1>   0.0800 
 44 H        2.3150     9.1820     0.3270 H     1 <1>   0.0800 
 45 H        4.6100     8.4450     2.1700 H     1 <1>   0.0800 
 46 H        4.1840    10.0690     1.6800 H     1 <1>   0.0800 
 47 H        4.7800     8.9250     0.4990 H     1 <1>   0.0800 
@<TRIPOS>BOND
  1   1   2  2   
  2   2   3  am  
  3   2   4  am  
  4   3   5  1   
  5   3  24  1   
  6   4   6  1   
  7   4  25  1   
  8   5   7  2   
  9   5   8  1   
 10   6   7  1   
 11   6   9  1   
 12   6  26  1   
 13   7  10  1   
 14   8  11  1   
 15   8  27  1   
 16   8  28  1   
 17   9  12  ar  
 18   9  13  ar  
 19  10  14  2   
 20  10  15  1   
 21  11  16  1   
 22  11  29  1   
 23  11  30  1   
 24  12  17  ar  
 25  12  31  1   
 26  13  18  ar  
 27  13  32  1   
 28  15  19  1   
 29  16  33  1   
 30  16  34  1   
 31  16  35  1   
 32  17  20  ar  
 33  17  36  1   
 34  18  20  ar  
 35  18  37  1   
 36  19  21  1   
 37  19  38  1   
 38  19  39  1   
 39  20  22  1   
 40  21  40  1   
 41  21  41  1   
 42  21  42  1   
 43  22  23  1   
 44  22  43  1   
 45  22  44  1   
 46  23  45  1   
 47  23  46  1   
 48  23  47  1   
@<TRIPOS>SUBSTRUCTURE
  1 ****   7 GROUP 4 **** **** 0

# MOE 2024.06 (io_trps.svl 2023.06)
