@<TRIPOS>MOLECULE
NONAME
43 46 1 0 0 
SMALL
USER_CHARGES


@<TRIPOS>ATOM
  1 O        0.5530     0.1130     0.0680 O.2   1 <1>  -0.5700 
  2 C        1.7690     0.0680    -0.0100 C.2   1 <1>   0.6900 
  3 N        2.5470     0.9970     0.6670 N.am  1 <1>  -0.4690 
  4 N        2.3810    -0.8980    -0.7830 N.am  1 <1>  -0.4200 
  5 C        3.9200     0.9850     0.5170 C.2   1 <1>   0.2090 
  6 C        1.8770     1.9930     1.5560 C.3   1 <1>   0.0600 
  7 C        3.7620    -0.9350    -0.9040 C.2   1 <1>   0.6160 
  8 C        1.5500    -1.8670    -1.5580 C.3   1 <1>   0.0600 
  9 N        4.6550     2.0750     0.9330 N.pl3 1 <1>  -0.6000 
 10 C        4.5620    -0.0490    -0.1220 C.2   1 <1>   0.0140 
 11 O        4.2540    -1.7180    -1.7050 O.2   1 <1>  -0.5700 
 12 C        5.9390     2.2440     0.4630 C.2   1 <1>  -0.0380 
 13 C        6.0050    -0.1180     0.0070 C.2   1 <1>   0.0000 
 14 C        6.6100     1.1990    -0.1200 C.2   1 <1>   0.0140 
 15 C        6.5170     3.6480     0.5720 C.3   1 <1>  -0.0220 
 16 C        6.6870    -1.2580     0.4200 C.2   1 <1>   0.0000 
 17 C        7.8250     1.4280    -0.8540 C.2   1 <1>   0.4950 
 18 C        7.5340     3.9200    -0.5430 C.3   1 <1>  -0.1600 
 19 C        8.0970    -1.2860     0.7420 C.2   1 <1>  -0.1500 
 20 C        6.0540    -2.5380     0.6570 C.2   1 <1>  -0.1500 
 21 O        8.3330     0.6450    -1.6190 O.2   1 <1>  -0.5700 
 22 C        8.5330     2.7630    -0.6750 C.3   1 <1>  -0.0990 
 23 C        8.7560    -2.3930     1.1530 C.2   1 <1>  -0.0500 
 24 C        6.7180    -3.6420     1.0690 C.2   1 <1>  -0.0500 
 25 N        8.0850    -3.5990     1.3120 N.pl3 1 <1>  -0.6000 
 26 H        0.9260     1.6200     1.8970 H     1 <1>   0.0800 
 27 H        1.7160     2.9080     1.0140 H     1 <1>   0.0800 
 28 H        2.4830     2.1840     2.4230 H     1 <1>   0.0800 
 29 H        1.3980    -1.4900    -2.5530 H     1 <1>   0.0800 
 30 H        0.5940    -2.0140    -1.0860 H     1 <1>   0.0800 
 31 H        2.0470    -2.8200    -1.6160 H     1 <1>   0.0800 
 32 H        4.1640     2.8440     1.3940 H     1 <1>   0.4000 
 33 H        6.9890     3.7550     1.5330 H     1 <1>   0.0800 
 34 H        5.7290     4.3780     0.5040 H     1 <1>   0.0800 
 35 H        8.0580     4.8400    -0.3470 H     1 <1>   0.0800 
 36 H        7.0070     4.0300    -1.4760 H     1 <1>   0.0800 
 37 H        8.6570    -0.3800     0.6580 H     1 <1>   0.1500 
 38 H        5.0000    -2.6220     0.5030 H     1 <1>   0.1500 
 39 H        9.1740     2.9370    -1.5210 H     1 <1>   0.0800 
 40 H        9.1500     2.7040     0.2020 H     1 <1>   0.0800 
 41 H        9.8100    -2.3890     1.3760 H     1 <1>   0.1500 
 42 H        6.2250    -4.5860     1.2280 H     1 <1>   0.1500 
 43 H        8.5930    -4.4440     1.5970 H     1 <1>   0.4000 
@<TRIPOS>BOND
  1   1   2  2   
  2   2   3  am  
  3   2   4  am  
  4   3   5  1   
  5   3   6  1   
  6   4   7  am  
  7   4   8  1   
  8   5   9  1   
  9   5  10  2   
 10   6  26  1   
 11   6  27  1   
 12   6  28  1   
 13   7  10  1   
 14   7  11  2   
 15   8  29  1   
 16   8  30  1   
 17   8  31  1   
 18   9  12  1   
 19   9  32  1   
 20  10  13  1   
 21  12  14  2   
 22  12  15  1   
 23  13  14  1   
 24  13  16  2   
 25  14  17  1   
 26  15  18  1   
 27  15  33  1   
 28  15  34  1   
 29  16  19  1   
 30  16  20  1   
 31  17  21  2   
 32  17  22  1   
 33  18  22  1   
 34  18  35  1   
 35  18  36  1   
 36  19  23  2   
 37  19  37  1   
 38  20  24  2   
 39  20  38  1   
 40  22  39  1   
 41  22  40  1   
 42  23  25  1   
 43  23  41  1   
 44  24  25  1   
 45  24  42  1   
 46  25  43  1   
@<TRIPOS>SUBSTRUCTURE
  1 ****  13 GROUP 4 **** **** 0

# MOE 2024.06 (io_trps.svl 2023.06)
