@<TRIPOS>MOLECULE
NONAME
46 48 1 0 0 
SMALL
USER_CHARGES


@<TRIPOS>ATOM
  1 F       -1.6530     0.5840    -0.1420 F     1 <1>  -0.1900 
  2 C       -0.4500     0.4470    -0.6270 C.ar  1 <1>   0.1900 
  3 C        0.3350     1.5760    -0.8670 C.ar  1 <1>   0.0860 
  4 C       -0.0280    -0.8430    -0.8890 C.ar  1 <1>  -0.1500 
  5 C       -0.0940     2.9320    -0.5850 C.2   1 <1>   0.5440 
  6 C        1.5970     1.3330    -1.4170 C.ar  1 <1>  -0.1500 
  7 C        1.2310    -1.0430    -1.4250 C.ar  1 <1>  -0.1500 
  8 O        0.2710     3.8390    -1.3060 O.2   1 <1>  -0.5700 
  9 N       -0.8970     3.2060     0.4990 N.am  1 <1>  -0.5470 
 10 C        2.0400     0.0500    -1.6900 C.ar  1 <1>  -0.1500 
 11 C       -1.4310     4.4050     0.9970 C.ar  1 <1>   0.1170 
 12 C       -2.6420     4.3690     1.7040 C.ar  1 <1>   0.0860 
 13 C       -0.7860     5.6270     0.8240 C.ar  1 <1>  -0.1500 
 14 C       -3.3440     3.1200     1.8910 C.2   1 <1>   0.5440 
 15 C       -3.1620     5.5600     2.2140 C.ar  1 <1>  -0.1500 
 16 C       -1.3190     6.7960     1.3300 C.ar  1 <1>  -0.1500 
 17 O       -2.7960     2.2200     2.5030 O.2   1 <1>  -0.5700 
 18 N       -4.5990     2.9060     1.3580 N.am  1 <1>  -0.6600 
 19 C       -2.5120     6.7640     2.0300 C.ar  1 <1>  -0.1500 
 20 C       -5.1460     3.7110     0.2320 C.3   1 <1>   0.1400 
 21 C       -5.3590     1.6540     1.6260 C.3   1 <1>   0.1400 
 22 C       -5.1380     2.8620    -1.0440 C.3   1 <1>  -0.1600 
 23 C       -5.3680     0.7820     0.3660 C.3   1 <1>  -0.1600 
 24 C       -5.9100     1.5460    -0.8540 C.3   1 <1>  -0.0800 
 25 C       -5.8180     0.6810    -2.1150 C.3   1 <1>  -0.2400 
 26 H       -0.6770    -1.6750    -0.6790 H     1 <1>   0.1500 
 27 H        2.2380     2.1720    -1.6330 H     1 <1>   0.1500 
 28 H        1.5800    -2.0390    -1.6370 H     1 <1>   0.1500 
 29 H       -1.2720     2.3720     0.9730 H     1 <1>   0.3700 
 30 H        3.0200    -0.1000    -2.1120 H     1 <1>   0.1500 
 31 H        0.1460     5.6670     0.2900 H     1 <1>   0.1500 
 32 H       -4.0880     5.5290     2.7620 H     1 <1>   0.1500 
 33 H       -0.8050     7.7310     1.1820 H     1 <1>   0.1500 
 34 H       -2.9270     7.6740     2.4290 H     1 <1>   0.1500 
 35 H       -4.5650     4.6010     0.0680 H     1 <1>   0.0800 
 36 H       -6.1530     4.0080     0.4690 H     1 <1>   0.0800 
 37 H       -6.3670     1.9090     1.9020 H     1 <1>   0.0800 
 38 H       -4.9200     1.1090     2.4440 H     1 <1>   0.0800 
 39 H       -4.1160     2.6530    -1.3100 H     1 <1>   0.0800 
 40 H       -5.5770     3.4280    -1.8450 H     1 <1>   0.0800 
 41 H       -5.9700    -0.0900     0.5470 H     1 <1>   0.0800 
 42 H       -4.3620     0.4510     0.1760 H     1 <1>   0.0800 
 43 H       -6.9470     1.7800    -0.6760 H     1 <1>   0.0800 
 44 H       -4.7940     0.4260    -2.3240 H     1 <1>   0.0800 
 45 H       -6.2200     1.2100    -2.9610 H     1 <1>   0.0800 
 46 H       -6.3780    -0.2280    -1.9860 H     1 <1>   0.0800 
@<TRIPOS>BOND
  1   1   2  1   
  2   2   3  ar  
  3   2   4  ar  
  4   3   5  1   
  5   3   6  ar  
  6   4   7  ar  
  7   4  26  1   
  8   5   8  2   
  9   5   9  am  
 10   6  10  ar  
 11   6  27  1   
 12   7  10  ar  
 13   7  28  1   
 14   9  11  1   
 15   9  29  1   
 16  10  30  1   
 17  11  12  ar  
 18  11  13  ar  
 19  12  14  1   
 20  12  15  ar  
 21  13  16  ar  
 22  13  31  1   
 23  14  17  2   
 24  14  18  am  
 25  15  19  ar  
 26  15  32  1   
 27  16  19  ar  
 28  16  33  1   
 29  18  20  1   
 30  18  21  1   
 31  19  34  1   
 32  20  22  1   
 33  20  35  1   
 34  20  36  1   
 35  21  23  1   
 36  21  37  1   
 37  21  38  1   
 38  22  24  1   
 39  22  39  1   
 40  22  40  1   
 41  23  24  1   
 42  23  41  1   
 43  23  42  1   
 44  24  25  1   
 45  24  43  1   
 46  25  44  1   
 47  25  45  1   
 48  25  46  1   
@<TRIPOS>SUBSTRUCTURE
  1 ****   9 GROUP 4 **** **** 0

# MOE 2024.06 (io_trps.svl 2023.06)
