@<TRIPOS>MOLECULE
NONAME
49 51 1 0 0 
SMALL
USER_CHARGES


@<TRIPOS>ATOM
  1 O        0.7210     0.7370    -0.4210 O.2   1 <1>  -0.5700 
  2 C        0.4350     1.8990    -0.6490 C.2   1 <1>   0.5440 
  3 N        1.4150     2.7450    -1.1360 N.am  1 <1>  -0.6600 
  4 C       -0.9170     2.3530    -0.3930 C.ar  1 <1>   0.0860 
  5 C        1.3290     4.2300    -1.0620 C.3   1 <1>   0.1400 
  6 C        2.7330     2.2260    -1.5920 C.3   1 <1>   0.1400 
  7 C       -1.5110     2.1620     0.8550 C.ar  1 <1>  -0.1500 
  8 C       -1.6760     2.9870    -1.3770 C.ar  1 <1>  -0.1500 
  9 C        2.4270     4.7600    -0.1360 C.3   1 <1>  -0.1600 
 10 C        3.8350     2.7340    -0.6590 C.3   1 <1>  -0.1600 
 11 C       -2.7960     2.5990     1.1200 C.ar  1 <1>  -0.1500 
 12 C       -2.9610     3.4290    -1.1200 C.ar  1 <1>  -0.1500 
 13 C        3.8290     4.2710    -0.5580 C.3   1 <1>  -0.0190 
 14 C       -3.5310     3.2430     0.1290 C.ar  1 <1>   0.0830 
 15 C        4.9380     4.7620     0.3760 C.2   1 <1>   0.5690 
 16 O       -4.7890     3.7050     0.3030 O.3   1 <1>  -0.3630 
 17 O        4.6730     5.1880     1.4740 O.2   1 <1>  -0.5700 
 18 N        6.2190     4.6940    -0.0630 N.am  1 <1>  -0.7300 
 19 C       -5.4780     3.5400     1.5220 C.3   1 <1>   0.0400 
 20 C        7.4030     4.9990     0.7590 C.3   1 <1>   0.2840 
 21 C        8.3780     3.8450     0.6160 C.ar  1 <1>  -0.1430 
 22 C        8.1250     2.6180     1.1950 C.ar  1 <1>  -0.1500 
 23 C        9.5540     3.9540    -0.0980 C.ar  1 <1>  -0.1500 
 24 C        9.0340     1.5860     1.0350 C.ar  1 <1>   0.1600 
 25 C       10.3970     2.8580    -0.1960 C.ar  1 <1>   0.1600 
 26 N       10.1630     1.6770     0.3520 N.ar  1 <1>  -0.6200 
 27 H        0.3730     4.5450    -0.6820 H     1 <1>   0.0800 
 28 H        1.4490     4.6390    -2.0500 H     1 <1>   0.0800 
 29 H        2.9130     2.5660    -2.5970 H     1 <1>   0.0800 
 30 H        2.7370     1.1490    -1.6040 H     1 <1>   0.0800 
 31 H       -0.9460     1.6580     1.6200 H     1 <1>   0.1500 
 32 H       -1.2470     3.1300    -2.3530 H     1 <1>   0.1500 
 33 H        2.2160     4.4330     0.8680 H     1 <1>   0.0800 
 34 H        2.4050     5.8360    -0.1360 H     1 <1>   0.0800 
 35 H        4.7870     2.3900    -1.0220 H     1 <1>   0.0800 
 36 H        3.6840     2.3050     0.3180 H     1 <1>   0.0800 
 37 H       -3.2080     2.4310     2.0970 H     1 <1>   0.1500 
 38 H       -3.5350     3.9180    -1.8860 H     1 <1>   0.1500 
 39 H        4.0350     4.6740    -1.5330 H     1 <1>   0.0800 
 40 H        6.4320     4.2670    -0.9650 H     1 <1>   0.3700 
 41 H       -6.4560     3.9750     1.4150 H     1 <1>   0.0800 
 42 H       -4.9360     4.0460     2.3010 H     1 <1>   0.0800 
 43 H       -5.5670     2.4890     1.7330 H     1 <1>   0.0800 
 44 H        7.1230     5.1170     1.7930 H     1 <1>   0.0800 
 45 H        7.8480     5.9170     0.4190 H     1 <1>   0.0800 
 46 H        7.2270     2.4590     1.7660 H     1 <1>   0.1500 
 47 H        9.8260     4.8760    -0.5790 H     1 <1>   0.1500 
 48 H        8.8200     0.6350     1.4940 H     1 <1>   0.1500 
 49 H       11.3120     2.9590    -0.7550 H     1 <1>   0.1500 
@<TRIPOS>BOND
  1   1   2  2   
  2   2   3  am  
  3   2   4  1   
  4   3   5  1   
  5   3   6  1   
  6   4   7  ar  
  7   4   8  ar  
  8   5   9  1   
  9   5  27  1   
 10   5  28  1   
 11   6  10  1   
 12   6  29  1   
 13   6  30  1   
 14   7  11  ar  
 15   7  31  1   
 16   8  12  ar  
 17   8  32  1   
 18   9  13  1   
 19   9  33  1   
 20   9  34  1   
 21  10  13  1   
 22  10  35  1   
 23  10  36  1   
 24  11  14  ar  
 25  11  37  1   
 26  12  14  ar  
 27  12  38  1   
 28  13  15  1   
 29  13  39  1   
 30  14  16  1   
 31  15  17  2   
 32  15  18  am  
 33  16  19  1   
 34  18  20  1   
 35  18  40  1   
 36  19  41  1   
 37  19  42  1   
 38  19  43  1   
 39  20  21  1   
 40  20  44  1   
 41  20  45  1   
 42  21  22  ar  
 43  21  23  ar  
 44  22  24  ar  
 45  22  46  1   
 46  23  25  ar  
 47  23  47  1   
 48  24  26  ar  
 49  24  48  1   
 50  25  26  ar  
 51  25  49  1   
@<TRIPOS>SUBSTRUCTURE
  1 ****  10 GROUP 4 **** **** 0

# MOE 2024.06 (io_trps.svl 2023.06)
