@<TRIPOS>MOLECULE
NONAME
50 52 1 0 0 
SMALL
USER_CHARGES


@<TRIPOS>ATOM
  1 O       -5.6080     1.1330    -1.2360 O.2   1 <1>  -0.5700 
  2 C       -5.5530     1.9070    -0.3160 C.2   1 <1>   0.6590 
  3 O       -4.4510     2.1080     0.3890 O.3   1 <1>  -0.4300 
  4 C       -6.7730     2.7230     0.1000 C.3   1 <1>  -0.0190 
  5 C       -3.2580     1.4160     0.1000 C.3   1 <1>   0.1200 
  6 C       -7.9630     1.8060     0.4450 C.3   1 <1>  -0.1600 
  7 C       -7.1690     3.7180    -1.0080 C.3   1 <1>  -0.1600 
  8 C       -2.1920     1.8770     1.0880 C.3   1 <1>  -0.2400 
  9 C       -9.2340     2.6000     0.7390 C.3   1 <1>   0.3430 
 10 C       -8.4610     4.4630    -0.6760 C.3   1 <1>   0.3430 
 11 N       -9.5540     3.4790    -0.4260 N.4   1 <1>  -0.9590 
 12 C      -10.8620     4.1970    -0.2550 C.3   1 <1>   0.3430 
 13 C      -12.0720     3.2590    -0.2990 C.3   1 <1>   0.1200 
 14 O      -13.2180     4.0580    -0.1400 O.3   1 <1>  -0.3630 
 15 C      -14.4630     3.5230    -0.0980 C.ar  1 <1>   0.0820 
 16 C      -15.5060     4.3740     0.1540 C.ar  1 <1>  -0.1500 
 17 C      -14.7210     2.1530    -0.2980 C.ar  1 <1>  -0.1500 
 18 C      -16.8350     3.9160     0.2220 C.ar  1 <1>   0.0000 
 19 C      -16.0040     1.6840    -0.2370 C.ar  1 <1>  -0.1500 
 20 C      -17.0910     2.5430     0.0230 C.ar  1 <1>   0.0000 
 21 C      -17.9220     4.7770     0.4810 C.ar  1 <1>  -0.1500 
 22 C      -18.4220     2.0840     0.0920 C.ar  1 <1>  -0.1500 
 23 C      -19.2030     4.3040     0.5420 C.ar  1 <1>  -0.1500 
 24 C      -19.4560     2.9420     0.3460 C.ar  1 <1>  -0.1500 
 25 H       -6.5080     3.2820     0.9810 H     1 <1>   0.0800 
 26 H       -2.9690     1.6390    -0.9140 H     1 <1>   0.0800 
 27 H       -3.4430     0.3580     0.1960 H     1 <1>   0.0800 
 28 H       -7.7130     1.2110     1.3060 H     1 <1>   0.0800 
 29 H       -8.1520     1.1250    -0.3680 H     1 <1>   0.0800 
 30 H       -7.2900     3.1990    -1.9440 H     1 <1>   0.0800 
 31 H       -6.3760     4.4340    -1.1410 H     1 <1>   0.0800 
 32 H       -2.0220     2.9340     0.9860 H     1 <1>   0.0800 
 33 H       -1.2690     1.3630     0.8900 H     1 <1>   0.0800 
 34 H       -2.4960     1.6550     2.0950 H     1 <1>   0.0800 
 35 H       -9.0900     3.2010     1.6230 H     1 <1>   0.0800 
 36 H      -10.0440     1.9130     0.9250 H     1 <1>   0.0800 
 37 H       -8.7220     5.1070    -1.5010 H     1 <1>   0.0800 
 38 H       -8.3120     5.0760     0.1990 H     1 <1>   0.0800 
 39 H       -9.6140     2.8820    -1.2640 H     1 <1>   0.4500 
 40 H      -10.9760     4.9200    -1.0460 H     1 <1>   0.0800 
 41 H      -10.8640     4.7250     0.6850 H     1 <1>   0.0800 
 42 H      -12.0510     2.5500     0.5090 H     1 <1>   0.0800 
 43 H      -12.1410     2.7630    -1.2510 H     1 <1>   0.0800 
 44 H      -15.3170     5.4200     0.3060 H     1 <1>   0.1500 
 45 H      -13.9260     1.4630    -0.5020 H     1 <1>   0.1500 
 46 H      -16.2100     0.6400    -0.3890 H     1 <1>   0.1500 
 47 H      -17.7220     5.8220     0.6310 H     1 <1>   0.1500 
 48 H      -18.6120     1.0370    -0.0600 H     1 <1>   0.1500 
 49 H      -20.0280     4.9660     0.7410 H     1 <1>   0.1500 
 50 H      -20.4710     2.5860     0.3970 H     1 <1>   0.1500 
@<TRIPOS>BOND
  1   1   2  2   
  2   2   3  1   
  3   2   4  1   
  4   3   5  1   
  5   4   6  1   
  6   4   7  1   
  7   4  25  1   
  8   5   8  1   
  9   5  26  1   
 10   5  27  1   
 11   6   9  1   
 12   6  28  1   
 13   6  29  1   
 14   7  10  1   
 15   7  30  1   
 16   7  31  1   
 17   8  32  1   
 18   8  33  1   
 19   8  34  1   
 20   9  11  1   
 21   9  35  1   
 22   9  36  1   
 23  10  11  1   
 24  10  37  1   
 25  10  38  1   
 26  11  12  1   
 27  11  39  1   
 28  12  13  1   
 29  12  40  1   
 30  12  41  1   
 31  13  14  1   
 32  13  42  1   
 33  13  43  1   
 34  14  15  1   
 35  15  16  ar  
 36  15  17  ar  
 37  16  18  ar  
 38  16  44  1   
 39  17  19  ar  
 40  17  45  1   
 41  18  20  ar  
 42  18  21  ar  
 43  19  20  ar  
 44  19  46  1   
 45  20  22  ar  
 46  21  23  ar  
 47  21  47  1   
 48  22  24  ar  
 49  22  48  1   
 50  23  24  ar  
 51  23  49  1   
 52  24  50  1   
@<TRIPOS>SUBSTRUCTURE
  1 ****  13 GROUP 4 **** **** 0

# MOE 2024.06 (io_trps.svl 2023.06)
