@<TRIPOS>MOLECULE
NONAME
46 48 1 0 0 
SMALL
USER_CHARGES


@<TRIPOS>ATOM
  1 F       -2.0580     1.7270    -2.1640 F     1 <1>  -0.1900 
  2 C       -2.0640     2.1110    -0.9170 C.ar  1 <1>   0.1900 
  3 C       -2.6220     1.2850     0.0580 C.ar  1 <1>   0.0860 
  4 C       -1.5240     3.3530    -0.6370 C.ar  1 <1>  -0.1500 
  5 C       -3.1840    -0.0110    -0.2440 C.2   1 <1>   0.5440 
  6 C       -2.6210     1.7820     1.3640 C.ar  1 <1>  -0.1500 
  7 C       -1.5370     3.8120     0.6670 C.ar  1 <1>  -0.1500 
  8 O       -2.5570    -0.8350    -0.8760 O.2   1 <1>  -0.5700 
  9 N       -4.4490    -0.2960     0.2150 N.am  1 <1>  -0.5470 
 10 C       -2.0880     3.0250     1.6650 C.ar  1 <1>  -0.1500 
 11 C       -5.2740    -1.4290     0.1520 C.ar  1 <1>   0.1170 
 12 C       -6.6610    -1.2780     0.3390 C.ar  1 <1>   0.0860 
 13 C       -4.7540    -2.7020    -0.0730 C.ar  1 <1>  -0.1500 
 14 C       -7.2610     0.0240     0.5600 C.2   1 <1>   0.5440 
 15 C       -7.4650    -2.4200     0.2970 C.ar  1 <1>  -0.1500 
 16 C       -5.5710    -3.8130    -0.1190 C.ar  1 <1>  -0.1500 
 17 O       -6.7120     0.8650     1.2510 O.2   1 <1>  -0.5700 
 18 N       -8.4520     0.3400    -0.0290 N.am  1 <1>  -0.7300 
 19 C       -6.9330    -3.6730     0.0690 C.ar  1 <1>  -0.1500 
 20 C       -9.1540     1.6290     0.0890 C.3   1 <1>   0.2200 
 21 C      -10.6330     1.3630     0.3860 C.3   1 <1>  -0.1600 
 22 C       -8.9790     2.4090    -1.2180 C.3   1 <1>  -0.1600 
 23 C      -11.4360     2.6720     0.4150 C.3   1 <1>  -0.1600 
 24 C       -9.7790     3.7200    -1.1930 C.3   1 <1>  -0.1600 
 25 C      -11.2610     3.4590    -0.8910 C.3   1 <1>  -0.1600 
 26 H       -1.1050     3.9470    -1.4300 H     1 <1>   0.1500 
 27 H       -3.0400     1.1830     2.1550 H     1 <1>   0.1500 
 28 H       -1.1220     4.7770     0.9060 H     1 <1>   0.1500 
 29 H       -4.9310     0.5090     0.6420 H     1 <1>   0.3700 
 30 H       -2.1000     3.3820     2.6810 H     1 <1>   0.1500 
 31 H       -3.6970    -2.8330    -0.2110 H     1 <1>   0.1500 
 32 H       -8.5250    -2.3250     0.4550 H     1 <1>   0.1500 
 33 H       -5.1460    -4.7870    -0.2980 H     1 <1>   0.1500 
 34 H       -8.8490    -0.2980    -0.7170 H     1 <1>   0.3700 
 35 H       -7.5710    -4.5410     0.0390 H     1 <1>   0.1500 
 36 H       -8.7320     2.2020     0.9000 H     1 <1>   0.0800 
 37 H      -10.7200     0.8720     1.3400 H     1 <1>   0.0800 
 38 H      -11.0430     0.7190    -0.3710 H     1 <1>   0.0800 
 39 H       -9.3160     1.8090    -2.0450 H     1 <1>   0.0800 
 40 H       -7.9360     2.6330    -1.3590 H     1 <1>   0.0800 
 41 H      -11.1030     3.2760     1.2420 H     1 <1>   0.0800 
 42 H      -12.4790     2.4530     0.5680 H     1 <1>   0.0800 
 43 H       -9.6850     4.2180    -2.1420 H     1 <1>   0.0800 
 44 H       -9.3710     4.3700    -0.4370 H     1 <1>   0.0800 
 45 H      -11.7840     4.3970    -0.8180 H     1 <1>   0.0800 
 46 H      -11.6980     2.9030    -1.7040 H     1 <1>   0.0800 
@<TRIPOS>BOND
  1   1   2  1   
  2   2   3  ar  
  3   2   4  ar  
  4   3   5  1   
  5   3   6  ar  
  6   4   7  ar  
  7   4  26  1   
  8   5   8  2   
  9   5   9  am  
 10   6  10  ar  
 11   6  27  1   
 12   7  10  ar  
 13   7  28  1   
 14   9  11  1   
 15   9  29  1   
 16  10  30  1   
 17  11  12  ar  
 18  11  13  ar  
 19  12  14  1   
 20  12  15  ar  
 21  13  16  ar  
 22  13  31  1   
 23  14  17  2   
 24  14  18  am  
 25  15  19  ar  
 26  15  32  1   
 27  16  19  ar  
 28  16  33  1   
 29  18  20  1   
 30  18  34  1   
 31  19  35  1   
 32  20  21  1   
 33  20  22  1   
 34  20  36  1   
 35  21  23  1   
 36  21  37  1   
 37  21  38  1   
 38  22  24  1   
 39  22  39  1   
 40  22  40  1   
 41  23  25  1   
 42  23  41  1   
 43  23  42  1   
 44  24  25  1   
 45  24  43  1   
 46  24  44  1   
 47  25  45  1   
 48  25  46  1   
@<TRIPOS>SUBSTRUCTURE
  1 ****  17 GROUP 4 **** **** 0

# MOE 2024.06 (io_trps.svl 2023.06)
