@<TRIPOS>MOLECULE
NONAME
41 44 1 0 0 
SMALL
USER_CHARGES


@<TRIPOS>ATOM
  1 S       -7.9600     1.3080     1.1920 S.3   1 <1>  -0.0800 
  2 C       -7.8280     3.0590     0.9280 C.ar  1 <1>   0.2970 
  3 C       -6.4730     1.0530     0.2940 C.2   1 <1>  -0.1400 
  4 N       -8.7280     3.9140     1.3640 N.ar  1 <1>  -0.5670 
  5 C       -6.6900     3.3710     0.2160 C.ar  1 <1>   0.0000 
  6 C       -5.9450     2.1880    -0.1360 C.2   1 <1>  -0.1810 
  7 C       -5.7490    -0.2060    -0.0590 C.3   1 <1>   0.0200 
  8 C       -8.4440     5.1590     1.0390 C.ar  1 <1>   0.4770 
  9 C       -6.5050     4.7320    -0.0330 C.ar  1 <1>   0.4100 
 10 C       -4.6850     1.9170    -0.9150 C.3   1 <1>   0.0210 
 11 C       -4.6160     0.3630    -0.9530 C.3   1 <1>  -0.1600 
 12 N       -7.3990     5.6200     0.3680 N.ar  1 <1>  -0.6200 
 13 C       -9.4320     6.2090     1.4880 C.3   1 <1>  -0.0960 
 14 N       -5.3880     5.2130    -0.6800 N.pl3 1 <1>  -0.8380 
 15 C       -4.0740     5.1520     0.0110 C.3   1 <1>   0.2090 
 16 C       -5.5180     6.2740    -1.7150 C.3   1 <1>   0.2090 
 17 C       -3.7110     6.5200     0.6100 C.3   1 <1>  -0.0800 
 18 C       -5.1420     7.6410    -1.1330 C.3   1 <1>  -0.1600 
 19 C       -3.7630     7.6220    -0.4600 C.3   1 <1>  -0.1600 
 20 C       -2.3250     6.4780     1.2670 C.3   1 <1>  -0.2400 
 21 H       -6.3880    -0.8800    -0.6030 H     1 <1>   0.0800 
 22 H       -5.3630    -0.6780     0.8260 H     1 <1>   0.0800 
 23 H       -3.8340     2.3240    -0.4010 H     1 <1>   0.0800 
 24 H       -4.7530     2.3370    -1.9040 H     1 <1>   0.0800 
 25 H       -4.7610     0.0270    -1.9640 H     1 <1>   0.0800 
 26 H       -3.6560     0.0180    -0.6110 H     1 <1>   0.0800 
 27 H      -10.2210     5.7650     2.0660 H     1 <1>   0.0800 
 28 H       -9.8550     6.6900     0.6260 H     1 <1>   0.0800 
 29 H       -8.9260     6.9410     2.0880 H     1 <1>   0.0800 
 30 H       -3.3230     4.8500    -0.6970 H     1 <1>   0.0800 
 31 H       -4.1140     4.4180     0.7980 H     1 <1>   0.0800 
 32 H       -6.5290     6.3000    -2.0830 H     1 <1>   0.0800 
 33 H       -4.8680     6.0360    -2.5390 H     1 <1>   0.0800 
 34 H       -4.4390     6.7440     1.3720 H     1 <1>   0.0800 
 35 H       -5.8910     7.9210    -0.4130 H     1 <1>   0.0800 
 36 H       -5.1550     8.3750    -1.9190 H     1 <1>   0.0800 
 37 H       -3.0060     7.4430    -1.2040 H     1 <1>   0.0800 
 38 H       -3.5730     8.5800    -0.0090 H     1 <1>   0.0800 
 39 H       -1.5650     6.2510     0.5400 H     1 <1>   0.0800 
 40 H       -2.3010     5.7280     2.0380 H     1 <1>   0.0800 
 41 H       -2.0980     7.4290     1.7160 H     1 <1>   0.0800 
@<TRIPOS>BOND
  1   1   2  1   
  2   1   3  1   
  3   2   4  ar  
  4   2   5  ar  
  5   3   6  2   
  6   3   7  1   
  7   4   8  ar  
  8   5   6  1   
  9   5   9  ar  
 10   6  10  1   
 11   7  11  1   
 12   7  21  1   
 13   7  22  1   
 14   8  12  ar  
 15   8  13  1   
 16   9  12  ar  
 17   9  14  1   
 18  10  11  1   
 19  10  23  1   
 20  10  24  1   
 21  11  25  1   
 22  11  26  1   
 23  13  27  1   
 24  13  28  1   
 25  13  29  1   
 26  14  15  1   
 27  14  16  1   
 28  15  17  1   
 29  15  30  1   
 30  15  31  1   
 31  16  18  1   
 32  16  32  1   
 33  16  33  1   
 34  17  19  1   
 35  17  20  1   
 36  17  34  1   
 37  18  19  1   
 38  18  35  1   
 39  18  36  1   
 40  19  37  1   
 41  19  38  1   
 42  20  39  1   
 43  20  40  1   
 44  20  41  1   
@<TRIPOS>SUBSTRUCTURE
  1 ****   9 GROUP 4 **** **** 0

# MOE 2024.06 (io_trps.svl 2023.06)
