@<TRIPOS>MOLECULE
NONAME
42 43 1 0 0 
SMALL
USER_CHARGES


@<TRIPOS>ATOM
  1 CL       0.2210    -0.0020    -1.5870 Cl    1 <1>  -0.1770 
  2 C        1.6420     0.8500    -1.0450 C.ar  1 <1>   0.1770 
  3 C        1.6560     2.2300    -1.0600 C.ar  1 <1>  -0.1500 
  4 C        2.7380     0.1340    -0.6050 C.ar  1 <1>  -0.1500 
  5 C        2.7890     2.8990    -0.6290 C.ar  1 <1>  -0.1500 
  6 C        3.8650     0.8140    -0.1760 C.ar  1 <1>  -0.1500 
  7 C        3.9220     2.2130    -0.1810 C.ar  1 <1>   0.0860 
  8 C        5.1030     2.9400     0.2600 C.2   1 <1>   0.5440 
  9 O        5.0430     4.1170     0.5550 O.2   1 <1>  -0.5700 
 10 N        6.3180     2.3280     0.3470 N.am  1 <1>  -0.7300 
 11 C        7.5930     3.0030     0.7240 C.3   1 <1>   0.2010 
 12 C        8.8350     2.1750     0.3620 C.2   1 <1>   0.5690 
 13 O        8.6600     1.0240     0.0220 O.2   1 <1>  -0.5700 
 14 N       10.0920     2.7340     0.4250 N.am  1 <1>  -0.6600 
 15 C       11.2860     1.9450    -0.0150 C.3   1 <1>   0.2200 
 16 C       10.3360     4.1280     0.9120 C.3   1 <1>   0.0600 
 17 C       12.1080     1.4890     1.1980 C.3   1 <1>  -0.1600 
 18 C       12.1490     2.7270    -1.0190 C.3   1 <1>  -0.1600 
 19 C       13.3250     0.6630     0.7560 C.3   1 <1>  -0.1600 
 20 C       13.3600     1.8930    -1.4620 C.3   1 <1>  -0.1600 
 21 C       14.1870     1.4340    -0.2530 C.3   1 <1>  -0.1600 
 22 H        0.7920     2.7710    -1.4030 H     1 <1>   0.1500 
 23 H        2.7040    -0.9410    -0.5990 H     1 <1>   0.1500 
 24 H        2.8030     3.9760    -0.6380 H     1 <1>   0.1500 
 25 H        4.7090     0.2460     0.1730 H     1 <1>   0.1500 
 26 H        6.4680     1.3750    -0.0010 H     1 <1>   0.3700 
 27 H        7.5890     3.1770     1.7840 H     1 <1>   0.0800 
 28 H        7.6430     3.9520     0.2210 H     1 <1>   0.0800 
 29 H       10.9490     1.0560    -0.5230 H     1 <1>   0.0800 
 30 H        9.5860     4.4270     1.6220 H     1 <1>   0.0800 
 31 H       10.3220     4.8090     0.0780 H     1 <1>   0.0800 
 32 H       11.2930     4.1970     1.3980 H     1 <1>   0.0800 
 33 H       11.4860     0.8900     1.8390 H     1 <1>   0.0800 
 34 H       12.4540     2.3410     1.7540 H     1 <1>   0.0800 
 35 H       12.5110     3.6360    -0.5750 H     1 <1>   0.0800 
 36 H       11.5540     2.9760    -1.8800 H     1 <1>   0.0800 
 37 H       12.9860    -0.2550     0.3060 H     1 <1>   0.0800 
 38 H       13.9190     0.4060     1.6170 H     1 <1>   0.0800 
 39 H       13.9780     2.4760    -2.1230 H     1 <1>   0.0800 
 40 H       13.0180     1.0300    -2.0090 H     1 <1>   0.0800 
 41 H       14.9950     0.8060    -0.5890 H     1 <1>   0.0800 
 42 H       14.6190     2.2930     0.2300 H     1 <1>   0.0800 
@<TRIPOS>BOND
  1   1   2  1   
  2   2   3  ar  
  3   2   4  ar  
  4   3   5  ar  
  5   3  22  1   
  6   4   6  ar  
  7   4  23  1   
  8   5   7  ar  
  9   5  24  1   
 10   6   7  ar  
 11   6  25  1   
 12   7   8  1   
 13   8   9  2   
 14   8  10  am  
 15  10  11  1   
 16  10  26  1   
 17  11  12  1   
 18  11  27  1   
 19  11  28  1   
 20  12  13  2   
 21  12  14  am  
 22  14  15  1   
 23  14  16  1   
 24  15  17  1   
 25  15  18  1   
 26  15  29  1   
 27  16  30  1   
 28  16  31  1   
 29  16  32  1   
 30  17  19  1   
 31  17  33  1   
 32  17  34  1   
 33  18  20  1   
 34  18  35  1   
 35  18  36  1   
 36  19  21  1   
 37  19  37  1   
 38  19  38  1   
 39  20  21  1   
 40  20  39  1   
 41  20  40  1   
 42  21  41  1   
 43  21  42  1   
@<TRIPOS>SUBSTRUCTURE
  1 ****  10 GROUP 4 **** **** 0

# MOE 2024.06 (io_trps.svl 2023.06)
