@<TRIPOS>MOLECULE
NONAME
63 66 1 0 0 
SMALL
USER_CHARGES


@<TRIPOS>ATOM
  1 O       -0.2600     1.7420     0.0710 O.2   1 <1>  -0.5730 
  2 C        0.5040     2.6350     0.3820 C.2   1 <1>   0.6870 
  3 N       -0.0190     3.8430     0.8200 N.am  1 <1>  -0.4240 
  4 N        1.8770     2.4680     0.2680 N.am  1 <1>  -0.4400 
  5 C        0.7930     4.9550     0.9960 C.2   1 <1>   0.7000 
  6 C       -1.4850     3.9290     1.1200 C.3   1 <1>   0.1340 
  7 C        2.6890     3.5640     0.5060 C.2   1 <1>   0.4220 
  8 C        2.4580     1.1520    -0.1370 C.3   1 <1>   0.0540 
  9 O        0.2840     6.0360     1.2320 O.2   1 <1>  -0.5730 
 10 C        2.2040     4.7820     0.8570 C.2   1 <1>   0.2720 
 11 C       -2.2950     4.1170    -0.1770 C.3   1 <1>   0.3380 
 12 N        4.0500     3.6260     0.4180 N.pl3 1 <1>  -0.7030 
 13 N        3.3200     5.6250     0.9870 N.pl3 1 <1>  -0.6320 
 14 N       -3.5580     3.3140    -0.2080 N.4   1 <1>  -0.9600 
 15 C        4.3890     4.8870     0.7160 C.cat 1 <1>   1.0690 
 16 C        3.7780     6.8990     1.2580 C.2   1 <1>   0.2360 
 17 C       -3.2830     1.8450    -0.3180 C.3   1 <1>   0.3380 
 18 C       -4.4250     3.7710    -1.3310 C.3   1 <1>   0.3380 
 19 N        5.5190     5.5930     0.7980 N.pl3 1 <1>  -0.5710 
 20 C        5.1280     6.8800     1.1410 C.2   1 <1>   0.1590 
 21 C        2.8080     8.0120     1.6070 C.3   1 <1>  -0.1080 
 22 C       -4.5970     1.0680    -0.2380 C.3   1 <1>  -0.1660 
 23 C       -5.7690     3.0440    -1.2720 C.3   1 <1>  -0.1660 
 24 C        6.8950     5.1050     0.5390 C.3   1 <1>   0.1620 
 25 C        6.1400     8.0000     1.3230 C.3   1 <1>  -0.1080 
 26 C       -5.5910     1.5220    -1.3140 C.3   1 <1>  -0.1660 
 27 C        7.1870     5.1720    -0.9610 C.3   1 <1>  -0.1660 
 28 C        8.5970     4.6560    -1.2690 C.3   1 <1>  -0.1660 
 29 C        8.8830     4.7150    -2.7720 C.3   1 <1>  -0.2450 
 30 H       -1.6850     4.7500     1.7870 H     1 <1>   0.0740 
 31 H       -1.7840     3.0270     1.6260 H     1 <1>   0.0740 
 32 H        1.7490     0.3570     0.0240 H     1 <1>   0.0740 
 33 H        3.3360     0.9350     0.4460 H     1 <1>   0.0740 
 34 H        2.7160     1.1730    -1.1820 H     1 <1>   0.0740 
 35 H       -1.6850     3.8250    -1.0160 H     1 <1>   0.0740 
 36 H       -2.5310     5.1630    -0.2830 H     1 <1>   0.0740 
 37 H        4.7060     2.8940     0.1530 H     1 <1>   0.4460 
 38 H       -4.0940     3.4620     0.6570 H     1 <1>   0.4460 
 39 H       -2.6310     1.5230     0.4770 H     1 <1>   0.0740 
 40 H       -2.7940     1.6340    -1.2560 H     1 <1>   0.0740 
 41 H       -3.9440     3.5590    -2.2720 H     1 <1>   0.0740 
 42 H       -4.5900     4.8340    -1.2630 H     1 <1>   0.0740 
 43 H        2.2480     7.7500     2.4860 H     1 <1>   0.0740 
 44 H        2.1210     8.1690     0.7950 H     1 <1>   0.0740 
 45 H        3.3280     8.9320     1.7960 H     1 <1>   0.0740 
 46 H       -5.0290     1.1950     0.7400 H     1 <1>   0.0740 
 47 H       -4.3910     0.0190    -0.3640 H     1 <1>   0.0740 
 48 H       -6.3720     3.3530    -2.1080 H     1 <1>   0.0740 
 49 H       -6.2920     3.3290    -0.3750 H     1 <1>   0.0740 
 50 H        6.9910     4.0900     0.8870 H     1 <1>   0.0740 
 51 H        7.6060     5.7070     1.0780 H     1 <1>   0.0740 
 52 H        6.7050     8.1400     0.4190 H     1 <1>   0.0740 
 53 H        6.8170     7.7620     2.1240 H     1 <1>   0.0740 
 54 H        5.6500     8.9270     1.5600 H     1 <1>   0.0740 
 55 H       -6.5410     1.0360    -1.1630 H     1 <1>   0.0740 
 56 H       -5.2240     1.2300    -2.2840 H     1 <1>   0.0740 
 57 H        7.1080     6.1920    -1.2970 H     1 <1>   0.0740 
 58 H        6.4730     4.5760    -1.5030 H     1 <1>   0.0740 
 59 H        8.7010     3.6380    -0.9340 H     1 <1>   0.0740 
 60 H        9.3280     5.2540    -0.7510 H     1 <1>   0.0740 
 61 H        8.1880     4.1020    -3.3180 H     1 <1>   0.0740 
 62 H        9.8780     4.3570    -2.9690 H     1 <1>   0.0740 
 63 H        8.8110     5.7270    -3.1320 H     1 <1>   0.0740 
@<TRIPOS>BOND
  1   1   2  2   
  2   2   3  am  
  3   2   4  am  
  4   3   5  am  
  5   3   6  1   
  6   4   7  1   
  7   4   8  1   
  8   5   9  2   
  9   5  10  1   
 10   6  11  1   
 11   6  30  1   
 12   6  31  1   
 13   7  10  2   
 14   7  12  1   
 15   8  32  1   
 16   8  33  1   
 17   8  34  1   
 18  10  13  1   
 19  11  14  1   
 20  11  35  1   
 21  11  36  1   
 22  12  15  ar  
 23  12  37  1   
 24  13  15  ar  
 25  13  16  1   
 26  14  17  1   
 27  14  18  1   
 28  14  38  1   
 29  15  19  ar  
 30  16  20  2   
 31  16  21  1   
 32  17  22  1   
 33  17  39  1   
 34  17  40  1   
 35  18  23  1   
 36  18  41  1   
 37  18  42  1   
 38  19  20  1   
 39  19  24  1   
 40  20  25  1   
 41  21  43  1   
 42  21  44  1   
 43  21  45  1   
 44  22  26  1   
 45  22  46  1   
 46  22  47  1   
 47  23  26  1   
 48  23  48  1   
 49  23  49  1   
 50  24  27  1   
 51  24  50  1   
 52  24  51  1   
 53  25  52  1   
 54  25  53  1   
 55  25  54  1   
 56  26  55  1   
 57  26  56  1   
 58  27  28  1   
 59  27  57  1   
 60  27  58  1   
 61  28  29  1   
 62  28  59  1   
 63  28  60  1   
 64  29  61  1   
 65  29  62  1   
 66  29  63  1   
@<TRIPOS>SUBSTRUCTURE
  1 ****  10 GROUP 4 **** **** 0

# MOE 2024.06 (io_trps.svl 2023.06)
