@<TRIPOS>MOLECULE
NONAME
38 38 1 0 0 
SMALL
USER_CHARGES


@<TRIPOS>ATOM
  1 CL       0.1170     0.3180    -0.5540 Cl    1 <1>  -0.1770 
  2 C        1.5430    -0.6580    -0.3110 C.ar  1 <1>   0.1770 
  3 C        1.4010    -1.9860     0.0510 C.ar  1 <1>  -0.1500 
  4 C        2.7910    -0.0850    -0.4840 C.ar  1 <1>  -0.1500 
  5 C        2.5350    -2.7580     0.2440 C.ar  1 <1>  -0.1500 
  6 C        3.9260    -0.8570    -0.2920 C.ar  1 <1>  -0.1500 
  7 C        3.7870    -2.1900     0.0710 C.ar  1 <1>   0.1020 
  8 S        5.2080    -3.2640     0.3410 S.3   1 <1>  -0.3320 
  9 C        6.7150    -2.2380     0.0430 C.3   1 <1>   0.0700 
 10 C        7.9300    -3.1320     0.2670 C.3   1 <1>   0.1200 
 11 O        9.0840    -2.3770     0.0470 O.3   1 <1>  -0.5600 
 12 C       10.2670    -3.0800     0.2210 C.3   1 <1>   0.1200 
 13 C       11.4170    -2.1060    -0.0540 C.3   1 <1>   0.3430 
 14 N       12.7520    -2.7630     0.1000 N.4   1 <1>  -0.9060 
 15 C       13.8780    -1.8620    -0.1810 C.3   1 <1>   0.4230 
 16 C       15.1230    -2.7250    -0.3320 C.3   1 <1>  -0.2400 
 17 C       14.0390    -0.8770     0.9730 C.3   1 <1>  -0.2400 
 18 H        0.4190    -2.4050     0.1790 H     1 <1>   0.1500 
 19 H        2.8670     0.9500    -0.7660 H     1 <1>   0.1500 
 20 H        2.4530    -3.7930     0.5250 H     1 <1>   0.1500 
 21 H        4.8920    -0.4100    -0.4270 H     1 <1>   0.1500 
 22 H        6.6920    -1.4230     0.7430 H     1 <1>   0.0800 
 23 H        6.6680    -1.8870    -0.9720 H     1 <1>   0.0800 
 24 H        7.9130    -3.9580    -0.4240 H     1 <1>   0.0800 
 25 H        7.9370    -3.4970     1.2800 H     1 <1>   0.0800 
 26 H       10.2800    -3.8990    -0.4780 H     1 <1>   0.0800 
 27 H       10.3010    -3.4410     1.2350 H     1 <1>   0.0800 
 28 H       11.3350    -1.2800     0.6330 H     1 <1>   0.0800 
 29 H       11.3130    -1.7260    -1.0580 H     1 <1>   0.0800 
 30 H       12.8190    -3.5630    -0.5390 H     1 <1>   0.4500 
 31 H       12.8640    -3.1240     1.0540 H     1 <1>   0.4500 
 32 H       13.7050    -1.3240    -1.1020 H     1 <1>   0.0800 
 33 H       15.3310    -3.2760     0.5690 H     1 <1>   0.0800 
 34 H       15.9730    -2.0970    -0.5380 H     1 <1>   0.0800 
 35 H       15.0190    -3.4080    -1.1560 H     1 <1>   0.0800 
 36 H       14.1940    -1.3880     1.9070 H     1 <1>   0.0800 
 37 H       13.1860    -0.2280     1.0550 H     1 <1>   0.0800 
 38 H       14.8970    -0.2520     0.7920 H     1 <1>   0.0800 
@<TRIPOS>BOND
  1   1   2  1   
  2   2   3  ar  
  3   2   4  ar  
  4   3   5  ar  
  5   3  18  1   
  6   4   6  ar  
  7   4  19  1   
  8   5   7  ar  
  9   5  20  1   
 10   6   7  ar  
 11   6  21  1   
 12   7   8  1   
 13   8   9  1   
 14   9  10  1   
 15   9  22  1   
 16   9  23  1   
 17  10  11  1   
 18  10  24  1   
 19  10  25  1   
 20  11  12  1   
 21  12  13  1   
 22  12  26  1   
 23  12  27  1   
 24  13  14  1   
 25  13  28  1   
 26  13  29  1   
 27  14  15  1   
 28  14  30  1   
 29  14  31  1   
 30  15  16  1   
 31  15  17  1   
 32  15  32  1   
 33  16  33  1   
 34  16  34  1   
 35  16  35  1   
 36  17  36  1   
 37  17  37  1   
 38  17  38  1   
@<TRIPOS>SUBSTRUCTURE
  1 ****   9 GROUP 4 **** **** 0

# MOE 2024.06 (io_trps.svl 2023.06)
