@<TRIPOS>MOLECULE
NONAME
40 42 1 0 0 
SMALL
USER_CHARGES


@<TRIPOS>ATOM
  1 N        0.5720     0.2830     0.8500 N.3   1 <1>  -0.8100 
  2 C        0.4180     1.6200     0.2370 C.3   1 <1>   0.1100 
  3 C       -0.6930    -0.2020     1.4250 C.3   1 <1>   0.1100 
  4 C        1.6800     0.2300     1.8270 C.3   1 <1>   0.2910 
  5 C       -0.6820     1.6100    -0.8400 C.3   1 <1>   0.3430 
  6 C       -1.8110    -0.2260     0.3620 C.3   1 <1>   0.3430 
  7 C        2.9860     0.6860     1.1980 C.2   1 <1>  -0.1810 
  8 N       -1.9960     1.1180    -0.2950 N.4   1 <1>  -0.9590 
  9 C        3.5610     0.1120     0.0410 C.ar  1 <1>   0.0000 
 10 C        3.8000     1.6920     1.6030 C.2   1 <1>  -0.3020 
 11 C       -3.0240     1.0920    -1.3650 C.3   1 <1>   0.3430 
 12 C        4.7290     0.8240    -0.2130 C.ar  1 <1>  -0.1520 
 13 C        3.1940    -0.9350    -0.8110 C.ar  1 <1>  -0.1500 
 14 N        4.8670     1.7840     0.7550 N.pl3 1 <1>   0.0330 
 15 C       -4.4090     0.9560    -0.7450 C.3   1 <1>  -0.2400 
 16 C        5.5370     0.5110    -1.3090 C.ar  1 <1>  -0.1500 
 17 C        3.9900    -1.2440    -1.8890 C.ar  1 <1>  -0.1500 
 18 C        5.1620    -0.5200    -2.1390 C.ar  1 <1>  -0.1500 
 19 H        1.3390     1.9120    -0.2400 H     1 <1>   0.0800 
 20 H        0.1920     2.3530     0.9930 H     1 <1>   0.0800 
 21 H       -0.9890     0.4220     2.2510 H     1 <1>   0.0800 
 22 H       -0.5510    -1.2030     1.7980 H     1 <1>   0.0800 
 23 H        1.8050    -0.7820     2.1740 H     1 <1>   0.0800 
 24 H        1.4560     0.8550     2.6750 H     1 <1>   0.0800 
 25 H       -0.3560     0.9680    -1.6420 H     1 <1>   0.0800 
 26 H       -0.7950     2.6060    -1.2360 H     1 <1>   0.0800 
 27 H       -2.7310    -0.5380     0.8280 H     1 <1>   0.0800 
 28 H       -1.5510    -0.9590    -0.3840 H     1 <1>   0.0800 
 29 H       -2.2930     1.7820     0.4290 H     1 <1>   0.4500 
 30 H        3.6900     2.3510     2.4460 H     1 <1>   0.1500 
 31 H       -2.8360     0.2740    -2.0420 H     1 <1>   0.0800 
 32 H       -2.9840     2.0110    -1.9290 H     1 <1>   0.0800 
 33 H        2.2920    -1.4800    -0.6050 H     1 <1>   0.1500 
 34 H        5.6490     2.4440     0.8220 H     1 <1>   0.2700 
 35 H       -4.5290     0.0090    -0.2500 H     1 <1>   0.0800 
 36 H       -5.1490     1.0100    -1.5240 H     1 <1>   0.0800 
 37 H       -4.6000     1.7570    -0.0530 H     1 <1>   0.0800 
 38 H        6.4360     1.0710    -1.4930 H     1 <1>   0.1500 
 39 H        3.7210    -2.0480    -2.5520 H     1 <1>   0.1500 
 40 H        5.7670    -0.7810    -2.9890 H     1 <1>   0.1500 
@<TRIPOS>BOND
  1   1   2  1   
  2   1   3  1   
  3   1   4  1   
  4   2   5  1   
  5   2  19  1   
  6   2  20  1   
  7   3   6  1   
  8   3  21  1   
  9   3  22  1   
 10   4   7  1   
 11   4  23  1   
 12   4  24  1   
 13   5   8  1   
 14   5  25  1   
 15   5  26  1   
 16   6   8  1   
 17   6  27  1   
 18   6  28  1   
 19   7   9  1   
 20   7  10  2   
 21   8  11  1   
 22   8  29  1   
 23   9  12  ar  
 24   9  13  ar  
 25  10  14  1   
 26  10  30  1   
 27  11  15  1   
 28  11  31  1   
 29  11  32  1   
 30  12  14  1   
 31  12  16  ar  
 32  13  17  ar  
 33  13  33  1   
 34  14  34  1   
 35  15  35  1   
 36  15  36  1   
 37  15  37  1   
 38  16  18  ar  
 39  16  38  1   
 40  17  18  ar  
 41  17  39  1   
 42  18  40  1   
@<TRIPOS>SUBSTRUCTURE
  1 ****   1 GROUP 4 **** **** 0

# MOE 2024.06 (io_trps.svl 2023.06)
