@<TRIPOS>MOLECULE
NONAME
33 35 1 0 0 
SMALL
USER_CHARGES


@<TRIPOS>ATOM
  1 O        0.2050     1.2460     1.7650 O.2   1 <1>  -0.5700 
  2 C       -0.7510     1.8340     1.2790 C.2   1 <1>   0.6160 
  3 N       -2.0250     1.4500     1.5500 N.am  1 <1>  -0.5470 
  4 C       -0.7690     2.9590     0.3940 C.2   1 <1>  -0.0140 
  5 C       -2.9010     2.2780     0.8780 C.ar  1 <1>   0.1170 
  6 C       -2.1640     3.2120     0.1610 C.ar  1 <1>   0.0280 
  7 C        0.2900     3.6500    -0.1240 C.2   1 <1>  -0.0500 
  8 C       -4.2870     2.2690     0.8510 C.ar  1 <1>  -0.1500 
  9 C       -2.8330     4.1630    -0.6040 C.ar  1 <1>  -0.1500 
 10 N        1.5940     3.3610     0.1350 N.pl3 1 <1>  -0.8690 
 11 C       -4.9420     3.2190     0.0870 C.ar  1 <1>  -0.1500 
 12 C       -4.2170     4.1620    -0.6370 C.ar  1 <1>  -0.1500 
 13 C        2.7820     4.0570    -0.3830 C.3   1 <1>   0.2890 
 14 C        3.6730     3.0400    -1.0820 C.3   1 <1>  -0.1600 
 15 C        3.6280     4.5170     0.7960 C.3   1 <1>  -0.1600 
 16 C        4.4630     2.3410     0.0320 C.3   1 <1>  -0.1600 
 17 C        4.4330     3.2890     1.2370 C.3   1 <1>  -0.1600 
 18 H       -2.2350     0.6650     2.1630 H     1 <1>   0.3700 
 19 H        0.1040     4.4820    -0.7830 H     1 <1>   0.1500 
 20 H       -4.8350     1.5360     1.4140 H     1 <1>   0.1500 
 21 H       -2.2730     4.8910    -1.1630 H     1 <1>   0.1500 
 22 H        1.8230     2.5720     0.7620 H     1 <1>   0.4000 
 23 H       -6.0180     3.2320     0.0500 H     1 <1>   0.1500 
 24 H       -4.7400     4.8950    -1.2260 H     1 <1>   0.1500 
 25 H        2.4930     4.8690    -1.0290 H     1 <1>   0.0800 
 26 H        3.1030     2.3510    -1.6810 H     1 <1>   0.0800 
 27 H        4.3600     3.5680    -1.7200 H     1 <1>   0.0800 
 28 H        4.3070     5.2770     0.4530 H     1 <1>   0.0800 
 29 H        3.0240     4.9230     1.5890 H     1 <1>   0.0800 
 30 H        3.9780     1.4150     0.2920 H     1 <1>   0.0800 
 31 H        5.4700     2.1300    -0.2830 H     1 <1>   0.0800 
 32 H        5.4260     3.5690     1.5460 H     1 <1>   0.0800 
 33 H        3.9350     2.8060     2.0610 H     1 <1>   0.0800 
@<TRIPOS>BOND
  1   1   2  2   
  2   2   3  am  
  3   2   4  1   
  4   3   5  1   
  5   3  18  1   
  6   4   6  1   
  7   4   7  2   
  8   5   6  ar  
  9   5   8  ar  
 10   6   9  ar  
 11   7  10  1   
 12   7  19  1   
 13   8  11  ar  
 14   8  20  1   
 15   9  12  ar  
 16   9  21  1   
 17  10  13  1   
 18  10  22  1   
 19  11  12  ar  
 20  11  23  1   
 21  12  24  1   
 22  13  14  1   
 23  13  15  1   
 24  13  25  1   
 25  14  16  1   
 26  14  26  1   
 27  14  27  1   
 28  15  17  1   
 29  15  28  1   
 30  15  29  1   
 31  16  17  1   
 32  16  30  1   
 33  16  31  1   
 34  17  32  1   
 35  17  33  1   
@<TRIPOS>SUBSTRUCTURE
  1 ****   4 GROUP 4 **** **** 0

# MOE 2024.06 (io_trps.svl 2023.06)
