@<TRIPOS>MOLECULE
NONAME
56 59 1 0 0 
SMALL
USER_CHARGES


@<TRIPOS>ATOM
  1 O       -0.0380    -0.2300    -1.2690 O.2   1 <1>  -0.5700 
  2 C        0.0350    -1.1810    -0.5280 C.2   1 <1>   0.4950 
  3 C        1.2350    -1.8930    -0.2330 C.2   1 <1>  -0.1240 
  4 C       -1.2730    -1.6820     0.0670 C.3   1 <1>  -0.0990 
  5 C        1.2480    -3.0610     0.4610 C.2   1 <1>  -0.0380 
  6 C        2.5480    -1.3110    -0.7760 C.3   1 <1>   0.3400 
  7 C       -1.0620    -2.5510     1.3180 C.3   1 <1>  -0.1600 
  8 N        2.3950    -3.7970     0.6330 N.pl3 1 <1>  -0.6000 
  9 C       -0.0180    -3.6480     1.0660 C.3   1 <1>  -0.0220 
 10 C        3.7360    -2.2580    -0.6010 C.2   1 <1>  -0.1240 
 11 C        2.8540     0.0680    -0.1520 C.ar  1 <1>  -0.1440 
 12 C        3.6010    -3.4230     0.0830 C.2   1 <1>  -0.0380 
 13 C        4.9370    -1.7500    -1.1680 C.2   1 <1>   0.6160 
 14 C        3.4160     0.2370     1.1160 C.ar  1 <1>   0.0820 
 15 C        2.5670     1.2060    -0.8950 C.ar  1 <1>  -0.1500 
 16 C        4.7300    -4.4110     0.3180 C.3   1 <1>  -0.1020 
 17 O        5.1230    -1.7670    -2.3700 O.2   1 <1>  -0.5700 
 18 N        5.8570    -1.2040    -0.3120 N.am  1 <1>  -0.5470 
 19 O        3.7600    -0.8220     1.8790 O.3   1 <1>  -0.3620 
 20 C        3.6810     1.5030     1.6150 C.ar  1 <1>  -0.1500 
 21 C        2.8190     2.4810    -0.3940 C.ar  1 <1>   0.0820 
 22 C        7.0950    -0.5910    -0.5550 C.ar  1 <1>   0.1170 
 23 C        2.8820    -1.1260     2.9380 C.3   1 <1>   0.0400 
 24 C        3.3810     2.6210     0.8620 C.ar  1 <1>  -0.1500 
 25 O        2.5370     3.6260    -1.0680 O.3   1 <1>  -0.3620 
 26 C        7.5600     0.4130     0.2960 C.ar  1 <1>   0.1600 
 27 C        7.9080    -0.9540    -1.6160 C.ar  1 <1>  -0.1500 
 28 C        1.8020     3.5890    -2.2720 C.3   1 <1>   0.0400 
 29 N        8.7170     1.0490     0.1880 N.ar  1 <1>  -0.6200 
 30 C        9.1140    -0.3010    -1.7530 C.ar  1 <1>  -0.1500 
 31 C        9.4660     0.6770    -0.8380 C.ar  1 <1>   0.1600 
 32 H       -1.7840    -2.2500    -0.6880 H     1 <1>   0.0800 
 33 H       -1.8880    -0.8360     0.3170 H     1 <1>   0.0800 
 34 H        2.4190    -1.1860    -1.8370 H     1 <1>   0.0800 
 35 H       -1.9950    -2.9930     1.6200 H     1 <1>   0.0800 
 36 H       -0.7170    -1.9230     2.1210 H     1 <1>   0.0800 
 37 H        2.3490    -4.6890     1.1390 H     1 <1>   0.4000 
 38 H        0.2110    -4.1280     2.0010 H     1 <1>   0.0800 
 39 H       -0.4150    -4.3900     0.3950 H     1 <1>   0.0800 
 40 H        2.1380     1.0890    -1.8720 H     1 <1>   0.1500 
 41 H        4.4580    -5.3750    -0.0730 H     1 <1>   0.0800 
 42 H        4.9240    -4.5010     1.3710 H     1 <1>   0.0800 
 43 H        5.6370    -4.1000    -0.1680 H     1 <1>   0.0800 
 44 H        5.4560    -1.0570     0.6200 H     1 <1>   0.3700 
 45 H        4.1250     1.6130     2.5880 H     1 <1>   0.1500 
 46 H        3.2000    -2.0510     3.3830 H     1 <1>   0.0800 
 47 H        1.8860    -1.2320     2.5450 H     1 <1>   0.0800 
 48 H        2.9170    -0.3320     3.6620 H     1 <1>   0.0800 
 49 H        3.5800     3.6080     1.2400 H     1 <1>   0.1500 
 50 H        6.9270     0.7050     1.1150 H     1 <1>   0.1500 
 51 H        7.6090    -1.7190    -2.3100 H     1 <1>   0.1500 
 52 H        1.6220     4.6010    -2.5850 H     1 <1>   0.0800 
 53 H        0.8670     3.0870    -2.0950 H     1 <1>   0.0800 
 54 H        2.3800     3.0730    -3.0180 H     1 <1>   0.0800 
 55 H        9.7760    -0.5460    -2.5630 H     1 <1>   0.1500 
 56 H       10.4110     1.1790    -0.9570 H     1 <1>   0.1500 
@<TRIPOS>BOND
  1   1   2  2   
  2   2   3  1   
  3   2   4  1   
  4   3   5  2   
  5   3   6  1   
  6   4   7  1   
  7   4  32  1   
  8   4  33  1   
  9   5   8  1   
 10   5   9  1   
 11   6  10  1   
 12   6  11  1   
 13   6  34  1   
 14   7   9  1   
 15   7  35  1   
 16   7  36  1   
 17   8  12  1   
 18   8  37  1   
 19   9  38  1   
 20   9  39  1   
 21  10  12  2   
 22  10  13  1   
 23  11  14  ar  
 24  11  15  ar  
 25  12  16  1   
 26  13  17  2   
 27  13  18  am  
 28  14  19  1   
 29  14  20  ar  
 30  15  21  ar  
 31  15  40  1   
 32  16  41  1   
 33  16  42  1   
 34  16  43  1   
 35  18  22  1   
 36  18  44  1   
 37  19  23  1   
 38  20  24  ar  
 39  20  45  1   
 40  21  24  ar  
 41  21  25  1   
 42  22  26  ar  
 43  22  27  ar  
 44  23  46  1   
 45  23  47  1   
 46  23  48  1   
 47  24  49  1   
 48  25  28  1   
 49  26  29  ar  
 50  26  50  1   
 51  27  30  ar  
 52  27  51  1   
 53  28  52  1   
 54  28  53  1   
 55  28  54  1   
 56  29  31  ar  
 57  30  31  ar  
 58  30  55  1   
 59  31  56  1   
@<TRIPOS>SUBSTRUCTURE
  1 ****  11 GROUP 4 **** **** 0

# MOE 2024.06 (io_trps.svl 2023.06)
