@<TRIPOS>MOLECULE
NONAME
56 58 1 0 0 
SMALL
USER_CHARGES


@<TRIPOS>ATOM
  1 O       -0.1820    -0.1460    -1.1900 O.2   1 <1>  -0.5700 
  2 C       -1.1040     0.5040    -0.7140 C.2   1 <1>   0.6160 
  3 N       -2.3010    -0.1360    -0.3680 N.am  1 <1>  -0.2860 
  4 C       -0.9840     1.9040    -0.4680 C.2   1 <1>   0.0290 
  5 C       -2.4610    -1.4970    -0.7250 C.ar  1 <1>   0.1170 
  6 C       -3.3100     0.5620     0.2680 C.2   1 <1>  -0.0290 
  7 C        0.2200     2.5700    -0.8700 C.2   1 <1>   0.6160 
  8 C       -2.0190     2.5740     0.1210 C.2   1 <1>  -0.1500 
  9 C       -1.9670    -2.5070     0.0910 C.ar  1 <1>  -0.1500 
 10 C       -3.1330    -1.8450    -1.8890 C.ar  1 <1>  -0.1500 
 11 C       -3.2130     1.9170     0.5130 C.2   1 <1>   0.0140 
 12 C       -4.5670    -0.2100     0.6910 C.3   1 <1>  -0.0220 
 13 O        0.1740     3.3090    -1.8370 O.2   1 <1>  -0.5700 
 14 N        1.4010     2.4630    -0.1590 N.am  1 <1>  -0.6600 
 15 C       -2.1540    -3.8360    -0.2420 C.ar  1 <1>  -0.1500 
 16 C       -3.3210    -3.1740    -2.2240 C.ar  1 <1>  -0.1500 
 17 C       -4.2690     2.6760     1.1310 C.2   1 <1>   0.4950 
 18 C       -5.3680     0.5090     1.7840 C.3   1 <1>  -0.1600 
 19 C        2.6410     3.1420    -0.6220 C.3   1 <1>   0.1400 
 20 C        1.5500     1.6280     1.0640 C.3   1 <1>   0.1400 
 21 C       -2.8330    -4.1770    -1.4010 C.ar  1 <1>  -0.1430 
 22 O       -4.1780     3.8420     1.4240 O.2   1 <1>  -0.5700 
 23 C       -5.5850     1.9830     1.4310 C.3   1 <1>  -0.0990 
 24 C        3.4280     2.2040    -1.5410 C.3   1 <1>  -0.1600 
 25 C        1.1780     2.4530     2.2990 C.3   1 <1>  -0.1600 
 26 C       -3.0390    -5.6360    -1.7670 C.3   1 <1>  -0.0970 
 27 C        4.7230     2.8590    -2.0320 C.3   1 <1>  -0.2400 
 28 C        1.2960     1.6200     3.5800 C.3   1 <1>  -0.2400 
 29 H       -1.9400     3.6360     0.2930 H     1 <1>   0.1500 
 30 H       -1.4330    -2.2470     0.9870 H     1 <1>   0.1500 
 31 H       -3.5070    -1.0700    -2.5330 H     1 <1>   0.1500 
 32 H       -4.3030    -1.1820     1.0730 H     1 <1>   0.0800 
 33 H       -5.1900    -0.3580    -0.1750 H     1 <1>   0.0800 
 34 H       -1.7650    -4.6050     0.4020 H     1 <1>   0.1500 
 35 H       -3.8450    -3.4240    -3.1290 H     1 <1>   0.1500 
 36 H       -4.8240     0.4490     2.7130 H     1 <1>   0.0800 
 37 H       -6.3160     0.0190     1.9250 H     1 <1>   0.0800 
 38 H        3.2400     3.4200     0.2280 H     1 <1>   0.0800 
 39 H        2.3880     4.0430    -1.1550 H     1 <1>   0.0800 
 40 H        2.5680     1.2870     1.1450 H     1 <1>   0.0800 
 41 H        0.9250     0.7560     1.0000 H     1 <1>   0.0800 
 42 H       -6.2200     2.0690     0.5680 H     1 <1>   0.0800 
 43 H       -6.0690     2.4840     2.2510 H     1 <1>   0.0800 
 44 H        2.8140     1.9540    -2.3910 H     1 <1>   0.0800 
 45 H        3.6670     1.2960    -1.0170 H     1 <1>   0.0800 
 46 H        0.1670     2.8080     2.2040 H     1 <1>   0.0800 
 47 H        1.8320     3.3050     2.3690 H     1 <1>   0.0800 
 48 H       -3.0940    -5.7520    -2.8350 H     1 <1>   0.0800 
 49 H       -3.9520    -5.9960    -1.3300 H     1 <1>   0.0800 
 50 H       -2.2210    -6.2320    -1.4050 H     1 <1>   0.0800 
 51 H        4.5030     3.7570    -2.5820 H     1 <1>   0.0800 
 52 H        5.2510     2.1830    -2.6820 H     1 <1>   0.0800 
 53 H        5.3610     3.1050    -1.2020 H     1 <1>   0.0800 
 54 H        0.6360     0.7710     3.5400 H     1 <1>   0.0800 
 55 H        1.0310     2.2200     4.4330 H     1 <1>   0.0800 
 56 H        2.3050     1.2690     3.7100 H     1 <1>   0.0800 
@<TRIPOS>BOND
  1   1   2  2   
  2   2   3  am  
  3   2   4  1   
  4   3   5  1   
  5   3   6  1   
  6   4   7  1   
  7   4   8  2   
  8   5   9  ar  
  9   5  10  ar  
 10   6  11  2   
 11   6  12  1   
 12   7  13  2   
 13   7  14  am  
 14   8  11  1   
 15   8  29  1   
 16   9  15  ar  
 17   9  30  1   
 18  10  16  ar  
 19  10  31  1   
 20  11  17  1   
 21  12  18  1   
 22  12  32  1   
 23  12  33  1   
 24  14  19  1   
 25  14  20  1   
 26  15  21  ar  
 27  15  34  1   
 28  16  21  ar  
 29  16  35  1   
 30  17  22  2   
 31  17  23  1   
 32  18  23  1   
 33  18  36  1   
 34  18  37  1   
 35  19  24  1   
 36  19  38  1   
 37  19  39  1   
 38  20  25  1   
 39  20  40  1   
 40  20  41  1   
 41  21  26  1   
 42  23  42  1   
 43  23  43  1   
 44  24  27  1   
 45  24  44  1   
 46  24  45  1   
 47  25  28  1   
 48  25  46  1   
 49  25  47  1   
 50  26  48  1   
 51  26  49  1   
 52  26  50  1   
 53  27  51  1   
 54  27  52  1   
 55  27  53  1   
 56  28  54  1   
 57  28  55  1   
 58  28  56  1   
@<TRIPOS>SUBSTRUCTURE
  1 ****   2 GROUP 4 **** **** 0

# MOE 2024.06 (io_trps.svl 2023.06)
