@<TRIPOS>MOLECULE
NONAME
41 42 1 0 0 
SMALL
USER_CHARGES


@<TRIPOS>ATOM
  1 F        1.7520     0.1630     0.3390 F     1 <1>  -0.1900 
  2 C        1.7240    -1.1280     0.5270 C.ar  1 <1>   0.1900 
  3 C        2.9190    -1.8490     0.6080 C.ar  1 <1>   0.0860 
  4 C        0.4770    -1.7110     0.6550 C.ar  1 <1>  -0.1500 
  5 C        4.2350    -1.2570     0.4600 C.2   1 <1>   0.5440 
  6 C        2.7890    -3.2190     0.8490 C.ar  1 <1>  -0.1500 
  7 C        0.3900    -3.0720     0.8820 C.ar  1 <1>  -0.1500 
  8 O        5.1980    -1.7000     1.0630 O.2   1 <1>  -0.5700 
  9 N        4.4930    -0.2020    -0.3770 N.am  1 <1>  -0.6600 
 10 C        1.5500    -3.8230     0.9820 C.ar  1 <1>  -0.1500 
 11 C        5.3970    -0.4450    -1.5480 C.3   1 <1>   0.1400 
 12 C        4.7060     1.1420     0.2490 C.3   1 <1>   0.1400 
 13 C        6.8710    -0.0820    -1.2370 C.3   1 <1>   0.3430 
 14 C        6.1850     1.3660     0.6550 C.3   1 <1>   0.3430 
 15 N        7.0620     0.2250     0.2220 N.4   1 <1>  -0.9590 
 16 C        8.4560     0.3200     0.7100 C.3   1 <1>   0.4230 
 17 C        9.2620     1.3540    -0.0980 C.3   1 <1>  -0.1600 
 18 C        9.0740    -1.0770     0.6610 C.3   1 <1>  -0.2400 
 19 C       10.6250     1.6730     0.5340 C.3   1 <1>  -0.2400 
 20 H       -0.4110    -1.1080     0.5800 H     1 <1>   0.1500 
 21 H        3.6770    -3.8220     0.9350 H     1 <1>   0.1500 
 22 H       -0.5720    -3.5450     0.9850 H     1 <1>   0.1500 
 23 H        1.4850    -4.8830     1.1650 H     1 <1>   0.1500 
 24 H        5.0520     0.1270    -2.3920 H     1 <1>   0.0800 
 25 H        5.3460    -1.4850    -1.8240 H     1 <1>   0.0800 
 26 H        4.0840     1.2370     1.1230 H     1 <1>   0.0800 
 27 H        4.4010     1.9070    -0.4440 H     1 <1>   0.0800 
 28 H        7.1590     0.7700    -1.8300 H     1 <1>   0.0800 
 29 H        7.4980    -0.9090    -1.5270 H     1 <1>   0.0800 
 30 H        6.2350     1.4690     1.7260 H     1 <1>   0.0800 
 31 H        6.5340     2.2880     0.2220 H     1 <1>   0.0800 
 32 H        6.6280    -0.5980     0.6960 H     1 <1>   0.4500 
 33 H        8.4340     0.6350     1.7410 H     1 <1>   0.0800 
 34 H        8.7110     2.2750    -0.1550 H     1 <1>   0.0800 
 35 H        9.4290     0.9980    -1.0990 H     1 <1>   0.0800 
 36 H        9.2380    -1.4020    -0.3500 H     1 <1>   0.0800 
 37 H        8.4420    -1.7850     1.1680 H     1 <1>   0.0800 
 38 H       10.0230    -1.0730     1.1650 H     1 <1>   0.0800 
 39 H       10.5080     2.0110     1.5500 H     1 <1>   0.0800 
 40 H       11.1140     2.4540    -0.0240 H     1 <1>   0.0800 
 41 H       11.2710     0.8120     0.5280 H     1 <1>   0.0800 
@<TRIPOS>BOND
  1   1   2  1   
  2   2   3  ar  
  3   2   4  ar  
  4   3   5  1   
  5   3   6  ar  
  6   4   7  ar  
  7   4  20  1   
  8   5   8  2   
  9   5   9  am  
 10   6  10  ar  
 11   6  21  1   
 12   7  10  ar  
 13   7  22  1   
 14   9  11  1   
 15   9  12  1   
 16  10  23  1   
 17  11  13  1   
 18  11  24  1   
 19  11  25  1   
 20  12  14  1   
 21  12  26  1   
 22  12  27  1   
 23  13  15  1   
 24  13  28  1   
 25  13  29  1   
 26  14  15  1   
 27  14  30  1   
 28  14  31  1   
 29  15  16  1   
 30  15  32  1   
 31  16  17  1   
 32  16  18  1   
 33  16  33  1   
 34  17  19  1   
 35  17  34  1   
 36  17  35  1   
 37  18  36  1   
 38  18  37  1   
 39  18  38  1   
 40  19  39  1   
 41  19  40  1   
 42  19  41  1   
@<TRIPOS>SUBSTRUCTURE
  1 ****   5 GROUP 4 **** **** 0

# MOE 2024.06 (io_trps.svl 2023.06)
