@<TRIPOS>MOLECULE
NONAME
27 26 1 0 0 
SMALL
USER_CHARGES


@<TRIPOS>ATOM
  1 F       -0.3600    -1.6000    -0.3750 F     1 <1>  -0.3400 
  2 C        0.6230    -1.9990     0.4220 C.3   1 <1>   1.0200 
  3 F        0.5630    -1.2110     1.4850 F     1 <1>  -0.3400 
  4 F        0.2360    -3.1890     0.8670 F     1 <1>  -0.3400 
  5 C        1.9640    -2.0530    -0.3080 C.3   1 <1>   0.0610 
  6 C        2.1950    -0.7960    -1.1450 C.2   1 <1>   0.5690 
  7 C        3.0750    -2.1020     0.7300 C.3   1 <1>   1.0200 
  8 C        2.0060    -3.3360    -1.2260 C.3   1 <1>  -0.2400 
  9 O        2.7570    -0.9440    -2.2000 O.2   1 <1>  -0.5700 
 10 N        1.8500     0.4890    -0.8650 N.am  1 <1>  -0.7300 
 11 F        3.2100    -1.0070     1.4650 F     1 <1>  -0.3400 
 12 F        4.2670    -2.2970     0.1810 F     1 <1>  -0.3400 
 13 F        2.9270    -3.0990     1.5930 F     1 <1>  -0.3400 
 14 C        1.2970     1.2330     0.2900 C.3   1 <1>   0.1400 
 15 C        1.5400     2.7320     0.0910 C.3   1 <1>  -0.1600 
 16 C        3.0310     3.0960     0.0330 C.3   1 <1>  -0.2400 
 17 H        1.2190    -3.2970    -1.9600 H     1 <1>   0.0800 
 18 H        1.8940    -4.2410    -0.6550 H     1 <1>   0.0800 
 19 H        2.9420    -3.4070    -1.7550 H     1 <1>   0.0800 
 20 H        2.1130     1.1270    -1.6240 H     1 <1>   0.3700 
 21 H        1.7680     0.9220     1.2050 H     1 <1>   0.0800 
 22 H        0.2370     1.0540     0.3590 H     1 <1>   0.0800 
 23 H        1.0910     3.2570     0.9160 H     1 <1>   0.0800 
 24 H        1.0450     3.0620    -0.8060 H     1 <1>   0.0800 
 25 H        3.5330     2.7650     0.9260 H     1 <1>   0.0800 
 26 H        3.1450     4.1630    -0.0460 H     1 <1>   0.0800 
 27 H        3.5100     2.6420    -0.8170 H     1 <1>   0.0800 
@<TRIPOS>BOND
  1   1   2  1   
  2   2   3  1   
  3   2   4  1   
  4   2   5  1   
  5   5   6  1   
  6   5   7  1   
  7   5   8  1   
  8   6   9  2   
  9   6  10  am  
 10   7  11  1   
 11   7  12  1   
 12   7  13  1   
 13   8  17  1   
 14   8  18  1   
 15   8  19  1   
 16  10  14  1   
 17  10  20  1   
 18  14  15  1   
 19  14  21  1   
 20  14  22  1   
 21  15  16  1   
 22  15  23  1   
 23  15  24  1   
 24  16  25  1   
 25  16  26  1   
 26  16  27  1   
@<TRIPOS>SUBSTRUCTURE
  1 ****   5 GROUP 4 **** **** 0

# MOE 2024.06 (io_trps.svl 2023.06)
