@<TRIPOS>MOLECULE
NONAME
46 48 1 0 0 
SMALL
USER_CHARGES


@<TRIPOS>ATOM
  1 O        0.6210    -0.4740     0.4220 O.3   1 <1>  -0.5600 
  2 C        1.4300    -1.5260    -0.0270 C.3   1 <1>   0.1200 
  3 C        1.1690     0.7930     0.1840 C.3   1 <1>   0.1200 
  4 C        2.8000    -1.5120     0.6730 C.3   1 <1>   0.2090 
  5 C        2.5200     0.9560     0.9020 C.3   1 <1>   0.2090 
  6 N        3.4480    -0.1660     0.5500 N.pl3 1 <1>  -0.8380 
  7 C        4.7640     0.0170     0.1900 C.ar  1 <1>   0.7200 
  8 N        5.5000    -1.0590     0.0410 N.ar  1 <1>  -0.6200 
  9 N        5.1870     1.2440     0.0280 N.ar  1 <1>  -0.6200 
 10 C        6.7350    -0.8200    -0.2960 C.ar  1 <1>   0.7030 
 11 C        6.4370     1.3410    -0.3100 C.ar  1 <1>   0.7200 
 12 O        7.4990    -1.9140    -0.4440 O.3   1 <1>  -0.1650 
 13 N        7.2740     0.3560    -0.4870 N.ar  1 <1>  -0.6200 
 14 N        6.8850     2.6040    -0.4880 N.pl3 1 <1>  -0.8690 
 15 C        8.8470    -1.8790    -0.4060 C.ar  1 <1>   0.3930 
 16 C        8.1450     3.0010    -1.1670 C.3   1 <1>   0.1290 
 17 N        9.4730    -2.5080    -1.3990 N.ar  1 <1>  -0.3100 
 18 C        9.5150    -1.2500     0.6300 C.ar  1 <1>  -0.1500 
 19 N       10.7880    -2.5270    -1.4290 N.ar  1 <1>  -0.3100 
 20 C       10.8890    -1.2720     0.5980 C.ar  1 <1>  -0.1500 
 21 C       11.4890    -1.9280    -0.4650 C.ar  1 <1>   0.3930 
 22 O       12.8320    -2.0100    -0.6060 O.3   1 <1>  -0.3630 
 23 C       13.7280    -1.4350     0.3160 C.3   1 <1>   0.1200 
 24 C       15.1520    -1.7250    -0.1590 C.3   1 <1>  -0.1600 
 25 C       16.1920    -1.1290     0.7970 C.3   1 <1>  -0.2400 
 26 H        1.5550    -1.4330    -1.0920 H     1 <1>   0.0800 
 27 H        0.9180    -2.4470     0.1820 H     1 <1>   0.0800 
 28 H        0.4690     1.5260     0.5440 H     1 <1>   0.0800 
 29 H        1.2920     0.9230    -0.8770 H     1 <1>   0.0800 
 30 H        3.4110    -2.2830     0.2400 H     1 <1>   0.0800 
 31 H        2.6670    -1.7440     1.7150 H     1 <1>   0.0800 
 32 H        2.3560     0.9560     1.9650 H     1 <1>   0.0800 
 33 H        2.9370     1.9110     0.6370 H     1 <1>   0.0800 
 34 H        6.1490     3.3070    -0.4280 H     1 <1>   0.4000 
 35 H        8.8960     2.2380    -1.0530 H     1 <1>   0.0800 
 36 H        8.5170     3.9150    -0.7360 H     1 <1>   0.0800 
 37 H        7.9600     3.1540    -2.2160 H     1 <1>   0.0800 
 38 H        8.9790    -0.7630     1.4240 H     1 <1>   0.1500 
 39 H       11.4510    -0.7940     1.3760 H     1 <1>   0.1500 
 40 H       13.5540    -1.8770     1.2820 H     1 <1>   0.0800 
 41 H       13.5490    -0.3740     0.3490 H     1 <1>   0.0800 
 42 H       15.2900    -1.3040    -1.1400 H     1 <1>   0.0800 
 43 H       15.2940    -2.7900    -0.2190 H     1 <1>   0.0800 
 44 H       16.0800    -0.0610     0.8590 H     1 <1>   0.0800 
 45 H       17.1830    -1.3470     0.4400 H     1 <1>   0.0800 
 46 H       16.0850    -1.5500     1.7810 H     1 <1>   0.0800 
@<TRIPOS>BOND
  1   1   2  1   
  2   1   3  1   
  3   2   4  1   
  4   2  26  1   
  5   2  27  1   
  6   3   5  1   
  7   3  28  1   
  8   3  29  1   
  9   4   6  1   
 10   4  30  1   
 11   4  31  1   
 12   5   6  1   
 13   5  32  1   
 14   5  33  1   
 15   6   7  1   
 16   7   8  ar  
 17   7   9  ar  
 18   8  10  ar  
 19   9  11  ar  
 20  10  12  1   
 21  10  13  ar  
 22  11  13  ar  
 23  11  14  1   
 24  12  15  1   
 25  14  16  1   
 26  14  34  1   
 27  15  17  ar  
 28  15  18  ar  
 29  16  35  1   
 30  16  36  1   
 31  16  37  1   
 32  17  19  ar  
 33  18  20  ar  
 34  18  38  1   
 35  19  21  ar  
 36  20  21  ar  
 37  20  39  1   
 38  21  22  1   
 39  22  23  1   
 40  23  24  1   
 41  23  40  1   
 42  23  41  1   
 43  24  25  1   
 44  24  42  1   
 45  24  43  1   
 46  25  44  1   
 47  25  45  1   
 48  25  46  1   
@<TRIPOS>SUBSTRUCTURE
  1 ****  10 GROUP 4 **** **** 0

# MOE 2024.06 (io_trps.svl 2023.06)
