@<TRIPOS>MOLECULE
NONAME
44 45 1 0 0 
SMALL
USER_CHARGES


@<TRIPOS>ATOM
  1 S       -0.0700     0.2240     0.5830 S.o2  1 <1>   1.4470 
  2 O       -0.3020     0.2750     2.0110 O.2   1 <1>  -0.6500 
  3 O       -0.6320    -0.8860    -0.1590 O.2   1 <1>  -0.6500 
  4 N       -0.6810     1.6670    -0.0880 N.am  1 <1>  -0.8490 
  5 C        1.7070     0.2620     0.2130 C.ar  1 <1>  -0.0090 
  6 C       -0.5820     2.8520     0.8050 C.3   1 <1>   0.2760 
  7 C       -2.0630     1.4450    -0.5490 C.3   1 <1>   0.1960 
  8 C        2.1710     0.6410    -1.0410 C.ar  1 <1>  -0.1500 
  9 C        2.6530    -0.1030     1.1640 C.ar  1 <1>  -0.1500 
 10 C       -1.1640     4.0980     0.1000 C.3   1 <1>  -0.1600 
 11 C        0.8820     3.1390     1.2220 C.3   1 <1>  -0.1600 
 12 C       -2.6140     2.6530    -1.3020 C.3   1 <1>  -0.1600 
 13 C        3.5240     0.6650    -1.3310 C.ar  1 <1>  -0.1500 
 14 C        4.0060    -0.0800     0.8790 C.ar  1 <1>  -0.1500 
 15 C       -2.5880     3.8920    -0.4160 C.3   1 <1>  -0.1600 
 16 C        1.0890     4.4100     2.0620 C.3   1 <1>  -0.2400 
 17 C        4.4660     0.3090    -0.3750 C.ar  1 <1>   0.1170 
 18 N        5.8230     0.3450    -0.7210 N.am  1 <1>  -0.5470 
 19 C        6.9600     0.3200     0.0260 C.2   1 <1>   0.7800 
 20 O        6.9920     0.2820     1.2390 O.2   1 <1>  -0.5700 
 21 O        8.0910     0.3510    -0.6750 O.3   1 <1>  -0.4300 
 22 C        9.3500     0.3360    -0.0300 C.3   1 <1>   0.0400 
 23 H       -1.1630     2.6660     1.6950 H     1 <1>   0.0800 
 24 H       -2.6940     1.2160     0.2950 H     1 <1>   0.0800 
 25 H       -2.0970     0.6080    -1.2270 H     1 <1>   0.0800 
 26 H        1.4580     0.9210    -1.7980 H     1 <1>   0.1500 
 27 H        2.3240    -0.4100     2.1430 H     1 <1>   0.1500 
 28 H       -0.5220     4.3660    -0.7210 H     1 <1>   0.0800 
 29 H       -1.1870     4.9280     0.7820 H     1 <1>   0.0800 
 30 H        1.4980     3.2050     0.3420 H     1 <1>   0.0800 
 31 H        1.2450     2.3340     1.8310 H     1 <1>   0.0800 
 32 H       -3.6240     2.4500    -1.6110 H     1 <1>   0.0800 
 33 H       -2.0230     2.8150    -2.1870 H     1 <1>   0.0800 
 34 H        3.8460     0.9670    -2.3110 H     1 <1>   0.1500 
 35 H        4.7020    -0.3730     1.6440 H     1 <1>   0.1500 
 36 H       -2.9080     4.7540    -0.9750 H     1 <1>   0.0800 
 37 H       -3.2590     3.7590     0.4160 H     1 <1>   0.0800 
 38 H        0.9410     5.2980     1.4730 H     1 <1>   0.0800 
 39 H        2.0970     4.4320     2.4390 H     1 <1>   0.0800 
 40 H        0.4150     4.4230     2.9010 H     1 <1>   0.0800 
 41 H        6.0280     0.4320    -1.7130 H     1 <1>   0.3700 
 42 H       10.1190     0.3680    -0.7810 H     1 <1>   0.0800 
 43 H        9.4330    -0.5680     0.5490 H     1 <1>   0.0800 
 44 H        9.4220     1.1970     0.6130 H     1 <1>   0.0800 
@<TRIPOS>BOND
  1   1   2  2   
  2   1   3  2   
  3   1   4  am  
  4   1   5  1   
  5   4   6  1   
  6   4   7  1   
  7   5   8  ar  
  8   5   9  ar  
  9   6  10  1   
 10   6  11  1   
 11   6  23  1   
 12   7  12  1   
 13   7  24  1   
 14   7  25  1   
 15   8  13  ar  
 16   8  26  1   
 17   9  14  ar  
 18   9  27  1   
 19  10  15  1   
 20  10  28  1   
 21  10  29  1   
 22  11  16  1   
 23  11  30  1   
 24  11  31  1   
 25  12  15  1   
 26  12  32  1   
 27  12  33  1   
 28  13  17  ar  
 29  13  34  1   
 30  14  17  ar  
 31  14  35  1   
 32  15  36  1   
 33  15  37  1   
 34  16  38  1   
 35  16  39  1   
 36  16  40  1   
 37  17  18  1   
 38  18  19  am  
 39  18  41  1   
 40  19  20  2   
 41  19  21  1   
 42  21  22  1   
 43  22  42  1   
 44  22  43  1   
 45  22  44  1   
@<TRIPOS>SUBSTRUCTURE
  1 ****   5 GROUP 4 **** **** 0

# MOE 2024.06 (io_trps.svl 2023.06)
