@<TRIPOS>MOLECULE
NONAME
44 46 1 0 0 
SMALL
USER_CHARGES


@<TRIPOS>ATOM
  1 BR       1.0800    -0.0130     1.6520 Br    1 <1>  -0.1110 
  2 C        0.2560    -1.4780     0.7050 C.ar  1 <1>   0.1110 
  3 C        0.7630    -1.8940    -0.5180 C.ar  1 <1>   0.0820 
  4 C       -0.8470    -2.0790     1.2820 C.ar  1 <1>  -0.1500 
  5 O        1.8260    -1.2930    -1.0920 O.3   1 <1>  -0.3630 
  6 C        0.1370    -2.9400    -1.1760 C.ar  1 <1>  -0.1500 
  7 C       -1.4750    -3.1230     0.6130 C.ar  1 <1>  -0.1430 
  8 C        3.0960    -1.7690    -0.7080 C.3   1 <1>   0.0400 
  9 C       -0.9720    -3.5520    -0.6120 C.ar  1 <1>  -0.1500 
 10 C       -2.7050    -3.7800     1.2110 C.3   1 <1>   0.4870 
 11 N       -3.9060    -3.2880     0.4840 N.4   1 <1>  -0.9590 
 12 C       -4.1000    -1.7980     0.6680 C.3   1 <1>   0.3430 
 13 C       -5.1480    -4.0520     0.8790 C.3   1 <1>   0.3430 
 14 C       -5.3640    -1.2680    -0.0410 C.3   1 <1>   0.2090 
 15 C       -6.4170    -3.5350     0.1670 C.3   1 <1>   0.2090 
 16 N       -6.5630    -2.0640     0.3550 N.pl3 1 <1>  -0.8380 
 17 C       -7.8010    -1.5210     0.0340 C.ar  1 <1>   0.1000 
 18 C       -8.2230    -1.4060    -1.2860 C.ar  1 <1>  -0.1500 
 19 C       -8.6430    -1.0810     1.0480 C.ar  1 <1>  -0.1500 
 20 C       -9.4610    -0.8620    -1.5620 C.ar  1 <1>   0.1770 
 21 C       -9.8840    -0.5360     0.7630 C.ar  1 <1>  -0.1500 
 22 CL      -9.9780    -0.7240    -3.2230 Cl    1 <1>  -0.1770 
 23 C      -10.3000    -0.4230    -0.5540 C.ar  1 <1>  -0.1500 
 24 H       -1.1920    -1.7210     2.2370 H     1 <1>   0.1500 
 25 H        0.5230    -3.2650    -2.1260 H     1 <1>   0.1500 
 26 H        3.8410    -1.2030    -1.2400 H     1 <1>   0.0800 
 27 H        3.1720    -2.8110    -0.9650 H     1 <1>   0.0800 
 28 H        3.2200    -1.6320     0.3510 H     1 <1>   0.0800 
 29 H       -1.4310    -4.3690    -1.1440 H     1 <1>   0.1500 
 30 H       -2.7790    -3.5410     2.2600 H     1 <1>   0.0800 
 31 H       -2.6200    -4.8500     1.1100 H     1 <1>   0.0800 
 32 H       -3.7340    -3.4400    -0.5170 H     1 <1>   0.4500 
 33 H       -3.2420    -1.2650     0.2920 H     1 <1>   0.0800 
 34 H       -4.1920    -1.5740     1.7180 H     1 <1>   0.0800 
 35 H       -5.3050    -3.9560     1.9400 H     1 <1>   0.0800 
 36 H       -5.0240    -5.0980     0.6560 H     1 <1>   0.0800 
 37 H       -5.2320    -1.3130    -1.1080 H     1 <1>   0.0800 
 38 H       -5.5190    -0.2360     0.2290 H     1 <1>   0.0800 
 39 H       -7.2820    -4.0310     0.5740 H     1 <1>   0.0800 
 40 H       -6.3690    -3.7640    -0.8840 H     1 <1>   0.0800 
 41 H       -7.6000    -1.7360    -2.0930 H     1 <1>   0.1500 
 42 H       -8.3180    -1.1690     2.0690 H     1 <1>   0.1500 
 43 H      -10.5240    -0.1990     1.5610 H     1 <1>   0.1500 
 44 H      -11.2590    -0.0030    -0.7980 H     1 <1>   0.1500 
@<TRIPOS>BOND
  1   1   2  1   
  2   2   3  ar  
  3   2   4  ar  
  4   3   5  1   
  5   3   6  ar  
  6   4   7  ar  
  7   4  24  1   
  8   5   8  1   
  9   6   9  ar  
 10   6  25  1   
 11   7   9  ar  
 12   7  10  1   
 13   8  26  1   
 14   8  27  1   
 15   8  28  1   
 16   9  29  1   
 17  10  11  1   
 18  10  30  1   
 19  10  31  1   
 20  11  12  1   
 21  11  13  1   
 22  11  32  1   
 23  12  14  1   
 24  12  33  1   
 25  12  34  1   
 26  13  15  1   
 27  13  35  1   
 28  13  36  1   
 29  14  16  1   
 30  14  37  1   
 31  14  38  1   
 32  15  16  1   
 33  15  39  1   
 34  15  40  1   
 35  16  17  1   
 36  17  18  ar  
 37  17  19  ar  
 38  18  20  ar  
 39  18  41  1   
 40  19  21  ar  
 41  19  42  1   
 42  20  22  1   
 43  20  23  ar  
 44  21  23  ar  
 45  21  43  1   
 46  23  44  1   
@<TRIPOS>SUBSTRUCTURE
  1 ****  12 GROUP 4 **** **** 0

# MOE 2024.06 (io_trps.svl 2023.06)
