@<TRIPOS>MOLECULE
NONAME
35 38 1 0 0 
SMALL
USER_CHARGES


@<TRIPOS>ATOM
  1 S       -0.5600     1.7610     1.5400 S.3   1 <1>  -0.4600 
  2 C       -1.1980     0.9330     0.0810 C.3   1 <1>   0.7330 
  3 C        1.1890     1.7410     1.1130 C.3   1 <1>   0.0700 
  4 N       -0.1290     1.2280    -0.8790 N.4   1 <1>  -0.9060 
  5 C       -1.3670    -0.5890     0.3280 C.3   1 <1>  -0.0800 
  6 C       -2.5480     1.5460    -0.3660 C.3   1 <1>  -0.0800 
  7 C        1.2200     1.0640    -0.2560 C.3   1 <1>   0.3430 
  8 C       -2.4640    -0.8390     1.3920 C.3   1 <1>  -0.1600 
  9 C       -1.8240    -1.2730    -0.9870 C.3   1 <1>  -0.1600 
 10 C       -3.6400     1.2840     0.7030 C.3   1 <1>  -0.1600 
 11 C       -3.0060     0.8660    -1.6830 C.3   1 <1>  -0.1600 
 12 C       -3.7910    -0.2300     0.9160 C.3   1 <1>   0.2800 
 13 C       -3.1570    -0.6580    -1.4700 C.3   1 <1>  -0.0800 
 14 O       -4.7360    -0.4550     1.8790 O.3   1 <1>  -0.6800 
 15 C       -4.2320    -0.9010    -0.3920 C.3   1 <1>  -0.1600 
 16 H        1.7270     1.1890     1.8640 H     1 <1>   0.0800 
 17 H        1.5300     2.7610     1.0740 H     1 <1>   0.0800 
 18 H       -0.2680     2.2050    -1.1460 H     1 <1>   0.4500 
 19 H       -0.2650     0.6370    -1.7020 H     1 <1>   0.4500 
 20 H       -0.4460    -1.0250     0.6740 H     1 <1>   0.0800 
 21 H       -2.4450     2.6070    -0.5070 H     1 <1>   0.0800 
 22 H        1.4320     0.0150    -0.1210 H     1 <1>   0.0800 
 23 H        1.9930     1.4920    -0.8750 H     1 <1>   0.0800 
 24 H       -2.5900    -1.8980     1.5450 H     1 <1>   0.0800 
 25 H       -2.1850    -0.4060     2.3360 H     1 <1>   0.0800 
 26 H       -1.9640    -2.3280    -0.8120 H     1 <1>   0.0800 
 27 H       -1.0780    -1.1860    -1.7550 H     1 <1>   0.0800 
 28 H       -4.5750     1.7030     0.3740 H     1 <1>   0.0800 
 29 H       -3.3780     1.7560     1.6350 H     1 <1>   0.0800 
 30 H       -3.9530     1.2780    -1.9900 H     1 <1>   0.0800 
 31 H       -2.3130     1.0580    -2.4830 H     1 <1>   0.0800 
 32 H       -3.4650    -1.1280    -2.3910 H     1 <1>   0.0800 
 33 H       -5.6030    -0.1150     1.5900 H     1 <1>   0.4000 
 34 H       -5.1730    -0.4950    -0.7200 H     1 <1>   0.0800 
 35 H       -4.3580    -1.9580    -0.2360 H     1 <1>   0.0800 
@<TRIPOS>BOND
  1   1   2  1   
  2   1   3  1   
  3   2   4  1   
  4   2   5  1   
  5   2   6  1   
  6   3   7  1   
  7   3  16  1   
  8   3  17  1   
  9   4   7  1   
 10   4  18  1   
 11   4  19  1   
 12   5   8  1   
 13   5   9  1   
 14   5  20  1   
 15   6  10  1   
 16   6  11  1   
 17   6  21  1   
 18   7  22  1   
 19   7  23  1   
 20   8  12  1   
 21   8  24  1   
 22   8  25  1   
 23   9  13  1   
 24   9  26  1   
 25   9  27  1   
 26  10  12  1   
 27  10  28  1   
 28  10  29  1   
 29  11  13  1   
 30  11  30  1   
 31  11  31  1   
 32  12  14  1   
 33  12  15  1   
 34  13  15  1   
 35  13  32  1   
 36  14  33  1   
 37  15  34  1   
 38  15  35  1   
@<TRIPOS>SUBSTRUCTURE
  1 ****   2 GROUP 4 **** **** 0

# MOE 2024.06 (io_trps.svl 2023.06)
