@<TRIPOS>MOLECULE
NONAME
46 49 1 0 0 
SMALL
USER_CHARGES


@<TRIPOS>ATOM
  1 O        1.1020    -2.1050     0.8820 O.3   1 <1>  -0.3630 
  2 C        2.0710    -1.6940     0.0610 C.ar  1 <1>   0.0830 
  3 C        0.4700    -3.2160     0.2450 C.3   1 <1>   0.4000 
  4 C        2.1100    -2.4800    -1.0520 C.ar  1 <1>   0.0830 
  5 C        2.9500    -0.6460     0.2390 C.ar  1 <1>  -0.1500 
  6 O        1.1650    -3.4210    -0.9840 O.3   1 <1>  -0.3630 
  7 C        3.0310    -2.2600    -2.0560 C.ar  1 <1>  -0.1500 
  8 C        3.9000    -0.4120    -0.7520 C.ar  1 <1>  -0.1440 
  9 C        3.9310    -1.2130    -1.8950 C.ar  1 <1>  -0.1500 
 10 C        4.9120     0.7030    -0.5770 C.3   1 <1>   0.4870 
 11 N        6.1980     0.0950    -0.1510 N.4   1 <1>  -0.9590 
 12 C        6.1240    -0.6460     1.1530 C.3   1 <1>   0.3430 
 13 C        7.3660     1.0300    -0.1750 C.3   1 <1>   0.3430 
 14 C        7.4710    -1.3320     1.4890 C.3   1 <1>   0.1100 
 15 C        8.6850     0.2720     0.1100 C.3   1 <1>   0.1100 
 16 N        8.4700    -1.1720     0.4060 N.3   1 <1>  -0.8100 
 17 C        9.7370    -1.8420     0.7490 C.3   1 <1>   0.2900 
 18 C       10.6620    -1.7810    -0.4460 C.2   1 <1>  -0.3320 
 19 N       10.3740    -2.3850    -1.6130 N.pl3 1 <1>   0.0330 
 20 C       11.8580    -1.1740    -0.6210 C.2   1 <1>   0.0460 
 21 C       11.4100    -2.0990    -2.4260 C.2   1 <1>   0.0360 
 22 N       12.3190    -1.3700    -1.8680 N.2   1 <1>  -0.5650 
 23 C       12.6800    -0.3550     0.3490 C.3   1 <1>  -0.0590 
 24 H       -0.5590    -2.9800     0.0430 H     1 <1>   0.0800 
 25 H        0.5650    -4.0910     0.8640 H     1 <1>   0.0800 
 26 H        2.8760    -0.0480     1.1310 H     1 <1>   0.1500 
 27 H        3.0360    -2.8890    -2.9290 H     1 <1>   0.1500 
 28 H        4.6520    -1.0340    -2.6750 H     1 <1>   0.1500 
 29 H        4.5660     1.4060     0.1630 H     1 <1>   0.0800 
 30 H        5.0370     1.2210    -1.5140 H     1 <1>   0.0800 
 31 H        6.4460    -0.6440    -0.8250 H     1 <1>   0.4500 
 32 H        5.3580    -1.4030     1.0990 H     1 <1>   0.0800 
 33 H        5.8600     0.0280     1.9510 H     1 <1>   0.0800 
 34 H        7.2360     1.8030     0.5640 H     1 <1>   0.0800 
 35 H        7.4420     1.5060    -1.1390 H     1 <1>   0.0800 
 36 H        7.2900    -2.3800     1.6590 H     1 <1>   0.0800 
 37 H        7.8560    -0.9180     2.4060 H     1 <1>   0.0800 
 38 H        9.1910     0.7450     0.9350 H     1 <1>   0.0800 
 39 H        9.3230     0.3730    -0.7520 H     1 <1>   0.0800 
 40 H        9.5510    -2.8740     0.9970 H     1 <1>   0.0800 
 41 H       10.1920    -1.3680     1.6020 H     1 <1>   0.0800 
 42 H        9.5420    -2.9390    -1.8350 H     1 <1>   0.2700 
 43 H       11.4590    -2.4530    -3.4410 H     1 <1>   0.1500 
 44 H       12.1910    -0.2730     1.3000 H     1 <1>   0.0800 
 45 H       12.8360     0.6280    -0.0540 H     1 <1>   0.0800 
 46 H       13.6370    -0.8250     0.4870 H     1 <1>   0.0800 
@<TRIPOS>BOND
  1   1   2  1   
  2   1   3  1   
  3   2   4  ar  
  4   2   5  ar  
  5   3   6  1   
  6   3  24  1   
  7   3  25  1   
  8   4   6  1   
  9   4   7  ar  
 10   5   8  ar  
 11   5  26  1   
 12   7   9  ar  
 13   7  27  1   
 14   8   9  ar  
 15   8  10  1   
 16   9  28  1   
 17  10  11  1   
 18  10  29  1   
 19  10  30  1   
 20  11  12  1   
 21  11  13  1   
 22  11  31  1   
 23  12  14  1   
 24  12  32  1   
 25  12  33  1   
 26  13  15  1   
 27  13  34  1   
 28  13  35  1   
 29  14  16  1   
 30  14  36  1   
 31  14  37  1   
 32  15  16  1   
 33  15  38  1   
 34  15  39  1   
 35  16  17  1   
 36  17  18  1   
 37  17  40  1   
 38  17  41  1   
 39  18  19  1   
 40  18  20  2   
 41  19  21  1   
 42  19  42  1   
 43  20  22  1   
 44  20  23  1   
 45  21  22  2   
 46  21  43  1   
 47  23  44  1   
 48  23  45  1   
 49  23  46  1   
@<TRIPOS>SUBSTRUCTURE
  1 ****  11 GROUP 4 **** **** 0

# MOE 2024.06 (io_trps.svl 2023.06)
