@<TRIPOS>MOLECULE
NONAME
47 48 1 0 0 
SMALL
USER_CHARGES


@<TRIPOS>ATOM
  1 CL       0.5450    -0.9710     2.3610 Cl    1 <1>  -0.1770 
  2 C        1.6600    -1.3700     1.0720 C.ar  1 <1>   0.1770 
  3 C        1.3560    -2.3800     0.1660 C.ar  1 <1>   0.0830 
  4 C        2.8390    -0.6540     0.9880 C.ar  1 <1>  -0.1500 
  5 O        0.1800    -3.0450     0.3060 O.3   1 <1>  -0.3630 
  6 C        2.2760    -2.6580    -0.8400 C.ar  1 <1>  -0.1500 
  7 C        3.7640    -0.9300    -0.0110 C.ar  1 <1>  -0.0090 
  8 C       -0.2050    -4.0710    -0.5810 C.3   1 <1>   0.0400 
  9 C        3.4570    -1.9390    -0.9200 C.ar  1 <1>  -0.1500 
 10 S        5.3160     0.0000    -0.1390 S.o2  1 <1>   1.4470 
 11 O        5.6330     0.6350     1.1220 O.2   1 <1>  -0.6500 
 12 O        5.2940     0.8020    -1.3420 O.2   1 <1>  -0.6500 
 13 N        6.4770    -1.2120    -0.3700 N.am  1 <1>  -0.8490 
 14 C        7.7300    -0.6320    -0.9190 C.3   1 <1>   0.2570 
 15 C        6.7410    -1.9920     0.8490 C.3   1 <1>   0.1160 
 16 C        8.8900    -1.5960    -1.2520 C.2   1 <1>   0.5690 
 17 O        8.6350    -2.7500    -1.5220 O.2   1 <1>  -0.5700 
 18 N       10.1920    -1.1480    -1.2420 N.am  1 <1>  -0.6600 
 19 C       10.6230     0.2750    -1.1320 C.3   1 <1>   0.1400 
 20 C       11.3360    -2.0980    -1.3280 C.3   1 <1>   0.1400 
 21 C       11.4640     0.4490     0.1350 C.3   1 <1>  -0.1600 
 22 C       12.2050    -1.9560    -0.0730 C.3   1 <1>  -0.1600 
 23 C       12.6700    -0.5060     0.1410 C.3   1 <1>  -0.0800 
 24 C       13.4540    -0.3780     1.4510 C.3   1 <1>  -0.2400 
 25 H        3.0360     0.1210     1.7090 H     1 <1>   0.1500 
 26 H        2.0940    -3.4270    -1.5680 H     1 <1>   0.1500 
 27 H       -1.1670    -4.4360    -0.2710 H     1 <1>   0.0800 
 28 H        0.5190    -4.8650    -0.5330 H     1 <1>   0.0800 
 29 H       -0.2720    -3.6670    -1.5760 H     1 <1>   0.0800 
 30 H        4.1630    -2.1650    -1.7040 H     1 <1>   0.1500 
 31 H        8.0880     0.0950    -0.2130 H     1 <1>   0.0800 
 32 H        7.5020    -0.1150    -1.8340 H     1 <1>   0.0800 
 33 H        5.8190    -2.3800     1.2470 H     1 <1>   0.0800 
 34 H        7.2110    -1.3770     1.5990 H     1 <1>   0.0800 
 35 H        7.3810    -2.8290     0.6310 H     1 <1>   0.0800 
 36 H        9.7850     0.9470    -1.1150 H     1 <1>   0.0800 
 37 H       11.2180     0.5230    -1.9950 H     1 <1>   0.0800 
 38 H       11.9150    -1.8750    -2.2070 H     1 <1>   0.0800 
 39 H       10.9870    -3.1140    -1.4090 H     1 <1>   0.0800 
 40 H       10.8430     0.2650     0.9950 H     1 <1>   0.0800 
 41 H       11.8090     1.4660     0.1910 H     1 <1>   0.0800 
 42 H       13.0600    -2.6020    -0.1660 H     1 <1>   0.0800 
 43 H       11.6340    -2.2900     0.7760 H     1 <1>   0.0800 
 44 H       13.3220    -0.2350    -0.6730 H     1 <1>   0.0800 
 45 H       12.8350    -0.6380     2.2910 H     1 <1>   0.0800 
 46 H       13.8030     0.6320     1.5810 H     1 <1>   0.0800 
 47 H       14.3080    -1.0310     1.4390 H     1 <1>   0.0800 
@<TRIPOS>BOND
  1   1   2  1   
  2   2   3  ar  
  3   2   4  ar  
  4   3   5  1   
  5   3   6  ar  
  6   4   7  ar  
  7   4  25  1   
  8   5   8  1   
  9   6   9  ar  
 10   6  26  1   
 11   7   9  ar  
 12   7  10  1   
 13   8  27  1   
 14   8  28  1   
 15   8  29  1   
 16   9  30  1   
 17  10  11  2   
 18  10  12  2   
 19  10  13  am  
 20  13  14  1   
 21  13  15  1   
 22  14  16  1   
 23  14  31  1   
 24  14  32  1   
 25  15  33  1   
 26  15  34  1   
 27  15  35  1   
 28  16  17  2   
 29  16  18  am  
 30  18  19  1   
 31  18  20  1   
 32  19  21  1   
 33  19  36  1   
 34  19  37  1   
 35  20  22  1   
 36  20  38  1   
 37  20  39  1   
 38  21  23  1   
 39  21  40  1   
 40  21  41  1   
 41  22  23  1   
 42  22  42  1   
 43  22  43  1   
 44  23  24  1   
 45  23  44  1   
 46  24  45  1   
 47  24  46  1   
 48  24  47  1   
@<TRIPOS>SUBSTRUCTURE
  1 ****  13 GROUP 4 **** **** 0

# MOE 2024.06 (io_trps.svl 2023.06)
