@<TRIPOS>MOLECULE
NONAME
38 38 1 0 0 
SMALL
USER_CHARGES


@<TRIPOS>ATOM
  1 S        0.5300     0.1230    -1.8420 S.o2  1 <1>   1.3330 
  2 O        1.8890    -0.3630    -1.9160 O.2   1 <1>  -0.6500 
  3 O       -0.5530    -0.7850    -1.5620 O.2   1 <1>  -0.6500 
  4 N        0.5110     1.3640    -0.6420 N.am  1 <1>  -0.6930 
  5 C        0.1680     1.0260    -3.3320 C.3   1 <1>  -0.1350 
  6 C       -0.6820     1.9920    -0.2760 C.ar  1 <1>   0.1990 
  7 C        1.8080     2.0070    -0.2620 C.3   1 <1>   0.2570 
  8 C       -1.0690     3.2270    -0.8170 C.ar  1 <1>   0.0830 
  9 C       -1.5070     1.3740     0.6500 C.ar  1 <1>  -0.1500 
 10 C        2.5610     1.2830     0.8590 C.2   1 <1>   0.5690 
 11 O       -0.2420     3.8090    -1.7430 O.3   1 <1>  -0.3630 
 12 C       -2.2640     3.8130    -0.4110 C.ar  1 <1>  -0.1500 
 13 C       -2.6940     1.9560     1.0560 C.ar  1 <1>   0.0830 
 14 O        2.8260     1.8930     1.8690 O.2   1 <1>  -0.5700 
 15 N        2.9380    -0.0140     0.6870 N.am  1 <1>  -0.7300 
 16 C       -0.4460     5.1430    -2.1590 C.3   1 <1>   0.0400 
 17 C       -3.0720     3.1830     0.5220 C.ar  1 <1>  -0.1500 
 18 O       -3.4280     1.2720     1.9720 O.3   1 <1>  -0.3620 
 19 C        3.6310    -0.8620     1.6850 C.3   1 <1>   0.0600 
 20 C       -4.6650     1.7670     2.4340 C.3   1 <1>   0.0400 
 21 H        0.1810     0.3640    -4.1750 H     1 <1>   0.0800 
 22 H        0.8960     1.7970    -3.4850 H     1 <1>   0.0800 
 23 H       -0.8020     1.4760    -3.2620 H     1 <1>   0.0800 
 24 H        1.6190     3.0130     0.0680 H     1 <1>   0.0800 
 25 H        2.4480     2.0650    -1.1230 H     1 <1>   0.0800 
 26 H       -1.2190     0.4240     1.0610 H     1 <1>   0.1500 
 27 H       -2.5900     4.7560    -0.8060 H     1 <1>   0.1500 
 28 H        2.6910    -0.4710    -0.2070 H     1 <1>   0.3700 
 29 H       -1.3760     5.2040    -2.6960 H     1 <1>   0.0800 
 30 H        0.3660     5.4190    -2.8070 H     1 <1>   0.0800 
 31 H       -0.4560     5.7820    -1.2940 H     1 <1>   0.0800 
 32 H       -3.9880     3.6600     0.8160 H     1 <1>   0.1500 
 33 H        3.0140    -1.7090     1.9300 H     1 <1>   0.0800 
 34 H        3.8240    -0.3000     2.5830 H     1 <1>   0.0800 
 35 H        4.5660    -1.2070     1.2810 H     1 <1>   0.0800 
 36 H       -5.0630     1.0600     3.1390 H     1 <1>   0.0800 
 37 H       -5.3350     1.8680     1.5990 H     1 <1>   0.0800 
 38 H       -4.5030     2.7140     2.9190 H     1 <1>   0.0800 
@<TRIPOS>BOND
  1   1   2  2   
  2   1   3  2   
  3   1   4  am  
  4   1   5  1   
  5   4   6  1   
  6   4   7  1   
  7   5  21  1   
  8   5  22  1   
  9   5  23  1   
 10   6   8  ar  
 11   6   9  ar  
 12   7  10  1   
 13   7  24  1   
 14   7  25  1   
 15   8  11  1   
 16   8  12  ar  
 17   9  13  ar  
 18   9  26  1   
 19  10  14  2   
 20  10  15  am  
 21  11  16  1   
 22  12  17  ar  
 23  12  27  1   
 24  13  17  ar  
 25  13  18  1   
 26  15  19  1   
 27  15  28  1   
 28  16  29  1   
 29  16  30  1   
 30  16  31  1   
 31  17  32  1   
 32  18  20  1   
 33  19  33  1   
 34  19  34  1   
 35  19  35  1   
 36  20  36  1   
 37  20  37  1   
 38  20  38  1   
@<TRIPOS>SUBSTRUCTURE
  1 ****   6 GROUP 4 **** **** 0

# MOE 2024.06 (io_trps.svl 2023.06)
