@<TRIPOS>MOLECULE
NONAME
41 43 1 0 0 
SMALL
USER_CHARGES


@<TRIPOS>ATOM
  1 S        0.0910     0.5520    -1.6490 S.3   1 <1>  -0.4600 
  2 C        1.0230     2.0110    -1.0420 C.3   1 <1>   0.4320 
  3 C       -1.6080     0.6410    -0.9770 C.3   1 <1>   0.1310 
  4 C        2.0750     1.5970    -0.0130 C.ar  1 <1>  -0.1440 
  5 C        0.1380     3.1060    -0.4930 C.2   1 <1>  -0.1240 
  6 C       -1.6370     0.7660     0.5410 C.2   1 <1>   0.5690 
  7 C        3.2520     2.3300     0.0500 C.ar  1 <1>  -0.1500 
  8 C        1.9020     0.5400     0.8730 C.ar  1 <1>  -0.1500 
  9 C        0.2960     4.4330    -0.8770 C.2   1 <1>   0.6160 
 10 C       -0.8280     3.0650     0.4700 C.2   1 <1>   0.2090 
 11 O       -1.9780    -0.1670     1.2220 O.2   1 <1>  -0.5700 
 12 N       -1.3290     1.9540     1.1150 N.am  1 <1>  -0.5390 
 13 C        4.2350     2.0140     0.9730 C.ar  1 <1>  -0.1500 
 14 C        2.8840     0.2260     1.7950 C.ar  1 <1>  -0.1500 
 15 O        1.1270     4.9150    -1.6580 O.2   1 <1>  -0.5700 
 16 N       -0.5810     5.1830    -0.1770 N.am  1 <1>  -0.4100 
 17 N       -1.2870     4.3170     0.7200 N.pl3 1 <1>  -0.4890 
 18 C        4.0550     0.9610     1.8520 C.ar  1 <1>  -0.1430 
 19 C       -2.6580     4.6510     1.1870 C.3   1 <1>   0.2890 
 20 C        5.1330     0.6130     2.8630 C.3   1 <1>  -0.0970 
 21 C       -3.6070     4.7400    -0.0090 C.3   1 <1>  -0.2400 
 22 C       -2.6250     5.9640     1.9690 C.3   1 <1>  -0.2400 
 23 H        1.5310     2.3780    -1.9180 H     1 <1>   0.0800 
 24 H       -2.1040    -0.2630    -1.2770 H     1 <1>   0.0800 
 25 H       -2.0920     1.4820    -1.4370 H     1 <1>   0.0800 
 26 H        3.4120     3.1580    -0.6200 H     1 <1>   0.1500 
 27 H        1.0060    -0.0540     0.8600 H     1 <1>   0.1500 
 28 H       -1.4540     1.9980     2.1250 H     1 <1>   0.3700 
 29 H        5.1400     2.5950     1.0020 H     1 <1>   0.1500 
 30 H        2.7290    -0.5990     2.4690 H     1 <1>   0.1500 
 31 H       -0.2500     6.0990     0.1370 H     1 <1>   0.3700 
 32 H       -3.0000     3.8700     1.8450 H     1 <1>   0.0800 
 33 H        5.6600     1.4990     3.1690 H     1 <1>   0.0800 
 34 H        5.8320    -0.0750     2.4250 H     1 <1>   0.0800 
 35 H        4.6980     0.1590     3.7350 H     1 <1>   0.0800 
 36 H       -3.3040     5.5260    -0.6770 H     1 <1>   0.0800 
 37 H       -4.6060     4.9450     0.3300 H     1 <1>   0.0800 
 38 H       -3.6140     3.8060    -0.5410 H     1 <1>   0.0800 
 39 H       -2.3350     6.7800     1.3330 H     1 <1>   0.0800 
 40 H       -1.9320     5.8850     2.7880 H     1 <1>   0.0800 
 41 H       -3.5990     6.1750     2.3700 H     1 <1>   0.0800 
@<TRIPOS>BOND
  1   1   2  1   
  2   1   3  1   
  3   2   4  1   
  4   2   5  1   
  5   2  23  1   
  6   3   6  1   
  7   3  24  1   
  8   3  25  1   
  9   4   7  ar  
 10   4   8  ar  
 11   5   9  1   
 12   5  10  2   
 13   6  11  2   
 14   6  12  am  
 15   7  13  ar  
 16   7  26  1   
 17   8  14  ar  
 18   8  27  1   
 19   9  15  2   
 20   9  16  am  
 21  10  12  1   
 22  10  17  1   
 23  12  28  1   
 24  13  18  ar  
 25  13  29  1   
 26  14  18  ar  
 27  14  30  1   
 28  16  17  1   
 29  16  31  1   
 30  17  19  1   
 31  18  20  1   
 32  19  21  1   
 33  19  22  1   
 34  19  32  1   
 35  20  33  1   
 36  20  34  1   
 37  20  35  1   
 38  21  36  1   
 39  21  37  1   
 40  21  38  1   
 41  22  39  1   
 42  22  40  1   
 43  22  41  1   
@<TRIPOS>SUBSTRUCTURE
  1 ****   5 GROUP 4 **** **** 0

# MOE 2024.06 (io_trps.svl 2023.06)
