@<TRIPOS>MOLECULE
NONAME
36 38 1 0 0 
SMALL
USER_CHARGES


@<TRIPOS>ATOM
  1 O        0.0610    -0.6210    -1.1620 O.2   1 <1>  -0.5700 
  2 C        0.2310    -1.6200    -0.5060 C.2   1 <1>   0.5690 
  3 N        1.1340    -1.7530     0.5000 N.am  1 <1>  -0.4200 
  4 C       -0.5410    -2.9350    -0.7090 C.3   1 <1>   0.2510 
  5 C        1.1240    -3.0140     1.0070 C.2   1 <1>   0.5690 
  6 C        2.0160    -0.6690     0.9800 C.3   1 <1>   0.1400 
  7 N       -1.9870    -2.8750    -0.4030 N.3   1 <1>  -0.9000 
  8 C        0.1340    -3.8920     0.2830 C.3   1 <1>  -0.0990 
  9 O        1.8140    -3.4120     1.9080 O.2   1 <1>  -0.5700 
 10 C        3.3280    -0.6860     0.1970 C.3   1 <1>  -0.2400 
 11 C       -2.7600    -2.1740    -1.4240 C.3   1 <1>   0.2530 
 12 C       -4.0750    -1.7540    -0.7980 C.ar  1 <1>  -0.1430 
 13 C       -4.2790    -0.4240    -0.4420 C.ar  1 <1>  -0.1500 
 14 C       -5.0770    -2.6980    -0.5720 C.ar  1 <1>  -0.1500 
 15 C       -5.4870    -0.0800     0.1300 C.ar  1 <1>   0.0830 
 16 C       -6.2880    -2.3330     0.0030 C.ar  1 <1>  -0.1500 
 17 O       -5.8940     1.1230     0.5470 O.3   1 <1>  -0.3630 
 18 C       -6.4650    -1.0070     0.3450 C.ar  1 <1>   0.0830 
 19 C       -7.2140     0.9530     1.0580 C.3   1 <1>   0.4000 
 20 O       -7.5320    -0.4290     0.9060 O.3   1 <1>  -0.3630 
 21 H       -0.3940    -3.2870    -1.7160 H     1 <1>   0.0800 
 22 H        2.2130    -0.8080     2.0300 H     1 <1>   0.0800 
 23 H        1.5220     0.2790     0.8490 H     1 <1>   0.0800 
 24 H       -2.1260    -2.3500     0.4710 H     1 <1>   0.3600 
 25 H        0.6640    -4.6690    -0.2350 H     1 <1>   0.0800 
 26 H       -0.5610    -4.3240     0.9810 H     1 <1>   0.0800 
 27 H        3.8350    -1.6240     0.3380 H     1 <1>   0.0800 
 28 H        3.9680     0.1030     0.5480 H     1 <1>   0.0800 
 29 H        3.1400    -0.5300    -0.8510 H     1 <1>   0.0800 
 30 H       -2.9360    -2.8280    -2.2620 H     1 <1>   0.0800 
 31 H       -2.2390    -1.3000    -1.7760 H     1 <1>   0.0800 
 32 H       -3.5260     0.3280    -0.5980 H     1 <1>   0.1500 
 33 H       -4.9070    -3.7260    -0.8410 H     1 <1>   0.1500 
 34 H       -7.0680    -3.0490     0.1830 H     1 <1>   0.1500 
 35 H       -7.9020     1.5470     0.4830 H     1 <1>   0.0800 
 36 H       -7.2340     1.2150     2.1010 H     1 <1>   0.0800 
@<TRIPOS>BOND
  1   1   2  2   
  2   2   3  am  
  3   2   4  1   
  4   3   5  am  
  5   3   6  1   
  6   4   7  1   
  7   4   8  1   
  8   4  21  1   
  9   5   8  1   
 10   5   9  2   
 11   6  10  1   
 12   6  22  1   
 13   6  23  1   
 14   7  11  1   
 15   7  24  1   
 16   8  25  1   
 17   8  26  1   
 18  10  27  1   
 19  10  28  1   
 20  10  29  1   
 21  11  12  1   
 22  11  30  1   
 23  11  31  1   
 24  12  13  ar  
 25  12  14  ar  
 26  13  15  ar  
 27  13  32  1   
 28  14  16  ar  
 29  14  33  1   
 30  15  17  1   
 31  15  18  ar  
 32  16  18  ar  
 33  16  34  1   
 34  17  19  1   
 35  18  20  1   
 36  19  20  1   
 37  19  35  1   
 38  19  36  1   
@<TRIPOS>SUBSTRUCTURE
  1 ****   7 GROUP 4 **** **** 0

# MOE 2024.06 (io_trps.svl 2023.06)
