@<TRIPOS>MOLECULE
NONAME
32 33 1 0 0 
SMALL
USER_CHARGES


@<TRIPOS>ATOM
  1 CL       1.4020     2.5210    -2.0330 Cl    1 <1>  -0.1240 
  2 C        0.0720     2.8160    -0.9500 C.2   1 <1>   0.1640 
  3 S       -1.4830     3.1310    -1.6790 S.3   1 <1>  -0.0800 
  4 C        0.0110     2.8480     0.3920 C.2   1 <1>  -0.1500 
  5 C       -2.2470     3.3080    -0.0880 C.2   1 <1>  -0.0450 
  6 C       -1.3010     3.1300     0.8740 C.2   1 <1>  -0.1500 
  7 C       -3.6520     3.6140     0.0030 C.2   1 <1>   0.7150 
  8 O       -4.1580     3.9180     1.0710 O.2   1 <1>  -0.5700 
  9 N       -4.5120     3.5290    -1.0660 N.am  1 <1>  -0.6600 
 10 C       -5.5230     4.6090    -1.2860 C.3   1 <1>   0.1400 
 11 C       -4.8200     2.2110    -1.6750 C.3   1 <1>   0.1400 
 12 C       -6.9050     4.3030    -0.6660 C.3   1 <1>   0.3430 
 13 C       -5.5820     1.3320    -0.6740 C.3   1 <1>  -0.1600 
 14 N       -6.8440     3.2300     0.3780 N.4   1 <1>  -0.9590 
 15 C       -6.9450     1.8670    -0.2180 C.3   1 <1>   0.3430 
 16 C       -7.8530     3.4450     1.4540 C.3   1 <1>   0.2630 
 17 H        0.8430     2.6840     1.0550 H     1 <1>   0.1500 
 18 H       -1.4950     3.1940     1.9320 H     1 <1>   0.1500 
 19 H       -5.6320     4.7920    -2.3410 H     1 <1>   0.0800 
 20 H       -5.1520     5.5210    -0.8480 H     1 <1>   0.0800 
 21 H       -3.9010     1.7190    -1.9500 H     1 <1>   0.0800 
 22 H       -5.3960     2.3470    -2.5750 H     1 <1>   0.0800 
 23 H       -7.5890     4.0130    -1.4450 H     1 <1>   0.0800 
 24 H       -7.2810     5.2150    -0.2320 H     1 <1>   0.0800 
 25 H       -4.9660     1.1460     0.1880 H     1 <1>   0.0800 
 26 H       -5.7480     0.3760    -1.1370 H     1 <1>   0.0800 
 27 H       -5.8910     3.3210     0.8000 H     1 <1>   0.4500 
 28 H       -7.3410     1.1850     0.5180 H     1 <1>   0.0800 
 29 H       -7.6300     1.8830    -1.0510 H     1 <1>   0.0800 
 30 H       -8.8520     3.3850     1.0530 H     1 <1>   0.0800 
 31 H       -7.7160     4.4160     1.9030 H     1 <1>   0.0800 
 32 H       -7.7420     2.6980     2.2230 H     1 <1>   0.0800 
@<TRIPOS>BOND
  1   1   2  1   
  2   2   3  1   
  3   2   4  2   
  4   3   5  1   
  5   4   6  1   
  6   4  17  1   
  7   5   6  2   
  8   5   7  1   
  9   6  18  1   
 10   7   8  2   
 11   7   9  am  
 12   9  10  1   
 13   9  11  1   
 14  10  12  1   
 15  10  19  1   
 16  10  20  1   
 17  11  13  1   
 18  11  21  1   
 19  11  22  1   
 20  12  14  1   
 21  12  23  1   
 22  12  24  1   
 23  13  15  1   
 24  13  25  1   
 25  13  26  1   
 26  14  15  1   
 27  14  16  1   
 28  14  27  1   
 29  15  28  1   
 30  15  29  1   
 31  16  30  1   
 32  16  31  1   
 33  16  32  1   
@<TRIPOS>SUBSTRUCTURE
  1 ****   7 GROUP 4 **** **** 0

# MOE 2024.06 (io_trps.svl 2023.06)
