@<TRIPOS>MOLECULE
NONAME
45 47 1 0 0 
SMALL
USER_CHARGES


@<TRIPOS>ATOM
  1 O       -1.7860     1.4950     0.9570 O.2   1 <1>  -0.5700 
  2 C       -0.9600     2.1250     0.3170 C.2   1 <1>   0.4690 
  3 C        0.3410     2.4540     0.8370 C.ar  1 <1>   0.0860 
  4 C       -1.2830     2.6130    -0.9860 C.2   1 <1>  -0.1240 
  5 C        1.1840     3.2670     0.0670 C.ar  1 <1>   0.0830 
  6 C        0.8100     2.0120     2.0770 C.ar  1 <1>  -0.1500 
  7 C       -0.4030     3.3880    -1.6580 C.2   1 <1>  -0.0730 
  8 C       -2.6270     2.2130    -1.5680 C.3   1 <1>   0.4810 
  9 O        0.7830     3.7190    -1.1420 O.3   1 <1>  -0.1590 
 10 C        2.4450     3.6220     0.5260 C.ar  1 <1>  -0.1500 
 11 C        2.0640     2.3670     2.5310 C.ar  1 <1>  -0.1500 
 12 N       -3.7250     2.6070    -0.6450 N.4   1 <1>  -0.9590 
 13 C        2.8840     3.1730     1.7550 C.ar  1 <1>  -0.1500 
 14 C       -5.0150     1.9450    -1.0120 C.3   1 <1>   0.3430 
 15 C       -3.8540     4.0840    -0.4880 C.3   1 <1>   0.3430 
 16 C       -6.1030     2.2320     0.0290 C.3   1 <1>  -0.0190 
 17 C       -4.9000     4.3940     0.5850 C.3   1 <1>  -0.1600 
 18 C       -7.4010     1.6040    -0.4440 C.2   1 <1>   0.6590 
 19 C       -6.2570     3.7480     0.2670 C.3   1 <1>  -0.1600 
 20 O       -7.5240     1.2020    -1.5720 O.2   1 <1>  -0.5700 
 21 O       -8.3700     1.5280     0.4540 O.3   1 <1>  -0.4300 
 22 C       -9.6260     0.9720     0.1400 C.3   1 <1>   0.1200 
 23 C      -10.5030     1.0530     1.3850 C.3   1 <1>  -0.2400 
 24 H        0.1800     1.3850     2.6850 H     1 <1>   0.1500 
 25 H       -0.5620     3.7950    -2.6440 H     1 <1>   0.1500 
 26 H       -2.6360     1.1420    -1.6990 H     1 <1>   0.0800 
 27 H       -2.7680     2.6740    -2.5320 H     1 <1>   0.0800 
 28 H        3.0760     4.2470    -0.0810 H     1 <1>   0.1500 
 29 H        2.4130     2.0180     3.4890 H     1 <1>   0.1500 
 30 H       -3.4220     2.2200     0.2740 H     1 <1>   0.4500 
 31 H        3.8620     3.4470     2.1150 H     1 <1>   0.1500 
 32 H       -4.8770     0.8780    -1.0880 H     1 <1>   0.0800 
 33 H       -5.3480     2.3060    -1.9720 H     1 <1>   0.0800 
 34 H       -4.1560     4.5270    -1.4230 H     1 <1>   0.0800 
 35 H       -2.9070     4.5120    -0.1970 H     1 <1>   0.0800 
 36 H       -5.8300     1.7510     0.9510 H     1 <1>   0.0800 
 37 H       -5.0230     5.4610     0.6560 H     1 <1>   0.0800 
 38 H       -4.5430     4.0490     1.5410 H     1 <1>   0.0800 
 39 H       -6.9420     3.9200     1.0810 H     1 <1>   0.0800 
 40 H       -6.6760     4.2090    -0.6130 H     1 <1>   0.0800 
 41 H       -9.4810    -0.0520    -0.1640 H     1 <1>   0.0800 
 42 H      -10.0560     1.5330    -0.6730 H     1 <1>   0.0800 
 43 H      -10.0590     0.4970     2.1910 H     1 <1>   0.0800 
 44 H      -11.4700     0.6340     1.1740 H     1 <1>   0.0800 
 45 H      -10.6330     2.0790     1.6820 H     1 <1>   0.0800 
@<TRIPOS>BOND
  1   1   2  2   
  2   2   3  1   
  3   2   4  1   
  4   3   5  ar  
  5   3   6  ar  
  6   4   7  2   
  7   4   8  1   
  8   5   9  1   
  9   5  10  ar  
 10   6  11  ar  
 11   6  24  1   
 12   7   9  1   
 13   7  25  1   
 14   8  12  1   
 15   8  26  1   
 16   8  27  1   
 17  10  13  ar  
 18  10  28  1   
 19  11  13  ar  
 20  11  29  1   
 21  12  14  1   
 22  12  15  1   
 23  12  30  1   
 24  13  31  1   
 25  14  16  1   
 26  14  32  1   
 27  14  33  1   
 28  15  17  1   
 29  15  34  1   
 30  15  35  1   
 31  16  18  1   
 32  16  19  1   
 33  16  36  1   
 34  17  19  1   
 35  17  37  1   
 36  17  38  1   
 37  18  20  2   
 38  18  21  1   
 39  19  39  1   
 40  19  40  1   
 41  21  22  1   
 42  22  23  1   
 43  22  41  1   
 44  22  42  1   
 45  23  43  1   
 46  23  44  1   
 47  23  45  1   
@<TRIPOS>SUBSTRUCTURE
  1 ****  12 GROUP 4 **** **** 0

# MOE 2024.06 (io_trps.svl 2023.06)
