@<TRIPOS>MOLECULE
NONAME
49 50 1 0 0 
SMALL
USER_CHARGES


@<TRIPOS>ATOM
  1 S        0.5290    -0.1280    -1.0210 S.o2  1 <1>   1.3330 
  2 O        0.6140    -0.8580     0.2170 O.2   1 <1>  -0.6500 
  3 O        1.6570    -0.1130    -1.9240 O.2   1 <1>  -0.6500 
  4 N        0.1650     1.5220    -0.6550 N.am  1 <1>  -0.6930 
  5 C       -0.9180    -0.6390    -1.9210 C.3   1 <1>  -0.1350 
  6 C       -0.6760     1.8150     0.4140 C.ar  1 <1>   0.1990 
  7 C        1.1670     2.5410    -1.1090 C.3   1 <1>   0.3370 
  8 C       -0.2010     1.8390     1.7200 C.ar  1 <1>  -0.1500 
  9 C       -2.0190     2.0940     0.1860 C.ar  1 <1>  -0.1500 
 10 C        2.4640     2.5560    -0.2630 C.2   1 <1>   0.5690 
 11 C        0.4980     3.9220    -1.2160 C.3   1 <1>  -0.2400 
 12 C       -1.0480     2.1330     2.7740 C.ar  1 <1>  -0.1500 
 13 C       -2.8690     2.3860     1.2370 C.ar  1 <1>  -0.1500 
 14 O        2.6110     3.3970     0.5950 O.2   1 <1>  -0.5700 
 15 N        3.4190     1.6120    -0.5290 N.am  1 <1>  -0.5470 
 16 C       -2.3840     2.4060     2.5340 C.ar  1 <1>  -0.1500 
 17 C        4.6660     1.4270     0.0890 C.ar  1 <1>   0.1170 
 18 C        5.6920     2.3680    -0.0400 C.ar  1 <1>  -0.1430 
 19 C        4.8970     0.2630     0.8250 C.ar  1 <1>  -0.1430 
 20 C        6.9160     2.1390     0.5670 C.ar  1 <1>  -0.1500 
 21 C        5.5090     3.6520    -0.8390 C.3   1 <1>  -0.0970 
 22 C        6.1290     0.0530     1.4200 C.ar  1 <1>  -0.1500 
 23 C        3.8060    -0.7860     1.0030 C.3   1 <1>  -0.0970 
 24 C        7.1440     0.9850     1.2950 C.ar  1 <1>  -0.1430 
 25 C        8.4900     0.7470     1.9550 C.3   1 <1>  -0.0970 
 26 H       -0.8100    -1.6570    -2.2410 H     1 <1>   0.0800 
 27 H       -1.0570    -0.0190    -2.7850 H     1 <1>   0.0800 
 28 H       -1.7860    -0.5670    -1.2960 H     1 <1>   0.0800 
 29 H        1.4620     2.2880    -2.1120 H     1 <1>   0.0800 
 30 H        0.8360     1.6260     1.9110 H     1 <1>   0.1500 
 31 H       -2.3930     2.0850    -0.8200 H     1 <1>   0.1500 
 32 H        0.2160     4.2850    -0.2430 H     1 <1>   0.0800 
 33 H       -0.3700     3.8720    -1.8470 H     1 <1>   0.0800 
 34 H        1.1910     4.6250    -1.6400 H     1 <1>   0.0800 
 35 H       -0.6650     2.1480     3.7800 H     1 <1>   0.1500 
 36 H       -3.9070     2.6000     1.0510 H     1 <1>   0.1500 
 37 H        3.1210     0.8350    -1.1320 H     1 <1>   0.3700 
 38 H       -3.0420     2.6330     3.3540 H     1 <1>   0.1500 
 39 H        7.7020     2.8670     0.4740 H     1 <1>   0.1500 
 40 H        4.9280     4.3530    -0.2690 H     1 <1>   0.0800 
 41 H        5.0030     3.4480    -1.7650 H     1 <1>   0.0800 
 42 H        6.4580     4.1010    -1.0680 H     1 <1>   0.0800 
 43 H        6.3040    -0.8420     1.9890 H     1 <1>   0.1500 
 44 H        3.5160    -1.1860     0.0480 H     1 <1>   0.0800 
 45 H        2.9470    -0.3420     1.4730 H     1 <1>   0.0800 
 46 H        4.1430    -1.5980     1.6200 H     1 <1>   0.0800 
 47 H        8.4800     1.1530     2.9510 H     1 <1>   0.0800 
 48 H        9.2730     1.2220     1.3930 H     1 <1>   0.0800 
 49 H        8.7010    -0.3050     2.0100 H     1 <1>   0.0800 
@<TRIPOS>BOND
  1   1   2  2   
  2   1   3  2   
  3   1   4  am  
  4   1   5  1   
  5   4   6  1   
  6   4   7  1   
  7   5  26  1   
  8   5  27  1   
  9   5  28  1   
 10   6   8  ar  
 11   6   9  ar  
 12   7  10  1   
 13   7  11  1   
 14   7  29  1   
 15   8  12  ar  
 16   8  30  1   
 17   9  13  ar  
 18   9  31  1   
 19  10  14  2   
 20  10  15  am  
 21  11  32  1   
 22  11  33  1   
 23  11  34  1   
 24  12  16  ar  
 25  12  35  1   
 26  13  16  ar  
 27  13  36  1   
 28  15  17  1   
 29  15  37  1   
 30  16  38  1   
 31  17  18  ar  
 32  17  19  ar  
 33  18  20  ar  
 34  18  21  1   
 35  19  22  ar  
 36  19  23  1   
 37  20  24  ar  
 38  20  39  1   
 39  21  40  1   
 40  21  41  1   
 41  21  42  1   
 42  22  24  ar  
 43  22  43  1   
 44  23  44  1   
 45  23  45  1   
 46  23  46  1   
 47  24  25  1   
 48  25  47  1   
 49  25  48  1   
 50  25  49  1   
@<TRIPOS>SUBSTRUCTURE
  1 ****  10 GROUP 4 **** **** 0

# MOE 2024.06 (io_trps.svl 2023.06)
