@<TRIPOS>MOLECULE
NONAME
39 41 1 0 0 
SMALL
USER_CHARGES


@<TRIPOS>ATOM
  1 O       -0.5180    -0.3420    -0.4440 O.2   1 <1>  -0.5700 
  2 C       -1.5970    -0.8340    -0.1600 C.2   1 <1>   0.6900 
  3 N       -1.6540    -1.9600     0.6550 N.am  1 <1>  -0.4200 
  4 N       -2.7700    -0.2690    -0.6530 N.am  1 <1>  -0.4240 
  5 C       -2.8700    -2.5630     0.9690 C.2   1 <1>   0.7160 
  6 C       -0.3860    -2.5570     1.1720 C.3   1 <1>   0.0600 
  7 C       -3.9930    -0.8460    -0.3090 C.2   1 <1>  -0.0880 
  8 C       -2.7390     0.9380    -1.5240 C.3   1 <1>   0.0600 
  9 O       -2.8690    -3.5810     1.6490 O.2   1 <1>  -0.5700 
 10 C       -4.0760    -1.9560     0.4710 C.2   1 <1>   0.1410 
 11 N       -5.2500    -0.4890    -0.6270 N.pl3 1 <1>   0.0330 
 12 N       -5.3950    -2.3000     0.6420 N.2   1 <1>  -0.5650 
 13 C       -6.0480    -1.4040    -0.0260 C.2   1 <1>   0.2700 
 14 N       -7.4240    -1.3500    -0.1350 N.pl3 1 <1>  -0.8220 
 15 C       -8.0960    -0.8000     1.0710 C.3   1 <1>   0.2090 
 16 C       -8.0290    -2.6140    -0.6230 C.3   1 <1>   0.2090 
 17 C       -9.2630     0.0880     0.6310 C.3   1 <1>  -0.1600 
 18 C       -9.4320    -2.3820    -1.1940 C.3   1 <1>  -0.1600 
 19 C      -10.5880    -0.6460     0.3430 C.3   1 <1>  -0.1600 
 20 C      -10.4920    -2.1110    -0.1140 C.3   1 <1>  -0.1600 
 21 H        0.3800    -1.8060     1.2640 H     1 <1>   0.0800 
 22 H       -0.0490    -3.3220     0.4960 H     1 <1>   0.0800 
 23 H       -0.5450    -2.9930     2.1440 H     1 <1>   0.0800 
 24 H       -1.7560     1.0850    -1.9380 H     1 <1>   0.0800 
 25 H       -3.0050     1.8050    -0.9450 H     1 <1>   0.0800 
 26 H       -3.4330     0.8210    -2.3360 H     1 <1>   0.0800 
 27 H       -5.5950     0.2800    -1.1990 H     1 <1>   0.2700 
 28 H       -7.3910    -0.2010     1.6220 H     1 <1>   0.0800 
 29 H       -8.4280    -1.5920     1.7200 H     1 <1>   0.0800 
 30 H       -8.0590    -3.3350     0.1770 H     1 <1>   0.0800 
 31 H       -7.4000    -3.0180    -1.3990 H     1 <1>   0.0800 
 32 H       -8.9590     0.6360    -0.2430 H     1 <1>   0.0800 
 33 H       -9.4480     0.8110     1.4050 H     1 <1>   0.0800 
 34 H       -9.7140    -3.2820    -1.7110 H     1 <1>   0.0800 
 35 H       -9.4090    -1.5890    -1.9200 H     1 <1>   0.0800 
 36 H      -11.1220    -0.0840    -0.4040 H     1 <1>   0.0800 
 37 H      -11.1910    -0.6240     1.2350 H     1 <1>   0.0800 
 38 H      -10.3030    -2.7430     0.7360 H     1 <1>   0.0800 
 39 H      -11.4550    -2.3940    -0.5030 H     1 <1>   0.0800 
@<TRIPOS>BOND
  1   1   2  2   
  2   2   3  am  
  3   2   4  am  
  4   3   5  am  
  5   3   6  1   
  6   4   7  1   
  7   4   8  1   
  8   5   9  2   
  9   5  10  1   
 10   6  21  1   
 11   6  22  1   
 12   6  23  1   
 13   7  10  2   
 14   7  11  1   
 15   8  24  1   
 16   8  25  1   
 17   8  26  1   
 18  10  12  1   
 19  11  13  1   
 20  11  27  1   
 21  12  13  2   
 22  13  14  1   
 23  14  15  1   
 24  14  16  1   
 25  15  17  1   
 26  15  28  1   
 27  15  29  1   
 28  16  18  1   
 29  16  30  1   
 30  16  31  1   
 31  17  19  1   
 32  17  32  1   
 33  17  33  1   
 34  18  20  1   
 35  18  34  1   
 36  18  35  1   
 37  19  20  1   
 38  19  36  1   
 39  19  37  1   
 40  20  38  1   
 41  20  39  1   
@<TRIPOS>SUBSTRUCTURE
  1 ****  13 GROUP 4 **** **** 0

# MOE 2024.06 (io_trps.svl 2023.06)
