@<TRIPOS>MOLECULE
NONAME
50 52 1 0 0 
SMALL
USER_CHARGES


@<TRIPOS>ATOM
  1 O       -5.7010     4.8470    -1.1320 O.2   1 <1>  -0.5700 
  2 C       -5.7890     3.6440    -1.1800 C.2   1 <1>   0.6590 
  3 O       -4.7800     2.9240    -1.6650 O.3   1 <1>  -0.4300 
  4 C       -7.0100     2.8630    -0.6610 C.3   1 <1>   0.0610 
  5 C       -3.6500     3.5000    -2.3040 C.3   1 <1>   0.1200 
  6 C       -7.6350     2.0230    -1.8040 C.3   1 <1>  -0.1600 
  7 C       -8.1040     3.8170    -0.1110 C.3   1 <1>  -0.1600 
  8 C       -6.5890     1.9040     0.4810 C.3   1 <1>  -0.1600 
  9 C       -2.5550     3.9040    -1.2960 C.3   1 <1>   0.3430 
 10 C       -8.8470     1.2210    -1.2950 C.3   1 <1>  -0.0800 
 11 C       -9.3190     3.0250     0.4050 C.3   1 <1>  -0.0800 
 12 C       -7.7970     1.1020     0.9980 C.3   1 <1>  -0.0800 
 13 N       -3.0680     4.8030    -0.2110 N.4   1 <1>  -0.9590 
 14 C       -9.9070     2.1960    -0.7510 C.3   1 <1>  -0.1600 
 15 C       -8.3940     0.2820    -0.1610 C.3   1 <1>  -0.1600 
 16 C       -8.8640     2.0770     1.5290 C.3   1 <1>  -0.1600 
 17 C       -2.2850     6.0600    -0.0810 C.3   1 <1>   0.3430 
 18 C       -3.1880     4.0600     1.0700 C.3   1 <1>   0.3430 
 19 C       -2.5730     6.9590    -1.2780 C.3   1 <1>  -0.2400 
 20 C       -4.1260     4.8010     2.0170 C.3   1 <1>  -0.2400 
 21 H       -3.9700     4.3510    -2.8810 H     1 <1>   0.0800 
 22 H       -3.2570     2.7650    -2.9840 H     1 <1>   0.0800 
 23 H       -7.9460     2.6710    -2.6050 H     1 <1>   0.0800 
 24 H       -6.9040     1.3410    -2.2030 H     1 <1>   0.0800 
 25 H       -8.4230     4.4920    -0.8870 H     1 <1>   0.0800 
 26 H       -7.7030     4.4140     0.6900 H     1 <1>   0.0800 
 27 H       -6.1640     2.4660     1.2940 H     1 <1>   0.0800 
 28 H       -5.8390     1.2170     0.1280 H     1 <1>   0.0800 
 29 H       -1.7680     4.4020    -1.8380 H     1 <1>   0.0800 
 30 H       -2.1290     3.0120    -0.8670 H     1 <1>   0.0800 
 31 H       -9.2670     0.6420    -2.1000 H     1 <1>   0.0800 
 32 H      -10.0650     3.7040     0.7810 H     1 <1>   0.0800 
 33 H       -7.4870     0.4380     1.7880 H     1 <1>   0.0800 
 34 H       -4.0340     5.0780    -0.4860 H     1 <1>   0.4500 
 35 H      -10.7640     1.6450    -0.4030 H     1 <1>   0.0800 
 36 H      -10.2410     2.8500    -1.5370 H     1 <1>   0.0800 
 37 H       -7.6620    -0.4140    -0.5340 H     1 <1>   0.0800 
 38 H       -9.2340    -0.2900     0.1930 H     1 <1>   0.0800 
 39 H       -8.4640     2.6470     2.3500 H     1 <1>   0.0800 
 40 H       -9.7090     1.5240     1.9010 H     1 <1>   0.0800 
 41 H       -1.2310     5.8420    -0.0190 H     1 <1>   0.0800 
 42 H       -2.5750     6.5820     0.8160 H     1 <1>   0.0800 
 43 H       -2.2180     3.9370     1.5250 H     1 <1>   0.0800 
 44 H       -3.5990     3.0810     0.8770 H     1 <1>   0.0800 
 45 H       -2.2190     6.5260    -2.1950 H     1 <1>   0.0800 
 46 H       -2.0660     7.8980    -1.1420 H     1 <1>   0.0800 
 47 H       -3.6270     7.1600    -1.3550 H     1 <1>   0.0800 
 48 H       -3.7090     5.7400     2.3320 H     1 <1>   0.0800 
 49 H       -4.2810     4.2030     2.8970 H     1 <1>   0.0800 
 50 H       -5.0840     4.9680     1.5580 H     1 <1>   0.0800 
@<TRIPOS>BOND
  1   1   2  2   
  2   2   3  1   
  3   2   4  1   
  4   3   5  1   
  5   4   6  1   
  6   4   7  1   
  7   4   8  1   
  8   5   9  1   
  9   5  21  1   
 10   5  22  1   
 11   6  10  1   
 12   6  23  1   
 13   6  24  1   
 14   7  11  1   
 15   7  25  1   
 16   7  26  1   
 17   8  12  1   
 18   8  27  1   
 19   8  28  1   
 20   9  13  1   
 21   9  29  1   
 22   9  30  1   
 23  10  14  1   
 24  10  15  1   
 25  10  31  1   
 26  11  14  1   
 27  11  16  1   
 28  11  32  1   
 29  12  15  1   
 30  12  16  1   
 31  12  33  1   
 32  13  17  1   
 33  13  18  1   
 34  13  34  1   
 35  14  35  1   
 36  14  36  1   
 37  15  37  1   
 38  15  38  1   
 39  16  39  1   
 40  16  40  1   
 41  17  19  1   
 42  17  41  1   
 43  17  42  1   
 44  18  20  1   
 45  18  43  1   
 46  18  44  1   
 47  19  45  1   
 48  19  46  1   
 49  19  47  1   
 50  20  48  1   
 51  20  49  1   
 52  20  50  1   
@<TRIPOS>SUBSTRUCTURE
  1 ****   2 GROUP 4 **** **** 0

# MOE 2024.06 (io_trps.svl 2023.06)
