@<TRIPOS>MOLECULE
NONAME
47 50 1 0 0 
SMALL
USER_CHARGES


@<TRIPOS>ATOM
  1 F       -1.3750    -0.6950    -2.1330 F     1 <1>  -0.1900 
  2 C       -1.8840    -0.9620    -0.9610 C.ar  1 <1>   0.1900 
  3 C       -2.2370     0.0820    -0.1040 C.ar  1 <1>   0.0860 
  4 C       -2.0440    -2.2960    -0.6370 C.ar  1 <1>  -0.1500 
  5 C       -2.0560     1.4840    -0.4330 C.2   1 <1>   0.5440 
  6 C       -2.7950    -0.2920     1.1200 C.ar  1 <1>  -0.1500 
  7 C       -2.5870    -2.6280     0.5910 C.ar  1 <1>  -0.1500 
  8 O       -2.8900     2.2980    -0.0880 O.2   1 <1>  -0.5700 
  9 N       -0.9330     1.9730    -1.0670 N.am  1 <1>  -0.6600 
 10 C       -2.9650    -1.6230     1.4660 C.ar  1 <1>  -0.1500 
 11 C       -0.9610     3.3060    -1.7350 C.3   1 <1>   0.1400 
 12 C        0.4360     1.4730    -0.7610 C.3   1 <1>   0.1400 
 13 C       -0.2120     4.3370    -0.8750 C.3   1 <1>   0.3430 
 14 C        1.2120     2.5240     0.0630 C.3   1 <1>   0.3430 
 15 N        1.2010     3.8960    -0.5690 N.4   1 <1>  -0.9590 
 16 C        1.9350     4.8630     0.3050 C.3   1 <1>   0.3430 
 17 C        2.2270     6.2010    -0.4030 C.3   1 <1>  -0.0800 
 18 C        3.4920     6.9670     0.3440 C.3   1 <1>   0.0580 
 19 C        0.9230     7.3110    -0.3860 C.3   1 <1>  -0.1600 
 20 C        3.8270     8.3300     1.1390 C.2   1 <1>  -0.2880 
 21 C        2.4220     7.7540     0.2430 C.3   1 <1>  -0.1600 
 22 C        1.4770     8.6880     0.3410 C.3   1 <1>   0.0580 
 23 C        2.7720     9.2310     1.1380 C.2   1 <1>  -0.2880 
 24 H       -1.7530    -3.0610    -1.3350 H     1 <1>   0.1500 
 25 H       -3.1060     0.4760     1.8090 H     1 <1>   0.1500 
 26 H       -2.7220    -3.6620     0.8640 H     1 <1>   0.1500 
 27 H       -3.3970    -1.8790     2.4190 H     1 <1>   0.1500 
 28 H       -1.9780     3.6310    -1.8800 H     1 <1>   0.0800 
 29 H       -0.5060     3.2300    -2.7070 H     1 <1>   0.0800 
 30 H        0.9540     1.2660    -1.6820 H     1 <1>   0.0800 
 31 H        0.3850     0.5560    -0.2010 H     1 <1>   0.0800 
 32 H       -0.7610     4.4730     0.0430 H     1 <1>   0.0800 
 33 H       -0.2000     5.2770    -1.3990 H     1 <1>   0.0800 
 34 H        2.2280     2.1880     0.1900 H     1 <1>   0.0800 
 35 H        0.7600     2.5790     1.0400 H     1 <1>   0.0800 
 36 H        1.7020     3.8270    -1.4640 H     1 <1>   0.4500 
 37 H        2.8800     4.4260     0.5880 H     1 <1>   0.0800 
 38 H        1.3780     5.0480     1.2100 H     1 <1>   0.0800 
 39 H        2.5140     5.9850    -1.4230 H     1 <1>   0.0800 
 40 H        4.2520     6.9700    -0.4270 H     1 <1>   0.0800 
 41 H        0.0800     6.9310     0.1740 H     1 <1>   0.0800 
 42 H        0.5810     7.5220    -1.3900 H     1 <1>   0.0800 
 43 H        4.8000     8.4400     1.5910 H     1 <1>   0.1500 
 44 H        2.8250     8.2280    -0.7470 H     1 <1>   0.0800 
 45 H        2.0540     7.3240     1.3230 H     1 <1>   0.0800 
 46 H        1.3560     9.4330    -0.4340 H     1 <1>   0.0800 
 47 H        2.7240    10.2100     1.5890 H     1 <1>   0.1500 
@<TRIPOS>BOND
  1   1   2  1   
  2   2   3  ar  
  3   2   4  ar  
  4   3   5  1   
  5   3   6  ar  
  6   4   7  ar  
  7   4  24  1   
  8   5   8  2   
  9   5   9  am  
 10   6  10  ar  
 11   6  25  1   
 12   7  10  ar  
 13   7  26  1   
 14   9  11  1   
 15   9  12  1   
 16  10  27  1   
 17  11  13  1   
 18  11  28  1   
 19  11  29  1   
 20  12  14  1   
 21  12  30  1   
 22  12  31  1   
 23  13  15  1   
 24  13  32  1   
 25  13  33  1   
 26  14  15  1   
 27  14  34  1   
 28  14  35  1   
 29  15  16  1   
 30  15  36  1   
 31  16  17  1   
 32  16  37  1   
 33  16  38  1   
 34  17  18  1   
 35  17  19  1   
 36  17  39  1   
 37  18  20  1   
 38  18  21  1   
 39  18  40  1   
 40  19  22  1   
 41  19  41  1   
 42  19  42  1   
 43  20  23  2   
 44  20  43  1   
 45  21  22  1   
 46  21  44  1   
 47  21  45  1   
 48  22  23  1   
 49  22  46  1   
 50  23  47  1   
@<TRIPOS>SUBSTRUCTURE
  1 ****  13 GROUP 4 **** **** 0

# MOE 2024.06 (io_trps.svl 2023.06)
