@<TRIPOS>MOLECULE
NONAME
48 49 1 0 0 
SMALL
USER_CHARGES


@<TRIPOS>ATOM
  1 O       -0.9440     0.3640    -0.7630 O.3   1 <1>  -0.5600 
  2 C       -1.0810     1.5550    -0.0440 C.3   1 <1>   0.1200 
  3 C       -1.8660    -0.6330    -0.4350 C.3   1 <1>   0.1200 
  4 C       -2.4800     2.1580    -0.2730 C.3   1 <1>   0.3430 
  5 C       -3.3030    -0.1330    -0.6800 C.3   1 <1>   0.3430 
  6 N       -3.5700     1.1670     0.0360 N.4   1 <1>  -0.9590 
  7 C       -4.9080     1.7350    -0.2890 C.3   1 <1>   0.3430 
  8 C       -6.0180     0.8800     0.3270 C.3   1 <1>  -0.1600 
  9 C       -7.3940     1.5280     0.1130 C.3   1 <1>  -0.1600 
 10 C       -8.5020     0.6710     0.7410 C.3   1 <1>  -0.1600 
 11 C       -9.8840     1.3130     0.5630 C.3   1 <1>   0.1200 
 12 O      -10.8510     0.5200     1.2170 O.3   1 <1>  -0.3630 
 13 C      -11.2960    -0.6620     0.7190 C.ar  1 <1>   0.0820 
 14 C      -12.0180    -1.4680     1.5840 C.ar  1 <1>  -0.1500 
 15 C      -11.0700    -1.0960    -0.5850 C.ar  1 <1>  -0.1500 
 16 C      -12.5020    -2.6940     1.1640 C.ar  1 <1>  -0.1500 
 17 C      -11.5560    -2.3240    -1.0010 C.ar  1 <1>  -0.1500 
 18 C      -12.2710    -3.1310    -0.1310 C.ar  1 <1>  -0.1440 
 19 C      -12.8020    -4.4780    -0.5930 C.3   1 <1>  -0.0170 
 20 C      -14.2040    -4.3290    -1.1870 C.3   1 <1>  -0.2400 
 21 H       -0.3220     2.2350    -0.3910 H     1 <1>   0.0800 
 22 H       -0.9070     1.3530     0.9990 H     1 <1>   0.0800 
 23 H       -1.7210    -0.9170     0.5930 H     1 <1>   0.0800 
 24 H       -1.6590    -1.4870    -1.0570 H     1 <1>   0.0800 
 25 H       -2.5480     2.4650    -1.3040 H     1 <1>   0.0800 
 26 H       -2.5930     3.0360     0.3420 H     1 <1>   0.0800 
 27 H       -3.9990    -0.8880    -0.3520 H     1 <1>   0.0800 
 28 H       -3.4370     0.0010    -1.7410 H     1 <1>   0.0800 
 29 H       -3.5380     0.9780     1.0470 H     1 <1>   0.4500 
 30 H       -5.0380     1.7930    -1.3580 H     1 <1>   0.0800 
 31 H       -4.9810     2.7340     0.1120 H     1 <1>   0.0800 
 32 H       -5.8470     0.7750     1.3840 H     1 <1>   0.0800 
 33 H       -6.0270    -0.0970    -0.1240 H     1 <1>   0.0800 
 34 H       -7.5880     1.6390    -0.9410 H     1 <1>   0.0800 
 35 H       -7.4100     2.5080     0.5630 H     1 <1>   0.0800 
 36 H       -8.3160     0.5550     1.7950 H     1 <1>   0.0800 
 37 H       -8.5010    -0.3050     0.2870 H     1 <1>   0.0800 
 38 H      -10.1590     1.4320    -0.4690 H     1 <1>   0.0800 
 39 H       -9.9050     2.2800     1.0340 H     1 <1>   0.0800 
 40 H      -12.1970    -1.1290     2.5880 H     1 <1>   0.1500 
 41 H      -10.5270    -0.4970    -1.2870 H     1 <1>   0.1500 
 42 H      -13.0600    -3.3070     1.8500 H     1 <1>   0.1500 
 43 H      -11.3780    -2.6500    -2.0110 H     1 <1>   0.1500 
 44 H      -12.8330    -5.1600     0.2390 H     1 <1>   0.0800 
 45 H      -12.1390    -4.8960    -1.3310 H     1 <1>   0.0800 
 46 H      -14.8770    -3.9270    -0.4500 H     1 <1>   0.0800 
 47 H      -14.5740    -5.2850    -1.5110 H     1 <1>   0.0800 
 48 H      -14.1790    -3.6610    -2.0300 H     1 <1>   0.0800 
@<TRIPOS>BOND
  1   1   2  1   
  2   1   3  1   
  3   2   4  1   
  4   2  21  1   
  5   2  22  1   
  6   3   5  1   
  7   3  23  1   
  8   3  24  1   
  9   4   6  1   
 10   4  25  1   
 11   4  26  1   
 12   5   6  1   
 13   5  27  1   
 14   5  28  1   
 15   6   7  1   
 16   6  29  1   
 17   7   8  1   
 18   7  30  1   
 19   7  31  1   
 20   8   9  1   
 21   8  32  1   
 22   8  33  1   
 23   9  10  1   
 24   9  34  1   
 25   9  35  1   
 26  10  11  1   
 27  10  36  1   
 28  10  37  1   
 29  11  12  1   
 30  11  38  1   
 31  11  39  1   
 32  12  13  1   
 33  13  14  ar  
 34  13  15  ar  
 35  14  16  ar  
 36  14  40  1   
 37  15  17  ar  
 38  15  41  1   
 39  16  18  ar  
 40  16  42  1   
 41  17  18  ar  
 42  17  43  1   
 43  18  19  1   
 44  19  20  1   
 45  19  44  1   
 46  19  45  1   
 47  20  46  1   
 48  20  47  1   
 49  20  48  1   
@<TRIPOS>SUBSTRUCTURE
  1 ****  10 GROUP 4 **** **** 0

# MOE 2024.06 (io_trps.svl 2023.06)
