@<TRIPOS>MOLECULE
NONAME
47 49 1 0 0 
SMALL
USER_CHARGES


@<TRIPOS>ATOM
  1 S        0.1180     0.2980    -1.1720 S.o2  1 <1>   1.4470 
  2 O       -0.2020     0.8710    -2.4630 O.2   1 <1>  -0.6500 
  3 O       -0.0720    -1.1200    -0.9630 O.2   1 <1>  -0.6500 
  4 N       -0.8470     1.0920    -0.0280 N.am  1 <1>  -0.8490 
  5 C        1.8000     0.7650    -0.6830 C.ar  1 <1>  -0.0090 
  6 C       -0.9010     2.5360    -0.1740 C.3   1 <1>   0.1960 
  7 C       -2.2270     0.6460    -0.0490 C.3   1 <1>   0.1960 
  8 C        2.7080     1.2690    -1.6070 C.ar  1 <1>  -0.1500 
  9 C        2.2280     0.6280     0.6310 C.ar  1 <1>  -0.1500 
 10 C       -2.0910     2.9520     0.6810 C.3   1 <1>  -0.1600 
 11 C       -2.9880     1.7140     0.7290 C.3   1 <1>  -0.1600 
 12 C        3.9900     1.6280    -1.2300 C.ar  1 <1>  -0.1500 
 13 C        3.5090     0.9860     1.0130 C.ar  1 <1>  -0.1500 
 14 C        4.4120     1.4940     0.0860 C.ar  1 <1>   0.1170 
 15 N        5.7200     1.8740     0.4080 N.am  1 <1>  -0.5470 
 16 C        6.4430     1.8860     1.5670 C.2   1 <1>   0.5690 
 17 O        6.0270     1.5310     2.6430 O.2   1 <1>  -0.5700 
 18 C        7.8800     2.3960     1.4500 C.3   1 <1>   0.1710 
 19 N        8.4280     2.3190     0.0610 N.3   1 <1>  -0.8100 
 20 C        9.6160     3.1840    -0.0810 C.3   1 <1>   0.1100 
 21 C        8.8020     0.9280    -0.2850 C.3   1 <1>   0.1100 
 22 C       10.2370     3.0500    -1.4830 C.3   1 <1>   0.1200 
 23 C        9.4480     0.8560    -1.6810 C.3   1 <1>   0.1200 
 24 O       10.5510     1.7140    -1.7530 O.3   1 <1>  -0.5600 
 25 H       -1.0880     2.8040    -1.2020 H     1 <1>   0.0800 
 26 H        0.0140     2.9970     0.1590 H     1 <1>   0.0800 
 27 H       -2.3230    -0.3290     0.4000 H     1 <1>   0.0800 
 28 H       -2.5850     0.6090    -1.0670 H     1 <1>   0.0800 
 29 H        2.4050     1.3830    -2.6350 H     1 <1>   0.1500 
 30 H        1.5450     0.2350     1.3670 H     1 <1>   0.1500 
 31 H       -2.5930     3.8030     0.2540 H     1 <1>   0.0800 
 32 H       -1.7520     3.2030     1.6700 H     1 <1>   0.0800 
 33 H       -3.1270     1.3930     1.7460 H     1 <1>   0.0800 
 34 H       -3.9500     1.8940     0.2820 H     1 <1>   0.0800 
 35 H        4.6680     2.0170    -1.9680 H     1 <1>   0.1500 
 36 H        3.7980     0.8650     2.0410 H     1 <1>   0.1500 
 37 H        6.3070     2.1800    -0.3750 H     1 <1>   0.3700 
 38 H        8.5060     1.8420     2.1280 H     1 <1>   0.0800 
 39 H        7.8740     3.4210     1.7740 H     1 <1>   0.0800 
 40 H       10.3580     2.9190     0.6540 H     1 <1>   0.0800 
 41 H        9.3350     4.2110     0.0800 H     1 <1>   0.0800 
 42 H        7.9280     0.2990    -0.2720 H     1 <1>   0.0800 
 43 H        9.5010     0.5410     0.4370 H     1 <1>   0.0800 
 44 H       11.1470     3.6190    -1.5450 H     1 <1>   0.0800 
 45 H        9.5540     3.4030    -2.2350 H     1 <1>   0.0800 
 46 H        8.7420     1.1380    -2.4420 H     1 <1>   0.0800 
 47 H        9.7960    -0.1420    -1.8800 H     1 <1>   0.0800 
@<TRIPOS>BOND
  1   1   2  2   
  2   1   3  2   
  3   1   4  am  
  4   1   5  1   
  5   4   6  1   
  6   4   7  1   
  7   5   8  ar  
  8   5   9  ar  
  9   6  10  1   
 10   6  25  1   
 11   6  26  1   
 12   7  11  1   
 13   7  27  1   
 14   7  28  1   
 15   8  12  ar  
 16   8  29  1   
 17   9  13  ar  
 18   9  30  1   
 19  10  11  1   
 20  10  31  1   
 21  10  32  1   
 22  11  33  1   
 23  11  34  1   
 24  12  14  ar  
 25  12  35  1   
 26  13  14  ar  
 27  13  36  1   
 28  14  15  1   
 29  15  16  am  
 30  15  37  1   
 31  16  17  2   
 32  16  18  1   
 33  18  19  1   
 34  18  38  1   
 35  18  39  1   
 36  19  20  1   
 37  19  21  1   
 38  20  22  1   
 39  20  40  1   
 40  20  41  1   
 41  21  23  1   
 42  21  42  1   
 43  21  43  1   
 44  22  24  1   
 45  22  44  1   
 46  22  45  1   
 47  23  24  1   
 48  23  46  1   
 49  23  47  1   
@<TRIPOS>SUBSTRUCTURE
  1 ****  14 GROUP 4 **** **** 0

# MOE 2024.06 (io_trps.svl 2023.06)
