@<TRIPOS>MOLECULE
NONAME
48 50 1 0 0 
SMALL
USER_CHARGES


@<TRIPOS>ATOM
  1 O       -0.6560     0.6140     0.6090 O.2   1 <1>  -0.5700 
  2 C       -0.8970     1.3290    -0.3470 C.2   1 <1>   0.7150 
  3 N        0.1390     1.9610    -0.9880 N.am  1 <1>  -0.5390 
  4 C       -2.2470     1.5580    -0.8150 C.2   1 <1>   0.0550 
  5 C        1.5330     1.8950    -0.8060 C.2   1 <1>   0.1230 
  6 O       -3.2970     1.0750    -0.1560 O.3   1 <1>  -0.2800 
  7 C       -2.7080     2.2390    -1.9050 C.2   1 <1>  -0.1500 
  8 C        2.2150     3.1550    -1.0560 C.2   1 <1>   0.6160 
  9 C        2.1400     0.7240    -0.4610 C.2   1 <1>  -0.1780 
 10 C       -4.3960     1.4250    -0.7830 C.2   1 <1>  -0.0100 
 11 C       -4.1000     2.1510    -1.8800 C.2   1 <1>  -0.1500 
 12 O        1.9570     3.7470    -2.0920 O.2   1 <1>  -0.5700 
 13 N        3.0770     3.7420    -0.1520 N.am  1 <1>  -0.6600 
 14 C        3.5360     0.4230    -0.3190 C.ar  1 <1>   0.0280 
 15 C        3.0870     3.4080     1.3020 C.3   1 <1>   0.1400 
 16 C        3.9210     4.9110    -0.5250 C.3   1 <1>   0.1400 
 17 C        4.5170     0.9730    -1.1460 C.ar  1 <1>  -0.1500 
 18 C        3.9540    -0.4640     0.6720 C.ar  1 <1>  -0.1500 
 19 C        4.5230     3.2010     1.7970 C.3   1 <1>  -0.1600 
 20 C        5.3620     4.6870    -0.0540 C.3   1 <1>  -0.1600 
 21 C        5.8530     0.6690    -0.9740 C.ar  1 <1>  -0.1500 
 22 C        5.2890    -0.7750     0.8500 C.ar  1 <1>  -0.1500 
 23 C        5.4250     4.3930     1.4500 C.3   1 <1>  -0.1600 
 24 C        6.2530    -0.2030     0.0250 C.ar  1 <1>   0.0830 
 25 O        7.5810    -0.4450     0.1340 O.3   1 <1>  -0.3630 
 26 C        8.0910    -1.3240     1.1110 C.3   1 <1>   0.0400 
 27 H       -0.1420     2.7180    -1.6140 H     1 <1>   0.3700 
 28 H       -2.1430     2.7530    -2.6620 H     1 <1>   0.1500 
 29 H        1.5170    -0.1290    -0.2630 H     1 <1>   0.1500 
 30 H       -5.3470     1.1160    -0.3820 H     1 <1>   0.1500 
 31 H       -4.7740     2.5820    -2.6000 H     1 <1>   0.1500 
 32 H        2.6380     4.2230     1.8430 H     1 <1>   0.0800 
 33 H        2.5070     2.5240     1.5000 H     1 <1>   0.0800 
 34 H        3.9160     5.0560    -1.5920 H     1 <1>   0.0800 
 35 H        3.5170     5.7960    -0.0640 H     1 <1>   0.0800 
 36 H        4.2330     1.6460    -1.9350 H     1 <1>   0.1500 
 37 H        3.2160    -0.9110     1.3150 H     1 <1>   0.1500 
 38 H        4.5120     3.0540     2.8620 H     1 <1>   0.0800 
 39 H        4.9240     2.3080     1.3530 H     1 <1>   0.0800 
 40 H        5.7820     3.8620    -0.6030 H     1 <1>   0.0800 
 41 H        5.9480     5.5610    -0.2760 H     1 <1>   0.0800 
 42 H        6.5980     1.1040    -1.6150 H     1 <1>   0.1500 
 43 H        5.5600    -1.4600     1.6300 H     1 <1>   0.1500 
 44 H        6.4400     4.1740     1.7360 H     1 <1>   0.0800 
 45 H        5.1010     5.2600     2.0000 H     1 <1>   0.0800 
 46 H        9.1600    -1.3590     1.0040 H     1 <1>   0.0800 
 47 H        7.6750    -2.3030     0.9500 H     1 <1>   0.0800 
 48 H        7.8330    -0.9500     2.0860 H     1 <1>   0.0800 
@<TRIPOS>BOND
  1   1   2  2   
  2   2   3  am  
  3   2   4  1   
  4   3   5  1   
  5   3  27  1   
  6   4   6  1   
  7   4   7  2   
  8   5   8  1   
  9   5   9  2   
 10   6  10  1   
 11   7  11  1   
 12   7  28  1   
 13   8  12  2   
 14   8  13  am  
 15   9  14  1   
 16   9  29  1   
 17  10  11  2   
 18  10  30  1   
 19  11  31  1   
 20  13  15  1   
 21  13  16  1   
 22  14  17  ar  
 23  14  18  ar  
 24  15  19  1   
 25  15  32  1   
 26  15  33  1   
 27  16  20  1   
 28  16  34  1   
 29  16  35  1   
 30  17  21  ar  
 31  17  36  1   
 32  18  22  ar  
 33  18  37  1   
 34  19  23  1   
 35  19  38  1   
 36  19  39  1   
 37  20  23  1   
 38  20  40  1   
 39  20  41  1   
 40  21  24  ar  
 41  21  42  1   
 42  22  24  ar  
 43  22  43  1   
 44  23  44  1   
 45  23  45  1   
 46  24  25  1   
 47  25  26  1   
 48  26  46  1   
 49  26  47  1   
 50  26  48  1   
@<TRIPOS>SUBSTRUCTURE
  1 ****   5 GROUP 4 **** **** 0

# MOE 2024.06 (io_trps.svl 2023.06)
