@<TRIPOS>MOLECULE
NONAME
32 35 1 0 0 
SMALL
USER_CHARGES


@<TRIPOS>ATOM
  1 S       -0.1370     0.1840    -0.2500 S.3   1 <1>  -0.0800 
  2 C       -1.6910    -0.6150    -0.2290 C.2   1 <1>   0.1040 
  3 C        0.6700    -1.3710    -0.1310 C.2   1 <1>  -0.1400 
  4 N       -2.8700     0.0570    -0.2940 N.am  1 <1>  -0.4940 
  5 C       -1.5950    -1.9660    -0.1370 C.2   1 <1>  -0.0860 
  6 C       -0.2120    -2.3860    -0.0980 C.2   1 <1>  -0.1810 
  7 C        2.1810    -1.4350    -0.0810 C.3   1 <1>   0.0200 
  8 C       -4.0510    -0.6200    -0.2680 C.2   1 <1>   0.6900 
  9 C       -2.8140    -2.7320    -0.0850 C.2   1 <1>   0.5960 
 10 C        0.2720    -3.8300    -0.0190 C.3   1 <1>   0.0210 
 11 C        2.6080    -2.8430     0.3680 C.3   1 <1>  -0.1600 
 12 O       -5.0710     0.0350    -0.3370 O.2   1 <1>  -0.5700 
 13 N       -4.0500    -2.0360    -0.1610 N.am  1 <1>  -0.0580 
 14 N       -2.7570    -4.0260     0.0340 N.2   1 <1>  -0.6610 
 15 C        1.7790    -3.9410    -0.3280 C.3   1 <1>  -0.1600 
 16 N       -5.2630    -2.7130    -0.1250 N.2   1 <1>  -0.5120 
 17 C       -3.9380    -4.6950     0.0740 C.2   1 <1>   0.7810 
 18 C       -5.1910    -3.9910    -0.0120 C.2   1 <1>   0.3890 
 19 O       -3.8850    -5.9150     0.1840 O.2   1 <1>  -0.5700 
 20 C       -6.4940    -4.7740     0.0320 C.3   1 <1>  -0.1790 
 21 H       -2.9230     1.0730    -0.3670 H     1 <1>   0.3700 
 22 H        2.5610    -0.7010     0.6080 H     1 <1>   0.0800 
 23 H        2.5710    -1.2230    -1.0600 H     1 <1>   0.0800 
 24 H       -0.2650    -4.4400    -0.7250 H     1 <1>   0.0800 
 25 H        0.0730    -4.2080     0.9690 H     1 <1>   0.0800 
 26 H        2.4680    -2.9270     1.4320 H     1 <1>   0.0800 
 27 H        3.6540    -2.9840     0.1600 H     1 <1>   0.0800 
 28 H        1.9200    -3.8580    -1.3920 H     1 <1>   0.0800 
 29 H        2.1320    -4.9120    -0.0270 H     1 <1>   0.0800 
 30 H       -6.5280    -5.4710    -0.7860 H     1 <1>   0.0800 
 31 H       -7.3380    -4.1110    -0.0430 H     1 <1>   0.0800 
 32 H       -6.5610    -5.3180     0.9560 H     1 <1>   0.0800 
@<TRIPOS>BOND
  1   1   2  1   
  2   1   3  1   
  3   2   4  1   
  4   2   5  2   
  5   3   6  2   
  6   3   7  1   
  7   4   8  am  
  8   4  21  1   
  9   5   6  1   
 10   5   9  1   
 11   6  10  1   
 12   7  11  1   
 13   7  22  1   
 14   7  23  1   
 15   8  12  2   
 16   8  13  am  
 17   9  13  1   
 18   9  14  2   
 19  10  15  1   
 20  10  24  1   
 21  10  25  1   
 22  11  15  1   
 23  11  26  1   
 24  11  27  1   
 25  13  16  1   
 26  14  17  1   
 27  15  28  1   
 28  15  29  1   
 29  16  18  2   
 30  17  18  1   
 31  17  19  2   
 32  18  20  1   
 33  20  30  1   
 34  20  31  1   
 35  20  32  1   
@<TRIPOS>SUBSTRUCTURE
  1 ****   9 GROUP 4 **** **** 0

# MOE 2024.06 (io_trps.svl 2023.06)
