@<TRIPOS>MOLECULE
NONAME
19 19 1 0 0 
SMALL
USER_CHARGES


@<TRIPOS>ATOM
  1 O       -2.3060    -1.0550     0.5840 O.3   1 <1>  -0.6800 
  2 C       -3.1760    -0.6680    -0.4390 C.3   1 <1>   0.2000 
  3 C       -3.1810     0.8780    -0.5610 C.3   1 <1>   0.4230 
  4 C       -4.6020    -1.0870    -0.0560 C.3   1 <1>  -0.1600 
  5 N       -1.9790     1.4630     0.0700 N.4   1 <1>  -0.8530 
  6 C       -4.4300     1.3270     0.1920 C.3   1 <1>  -0.1600 
  7 C       -5.4350     0.1980    -0.0240 C.3   1 <1>  -0.1600 
  8 H       -2.3680    -2.0260     0.7320 H     1 <1>   0.4000 
  9 H       -2.8620    -1.1320    -1.3590 H     1 <1>   0.0800 
 10 H       -3.2700     1.1670    -1.5960 H     1 <1>   0.0800 
 11 H       -5.0100    -1.7730    -0.7790 H     1 <1>   0.0800 
 12 H       -4.6240    -1.5540     0.9150 H     1 <1>   0.0800 
 13 H       -1.7340     0.7860     0.8140 H     1 <1>   0.4500 
 14 H       -2.1550     2.3830     0.4790 H     1 <1>   0.4500 
 15 H       -1.1870     1.4910    -0.5750 H     1 <1>   0.4500 
 16 H       -4.2310     1.4040     1.2480 H     1 <1>   0.0800 
 17 H       -4.8110     2.2630    -0.1770 H     1 <1>   0.0800 
 18 H       -5.9300     0.3300    -0.9730 H     1 <1>   0.0800 
 19 H       -6.1840     0.1700     0.7510 H     1 <1>   0.0800 
@<TRIPOS>BOND
  1   1   2  1   
  2   1   8  1   
  3   2   3  1   
  4   2   4  1   
  5   2   9  1   
  6   3   5  1   
  7   3   6  1   
  8   3  10  1   
  9   4   7  1   
 10   4  11  1   
 11   4  12  1   
 12   5  13  1   
 13   5  14  1   
 14   5  15  1   
 15   6   7  1   
 16   6  16  1   
 17   6  17  1   
 18   7  18  1   
 19   7  19  1   
@<TRIPOS>SUBSTRUCTURE
  1 ****   3 GROUP 4 **** **** 0

# MOE 2024.06 (io_trps.svl 2023.06)
