@<TRIPOS>MOLECULE
NONAME
26 26 1 0 0 
SMALL
USER_CHARGES


@<TRIPOS>ATOM
  1 S       -1.0260    -1.2280     0.8270 S.3   1 <1>  -0.0800 
  2 C       -1.6500     0.2570     0.1020 C.2   1 <1>   0.4420 
  3 C        0.5360    -0.9030     0.1350 C.2   1 <1>  -0.1100 
  4 N       -0.7650     0.8830    -0.5930 N.2   1 <1>  -0.5650 
  5 N       -2.9900     0.6070     0.2650 N.am  1 <1>  -0.4240 
  6 C        0.4580     0.2370    -0.5640 C.2   1 <1>   0.0770 
  7 C       -3.7250     0.3150     1.4040 C.2   1 <1>   0.5690 
  8 C       -3.5810     1.3750    -0.8740 C.3   1 <1>   0.0600 
  9 O       -3.2020     0.0180     2.4520 O.2   1 <1>  -0.5700 
 10 C       -5.2490     0.3960     1.4170 C.3   1 <1>  -0.0990 
 11 C       -5.9290    -0.5730     0.4340 C.3   1 <1>  -0.1600 
 12 C       -7.4510    -0.3520     0.3970 C.3   1 <1>  -0.2660 
 13 C       -8.1090    -1.1220    -0.7240 C.2   1 <1>   0.9060 
 14 O       -7.9280    -0.7280    -1.8800 O.co2 1 <1>  -0.9000 
 15 O       -8.7980    -2.1060    -0.4450 O.co2 1 <1>  -0.9000 
 16 H        1.3320    -1.5980     0.3290 H     1 <1>   0.1500 
 17 H        1.2720     0.6910    -1.1040 H     1 <1>   0.1500 
 18 H       -2.9190     2.1740    -1.1580 H     1 <1>   0.0800 
 19 H       -4.5300     1.8090    -0.6220 H     1 <1>   0.0800 
 20 H       -3.7130     0.7180    -1.7160 H     1 <1>   0.0800 
 21 H       -5.5510     1.4060     1.2180 H     1 <1>   0.0800 
 22 H       -5.5920     0.1620     2.4090 H     1 <1>   0.0800 
 23 H       -5.7250    -1.5920     0.7190 H     1 <1>   0.0800 
 24 H       -5.5480    -0.4350    -0.5620 H     1 <1>   0.0800 
 25 H       -7.6740     0.6840     0.2340 H     1 <1>   0.0800 
 26 H       -7.8960    -0.6570     1.3250 H     1 <1>   0.0800 
@<TRIPOS>BOND
  1   1   2  1   
  2   1   3  1   
  3   2   4  2   
  4   2   5  1   
  5   3   6  2   
  6   3  16  1   
  7   4   6  1   
  8   5   7  am  
  9   5   8  1   
 10   6  17  1   
 11   7   9  2   
 12   7  10  1   
 13   8  18  1   
 14   8  19  1   
 15   8  20  1   
 16  10  11  1   
 17  10  21  1   
 18  10  22  1   
 19  11  12  1   
 20  11  23  1   
 21  11  24  1   
 22  12  13  1   
 23  12  25  1   
 24  12  26  1   
 25  13  14  ar  
 26  13  15  ar  
@<TRIPOS>SUBSTRUCTURE
  1 ****   5 GROUP 4 **** **** 0

# MOE 2024.06 (io_trps.svl 2023.06)
