@<TRIPOS>MOLECULE
NONAME
38 40 1 0 0 
SMALL
USER_CHARGES


@<TRIPOS>ATOM
  1 CL      -1.4990     0.2650     2.0420 Cl    1 <1>  -0.1770 
  2 C       -2.4100     1.1210     0.8280 C.ar  1 <1>   0.1770 
  3 C       -3.6450     0.6300     0.4460 C.ar  1 <1>  -0.1500 
  4 C       -1.8890     2.2720     0.2700 C.ar  1 <1>  -0.1500 
  5 C       -4.3850     1.3100    -0.5130 C.ar  1 <1>  -0.1440 
  6 C       -2.6210     2.9450    -0.6930 C.ar  1 <1>  -0.1500 
  7 C       -3.8620     2.4650    -1.0820 C.ar  1 <1>  -0.1500 
  8 C       -5.7520     0.8000    -0.9300 C.3   1 <1>   0.4870 
  9 N       -6.7160     1.0750     0.1670 N.4   1 <1>  -0.9590 
 10 C       -8.0510     0.4120    -0.0910 C.3   1 <1>   0.3430 
 11 C       -6.8690     2.5660     0.4020 C.3   1 <1>   0.3430 
 12 C       -9.1090     0.7510     0.9820 C.3   1 <1>   0.2090 
 13 C       -7.9200     2.8870     1.4820 C.3   1 <1>   0.2090 
 14 N       -9.2120     2.2290     1.1310 N.pl3 1 <1>  -0.8380 
 15 C      -10.1550     2.9010     0.3880 C.ar  1 <1>   0.7200 
 16 N      -11.3860     2.4060     0.4070 N.ar  1 <1>  -0.6200 
 17 N       -9.7310     3.9520    -0.3110 N.ar  1 <1>  -0.6200 
 18 C      -12.2820     3.0590    -0.2930 C.ar  1 <1>   0.1600 
 19 C      -10.6490     4.5860    -1.0030 C.ar  1 <1>   0.1600 
 20 C      -11.9600     4.1760    -1.0250 C.ar  1 <1>  -0.1500 
 21 H       -3.9990    -0.2760     0.9050 H     1 <1>   0.1500 
 22 H       -0.9250     2.6310     0.5840 H     1 <1>   0.1500 
 23 H       -2.2200     3.8410    -1.1390 H     1 <1>   0.1500 
 24 H       -4.4090     3.0060    -1.8380 H     1 <1>   0.1500 
 25 H       -5.6930    -0.2610    -1.1170 H     1 <1>   0.0800 
 26 H       -6.0680     1.2900    -1.8370 H     1 <1>   0.0800 
 27 H       -6.3190     0.6810     1.0280 H     1 <1>   0.4500 
 28 H       -7.9290    -0.6580    -0.1350 H     1 <1>   0.0800 
 29 H       -8.4370     0.7400    -1.0420 H     1 <1>   0.0800 
 30 H       -7.1790     3.0470    -0.5110 H     1 <1>   0.0800 
 31 H       -5.9230     2.9920     0.6960 H     1 <1>   0.0800 
 32 H       -8.8370     0.3140     1.9270 H     1 <1>   0.0800 
 33 H      -10.0570     0.3280     0.6940 H     1 <1>   0.0800 
 34 H       -8.0510     3.9540     1.5600 H     1 <1>   0.0800 
 35 H       -7.5860     2.5350     2.4420 H     1 <1>   0.0800 
 36 H      -13.2960     2.6960    -0.2830 H     1 <1>   0.1500 
 37 H      -10.3520     5.4550    -1.5670 H     1 <1>   0.1500 
 38 H      -12.7030     4.7050    -1.5930 H     1 <1>   0.1500 
@<TRIPOS>BOND
  1   1   2  1   
  2   2   3  ar  
  3   2   4  ar  
  4   3   5  ar  
  5   3  21  1   
  6   4   6  ar  
  7   4  22  1   
  8   5   7  ar  
  9   5   8  1   
 10   6   7  ar  
 11   6  23  1   
 12   7  24  1   
 13   8   9  1   
 14   8  25  1   
 15   8  26  1   
 16   9  10  1   
 17   9  11  1   
 18   9  27  1   
 19  10  12  1   
 20  10  28  1   
 21  10  29  1   
 22  11  13  1   
 23  11  30  1   
 24  11  31  1   
 25  12  14  1   
 26  12  32  1   
 27  12  33  1   
 28  13  14  1   
 29  13  34  1   
 30  13  35  1   
 31  14  15  1   
 32  15  16  ar  
 33  15  17  ar  
 34  16  18  ar  
 35  17  19  ar  
 36  18  20  ar  
 37  18  36  1   
 38  19  20  ar  
 39  19  37  1   
 40  20  38  1   
@<TRIPOS>SUBSTRUCTURE
  1 ****  11 GROUP 4 **** **** 0

# MOE 2024.06 (io_trps.svl 2023.06)
