@<TRIPOS>MOLECULE
NONAME
39 42 1 0 0 
SMALL
USER_CHARGES


@<TRIPOS>ATOM
  1 O        0.2970     0.7180    -1.0030 O.2   1 <1>  -0.5700 
  2 C        0.5010     1.7030    -0.3430 C.2   1 <1>   0.5690 
  3 N        1.7140     2.2080     0.1070 N.am  1 <1>  -0.2370 
  4 C       -0.5770     2.5940     0.1950 C.3   1 <1>  -0.0190 
  5 C        2.9560     1.5280     0.0830 C.ar  1 <1>   0.1170 
  6 C        1.5010     3.4960     0.5750 C.2   1 <1>   0.5690 
  7 C       -2.0150     3.0580    -0.1090 C.3   1 <1>   0.4180 
  8 C        0.1590     3.9210     0.0760 C.3   1 <1>  -0.0190 
  9 C        4.1420     2.2130    -0.1610 C.ar  1 <1>  -0.1500 
 10 C        3.0230     0.1540     0.3030 C.ar  1 <1>  -0.1500 
 11 O        2.2320     4.1900     1.2330 O.2   1 <1>  -0.5700 
 12 O       -1.8190     4.3240    -0.6530 O.3   1 <1>  -0.5600 
 13 C       -2.5420     3.5230     1.2320 C.2   1 <1>  -0.2880 
 14 C       -2.9230     2.2070    -0.9800 C.3   1 <1>  -0.2400 
 15 C       -0.9850     4.9020     0.3010 C.3   1 <1>   0.4180 
 16 C        5.3540     1.5480    -0.1850 C.ar  1 <1>  -0.1500 
 17 C        4.2330    -0.5160     0.2790 C.ar  1 <1>  -0.1500 
 18 C       -1.8580     4.6300     1.5130 C.2   1 <1>  -0.2880 
 19 C       -0.7490     6.3670    -0.0350 C.3   1 <1>  -0.2400 
 20 C        5.4110     0.1820     0.0330 C.ar  1 <1>   0.0830 
 21 O        6.6400    -0.3950    -0.0100 O.3   1 <1>  -0.3630 
 22 C        6.8000    -1.7820     0.1850 C.3   1 <1>   0.0400 
 23 H       -0.6040     2.2730     1.2240 H     1 <1>   0.0800 
 24 H        0.3960     4.1010    -0.9640 H     1 <1>   0.0800 
 25 H        4.1280     3.2750    -0.3310 H     1 <1>   0.1500 
 26 H        2.1230    -0.4030     0.4920 H     1 <1>   0.1500 
 27 H       -3.2880     2.9650     1.7700 H     1 <1>   0.1500 
 28 H       -2.4600     2.0370    -1.9350 H     1 <1>   0.0800 
 29 H       -3.8660     2.7040    -1.1200 H     1 <1>   0.0800 
 30 H       -3.0960     1.2580    -0.5080 H     1 <1>   0.0800 
 31 H        6.2670     2.0840    -0.3730 H     1 <1>   0.1500 
 32 H        4.2380    -1.5760     0.4520 H     1 <1>   0.1500 
 33 H       -1.8500     5.2850     2.3660 H     1 <1>   0.1500 
 34 H       -0.0780     6.7980     0.6860 H     1 <1>   0.0800 
 35 H       -1.6800     6.9030    -0.0030 H     1 <1>   0.0800 
 36 H       -0.3160     6.4640    -1.0140 H     1 <1>   0.0800 
 37 H        7.8470    -2.0120     0.1020 H     1 <1>   0.0800 
 38 H        6.2490    -2.3080    -0.5760 H     1 <1>   0.0800 
 39 H        6.4460    -2.0400     1.1670 H     1 <1>   0.0800 
@<TRIPOS>BOND
  1   1   2  2   
  2   2   3  am  
  3   2   4  1   
  4   3   5  1   
  5   3   6  am  
  6   4   7  1   
  7   4   8  1   
  8   4  23  1   
  9   5   9  ar  
 10   5  10  ar  
 11   6   8  1   
 12   6  11  2   
 13   7  12  1   
 14   7  13  1   
 15   7  14  1   
 16   8  15  1   
 17   8  24  1   
 18   9  16  ar  
 19   9  25  1   
 20  10  17  ar  
 21  10  26  1   
 22  12  15  1   
 23  13  18  2   
 24  13  27  1   
 25  14  28  1   
 26  14  29  1   
 27  14  30  1   
 28  15  18  1   
 29  15  19  1   
 30  16  20  ar  
 31  16  31  1   
 32  17  20  ar  
 33  17  32  1   
 34  18  33  1   
 35  19  34  1   
 36  19  35  1   
 37  19  36  1   
 38  20  21  1   
 39  21  22  1   
 40  22  37  1   
 41  22  38  1   
 42  22  39  1   
@<TRIPOS>SUBSTRUCTURE
  1 ****   3 GROUP 4 **** **** 0

# MOE 2024.06 (io_trps.svl 2023.06)
