@<TRIPOS>MOLECULE
NONAME
57 61 1 0 0 
SMALL
USER_CHARGES


@<TRIPOS>ATOM
  1 O        0.2660     1.4000    -1.5690 O.2   1 <1>  -0.5700 
  2 C        0.8020     2.2010    -0.8420 C.2   1 <1>   0.5690 
  3 N        0.3990     3.5140    -0.8310 N.am  1 <1>  -0.6600 
  4 C        1.9340     1.7570     0.0870 C.3   1 <1>  -0.0990 
  5 C       -0.6600     4.0090    -1.7650 C.3   1 <1>   0.1400 
  6 C        0.8920     4.5830     0.0920 C.3   1 <1>   0.1400 
  7 C        2.5480     0.3400    -0.0580 C.3   1 <1>   0.0000 
  8 C       -1.7520     4.7680    -0.9950 C.3   1 <1>   0.1200 
  9 C       -0.2890     5.3100     0.7570 C.3   1 <1>   0.1200 
 10 C        1.5250    -0.7770     0.2610 C.3   1 <1>  -0.1600 
 11 C        3.1260     0.1030    -1.4730 C.3   1 <1>  -0.1600 
 12 C        3.7090     0.2180     0.9590 C.3   1 <1>  -0.1600 
 13 O       -1.1890     5.7790    -0.2050 O.3   1 <1>  -0.5600 
 14 C        2.1520    -2.1920     0.1770 C.3   1 <1>   0.1430 
 15 C        3.7760    -1.2880    -1.5650 C.3   1 <1>  -0.0800 
 16 C        4.3710    -1.1670     0.8790 C.3   1 <1>  -0.0800 
 17 C        1.1430    -3.3240     0.4810 C.ar  1 <1>  -0.1440 
 18 C        2.7200    -2.3650    -1.2510 C.3   1 <1>  -0.1600 
 19 C        3.3200    -2.2470     1.1890 C.3   1 <1>  -0.1600 
 20 C        4.9200    -1.3850    -0.5410 C.3   1 <1>  -0.1600 
 21 C        1.5710    -4.6480     0.4620 C.ar  1 <1>  -0.1500 
 22 C       -0.1970    -3.0890     0.7780 C.ar  1 <1>  -0.1500 
 23 C        0.7040    -5.6930     0.7310 C.ar  1 <1>  -0.1500 
 24 C       -1.0670    -4.1320     1.0470 C.ar  1 <1>  -0.1500 
 25 C       -0.6230    -5.4420     1.0250 C.ar  1 <1>  -0.1440 
 26 C       -1.5780    -6.5830     1.3220 C.3   1 <1>  -0.0970 
 27 H        1.5700     1.8590     1.0920 H     1 <1>   0.0800 
 28 H        2.7320     2.4630    -0.0420 H     1 <1>   0.0800 
 29 H       -1.1120     3.1930    -2.3010 H     1 <1>   0.0800 
 30 H       -0.2130     4.6690    -2.4880 H     1 <1>   0.0800 
 31 H        1.4690     5.2960    -0.4720 H     1 <1>   0.0800 
 32 H        1.5230     4.1780     0.8600 H     1 <1>   0.0800 
 33 H       -2.3010     4.0960    -0.3590 H     1 <1>   0.0800 
 34 H       -2.4370     5.2310    -1.6830 H     1 <1>   0.0800 
 35 H        0.0630     6.1590     1.3160 H     1 <1>   0.0800 
 36 H       -0.8140     4.6490     1.4260 H     1 <1>   0.0800 
 37 H        0.7110    -0.7280    -0.4380 H     1 <1>   0.0800 
 38 H        1.1250    -0.6210     1.2470 H     1 <1>   0.0800 
 39 H        3.8550     0.8590    -1.7050 H     1 <1>   0.0800 
 40 H        2.3480     0.1680    -2.2120 H     1 <1>   0.0800 
 41 H        3.3410     0.3750     1.9580 H     1 <1>   0.0800 
 42 H        4.4510     0.9730     0.7630 H     1 <1>   0.0800 
 43 H        4.1630    -1.4400    -2.5590 H     1 <1>   0.0800 
 44 H        5.1750    -1.2280     1.5930 H     1 <1>   0.0800 
 45 H        1.9160    -2.3030    -1.9630 H     1 <1>   0.0800 
 46 H        3.1710    -3.3340    -1.3590 H     1 <1>   0.0800 
 47 H        2.9360    -2.1090     2.1850 H     1 <1>   0.0800 
 48 H        3.7970    -3.2090     1.1600 H     1 <1>   0.0800 
 49 H        5.6690    -0.6440    -0.7610 H     1 <1>   0.0800 
 50 H        5.3880    -2.3510    -0.6080 H     1 <1>   0.0800 
 51 H        2.5940    -4.8840     0.2350 H     1 <1>   0.1500 
 52 H       -0.6000    -2.0950     0.8060 H     1 <1>   0.1500 
 53 H        1.0710    -6.7030     0.7090 H     1 <1>   0.1500 
 54 H       -2.0960    -3.9160     1.2730 H     1 <1>   0.1500 
 55 H       -1.2640    -7.4780     0.8150 H     1 <1>   0.0800 
 56 H       -2.5710    -6.3360     0.9900 H     1 <1>   0.0800 
 57 H       -1.6000    -6.7710     2.3800 H     1 <1>   0.0800 
@<TRIPOS>BOND
  1   1   2  2   
  2   2   3  am  
  3   2   4  1   
  4   3   5  1   
  5   3   6  1   
  6   4   7  1   
  7   4  27  1   
  8   4  28  1   
  9   5   8  1   
 10   5  29  1   
 11   5  30  1   
 12   6   9  1   
 13   6  31  1   
 14   6  32  1   
 15   7  10  1   
 16   7  11  1   
 17   7  12  1   
 18   8  13  1   
 19   8  33  1   
 20   8  34  1   
 21   9  13  1   
 22   9  35  1   
 23   9  36  1   
 24  10  14  1   
 25  10  37  1   
 26  10  38  1   
 27  11  15  1   
 28  11  39  1   
 29  11  40  1   
 30  12  16  1   
 31  12  41  1   
 32  12  42  1   
 33  14  17  1   
 34  14  18  1   
 35  14  19  1   
 36  15  18  1   
 37  15  20  1   
 38  15  43  1   
 39  16  19  1   
 40  16  20  1   
 41  16  44  1   
 42  17  21  ar  
 43  17  22  ar  
 44  18  45  1   
 45  18  46  1   
 46  19  47  1   
 47  19  48  1   
 48  20  49  1   
 49  20  50  1   
 50  21  23  ar  
 51  21  51  1   
 52  22  24  ar  
 53  22  52  1   
 54  23  25  ar  
 55  23  53  1   
 56  24  25  ar  
 57  24  54  1   
 58  25  26  1   
 59  26  55  1   
 60  26  56  1   
 61  26  57  1   
@<TRIPOS>SUBSTRUCTURE
  1 ****  10 GROUP 4 **** **** 0

# MOE 2024.06 (io_trps.svl 2023.06)
