@<TRIPOS>MOLECULE
NONAME
46 47 1 0 0 
SMALL
USER_CHARGES


@<TRIPOS>ATOM
  1 O       -7.4550    -0.2070    -2.2180 O.3   1 <1>  -0.6800 
  2 C       -7.5050    -0.9260    -1.0480 C.3   1 <1>   0.7670 
  3 C       -6.1390    -1.5140    -0.8690 C.1   1 <1>  -0.2000 
  4 C       -8.6250    -1.9620    -1.2550 C.ar  1 <1>  -0.1440 
  5 C       -7.7480     0.0200     0.1450 C.ar  1 <1>  -0.1440 
  6 C       -5.0190    -1.8720    -0.6820 C.1   1 <1>  -0.2000 
  7 C       -9.9430    -1.6480    -0.9310 C.ar  1 <1>  -0.1500 
  8 C       -8.3640    -3.2190    -1.7940 C.ar  1 <1>  -0.1500 
  9 C       -8.0660    -0.5240     1.3860 C.ar  1 <1>  -0.1500 
 10 C       -7.6340     1.4050     0.0440 C.ar  1 <1>  -0.1500 
 11 C       -3.5920    -2.1680    -0.3990 C.3   1 <1>   0.5430 
 12 C      -10.9620    -2.5640    -1.1210 C.ar  1 <1>  -0.1500 
 13 C       -9.3830    -4.1370    -1.9850 C.ar  1 <1>  -0.1500 
 14 C       -8.2690     0.2860     2.4900 C.ar  1 <1>  -0.1500 
 15 C       -7.8380     2.2160     1.1460 C.ar  1 <1>  -0.1500 
 16 N       -3.1850    -1.3630     0.7850 N.4   1 <1>  -0.9590 
 17 C      -10.6820    -3.8120    -1.6470 C.ar  1 <1>  -0.1500 
 18 C       -8.1550     1.6580     2.3700 C.ar  1 <1>  -0.1500 
 19 C       -3.2240     0.0990     0.4920 C.3   1 <1>   0.3430 
 20 C       -1.8710    -1.8260     1.3050 C.3   1 <1>   0.3430 
 21 C       -4.1520     0.7720     1.4950 C.3   1 <1>  -0.2400 
 22 C       -1.6320    -1.2800     2.7070 C.3   1 <1>  -0.2400 
 23 H       -8.3740    -0.1270    -2.5280 H     1 <1>   0.4000 
 24 H      -10.1960    -0.6830    -0.5240 H     1 <1>   0.1500 
 25 H       -7.3670    -3.5010    -2.0820 H     1 <1>   0.1500 
 26 H       -8.1620    -1.5910     1.5010 H     1 <1>   0.1500 
 27 H       -7.3830     1.8720    -0.8940 H     1 <1>   0.1500 
 28 H       -2.9850    -1.9160    -1.2540 H     1 <1>   0.0800 
 29 H       -3.4830    -3.2200    -0.1910 H     1 <1>   0.0800 
 30 H      -11.9740    -2.3070    -0.8600 H     1 <1>   0.1500 
 31 H       -9.1640    -5.1060    -2.4000 H     1 <1>   0.1500 
 32 H       -8.5210    -0.1510     3.4410 H     1 <1>   0.1500 
 33 H       -7.7510     3.2850     1.0510 H     1 <1>   0.1500 
 34 H       -3.9060    -1.5360     1.4960 H     1 <1>   0.4500 
 35 H      -11.4750    -4.5250    -1.7950 H     1 <1>   0.1500 
 36 H       -8.3170     2.2900     3.2270 H     1 <1>   0.1500 
 37 H       -3.6000     0.2740    -0.5050 H     1 <1>   0.0800 
 38 H       -2.2360     0.5260     0.5600 H     1 <1>   0.0800 
 39 H       -1.0770    -1.5110     0.6470 H     1 <1>   0.0800 
 40 H       -1.8610    -2.9040     1.3510 H     1 <1>   0.0800 
 41 H       -5.1470     0.3700     1.4260 H     1 <1>   0.0800 
 42 H       -4.2100     1.8230     1.2740 H     1 <1>   0.0800 
 43 H       -3.7900     0.6640     2.5010 H     1 <1>   0.0800 
 44 H       -1.5130    -0.2110     2.6960 H     1 <1>   0.0800 
 45 H       -0.7240    -1.7030     3.0990 H     1 <1>   0.0800 
 46 H       -2.4360    -1.5510     3.3680 H     1 <1>   0.0800 
@<TRIPOS>BOND
  1   1   2  1   
  2   1  23  1   
  3   2   3  1   
  4   2   4  1   
  5   2   5  1   
  6   3   6  3   
  7   4   7  ar  
  8   4   8  ar  
  9   5   9  ar  
 10   5  10  ar  
 11   6  11  1   
 12   7  12  ar  
 13   7  24  1   
 14   8  13  ar  
 15   8  25  1   
 16   9  14  ar  
 17   9  26  1   
 18  10  15  ar  
 19  10  27  1   
 20  11  16  1   
 21  11  28  1   
 22  11  29  1   
 23  12  17  ar  
 24  12  30  1   
 25  13  17  ar  
 26  13  31  1   
 27  14  18  ar  
 28  14  32  1   
 29  15  18  ar  
 30  15  33  1   
 31  16  19  1   
 32  16  20  1   
 33  16  34  1   
 34  17  35  1   
 35  18  36  1   
 36  19  21  1   
 37  19  37  1   
 38  19  38  1   
 39  20  22  1   
 40  20  39  1   
 41  20  40  1   
 42  21  41  1   
 43  21  42  1   
 44  21  43  1   
 45  22  44  1   
 46  22  45  1   
 47  22  46  1   
@<TRIPOS>SUBSTRUCTURE
  1 ****   3 GROUP 4 **** **** 0

# MOE 2024.06 (io_trps.svl 2023.06)
