@<TRIPOS>MOLECULE
NONAME
50 53 1 0 0 
SMALL
USER_CHARGES


@<TRIPOS>ATOM
  1 F       -0.5140    -0.6800    -1.0840 F     1 <1>  -0.3400 
  2 C       -1.8340    -0.5410    -1.1530 C.3   1 <1>   1.0200 
  3 F       -2.3250    -1.7370    -0.8480 F     1 <1>  -0.3400 
  4 F       -2.0980    -0.3260    -2.4380 F     1 <1>  -0.3400 
  5 C       -2.3100     0.5860    -0.2250 C.3   1 <1>   0.1760 
  6 N       -3.7600     0.8340    -0.3630 N.pl3 1 <1>   0.3140 
  7 C       -1.5510     1.9210    -0.4580 C.3   1 <1>  -0.1600 
  8 N       -4.7060    -0.0320    -0.8000 N.2   1 <1>  -0.7070 
  9 C       -4.2980     2.0280    -0.0390 C.2   1 <1>  -0.0680 
 10 C       -2.0600     3.0650     0.4340 C.3   1 <1>   0.4330 
 11 C       -5.8030     0.6510    -0.7730 C.2   1 <1>   0.1390 
 12 N       -3.5420     3.0800     0.4650 N.pl3 1 <1>  -0.8530 
 13 C       -5.6370     1.9580    -0.2980 C.2   1 <1>  -0.0860 
 14 C       -1.5180     4.4010    -0.0680 C.ar  1 <1>  -0.1430 
 15 C       -6.6500     2.9590    -0.1590 C.2   1 <1>   0.7160 
 16 C       -0.3040     4.8800     0.4220 C.ar  1 <1>   0.0830 
 17 C       -2.2050     5.1440    -1.0220 C.ar  1 <1>  -0.1500 
 18 O       -6.4050     4.1200    -0.4500 O.2   1 <1>  -0.5700 
 19 N       -7.9200     2.6530     0.2880 N.am  1 <1>  -0.6600 
 20 O        0.3570     4.1130     1.3310 O.3   1 <1>  -0.3630 
 21 C        0.1940     6.0990    -0.0330 C.ar  1 <1>  -0.1500 
 22 C       -1.7040     6.3530    -1.4700 C.ar  1 <1>  -0.1500 
 23 C       -8.2190     1.5490     1.2480 C.3   1 <1>   0.1400 
 24 C       -9.0580     3.6010     0.1170 C.3   1 <1>   0.1400 
 25 C        1.5640     4.5400     1.9250 C.3   1 <1>   0.0400 
 26 C       -0.5060     6.8320    -0.9740 C.ar  1 <1>  -0.1500 
 27 C       -9.5640     0.8890     0.9020 C.3   1 <1>   0.1200 
 28 C      -10.3620     2.8330    -0.1550 C.3   1 <1>   0.1200 
 29 O      -10.5770     1.8520     0.8220 O.3   1 <1>  -0.5600 
 30 H       -2.1420     0.2640     0.7840 H     1 <1>   0.0800 
 31 H       -1.6570     2.2150    -1.4880 H     1 <1>   0.0800 
 32 H       -0.5010     1.7920    -0.2700 H     1 <1>   0.0800 
 33 H       -1.7280     2.8990     1.4450 H     1 <1>   0.0800 
 34 H       -6.7530     0.2530    -1.0880 H     1 <1>   0.1500 
 35 H       -3.9490     4.0280     0.4270 H     1 <1>   0.4000 
 36 H       -3.1370     4.7860    -1.4290 H     1 <1>   0.1500 
 37 H        1.1230     6.4960     0.3280 H     1 <1>   0.1500 
 38 H       -2.2500     6.9190    -2.2050 H     1 <1>   0.1500 
 39 H       -8.2800     1.9580     2.2420 H     1 <1>   0.0800 
 40 H       -7.4410     0.8090     1.2490 H     1 <1>   0.0800 
 41 H       -8.8640     4.2730    -0.7020 H     1 <1>   0.0800 
 42 H       -9.1690     4.1890     1.0120 H     1 <1>   0.0800 
 43 H        1.8790     3.7860     2.6230 H     1 <1>   0.0800 
 44 H        1.3890     5.4670     2.4430 H     1 <1>   0.0800 
 45 H        2.3070     4.6610     1.1570 H     1 <1>   0.0800 
 46 H       -0.1200     7.7740    -1.3220 H     1 <1>   0.1500 
 47 H       -9.8410     0.1850     1.6670 H     1 <1>   0.0800 
 48 H       -9.5040     0.3720    -0.0400 H     1 <1>   0.0800 
 49 H      -10.3260     2.3570    -1.1190 H     1 <1>   0.0800 
 50 H      -11.2000     3.5060    -0.1340 H     1 <1>   0.0800 
@<TRIPOS>BOND
  1   1   2  1   
  2   2   3  1   
  3   2   4  1   
  4   2   5  1   
  5   5   6  1   
  6   5   7  1   
  7   5  30  1   
  8   6   8  1   
  9   6   9  1   
 10   7  10  1   
 11   7  31  1   
 12   7  32  1   
 13   8  11  2   
 14   9  12  1   
 15   9  13  2   
 16  10  12  1   
 17  10  14  1   
 18  10  33  1   
 19  11  13  1   
 20  11  34  1   
 21  12  35  1   
 22  13  15  1   
 23  14  16  ar  
 24  14  17  ar  
 25  15  18  2   
 26  15  19  am  
 27  16  20  1   
 28  16  21  ar  
 29  17  22  ar  
 30  17  36  1   
 31  19  23  1   
 32  19  24  1   
 33  20  25  1   
 34  21  26  ar  
 35  21  37  1   
 36  22  26  ar  
 37  22  38  1   
 38  23  27  1   
 39  23  39  1   
 40  23  40  1   
 41  24  28  1   
 42  24  41  1   
 43  24  42  1   
 44  25  43  1   
 45  25  44  1   
 46  25  45  1   
 47  26  46  1   
 48  27  29  1   
 49  27  47  1   
 50  27  48  1   
 51  28  29  1   
 52  28  49  1   
 53  28  50  1   
@<TRIPOS>SUBSTRUCTURE
  1 ****   9 GROUP 4 **** **** 0

# MOE 2024.06 (io_trps.svl 2023.06)
