@<TRIPOS>MOLECULE
NONAME
46 48 1 0 0 
SMALL
USER_CHARGES


@<TRIPOS>ATOM
  1 O       10.4540    -7.6890     0.4750 O.3   1 <1>  -0.3630 
  2 C       10.5070    -6.3380     0.2950 C.ar  1 <1>   0.0830 
  3 C       11.6040    -8.4430     0.7880 C.3   1 <1>   0.0400 
  4 C       11.6210    -5.5990    -0.1400 C.ar  1 <1>   0.0830 
  5 C        9.3210    -5.6820     0.5750 C.ar  1 <1>  -0.1500 
  6 O       12.7850    -6.2380    -0.4570 O.3   1 <1>  -0.3630 
  7 C       11.5010    -4.2150    -0.2570 C.ar  1 <1>  -0.1500 
  8 C        9.2060    -4.3090     0.4400 C.ar  1 <1>  -0.1430 
  9 C       13.9110    -5.5520    -0.9620 C.3   1 <1>   0.0400 
 10 C       10.3060    -3.5770     0.0300 C.ar  1 <1>  -0.1500 
 11 C        7.8790    -3.6310     0.7250 C.3   1 <1>  -0.0170 
 12 C        7.0300    -3.6480    -0.5470 C.3   1 <1>   0.3290 
 13 N        5.6380    -3.2190    -0.2440 N.pl3 1 <1>  -0.7940 
 14 C        4.5410    -3.9430    -0.2060 C.cat 1 <1>   0.6040 
 15 N        4.5240    -5.2430    -0.4220 N.pl3 1 <1>  -0.6530 
 16 C        3.2230    -3.2530     0.1270 C.3   1 <1>  -0.0550 
 17 C        3.3710    -6.0440    -0.4160 C.ar  1 <1>   0.3490 
 18 C        2.0280    -3.9180    -0.5760 C.3   1 <1>  -0.0170 
 19 C        2.1210    -5.4350    -0.4750 C.ar  1 <1>  -0.1430 
 20 C        3.4640    -7.4260    -0.3480 C.ar  1 <1>  -0.1500 
 21 C        0.9750    -6.2140    -0.4580 C.ar  1 <1>  -0.1500 
 22 C        2.3170    -8.2000    -0.3320 C.ar  1 <1>  -0.1500 
 23 C        1.0740    -7.5930    -0.3860 C.ar  1 <1>  -0.1500 
 24 H       11.2870    -9.3900     1.1860 H     1 <1>   0.0800 
 25 H       12.1850    -7.9110     1.5200 H     1 <1>   0.0800 
 26 H       12.1720    -8.6000    -0.1110 H     1 <1>   0.0800 
 27 H        8.4890    -6.2750     0.9070 H     1 <1>   0.1500 
 28 H       12.3280    -3.6090    -0.5730 H     1 <1>   0.1500 
 29 H       14.6820    -6.2760    -1.1540 H     1 <1>   0.0800 
 30 H       14.2500    -4.8460    -0.2250 H     1 <1>   0.0800 
 31 H       13.6380    -5.0590    -1.8770 H     1 <1>   0.0800 
 32 H       10.2490    -2.5070    -0.0720 H     1 <1>   0.1500 
 33 H        8.0450    -2.6190     1.0480 H     1 <1>   0.0800 
 34 H        7.3750    -4.1630     1.5130 H     1 <1>   0.0800 
 35 H        7.0330    -4.6410    -0.9630 H     1 <1>   0.0800 
 36 H        7.4630    -2.9880    -1.2810 H     1 <1>   0.0800 
 37 H        5.5790    -2.2140    -0.0480 H     1 <1>   0.4500 
 38 H        5.3890    -5.7400    -0.6180 H     1 <1>   0.4500 
 39 H        3.0770    -3.3140     1.1910 H     1 <1>   0.0800 
 40 H        3.2610    -2.2140    -0.1460 H     1 <1>   0.0800 
 41 H        2.0260    -3.6460    -1.6180 H     1 <1>   0.0800 
 42 H        1.1090    -3.5670    -0.1400 H     1 <1>   0.0800 
 43 H        4.4240    -7.9060    -0.3020 H     1 <1>   0.1500 
 44 H        0.0000    -5.7580    -0.5050 H     1 <1>   0.1500 
 45 H        2.3860    -9.2740    -0.2770 H     1 <1>   0.1500 
 46 H        0.1810    -8.1960    -0.3740 H     1 <1>   0.1500 
@<TRIPOS>BOND
  1   1   2  1   
  2   1   3  1   
  3   2   4  ar  
  4   2   5  ar  
  5   3  24  1   
  6   3  25  1   
  7   3  26  1   
  8   4   6  1   
  9   4   7  ar  
 10   5   8  ar  
 11   5  27  1   
 12   6   9  1   
 13   7  10  ar  
 14   7  28  1   
 15   8  10  ar  
 16   8  11  1   
 17   9  29  1   
 18   9  30  1   
 19   9  31  1   
 20  10  32  1   
 21  11  12  1   
 22  11  33  1   
 23  11  34  1   
 24  12  13  1   
 25  12  35  1   
 26  12  36  1   
 27  13  14  ar  
 28  13  37  1   
 29  14  15  ar  
 30  14  16  1   
 31  15  17  1   
 32  15  38  1   
 33  16  18  1   
 34  16  39  1   
 35  16  40  1   
 36  17  19  ar  
 37  17  20  ar  
 38  18  19  1   
 39  18  41  1   
 40  18  42  1   
 41  19  21  ar  
 42  20  22  ar  
 43  20  43  1   
 44  21  23  ar  
 45  21  44  1   
 46  22  23  ar  
 47  22  45  1   
 48  23  46  1   
@<TRIPOS>SUBSTRUCTURE
  1 ****  12 GROUP 4 **** **** 0

# MOE 2024.06 (io_trps.svl 2023.06)
