@<TRIPOS>MOLECULE
NONAME
45 48 1 0 0 
SMALL
USER_CHARGES


@<TRIPOS>ATOM
  1 O       -0.1360     0.0210    -0.8430 O.2   1 <1>  -0.5700 
  2 C       -0.7940     1.0450    -0.8060 C.2   1 <1>   0.6900 
  3 N       -0.2800     2.1830    -0.2550 N.am  1 <1>  -0.6600 
  4 N       -2.0510     1.0700    -1.3080 N.am  1 <1>  -0.7300 
  5 C        1.0810     2.2260     0.3150 C.3   1 <1>   0.1400 
  6 C       -1.0410     3.4040     0.0820 C.3   1 <1>   0.1400 
  7 C       -2.8240    -0.1100    -1.7640 C.3   1 <1>   0.1400 
  8 C        1.2440     3.6530     0.8280 C.3   1 <1>  -0.1600 
  9 C       -0.1800     4.1240     1.1140 C.3   1 <1>  -0.1600 
 10 C       -4.1000    -0.3260    -0.9220 C.3   1 <1>   0.0000 
 11 C       -4.8490    -1.5690    -1.4570 C.3   1 <1>  -0.1600 
 12 C       -5.0530     0.8920    -1.0130 C.3   1 <1>  -0.1600 
 13 C       -3.7510    -0.5730     0.5660 C.3   1 <1>  -0.1600 
 14 C       -6.1310    -1.8310    -0.6450 C.3   1 <1>  -0.0800 
 15 C       -6.3340     0.6420    -0.1950 C.3   1 <1>  -0.0800 
 16 C       -5.0280    -0.8280     1.3900 C.3   1 <1>  -0.0800 
 17 C       -7.0530    -0.6030    -0.7460 C.3   1 <1>  -0.1600 
 18 C       -5.7540    -2.0650     0.8300 C.3   1 <1>  -0.1600 
 19 C       -5.9550     0.3980     1.2780 C.3   1 <1>  -0.1600 
 20 H       -2.5570     1.9480    -1.2600 H     1 <1>   0.3700 
 21 H        1.8150     1.9800    -0.4340 H     1 <1>   0.0800 
 22 H        1.1430     1.5190     1.1250 H     1 <1>   0.0800 
 23 H       -2.0100     3.1600     0.4830 H     1 <1>   0.0800 
 24 H       -1.1470     4.0060    -0.8050 H     1 <1>   0.0800 
 25 H       -2.2050    -0.9900    -1.7020 H     1 <1>   0.0800 
 26 H       -3.0890     0.0300    -2.7970 H     1 <1>   0.0800 
 27 H        1.6790     4.2540     0.0480 H     1 <1>   0.0800 
 28 H        1.8750     3.6940     1.6970 H     1 <1>   0.0800 
 29 H       -0.4770     3.8050     2.0980 H     1 <1>   0.0800 
 30 H       -0.2810     5.1920     1.0460 H     1 <1>   0.0800 
 31 H       -4.2090    -2.4320    -1.4000 H     1 <1>   0.0800 
 32 H       -5.1070    -1.4240    -2.4920 H     1 <1>   0.0800 
 33 H       -5.3130     1.0780    -2.0400 H     1 <1>   0.0800 
 34 H       -4.5680     1.7730    -0.6330 H     1 <1>   0.0800 
 35 H       -3.2330     0.2770     0.9720 H     1 <1>   0.0800 
 36 H       -3.0910    -1.4190     0.6490 H     1 <1>   0.0800 
 37 H       -6.6360    -2.7000    -1.0320 H     1 <1>   0.0800 
 38 H       -6.9850     1.4970    -0.2650 H     1 <1>   0.0800 
 39 H       -4.7670    -0.9950     2.4210 H     1 <1>   0.0800 
 40 H       -7.9560    -0.7790    -0.1860 H     1 <1>   0.0800 
 41 H       -7.3320    -0.4400    -1.7720 H     1 <1>   0.0800 
 42 H       -5.1160    -2.9280     0.9110 H     1 <1>   0.0800 
 43 H       -6.6410    -2.2580     1.4070 H     1 <1>   0.0800 
 44 H       -5.4590     1.2660     1.6760 H     1 <1>   0.0800 
 45 H       -6.8440     0.2340     1.8610 H     1 <1>   0.0800 
@<TRIPOS>BOND
  1   1   2  2   
  2   2   3  am  
  3   2   4  am  
  4   3   5  1   
  5   3   6  1   
  6   4   7  1   
  7   4  20  1   
  8   5   8  1   
  9   5  21  1   
 10   5  22  1   
 11   6   9  1   
 12   6  23  1   
 13   6  24  1   
 14   7  10  1   
 15   7  25  1   
 16   7  26  1   
 17   8   9  1   
 18   8  27  1   
 19   8  28  1   
 20   9  29  1   
 21   9  30  1   
 22  10  11  1   
 23  10  12  1   
 24  10  13  1   
 25  11  14  1   
 26  11  31  1   
 27  11  32  1   
 28  12  15  1   
 29  12  33  1   
 30  12  34  1   
 31  13  16  1   
 32  13  35  1   
 33  13  36  1   
 34  14  17  1   
 35  14  18  1   
 36  14  37  1   
 37  15  17  1   
 38  15  19  1   
 39  15  38  1   
 40  16  18  1   
 41  16  19  1   
 42  16  39  1   
 43  17  40  1   
 44  17  41  1   
 45  18  42  1   
 46  18  43  1   
 47  19  44  1   
 48  19  45  1   
@<TRIPOS>SUBSTRUCTURE
  1 ****  13 GROUP 4 **** **** 0

# MOE 2024.06 (io_trps.svl 2023.06)
