@<TRIPOS>MOLECULE
NONAME
51 52 1 0 0 
SMALL
USER_CHARGES


@<TRIPOS>ATOM
  1 O       -5.1650    -5.8820     0.4910 O.3   1 <1>  -0.3630 
  2 C       -3.8240    -5.9060     0.2690 C.ar  1 <1>   0.0830 
  3 C       -6.0720    -5.2060    -0.3510 C.3   1 <1>   0.2000 
  4 C       -3.0700    -6.6640     1.1510 C.ar  1 <1>  -0.1500 
  5 C       -3.1840    -5.2290    -0.7660 C.ar  1 <1>  -0.1500 
  6 C       -7.3470    -4.9780     0.4590 C.3   1 <1>  -0.2400 
  7 C       -6.3510    -6.0750    -1.5800 C.3   1 <1>  -0.2400 
  8 C       -1.6960    -6.7530     1.0130 C.ar  1 <1>  -0.1500 
  9 C       -1.8100    -5.3170    -0.9050 C.ar  1 <1>  -0.1500 
 10 C       -1.0580    -6.0750    -0.0220 C.ar  1 <1>   0.0830 
 11 O        0.2840    -6.1040    -0.2340 O.3   1 <1>  -0.3630 
 12 C        1.1350    -6.8380     0.6090 C.3   1 <1>   0.1200 
 13 C        2.5580    -6.6440     0.0900 C.3   1 <1>  -0.1600 
 14 C        3.5600    -7.3990     0.9600 C.3   1 <1>   0.3430 
 15 N        4.9310    -7.2580     0.3980 N.4   1 <1>  -0.9590 
 16 C        5.8520    -8.2820     0.9610 C.3   1 <1>   0.3430 
 17 C        5.4970    -5.8980     0.6060 C.3   1 <1>   0.3430 
 18 C        6.9910    -8.5930    -0.0150 C.3   1 <1>  -0.1600 
 19 C        6.1790    -5.4100    -0.6720 C.3   1 <1>  -0.1600 
 20 C        7.8300    -7.3910    -0.4900 C.3   1 <1>  -0.1600 
 21 C        7.0520    -6.4400    -1.4130 C.3   1 <1>  -0.1600 
 22 H       -5.6550    -4.2530    -0.6230 H     1 <1>   0.0800 
 23 H       -3.5720    -7.1830     1.9470 H     1 <1>   0.1500 
 24 H       -3.7320    -4.6330    -1.4690 H     1 <1>   0.1500 
 25 H       -7.7640    -5.9180     0.7730 H     1 <1>   0.0800 
 26 H       -8.0740    -4.4590    -0.1380 H     1 <1>   0.0800 
 27 H       -7.1270    -4.3800     1.3240 H     1 <1>   0.0800 
 28 H       -6.7560    -7.0250    -1.2790 H     1 <1>   0.0800 
 29 H       -5.4490    -6.2410    -2.1400 H     1 <1>   0.0800 
 30 H       -7.0610    -5.5870    -2.2200 H     1 <1>   0.0800 
 31 H       -1.1530    -7.3510     1.7180 H     1 <1>   0.1500 
 32 H       -1.3130    -4.7960    -1.7030 H     1 <1>   0.1500 
 33 H        0.8390    -7.8720     0.5670 H     1 <1>   0.0800 
 34 H        1.0270    -6.4540     1.6100 H     1 <1>   0.0800 
 35 H        2.7760    -5.5910     0.0940 H     1 <1>   0.0800 
 36 H        2.6040    -7.0160    -0.9190 H     1 <1>   0.0800 
 37 H        3.2840    -8.4420     0.9790 H     1 <1>   0.0800 
 38 H        3.5320    -7.0240     1.9710 H     1 <1>   0.0800 
 39 H        4.8890    -7.4130    -0.6180 H     1 <1>   0.4500 
 40 H        5.3110    -9.1950     1.1500 H     1 <1>   0.0800 
 41 H        6.2580    -7.9360     1.8980 H     1 <1>   0.0800 
 42 H        6.2160    -5.9220     1.4090 H     1 <1>   0.0800 
 43 H        4.7220    -5.1990     0.8790 H     1 <1>   0.0800 
 44 H        6.5920    -9.1130    -0.8690 H     1 <1>   0.0800 
 45 H        7.6530    -9.2840     0.4770 H     1 <1>   0.0800 
 46 H        6.7980    -4.5720    -0.4000 H     1 <1>   0.0800 
 47 H        5.4330    -5.0310    -1.3480 H     1 <1>   0.0800 
 48 H        8.6630    -7.7820    -1.0520 H     1 <1>   0.0800 
 49 H        8.2450    -6.8560     0.3470 H     1 <1>   0.0800 
 50 H        7.7600    -5.8960    -2.0180 H     1 <1>   0.0800 
 51 H        6.4500    -7.0140    -2.0960 H     1 <1>   0.0800 
@<TRIPOS>BOND
  1   1   2  1   
  2   1   3  1   
  3   2   4  ar  
  4   2   5  ar  
  5   3   6  1   
  6   3   7  1   
  7   3  22  1   
  8   4   8  ar  
  9   4  23  1   
 10   5   9  ar  
 11   5  24  1   
 12   6  25  1   
 13   6  26  1   
 14   6  27  1   
 15   7  28  1   
 16   7  29  1   
 17   7  30  1   
 18   8  10  ar  
 19   8  31  1   
 20   9  10  ar  
 21   9  32  1   
 22  10  11  1   
 23  11  12  1   
 24  12  13  1   
 25  12  33  1   
 26  12  34  1   
 27  13  14  1   
 28  13  35  1   
 29  13  36  1   
 30  14  15  1   
 31  14  37  1   
 32  14  38  1   
 33  15  16  1   
 34  15  17  1   
 35  15  39  1   
 36  16  18  1   
 37  16  40  1   
 38  16  41  1   
 39  17  19  1   
 40  17  42  1   
 41  17  43  1   
 42  18  20  1   
 43  18  44  1   
 44  18  45  1   
 45  19  21  1   
 46  19  46  1   
 47  19  47  1   
 48  20  21  1   
 49  20  48  1   
 50  20  49  1   
 51  21  50  1   
 52  21  51  1   
@<TRIPOS>SUBSTRUCTURE
  1 ****  11 GROUP 4 **** **** 0

# MOE 2024.06 (io_trps.svl 2023.06)
