@<TRIPOS>MOLECULE
NONAME
34 34 1 0 0 
SMALL
USER_CHARGES


@<TRIPOS>ATOM
  1 F        0.1170     0.7300     0.3980 F     1 <1>  -0.1900 
  2 C        0.0610     2.0100     0.0810 C.ar  1 <1>   0.1900 
  3 C        1.2640     2.6790    -0.1600 C.ar  1 <1>   0.1000 
  4 C       -1.1970     2.6130     0.0060 C.ar  1 <1>   0.1000 
  5 N        2.5030     2.0300    -0.0730 N.pl3 1 <1>  -0.8380 
  6 C        1.2080     4.0330    -0.4960 C.ar  1 <1>  -0.1440 
  7 N       -2.3770     1.9000     0.2570 N.pl3 1 <1>  -0.8380 
  8 C       -1.2580     3.9670    -0.3300 C.ar  1 <1>  -0.1430 
  9 C        2.8160     1.0270    -1.1270 C.3   1 <1>   0.1290 
 10 C        2.9630     1.6320     1.2860 C.3   1 <1>   0.1290 
 11 C       -0.0530     4.6280    -0.5690 C.ar  1 <1>   0.1900 
 12 C        2.5290     4.7840    -0.7650 C.3   1 <1>   1.1640 
 13 C       -2.6280     1.4830     1.6630 C.3   1 <1>   0.1290 
 14 C       -2.7740     0.8780    -0.7500 C.3   1 <1>   0.1290 
 15 C       -2.6410     4.6460    -0.4160 C.3   1 <1>   1.1640 
 16 F       -0.1080     5.8930    -0.8820 F     1 <1>  -0.1900 
 17 F        3.3410     4.7820     0.2890 F     1 <1>  -0.3400 
 18 F        2.3990     6.0670    -1.0780 F     1 <1>  -0.3400 
 19 F        3.2160     4.2640    -1.7790 F     1 <1>  -0.3400 
 20 F       -2.6230     5.9330    -0.7390 F     1 <1>  -0.3400 
 21 F       -3.3040     4.6040     0.7370 F     1 <1>  -0.3400 
 22 F       -3.4300     4.0860    -1.3300 F     1 <1>  -0.3400 
 23 H        2.3500     1.3110    -2.0560 H     1 <1>   0.0800 
 24 H        2.4540     0.0560    -0.8380 H     1 <1>   0.0800 
 25 H        3.8800     0.9800    -1.2770 H     1 <1>   0.0800 
 26 H        4.0380     1.6300     1.3180 H     1 <1>   0.0800 
 27 H        2.5980     0.6490     1.5300 H     1 <1>   0.0800 
 28 H        2.5980     2.3320     2.0180 H     1 <1>   0.0800 
 29 H       -2.2060     2.2040     2.3420 H     1 <1>   0.0800 
 30 H       -2.1820     0.5210     1.8530 H     1 <1>   0.0800 
 31 H       -3.6880     1.4240     1.8400 H     1 <1>   0.0800 
 32 H       -2.4530     1.1820    -1.7310 H     1 <1>   0.0800 
 33 H       -3.8450     0.7730    -0.7560 H     1 <1>   0.0800 
 34 H       -2.3260    -0.0720    -0.5150 H     1 <1>   0.0800 
@<TRIPOS>BOND
  1   1   2  1   
  2   2   3  ar  
  3   2   4  ar  
  4   3   5  1   
  5   3   6  ar  
  6   4   7  1   
  7   4   8  ar  
  8   5   9  1   
  9   5  10  1   
 10   6  11  ar  
 11   6  12  1   
 12   7  13  1   
 13   7  14  1   
 14   8  11  ar  
 15   8  15  1   
 16   9  23  1   
 17   9  24  1   
 18   9  25  1   
 19  10  26  1   
 20  10  27  1   
 21  10  28  1   
 22  11  16  1   
 23  12  17  1   
 24  12  18  1   
 25  12  19  1   
 26  13  29  1   
 27  13  30  1   
 28  13  31  1   
 29  14  32  1   
 30  14  33  1   
 31  14  34  1   
 32  15  20  1   
 33  15  21  1   
 34  15  22  1   
@<TRIPOS>SUBSTRUCTURE
  1 ****  11 GROUP 4 **** **** 0

# MOE 2024.06 (io_trps.svl 2023.06)
