@<TRIPOS>MOLECULE
NONAME
49 50 1 0 0 
SMALL
USER_CHARGES


@<TRIPOS>ATOM
  1 S        1.6490     0.1060     1.0220 S.o2  1 <1>   1.3330 
  2 O        2.4160     0.9420     1.9130 O.2   1 <1>  -0.6500 
  3 O        2.2260    -1.1110     0.5110 O.2   1 <1>  -0.6500 
  4 N        1.3010     1.0910    -0.3500 N.am  1 <1>  -0.6930 
  5 C        0.0430    -0.2500     1.7030 C.3   1 <1>  -0.1350 
  6 C        0.3430     2.1000    -0.2730 C.ar  1 <1>   0.1990 
  7 C        2.4460     1.2420    -1.3050 C.3   1 <1>   0.3370 
  8 C       -0.7960     2.0270    -1.0650 C.ar  1 <1>  -0.1500 
  9 C        0.4720     3.1750     0.6010 C.ar  1 <1>  -0.1500 
 10 C        3.2950     2.5200    -1.0810 C.2   1 <1>   0.5690 
 11 C        1.9050     1.0980    -2.7360 C.3   1 <1>  -0.2400 
 12 C       -1.7770     2.9980    -0.9930 C.ar  1 <1>  -0.1500 
 13 C       -0.5070     4.1490     0.6740 C.ar  1 <1>  -0.1500 
 14 O        3.5570     3.2270    -2.0280 O.2   1 <1>  -0.5700 
 15 N        3.7630     2.7910     0.1820 N.am  1 <1>  -0.5470 
 16 C       -1.6370     4.0670    -0.1230 C.ar  1 <1>  -0.1430 
 17 C        4.5590     3.8520     0.6470 C.ar  1 <1>   0.1170 
 18 C       -2.7100     5.1380    -0.0420 C.3   1 <1>  -0.0970 
 19 C        5.4780     3.6510     1.6820 C.ar  1 <1>  -0.1430 
 20 C        4.4350     5.1260     0.1020 C.ar  1 <1>  -0.1500 
 21 C        6.2470     4.7140     2.1330 C.ar  1 <1>  -0.1500 
 22 C        5.6790     2.2880     2.3390 C.3   1 <1>  -0.0170 
 23 C        5.2040     6.1790     0.5580 C.ar  1 <1>  -0.1500 
 24 C        6.1140     5.9730     1.5770 C.ar  1 <1>  -0.1500 
 25 C        6.5550     1.3820     1.4690 C.3   1 <1>  -0.2400 
 26 H        0.1390    -0.8910     2.5570 H     1 <1>   0.0800 
 27 H       -0.5680    -0.7420     0.9710 H     1 <1>   0.0800 
 28 H       -0.4440     0.6550     2.0080 H     1 <1>   0.0800 
 29 H        3.1220     0.4190    -1.1580 H     1 <1>   0.0800 
 30 H       -0.9110     1.2000    -1.7410 H     1 <1>   0.1500 
 31 H        1.3390     3.2590     1.2290 H     1 <1>   0.1500 
 32 H        1.2900     1.9410    -2.9930 H     1 <1>   0.0800 
 33 H        1.3410     0.1890    -2.8330 H     1 <1>   0.0800 
 34 H        2.7270     1.0650    -3.4290 H     1 <1>   0.0800 
 35 H       -2.6500     2.9210    -1.6180 H     1 <1>   0.1500 
 36 H       -0.3840     4.9740     1.3550 H     1 <1>   0.1500 
 37 H        3.4960     2.1170     0.9110 H     1 <1>   0.3700 
 38 H       -3.4280     4.8790     0.7150 H     1 <1>   0.0800 
 39 H       -3.2190     5.2340    -0.9850 H     1 <1>   0.0800 
 40 H       -2.2730     6.0890     0.2030 H     1 <1>   0.0800 
 41 H        3.7280     5.2990    -0.6890 H     1 <1>   0.1500 
 42 H        6.9610     4.5670     2.9240 H     1 <1>   0.1500 
 43 H        4.7310     1.8180     2.5210 H     1 <1>   0.0800 
 44 H        6.1510     2.4120     3.2970 H     1 <1>   0.0800 
 45 H        5.0940     7.1550     0.1190 H     1 <1>   0.1500 
 46 H        6.7170     6.7890     1.9350 H     1 <1>   0.1500 
 47 H        6.0930     1.2190     0.5110 H     1 <1>   0.0800 
 48 H        6.6960     0.4300     1.9500 H     1 <1>   0.0800 
 49 H        7.5160     1.8380     1.3110 H     1 <1>   0.0800 
@<TRIPOS>BOND
  1   1   2  2   
  2   1   3  2   
  3   1   4  am  
  4   1   5  1   
  5   4   6  1   
  6   4   7  1   
  7   5  26  1   
  8   5  27  1   
  9   5  28  1   
 10   6   8  ar  
 11   6   9  ar  
 12   7  10  1   
 13   7  11  1   
 14   7  29  1   
 15   8  12  ar  
 16   8  30  1   
 17   9  13  ar  
 18   9  31  1   
 19  10  14  2   
 20  10  15  am  
 21  11  32  1   
 22  11  33  1   
 23  11  34  1   
 24  12  16  ar  
 25  12  35  1   
 26  13  16  ar  
 27  13  36  1   
 28  15  17  1   
 29  15  37  1   
 30  16  18  1   
 31  17  19  ar  
 32  17  20  ar  
 33  18  38  1   
 34  18  39  1   
 35  18  40  1   
 36  19  21  ar  
 37  19  22  1   
 38  20  23  ar  
 39  20  41  1   
 40  21  24  ar  
 41  21  42  1   
 42  22  25  1   
 43  22  43  1   
 44  22  44  1   
 45  23  24  ar  
 46  23  45  1   
 47  24  46  1   
 48  25  47  1   
 49  25  48  1   
 50  25  49  1   
@<TRIPOS>SUBSTRUCTURE
  1 ****  15 GROUP 4 **** **** 0

# MOE 2024.06 (io_trps.svl 2023.06)
