@<TRIPOS>MOLECULE
NONAME
44 46 1 0 0 
SMALL
USER_CHARGES


@<TRIPOS>ATOM
  1 BR       0.9570     0.2280    -1.3890 Br    1 <1>  -0.1110 
  2 C        0.1690    -1.3120    -0.5360 C.ar  1 <1>   0.1110 
  3 C        0.6910    -1.7940     0.6570 C.ar  1 <1>   0.0820 
  4 C       -0.9230    -1.8990    -1.1460 C.ar  1 <1>  -0.1500 
  5 O        1.7440    -1.2080     1.2640 O.3   1 <1>  -0.3630 
  6 C        0.0910    -2.8930     1.2480 C.ar  1 <1>  -0.1500 
  7 C       -1.5250    -2.9970    -0.5440 C.ar  1 <1>  -0.1430 
  8 C        3.0220    -1.6290     0.8460 C.3   1 <1>   0.0400 
  9 C       -1.0070    -3.4920     0.6490 C.ar  1 <1>  -0.1500 
 10 C       -2.7420    -3.6420    -1.1790 C.3   1 <1>   0.4870 
 11 N       -3.9510    -3.2270    -0.4160 N.4   1 <1>  -0.9590 
 12 C       -5.1770    -3.9910    -0.8570 C.3   1 <1>   0.3430 
 13 C       -4.1800    -1.7330    -0.5000 C.3   1 <1>   0.3430 
 14 C       -6.4540    -3.5530    -0.1070 C.3   1 <1>   0.2090 
 15 C       -5.4530    -1.2800     0.2470 C.3   1 <1>   0.2090 
 16 N       -6.6350    -2.0760    -0.1970 N.pl3 1 <1>  -0.8380 
 17 C       -7.8830    -1.5830     0.1630 C.ar  1 <1>   0.1000 
 18 C       -8.3130    -1.5920     1.4880 C.ar  1 <1>  -0.1500 
 19 C       -8.7230    -1.0690    -0.8180 C.ar  1 <1>  -0.1500 
 20 C       -9.5610    -1.0970     1.8260 C.ar  1 <1>  -0.1500 
 21 C       -9.9720    -0.5720    -0.4890 C.ar  1 <1>  -0.1500 
 22 C      -10.3790    -0.5910     0.8320 C.ar  1 <1>   0.1770 
 23 CL     -11.9540     0.0350     1.2540 Cl    1 <1>  -0.1770 
 24 H       -1.2810    -1.4880    -2.0750 H     1 <1>   0.1500 
 25 H        0.4890    -3.2700     2.1750 H     1 <1>   0.1500 
 26 H        3.7570    -1.0830     1.4100 H     1 <1>   0.0800 
 27 H        3.1380    -1.4220    -0.2030 H     1 <1>   0.0800 
 28 H        3.1220    -2.6840     1.0350 H     1 <1>   0.0800 
 29 H       -1.4460    -4.3510     1.1300 H     1 <1>   0.1500 
 30 H       -2.6320    -4.7140    -1.1480 H     1 <1>   0.0800 
 31 H       -2.8270    -3.3370    -2.2100 H     1 <1>   0.0800 
 32 H       -3.7700    -3.4410     0.5720 H     1 <1>   0.4500 
 33 H       -5.0280    -5.0470    -0.7050 H     1 <1>   0.0800 
 34 H       -5.3420    -3.8290    -1.9090 H     1 <1>   0.0800 
 35 H       -4.2820    -1.4420    -1.5330 H     1 <1>   0.0800 
 36 H       -3.3330    -1.2060    -0.0920 H     1 <1>   0.0800 
 37 H       -6.3950    -3.8500     0.9250 H     1 <1>   0.0800 
 38 H       -7.3100    -4.0400    -0.5440 H     1 <1>   0.0800 
 39 H       -5.6330    -0.2370     0.0460 H     1 <1>   0.0800 
 40 H       -5.3150    -1.3930     1.3080 H     1 <1>   0.0800 
 41 H       -7.6740    -1.9870     2.2550 H     1 <1>   0.1500 
 42 H       -8.3910    -1.0620    -1.8400 H     1 <1>   0.1500 
 43 H       -9.9030    -1.0990     2.8450 H     1 <1>   0.1500 
 44 H      -10.6270    -0.1730    -1.2430 H     1 <1>   0.1500 
@<TRIPOS>BOND
  1   1   2  1   
  2   2   3  ar  
  3   2   4  ar  
  4   3   5  1   
  5   3   6  ar  
  6   4   7  ar  
  7   4  24  1   
  8   5   8  1   
  9   6   9  ar  
 10   6  25  1   
 11   7   9  ar  
 12   7  10  1   
 13   8  26  1   
 14   8  27  1   
 15   8  28  1   
 16   9  29  1   
 17  10  11  1   
 18  10  30  1   
 19  10  31  1   
 20  11  12  1   
 21  11  13  1   
 22  11  32  1   
 23  12  14  1   
 24  12  33  1   
 25  12  34  1   
 26  13  15  1   
 27  13  35  1   
 28  13  36  1   
 29  14  16  1   
 30  14  37  1   
 31  14  38  1   
 32  15  16  1   
 33  15  39  1   
 34  15  40  1   
 35  16  17  1   
 36  17  18  ar  
 37  17  19  ar  
 38  18  20  ar  
 39  18  41  1   
 40  19  21  ar  
 41  19  42  1   
 42  20  22  ar  
 43  20  43  1   
 44  21  22  ar  
 45  21  44  1   
 46  22  23  1   
@<TRIPOS>SUBSTRUCTURE
  1 ****  13 GROUP 4 **** **** 0

# MOE 2024.06 (io_trps.svl 2023.06)
