@<TRIPOS>MOLECULE
NONAME
37 38 1 0 0 
SMALL
USER_CHARGES


@<TRIPOS>ATOM
  1 CL      -0.5650     1.0350    -1.3530 Cl    1 <1>  -0.1770 
  2 C       -2.2280     1.3640    -0.9330 C.ar  1 <1>   0.1770 
  3 C       -3.0260     2.0610    -1.8200 C.ar  1 <1>  -0.1500 
  4 C       -2.7190     0.9220     0.2820 C.ar  1 <1>  -0.1500 
  5 C       -4.3440     2.3190    -1.4820 C.ar  1 <1>  -0.1500 
  6 C       -4.0380     1.1810     0.6180 C.ar  1 <1>  -0.1500 
  7 C       -4.8560     1.8840    -0.2670 C.ar  1 <1>   0.0830 
  8 O       -6.1560     2.1800    -0.0160 O.3   1 <1>  -0.3630 
  9 C       -6.7750     1.7980     1.2080 C.3   1 <1>   0.1810 
 10 C       -8.2290     2.2500     1.2690 C.2   1 <1>   0.5690 
 11 O       -8.8890     1.9300     2.2280 O.2   1 <1>  -0.5700 
 12 N       -8.7470     2.9890     0.2540 N.am  1 <1>  -0.7300 
 13 C      -10.1210     3.5350     0.1900 C.3   1 <1>   0.2200 
 14 C      -11.0160     2.6550    -0.7120 C.3   1 <1>   0.2000 
 15 C      -10.0110     4.9740    -0.3160 C.3   1 <1>  -0.2400 
 16 O      -12.2990     3.2020    -0.8210 O.3   1 <1>  -0.5600 
 17 C      -11.2230     1.2330    -0.2010 C.3   1 <1>  -0.1600 
 18 C      -13.2900     2.2200    -0.8110 C.3   1 <1>   0.1200 
 19 C      -12.5760     0.8750    -0.7750 C.3   1 <1>  -0.1600 
 20 H       -2.6200     2.3940    -2.7580 H     1 <1>   0.1500 
 21 H       -2.0740     0.3820     0.9510 H     1 <1>   0.1500 
 22 H       -4.9810     2.8590    -2.1590 H     1 <1>   0.1500 
 23 H       -4.4020     0.8300     1.5650 H     1 <1>   0.1500 
 24 H       -6.2330     2.2500     2.0180 H     1 <1>   0.0800 
 25 H       -6.7360     0.7280     1.2890 H     1 <1>   0.0800 
 26 H       -8.1350     3.2170    -0.5330 H     1 <1>   0.3700 
 27 H      -10.5410     3.5410     1.1820 H     1 <1>   0.0800 
 28 H      -10.6120     2.6270    -1.7090 H     1 <1>   0.0800 
 29 H       -9.6210     4.9980    -1.3170 H     1 <1>   0.0800 
 30 H       -9.3780     5.5490     0.3350 H     1 <1>   0.0800 
 31 H      -10.9860     5.4290    -0.3230 H     1 <1>   0.0800 
 32 H      -11.2620     1.2350     0.8750 H     1 <1>   0.0800 
 33 H      -10.4410     0.5700    -0.5240 H     1 <1>   0.0800 
 34 H      -13.9060     2.3320    -1.6860 H     1 <1>   0.0800 
 35 H      -13.8810     2.3660     0.0770 H     1 <1>   0.0800 
 36 H      -13.1040     0.1530    -0.1780 H     1 <1>   0.0800 
 37 H      -12.4720     0.5010    -1.7790 H     1 <1>   0.0800 
@<TRIPOS>BOND
  1   1   2  1   
  2   2   3  ar  
  3   2   4  ar  
  4   3   5  ar  
  5   3  20  1   
  6   4   6  ar  
  7   4  21  1   
  8   5   7  ar  
  9   5  22  1   
 10   6   7  ar  
 11   6  23  1   
 12   7   8  1   
 13   8   9  1   
 14   9  10  1   
 15   9  24  1   
 16   9  25  1   
 17  10  11  2   
 18  10  12  am  
 19  12  13  1   
 20  12  26  1   
 21  13  14  1   
 22  13  15  1   
 23  13  27  1   
 24  14  16  1   
 25  14  17  1   
 26  14  28  1   
 27  15  29  1   
 28  15  30  1   
 29  15  31  1   
 30  16  18  1   
 31  17  19  1   
 32  17  32  1   
 33  17  33  1   
 34  18  19  1   
 35  18  34  1   
 36  18  35  1   
 37  19  36  1   
 38  19  37  1   
@<TRIPOS>SUBSTRUCTURE
  1 ****   8 GROUP 4 **** **** 0

# MOE 2024.06 (io_trps.svl 2023.06)
