@<TRIPOS>MOLECULE
NONAME
49 51 1 0 0 
SMALL
USER_CHARGES


@<TRIPOS>ATOM
  1 S        0.2950    -0.9510     1.4880 S.o2  1 <1>   1.4470 
  2 O        0.5170    -1.9770     2.4840 O.2   1 <1>  -0.6500 
  3 O        0.3580     0.4420     1.8740 O.2   1 <1>  -0.6500 
  4 N        1.4680    -1.1740     0.2850 N.am  1 <1>  -0.8490 
  5 C       -1.2640    -1.2540     0.6070 C.ar  1 <1>  -0.0090 
  6 C        1.6050    -2.5910    -0.1080 C.3   1 <1>   0.1960 
  7 C        2.7760    -0.6520     0.7200 C.3   1 <1>   0.1960 
  8 C       -1.6560    -0.4270    -0.4440 C.ar  1 <1>  -0.1500 
  9 C       -2.0930    -2.3200     0.9550 C.ar  1 <1>  -0.1500 
 10 C        2.6190    -2.7610    -1.2520 C.3   1 <1>   0.1400 
 11 C        3.8480    -0.7810    -0.3790 C.3   1 <1>   0.1400 
 12 C       -2.8370    -0.6500    -1.1340 C.ar  1 <1>  -0.1500 
 13 C       -3.2780    -2.5600     0.2770 C.ar  1 <1>  -0.1500 
 14 N        3.9430    -2.1890    -0.8660 N.am  1 <1>  -0.6600 
 15 C       -3.6280    -1.7170    -0.7590 C.ar  1 <1>   0.1900 
 16 C        4.9920    -3.0090    -0.5570 C.2   1 <1>   0.6900 
 17 F       -4.7400    -1.9370    -1.4040 F     1 <1>  -0.1900 
 18 O        4.8170    -4.2000    -0.3800 O.2   1 <1>  -0.5700 
 19 N        6.2320    -2.4770    -0.4610 N.am  1 <1>  -0.7300 
 20 C        7.4560    -3.2320    -0.1570 C.3   1 <1>   0.2200 
 21 C        8.2610    -2.4630     0.8960 C.3   1 <1>  -0.1600 
 22 C        8.2610    -3.4170    -1.4470 C.3   1 <1>  -0.1600 
 23 C        9.6050    -3.1520     1.1800 C.3   1 <1>  -0.1600 
 24 C        9.6050    -4.1070    -1.1690 C.3   1 <1>  -0.1600 
 25 C       10.4140    -3.3430    -0.1110 C.3   1 <1>  -0.1600 
 26 H        0.6530    -2.9730    -0.4350 H     1 <1>   0.0800 
 27 H        1.9310    -3.1840     0.7320 H     1 <1>   0.0800 
 28 H        3.1060    -1.1810     1.6000 H     1 <1>   0.0800 
 29 H        2.6810     0.3890     0.9800 H     1 <1>   0.0800 
 30 H       -1.0250     0.4010    -0.7220 H     1 <1>   0.1500 
 31 H       -1.8090    -2.9690     1.7670 H     1 <1>   0.1500 
 32 H        2.2560    -2.2530    -2.1280 H     1 <1>   0.0800 
 33 H        2.7160    -3.8050    -1.4940 H     1 <1>   0.0800 
 34 H        4.7900    -0.4500     0.0180 H     1 <1>   0.0800 
 35 H        3.5880    -0.1390    -1.2020 H     1 <1>   0.0800 
 36 H       -3.1410    -0.0120    -1.9450 H     1 <1>   0.1500 
 37 H       -3.9190    -3.3810     0.5440 H     1 <1>   0.1500 
 38 H        6.3730    -1.5610    -0.8740 H     1 <1>   0.3700 
 39 H        7.1970    -4.2010     0.2390 H     1 <1>   0.0800 
 40 H        7.6910    -2.4090     1.8070 H     1 <1>   0.0800 
 41 H        8.4480    -1.4630     0.5480 H     1 <1>   0.0800 
 42 H        8.4470    -2.4580    -1.8990 H     1 <1>   0.0800 
 43 H        7.6910    -4.0160    -2.1360 H     1 <1>   0.0800 
 44 H        9.4220    -4.1130     1.6300 H     1 <1>   0.0800 
 45 H       10.1730    -2.5630     1.8790 H     1 <1>   0.0800 
 46 H       10.1730    -4.1730    -2.0810 H     1 <1>   0.0800 
 47 H        9.4230    -5.1100    -0.8210 H     1 <1>   0.0800 
 48 H       11.3190    -3.8820     0.1080 H     1 <1>   0.0800 
 49 H       10.6920    -2.3790    -0.5030 H     1 <1>   0.0800 
@<TRIPOS>BOND
  1   1   2  2   
  2   1   3  2   
  3   1   4  am  
  4   1   5  1   
  5   4   6  1   
  6   4   7  1   
  7   5   8  ar  
  8   5   9  ar  
  9   6  10  1   
 10   6  26  1   
 11   6  27  1   
 12   7  11  1   
 13   7  28  1   
 14   7  29  1   
 15   8  12  ar  
 16   8  30  1   
 17   9  13  ar  
 18   9  31  1   
 19  10  14  1   
 20  10  32  1   
 21  10  33  1   
 22  11  14  1   
 23  11  34  1   
 24  11  35  1   
 25  12  15  ar  
 26  12  36  1   
 27  13  15  ar  
 28  13  37  1   
 29  14  16  am  
 30  15  17  1   
 31  16  18  2   
 32  16  19  am  
 33  19  20  1   
 34  19  38  1   
 35  20  21  1   
 36  20  22  1   
 37  20  39  1   
 38  21  23  1   
 39  21  40  1   
 40  21  41  1   
 41  22  24  1   
 42  22  42  1   
 43  22  43  1   
 44  23  25  1   
 45  23  44  1   
 46  23  45  1   
 47  24  25  1   
 48  24  46  1   
 49  24  47  1   
 50  25  48  1   
 51  25  49  1   
@<TRIPOS>SUBSTRUCTURE
  1 ****   6 GROUP 4 **** **** 0

# MOE 2024.06 (io_trps.svl 2023.06)
