@<TRIPOS>MOLECULE
NONAME
47 50 1 0 0 
SMALL
USER_CHARGES


@<TRIPOS>ATOM
  1 O       -0.3360    -1.4630     1.4410 O.2   1 <1>  -0.5700 
  2 C       -0.2430    -2.0110     0.3730 C.2   1 <1>   0.6300 
  3 N        1.0000    -2.1770    -0.1410 N.am  1 <1>  -0.7300 
  4 C       -1.5470    -2.4240    -0.3090 C.3   1 <1>  -0.1000 
  5 C        1.4960    -3.0920    -1.2010 C.3   1 <1>   0.1400 
  6 C       -2.0530    -3.8440    -0.2170 C.3   1 <1>   0.0640 
  7 C       -1.7520    -3.2320    -1.5590 C.3   1 <1>  -0.2000 
  8 C        2.9810    -3.4300    -1.0100 C.3   1 <1>   0.2000 
  9 C       -1.0980    -4.9430     0.2540 C.ar  1 <1>  -0.0320 
 10 C       -3.5300    -4.0970     0.1550 C.ar  1 <1>  -0.0320 
 11 O        3.3480    -4.3610    -1.9840 O.3   1 <1>  -0.5600 
 12 C        3.3110    -4.0710     0.3440 C.3   1 <1>  -0.1600 
 13 C       -0.7840    -6.0060    -0.5810 C.ar  1 <1>  -0.1500 
 14 C       -0.5500    -4.9030     1.5280 C.ar  1 <1>  -0.1500 
 15 C       -4.5340    -3.2190    -0.2450 C.ar  1 <1>  -0.1500 
 16 C       -3.9050    -5.2120     0.8990 C.ar  1 <1>  -0.1500 
 17 C        3.5980    -5.6080    -1.4230 C.3   1 <1>   0.1200 
 18 C        4.0980    -5.3140    -0.0220 C.3   1 <1>  -0.1600 
 19 C        0.0780    -7.0030    -0.1570 C.ar  1 <1>  -0.1500 
 20 C        0.3100    -5.9000     1.9560 C.ar  1 <1>  -0.1500 
 21 C       -5.8590    -3.4440     0.0860 C.ar  1 <1>  -0.1500 
 22 C       -5.2290    -5.4410     1.2320 C.ar  1 <1>  -0.1500 
 23 C        0.6270    -6.9490     1.1120 C.ar  1 <1>  -0.1500 
 24 C       -6.2090    -4.5560     0.8260 C.ar  1 <1>  -0.1500 
 25 H        1.7320    -1.7720     0.4450 H     1 <1>   0.3700 
 26 H       -2.2660    -1.6460    -0.1420 H     1 <1>   0.1000 
 27 H        1.3570    -2.6310    -2.1620 H     1 <1>   0.0800 
 28 H        0.9470    -4.0130    -1.1620 H     1 <1>   0.0800 
 29 H       -0.9220    -3.6040    -2.1230 H     1 <1>   0.1000 
 30 H       -2.5710    -2.9750    -2.2060 H     1 <1>   0.1000 
 31 H        3.5840    -2.5540    -1.1740 H     1 <1>   0.0800 
 32 H        2.4060    -4.3480     0.8560 H     1 <1>   0.0800 
 33 H        3.8730    -3.4040     0.9720 H     1 <1>   0.0800 
 34 H       -1.2170    -6.0590    -1.5640 H     1 <1>   0.1500 
 35 H       -0.7980    -4.0920     2.1920 H     1 <1>   0.1500 
 36 H       -4.3020    -2.3430    -0.8210 H     1 <1>   0.1500 
 37 H       -3.1750    -5.9250     1.2360 H     1 <1>   0.1500 
 38 H        4.3220    -6.1300    -2.0240 H     1 <1>   0.0800 
 39 H        2.6690    -6.1520    -1.3970 H     1 <1>   0.0800 
 40 H        3.9190    -6.1330     0.6520 H     1 <1>   0.0800 
 41 H        5.1510    -5.0990    -0.0580 H     1 <1>   0.0800 
 42 H        0.3160    -7.8220    -0.8130 H     1 <1>   0.1500 
 43 H        0.7290    -5.8570     2.9460 H     1 <1>   0.1500 
 44 H       -6.6180    -2.7510    -0.2330 H     1 <1>   0.1500 
 45 H       -5.4940    -6.3090     1.8090 H     1 <1>   0.1500 
 46 H        1.2950    -7.7250     1.4440 H     1 <1>   0.1500 
 47 H       -7.2390    -4.7330     1.0850 H     1 <1>   0.1500 
@<TRIPOS>BOND
  1   1   2  2   
  2   2   3  am  
  3   2   4  1   
  4   3   5  1   
  5   3  25  1   
  6   4   6  1   
  7   4   7  1   
  8   4  26  1   
  9   5   8  1   
 10   5  27  1   
 11   5  28  1   
 12   6   7  1   
 13   6   9  1   
 14   6  10  1   
 15   7  29  1   
 16   7  30  1   
 17   8  11  1   
 18   8  12  1   
 19   8  31  1   
 20   9  13  ar  
 21   9  14  ar  
 22  10  15  ar  
 23  10  16  ar  
 24  11  17  1   
 25  12  18  1   
 26  12  32  1   
 27  12  33  1   
 28  13  19  ar  
 29  13  34  1   
 30  14  20  ar  
 31  14  35  1   
 32  15  21  ar  
 33  15  36  1   
 34  16  22  ar  
 35  16  37  1   
 36  17  18  1   
 37  17  38  1   
 38  17  39  1   
 39  18  40  1   
 40  18  41  1   
 41  19  23  ar  
 42  19  42  1   
 43  20  23  ar  
 44  20  43  1   
 45  21  24  ar  
 46  21  44  1   
 47  22  24  ar  
 48  22  45  1   
 49  23  46  1   
 50  24  47  1   
@<TRIPOS>SUBSTRUCTURE
  1 ****   9 GROUP 4 **** **** 0

# MOE 2024.06 (io_trps.svl 2023.06)
