@<TRIPOS>MOLECULE
NONAME
44 44 1 0 0 
SMALL
USER_CHARGES


@<TRIPOS>ATOM
  1 O       -0.6870     1.5710     1.6730 O.3   1 <1>  -0.6800 
  2 C       -0.9400     0.6940     0.6290 C.3   1 <1>   0.2000 
  3 C       -0.8480     1.4620    -0.7110 C.3   1 <1>   0.3430 
  4 C       -2.3250     0.0960     0.8630 C.3   1 <1>  -0.2400 
  5 N        0.2470     2.4800    -0.6820 N.4   1 <1>  -0.9590 
  6 C       -0.0260     3.6730    -1.5450 C.3   1 <1>   0.3430 
  7 C        1.6010     1.8910    -0.8430 C.3   1 <1>   0.3430 
  8 C       -0.6360     4.8270    -0.7130 C.3   1 <1>   0.2000 
  9 C        2.6700     2.8630    -0.3450 C.3   1 <1>  -0.1600 
 10 O        0.0420     4.9090     0.4930 O.3   1 <1>  -0.6800 
 11 C       -2.1140     4.6320    -0.3740 C.3   1 <1>  -0.2400 
 12 C        4.0590     2.2130    -0.3640 C.3   1 <1>  -0.0170 
 13 C        5.1090     3.2230     0.0640 C.ar  1 <1>  -0.1430 
 14 C        5.8300     3.9310    -0.8860 C.ar  1 <1>  -0.1500 
 15 C        5.3540     3.4480     1.4100 C.ar  1 <1>  -0.1500 
 16 C        6.7830     4.8550    -0.4950 C.ar  1 <1>  -0.1500 
 17 C        6.3070     4.3720     1.8020 C.ar  1 <1>  -0.1500 
 18 C        7.0220     5.0770     0.8500 C.ar  1 <1>  -0.1500 
 19 H       -0.8520     1.1370     2.5360 H     1 <1>   0.4000 
 20 H       -0.1940    -0.0830     0.6600 H     1 <1>   0.0800 
 21 H       -1.7900     1.9590    -0.8660 H     1 <1>   0.0800 
 22 H       -0.7060     0.7720    -1.5260 H     1 <1>   0.0800 
 23 H       -3.0750     0.8680     0.8880 H     1 <1>   0.0800 
 24 H       -2.3480    -0.4490     1.7900 H     1 <1>   0.0800 
 25 H       -2.5700    -0.5910     0.0720 H     1 <1>   0.0800 
 26 H        0.2070     2.8670     0.2900 H     1 <1>   0.4500 
 27 H       -0.6840     3.4150    -2.3570 H     1 <1>   0.0800 
 28 H        0.8950     4.0300    -1.9730 H     1 <1>   0.0800 
 29 H        1.7780     1.6440    -1.8770 H     1 <1>   0.0800 
 30 H        1.6670     0.9870    -0.2610 H     1 <1>   0.0800 
 31 H       -0.5030     5.7580    -1.2400 H     1 <1>   0.0800 
 32 H        2.4440     3.1640     0.6630 H     1 <1>   0.0800 
 33 H        2.6990     3.7420    -0.9630 H     1 <1>   0.0800 
 34 H       -0.3020     5.6510     1.0340 H     1 <1>   0.4000 
 35 H       -2.2580     3.7820     0.2690 H     1 <1>   0.0800 
 36 H       -2.6860     4.4880    -1.2740 H     1 <1>   0.0800 
 37 H       -2.4980     5.5080     0.1200 H     1 <1>   0.0800 
 38 H        4.2910     1.8560    -1.3530 H     1 <1>   0.0800 
 39 H        4.0850     1.3700     0.3050 H     1 <1>   0.0800 
 40 H        5.6570     3.7700    -1.9350 H     1 <1>   0.1500 
 41 H        4.8060     2.9080     2.1610 H     1 <1>   0.1500 
 42 H        7.3400     5.4020    -1.2350 H     1 <1>   0.1500 
 43 H        6.4930     4.5430     2.8480 H     1 <1>   0.1500 
 44 H        7.7630     5.7950     1.1550 H     1 <1>   0.1500 
@<TRIPOS>BOND
  1   1   2  1   
  2   1  19  1   
  3   2   3  1   
  4   2   4  1   
  5   2  20  1   
  6   3   5  1   
  7   3  21  1   
  8   3  22  1   
  9   4  23  1   
 10   4  24  1   
 11   4  25  1   
 12   5   6  1   
 13   5   7  1   
 14   5  26  1   
 15   6   8  1   
 16   6  27  1   
 17   6  28  1   
 18   7   9  1   
 19   7  29  1   
 20   7  30  1   
 21   8  10  1   
 22   8  11  1   
 23   8  31  1   
 24   9  12  1   
 25   9  32  1   
 26   9  33  1   
 27  10  34  1   
 28  11  35  1   
 29  11  36  1   
 30  11  37  1   
 31  12  13  1   
 32  12  38  1   
 33  12  39  1   
 34  13  14  ar  
 35  13  15  ar  
 36  14  16  ar  
 37  14  40  1   
 38  15  17  ar  
 39  15  41  1   
 40  16  18  ar  
 41  16  42  1   
 42  17  18  ar  
 43  17  43  1   
 44  18  44  1   
@<TRIPOS>SUBSTRUCTURE
  1 ****   9 GROUP 4 **** **** 0

# MOE 2024.06 (io_trps.svl 2023.06)
