@<TRIPOS>MOLECULE
NONAME
49 50 1 0 0 
SMALL
USER_CHARGES


@<TRIPOS>ATOM
  1 O        6.8340    -2.7360    -2.0790 O.3   1 <1>  -0.3630 
  2 C        7.8420    -2.0380    -1.4980 C.ar  1 <1>   0.0830 
  3 C        6.6060    -4.0580    -1.6530 C.3   1 <1>   0.1200 
  4 C        7.9530    -1.8410    -0.1160 C.ar  1 <1>   0.0820 
  5 C        8.7930    -1.4960    -2.3440 C.ar  1 <1>  -0.1500 
  6 C        5.2290    -4.1030    -0.9820 C.3   1 <1>   0.3430 
  7 O        6.9840    -2.3270     0.7170 O.3   1 <1>  -0.3630 
  8 C        9.0460    -1.1400     0.3800 C.ar  1 <1>  -0.1500 
  9 C        9.8650    -0.7900    -1.8320 C.ar  1 <1>  -0.1500 
 10 N        5.0160    -5.3630    -0.1980 N.4   1 <1>  -0.9590 
 11 C        6.6950    -1.6340     1.9160 C.3   1 <1>   0.0400 
 12 C       10.0200    -0.6050    -0.4600 C.ar  1 <1>   0.0280 
 13 C        3.5850    -5.5100     0.1750 C.3   1 <1>   0.3430 
 14 C        5.8650    -5.3870     1.0240 C.3   1 <1>   0.3430 
 15 C       11.1410     0.1170     0.1000 C.2   1 <1>  -0.1780 
 16 C        3.2230    -6.9790     0.4120 C.3   1 <1>  -0.1600 
 17 C        6.4650    -6.7780     1.2270 C.3   1 <1>  -0.1600 
 18 C       12.2630     0.5230    -0.5170 C.2   1 <1>  -0.2880 
 19 C        4.0730    -7.7300     1.4550 C.3   1 <1>  -0.1600 
 20 C        5.5180    -7.9700     0.9930 C.3   1 <1>  -0.1600 
 21 C       13.3910     1.2820     0.1570 C.3   1 <1>  -0.1020 
 22 H        6.6250    -4.6860    -2.5240 H     1 <1>   0.0800 
 23 H        7.3970    -4.3470    -0.9830 H     1 <1>   0.0800 
 24 H        8.6920    -1.6290    -3.4060 H     1 <1>   0.1500 
 25 H        4.4780    -4.0200    -1.7500 H     1 <1>   0.0800 
 26 H        5.1330    -3.2540    -0.3250 H     1 <1>   0.0800 
 27 H        9.1690    -0.9980     1.4360 H     1 <1>   0.1500 
 28 H       10.5870    -0.3780    -2.5110 H     1 <1>   0.1500 
 29 H        5.2730    -6.1750    -0.7730 H     1 <1>   0.4500 
 30 H        5.7590    -1.9950     2.3020 H     1 <1>   0.0800 
 31 H        6.6170    -0.5810     1.7040 H     1 <1>   0.0800 
 32 H        7.4780    -1.8200     2.6290 H     1 <1>   0.0800 
 33 H        3.3760    -4.9330     1.0620 H     1 <1>   0.0800 
 34 H        2.9610    -5.1310    -0.6190 H     1 <1>   0.0800 
 35 H        6.6660    -4.6690     0.9470 H     1 <1>   0.0800 
 36 H        5.2710    -5.1220     1.8840 H     1 <1>   0.0800 
 37 H       11.0250     0.3370     1.1470 H     1 <1>   0.1500 
 38 H        2.1980    -7.0060     0.7400 H     1 <1>   0.0800 
 39 H        3.2540    -7.5050    -0.5260 H     1 <1>   0.0800 
 40 H        7.3290    -6.8860     0.5950 H     1 <1>   0.0800 
 41 H        6.8240    -6.8220     2.2410 H     1 <1>   0.0800 
 42 H       12.4620     0.3390    -1.5590 H     1 <1>   0.1500 
 43 H        4.0550    -7.2220     2.4050 H     1 <1>   0.0800 
 44 H        3.6150    -8.6940     1.6090 H     1 <1>   0.0800 
 45 H        5.5230    -8.2480    -0.0480 H     1 <1>   0.0800 
 46 H        5.9140    -8.8150     1.5330 H     1 <1>   0.0800 
 47 H       14.3050     0.7190     0.0880 H     1 <1>   0.0800 
 48 H       13.1710     1.4530     1.1960 H     1 <1>   0.0800 
 49 H       13.5330     2.2330    -0.3240 H     1 <1>   0.0800 
@<TRIPOS>BOND
  1   1   2  1   
  2   1   3  1   
  3   2   4  ar  
  4   2   5  ar  
  5   3   6  1   
  6   3  22  1   
  7   3  23  1   
  8   4   7  1   
  9   4   8  ar  
 10   5   9  ar  
 11   5  24  1   
 12   6  10  1   
 13   6  25  1   
 14   6  26  1   
 15   7  11  1   
 16   8  12  ar  
 17   8  27  1   
 18   9  12  ar  
 19   9  28  1   
 20  10  13  1   
 21  10  14  1   
 22  10  29  1   
 23  11  30  1   
 24  11  31  1   
 25  11  32  1   
 26  12  15  1   
 27  13  16  1   
 28  13  33  1   
 29  13  34  1   
 30  14  17  1   
 31  14  35  1   
 32  14  36  1   
 33  15  18  2   
 34  15  37  1   
 35  16  19  1   
 36  16  38  1   
 37  16  39  1   
 38  17  20  1   
 39  17  40  1   
 40  17  41  1   
 41  18  21  1   
 42  18  42  1   
 43  19  20  1   
 44  19  43  1   
 45  19  44  1   
 46  20  45  1   
 47  20  46  1   
 48  21  47  1   
 49  21  48  1   
 50  21  49  1   
@<TRIPOS>SUBSTRUCTURE
  1 ****   7 GROUP 4 **** **** 0

# MOE 2024.06 (io_trps.svl 2023.06)
