@<TRIPOS>MOLECULE
NONAME
45 48 1 0 0 
SMALL
USER_CHARGES


@<TRIPOS>ATOM
  1 N        0.0140     0.3190    -0.6940 N.4   1 <1>  -0.9590 
  2 C       -1.1780    -0.3570    -1.2720 C.3   1 <1>   0.5230 
  3 C       -0.0720     1.8220    -0.7760 C.3   1 <1>   0.3430 
  4 C        1.2870    -0.2180    -1.2340 C.3   1 <1>   0.4860 
  5 C       -2.3940     0.2710    -0.6310 C.2   1 <1>  -0.3320 
  6 C       -1.1970     2.3620     0.1220 C.3   1 <1>   0.0210 
  7 C        2.4310     0.3510    -0.4190 C.ar  1 <1>  -0.1430 
  8 N       -3.6490    -0.2770    -0.5930 N.pl3 1 <1>   0.0330 
  9 C       -2.4120     1.4700    -0.0100 C.2   1 <1>  -0.1810 
 10 C        2.7010    -0.0810     0.8770 C.ar  1 <1>  -0.1430 
 11 C        3.2160     1.3430    -0.9930 C.ar  1 <1>  -0.1500 
 12 C       -4.4680     0.5960     0.0770 C.ar  1 <1>  -0.1520 
 13 C       -3.7200     1.7060     0.4590 C.ar  1 <1>   0.0000 
 14 C        3.7410     0.5080     1.5790 C.ar  1 <1>  -0.1500 
 15 C        1.9080    -1.1850     1.5680 C.3   1 <1>  -0.0970 
 16 C        4.2530     1.9250    -0.2860 C.ar  1 <1>  -0.1430 
 17 C       -5.8270     0.5070     0.3880 C.ar  1 <1>  -0.1500 
 18 C       -4.3340     2.7460     1.1650 C.ar  1 <1>  -0.1500 
 19 C        4.5090     1.5030     1.0050 C.ar  1 <1>  -0.1500 
 20 C        5.1120     3.0090    -0.9140 C.3   1 <1>  -0.0970 
 21 C       -6.4190     1.5380     1.0810 C.ar  1 <1>  -0.1500 
 22 C       -5.6720     2.6570     1.4700 C.ar  1 <1>  -0.1500 
 23 H        0.0040     0.1060     0.3090 H     1 <1>   0.4500 
 24 H       -1.1490    -1.4120    -1.0510 H     1 <1>   0.0800 
 25 H       -1.2150    -0.2190    -2.3400 H     1 <1>   0.0800 
 26 H       -0.2680     2.1120    -1.7950 H     1 <1>   0.0800 
 27 H        0.8590     2.2710    -0.4680 H     1 <1>   0.0800 
 28 H        1.4000     0.0580    -2.2700 H     1 <1>   0.0800 
 29 H        1.3020    -1.2930    -1.1640 H     1 <1>   0.0800 
 30 H       -1.4430     3.3670    -0.1720 H     1 <1>   0.0800 
 31 H       -0.8740     2.3810     1.1470 H     1 <1>   0.0800 
 32 H       -3.9710    -1.1710    -0.9820 H     1 <1>   0.2700 
 33 H        3.0300     1.6730    -2.0010 H     1 <1>   0.1500 
 34 H        3.9680     0.1950     2.5840 H     1 <1>   0.1500 
 35 H        0.9920    -0.7930     1.9710 H     1 <1>   0.0800 
 36 H        2.4770    -1.5970     2.3840 H     1 <1>   0.0800 
 37 H        1.6910    -1.9910     0.8920 H     1 <1>   0.0800 
 38 H       -6.3980    -0.3530     0.0880 H     1 <1>   0.1500 
 39 H       -3.7550     3.6010     1.4600 H     1 <1>   0.1500 
 40 H        5.3140     1.9440     1.5680 H     1 <1>   0.1500 
 41 H        4.5870     3.5030    -1.7120 H     1 <1>   0.0800 
 42 H        6.0120     2.5740    -1.3100 H     1 <1>   0.0800 
 43 H        5.3800     3.7460    -0.1780 H     1 <1>   0.0800 
 44 H       -7.4640     1.4940     1.3330 H     1 <1>   0.1500 
 45 H       -6.1610     3.4480     2.0120 H     1 <1>   0.1500 
@<TRIPOS>BOND
  1   1   2  1   
  2   1   3  1   
  3   1   4  1   
  4   1  23  1   
  5   2   5  1   
  6   2  24  1   
  7   2  25  1   
  8   3   6  1   
  9   3  26  1   
 10   3  27  1   
 11   4   7  1   
 12   4  28  1   
 13   4  29  1   
 14   5   8  1   
 15   5   9  2   
 16   6   9  1   
 17   6  30  1   
 18   6  31  1   
 19   7  10  ar  
 20   7  11  ar  
 21   8  12  1   
 22   8  32  1   
 23   9  13  1   
 24  10  14  ar  
 25  10  15  1   
 26  11  16  ar  
 27  11  33  1   
 28  12  13  ar  
 29  12  17  ar  
 30  13  18  ar  
 31  14  19  ar  
 32  14  34  1   
 33  15  35  1   
 34  15  36  1   
 35  15  37  1   
 36  16  19  ar  
 37  16  20  1   
 38  17  21  ar  
 39  17  38  1   
 40  18  22  ar  
 41  18  39  1   
 42  19  40  1   
 43  20  41  1   
 44  20  42  1   
 45  20  43  1   
 46  21  22  ar  
 47  21  44  1   
 48  22  45  1   
@<TRIPOS>SUBSTRUCTURE
  1 ****   1 GROUP 4 **** **** 0

# MOE 2024.06 (io_trps.svl 2023.06)
