@<TRIPOS>MOLECULE
NONAME
48 49 1 0 0 
SMALL
USER_CHARGES


@<TRIPOS>ATOM
  1 O        0.1640    -1.2210    -1.4280 O.2   1 <1>  -0.5700 
  2 C        0.0300    -2.3750    -1.0930 C.2   1 <1>   0.4950 
  3 C       -1.2150    -3.0460    -1.0790 C.2   1 <1>  -0.1360 
  4 C        1.2680    -3.1560    -0.6900 C.3   1 <1>  -0.0990 
  5 C       -1.4100    -4.3290    -0.6850 C.2   1 <1>  -0.0380 
  6 C        0.9520    -4.2730     0.3280 C.3   1 <1>   0.0000 
  7 N       -2.6470    -4.9190    -0.7340 N.pl3 1 <1>  -0.8690 
  8 C       -0.2210    -5.1450    -0.1790 C.3   1 <1>  -0.0220 
  9 C        0.5890    -3.6490     1.6900 C.3   1 <1>  -0.2400 
 10 C        2.1980    -5.1520     0.5230 C.3   1 <1>  -0.2400 
 11 C       -3.0780    -6.3160    -0.3580 C.3   1 <1>   0.3500 
 12 C       -2.3330    -7.4620    -1.0780 C.2   1 <1>   0.6590 
 13 C       -4.5920    -6.4430    -0.5950 C.3   1 <1>  -0.0160 
 14 O       -2.6160    -7.8320    -2.1930 O.2   1 <1>  -0.5700 
 15 O       -1.3680    -8.0560    -0.3810 O.3   1 <1>  -0.4300 
 16 C       -5.3860    -5.3120     0.0480 C.ar  1 <1>  -0.1430 
 17 C       -0.6020    -9.1060    -0.9240 C.3   1 <1>   0.1200 
 18 C       -5.9420    -4.3140    -0.7390 C.ar  1 <1>  -0.1500 
 19 C       -5.5530    -5.2660     1.4230 C.ar  1 <1>  -0.1500 
 20 C        0.4780    -9.4720     0.0890 C.3   1 <1>  -0.2400 
 21 C       -6.6510    -3.2780    -0.1570 C.ar  1 <1>  -0.1500 
 22 C       -6.2630    -4.2300     2.0060 C.ar  1 <1>  -0.1500 
 23 C       -6.8110    -3.2350     1.2170 C.ar  1 <1>  -0.1500 
 24 H       -2.0430    -2.4570    -1.4220 H     1 <1>   0.1500 
 25 H        1.9930    -2.4760    -0.2820 H     1 <1>   0.0800 
 26 H        1.6840    -3.5820    -1.5840 H     1 <1>   0.0800 
 27 H       -3.4670    -4.3250    -0.9220 H     1 <1>   0.4000 
 28 H        0.1150    -5.7710    -0.9870 H     1 <1>   0.0800 
 29 H       -0.5340    -5.7830     0.6260 H     1 <1>   0.0800 
 30 H        1.3920    -3.0300     2.0500 H     1 <1>   0.0800 
 31 H        0.4040    -4.4170     2.4200 H     1 <1>   0.0800 
 32 H       -0.2950    -3.0410     1.6180 H     1 <1>   0.0800 
 33 H        2.4930    -5.6070    -0.4060 H     1 <1>   0.0800 
 34 H        1.9990    -5.9360     1.2340 H     1 <1>   0.0800 
 35 H        3.0220    -4.5650     0.8890 H     1 <1>   0.0800 
 36 H       -2.9020    -6.4330     0.6960 H     1 <1>   0.0800 
 37 H       -4.9330    -7.3820    -0.1980 H     1 <1>   0.0800 
 38 H       -4.7820    -6.4620    -1.6540 H     1 <1>   0.0800 
 39 H       -0.1640    -8.7670    -1.8490 H     1 <1>   0.0800 
 40 H       -1.2540    -9.9400    -1.1180 H     1 <1>   0.0800 
 41 H       -5.8270    -4.3360    -1.8090 H     1 <1>   0.1500 
 42 H       -5.1330    -6.0320     2.0500 H     1 <1>   0.1500 
 43 H        1.1130    -8.6250     0.2770 H     1 <1>   0.0800 
 44 H        1.0820   -10.2720    -0.2990 H     1 <1>   0.0800 
 45 H        0.0290    -9.7980     1.0100 H     1 <1>   0.0800 
 46 H       -7.0790    -2.5060    -0.7720 H     1 <1>   0.1500 
 47 H       -6.3880    -4.1970     3.0750 H     1 <1>   0.1500 
 48 H       -7.3610    -2.4290     1.6700 H     1 <1>   0.1500 
@<TRIPOS>BOND
  1   1   2  2   
  2   2   3  1   
  3   2   4  1   
  4   3   5  2   
  5   3  24  1   
  6   4   6  1   
  7   4  25  1   
  8   4  26  1   
  9   5   7  1   
 10   5   8  1   
 11   6   8  1   
 12   6   9  1   
 13   6  10  1   
 14   7  11  1   
 15   7  27  1   
 16   8  28  1   
 17   8  29  1   
 18   9  30  1   
 19   9  31  1   
 20   9  32  1   
 21  10  33  1   
 22  10  34  1   
 23  10  35  1   
 24  11  12  1   
 25  11  13  1   
 26  11  36  1   
 27  12  14  2   
 28  12  15  1   
 29  13  16  1   
 30  13  37  1   
 31  13  38  1   
 32  15  17  1   
 33  16  18  ar  
 34  16  19  ar  
 35  17  20  1   
 36  17  39  1   
 37  17  40  1   
 38  18  21  ar  
 39  18  41  1   
 40  19  22  ar  
 41  19  42  1   
 42  20  43  1   
 43  20  44  1   
 44  20  45  1   
 45  21  23  ar  
 46  21  46  1   
 47  22  23  ar  
 48  22  47  1   
 49  23  48  1   
@<TRIPOS>SUBSTRUCTURE
  1 ****   7 GROUP 4 **** **** 0

# MOE 2024.06 (io_trps.svl 2023.06)
