@<TRIPOS>MOLECULE
NONAME
43 46 1 0 0 
SMALL
USER_CHARGES


@<TRIPOS>ATOM
  1 BR       0.3800     0.3040     0.4580 Br    1 <1>  -0.1110 
  2 C        1.3550    -1.3530     0.5920 C.ar  1 <1>   0.1110 
  3 C        0.7060    -2.5340     0.3050 C.ar  1 <1>  -0.1500 
  4 C        2.6820    -1.3110     0.9740 C.ar  1 <1>  -0.1500 
  5 C        1.3960    -3.7430     0.3920 C.ar  1 <1>   0.0000 
  6 C        3.3710    -2.5050     1.0680 C.ar  1 <1>  -0.1500 
  7 C        0.7490    -4.9980     0.0980 C.ar  1 <1>   0.3100 
  8 C        2.7470    -3.7160     0.7800 C.ar  1 <1>   0.1000 
  9 N       -0.5070    -5.1950     0.5120 N.ar  1 <1>  -0.3100 
 10 C        1.4020    -5.9970    -0.6270 C.ar  1 <1>   0.3920 
 11 N        3.4790    -4.8880     0.9200 N.pl3 1 <1>  -0.8690 
 12 N       -1.0670    -6.3380     0.2120 N.ar  1 <1>  -0.3100 
 13 O        2.6410    -5.8100    -1.0920 O.3   1 <1>  -0.3630 
 14 N        0.8500    -7.1510    -0.9480 N.ar  1 <1>  -0.6200 
 15 C        3.7320    -5.8030    -0.2090 C.3   1 <1>   0.6490 
 16 C       -0.3730    -7.2410    -0.4890 C.ar  1 <1>   0.7220 
 17 C        4.9540    -5.3080    -0.9930 C.3   1 <1>  -0.1600 
 18 C        3.9690    -7.2220     0.3310 C.3   1 <1>  -0.1600 
 19 S       -1.2120    -8.7770    -0.8550 S.3   1 <1>  -0.3310 
 20 C        6.2690    -5.4220    -0.1990 C.3   1 <1>  -0.1600 
 21 C        5.2790    -7.3490     1.1310 C.3   1 <1>  -0.1600 
 22 C       -2.8820    -8.6020    -0.0870 C.3   1 <1>   0.0700 
 23 C        6.4810    -6.8530     0.3140 C.3   1 <1>  -0.1600 
 24 C       -3.6600    -9.8880    -0.3610 C.3   1 <1>  -0.2400 
 25 H       -0.3300    -2.5160     0.0150 H     1 <1>   0.1500 
 26 H        3.1550    -0.3700     1.1930 H     1 <1>   0.1500 
 27 H        4.4020    -2.4990     1.3690 H     1 <1>   0.1500 
 28 H        4.3540    -4.7850     1.4350 H     1 <1>   0.4000 
 29 H        4.7950    -4.2880    -1.2940 H     1 <1>   0.0800 
 30 H        5.0440    -5.9050    -1.8830 H     1 <1>   0.0800 
 31 H        4.0090    -7.8990    -0.5040 H     1 <1>   0.0800 
 32 H        3.1410    -7.5120     0.9540 H     1 <1>   0.0800 
 33 H        6.2560    -4.7400     0.6330 H     1 <1>   0.0800 
 34 H        7.0940    -5.1440    -0.8330 H     1 <1>   0.0800 
 35 H        5.4320    -8.3790     1.4050 H     1 <1>   0.0800 
 36 H        5.2040    -6.7800     2.0420 H     1 <1>   0.0800 
 37 H       -3.3570    -7.7460    -0.5360 H     1 <1>   0.0800 
 38 H       -2.7390    -8.4390     0.9670 H     1 <1>   0.0800 
 39 H        7.3690    -6.8920     0.9210 H     1 <1>   0.0800 
 40 H        6.6330    -7.5120    -0.5260 H     1 <1>   0.0800 
 41 H       -3.7600   -10.0420    -1.4210 H     1 <1>   0.0800 
 42 H       -4.6410    -9.8220     0.0730 H     1 <1>   0.0800 
 43 H       -3.1470   -10.7290     0.0690 H     1 <1>   0.0800 
@<TRIPOS>BOND
  1   1   2  1   
  2   2   3  ar  
  3   2   4  ar  
  4   3   5  ar  
  5   3  25  1   
  6   4   6  ar  
  7   4  26  1   
  8   5   7  1   
  9   5   8  ar  
 10   6   8  ar  
 11   6  27  1   
 12   7   9  ar  
 13   7  10  ar  
 14   8  11  1   
 15   9  12  ar  
 16  10  13  1   
 17  10  14  ar  
 18  11  15  1   
 19  11  28  1   
 20  12  16  ar  
 21  13  15  1   
 22  14  16  ar  
 23  15  17  1   
 24  15  18  1   
 25  16  19  1   
 26  17  20  1   
 27  17  29  1   
 28  17  30  1   
 29  18  21  1   
 30  18  31  1   
 31  18  32  1   
 32  19  22  1   
 33  20  23  1   
 34  20  33  1   
 35  20  34  1   
 36  21  23  1   
 37  21  35  1   
 38  21  36  1   
 39  22  24  1   
 40  22  37  1   
 41  22  38  1   
 42  23  39  1   
 43  23  40  1   
 44  24  41  1   
 45  24  42  1   
 46  24  43  1   
@<TRIPOS>SUBSTRUCTURE
  1 ****  10 GROUP 4 **** **** 0

# MOE 2024.06 (io_trps.svl 2023.06)
