@<TRIPOS>MOLECULE
NONAME
47 50 1 0 0 
SMALL
USER_CHARGES


@<TRIPOS>ATOM
  1 O       -0.4750     1.5180     1.9760 O.2   1 <1>  -0.5700 
  2 C       -0.7250     1.8130     0.8300 C.2   1 <1>   0.5690 
  3 N        0.2640     2.0680    -0.0860 N.am  1 <1>  -0.5470 
  4 C       -2.2040     1.9670     0.3810 C.3   1 <1>   0.0610 
  5 C        1.6640     2.0100     0.0140 C.ar  1 <1>   0.1170 
  6 C       -2.5150     3.4800     0.4980 C.3   1 <1>  -0.1600 
  7 C       -2.3470     1.4960    -1.0950 C.3   1 <1>  -0.1600 
  8 C       -3.1150     1.1120     1.3120 C.3   1 <1>  -0.1600 
  9 C        2.4270     2.7470    -0.8850 C.ar  1 <1>  -0.1500 
 10 C        2.3270     1.2320     0.9580 C.ar  1 <1>  -0.1500 
 11 C       -3.9540     4.0030     0.3460 C.3   1 <1>  -0.1600 
 12 C       -3.7830     1.2220    -1.5620 C.3   1 <1>  -0.0800 
 13 C       -4.5200     0.7770     0.7790 C.3   1 <1>  -0.0800 
 14 C        3.8100     2.7170    -0.8450 C.ar  1 <1>  -0.1500 
 15 C        3.7090     1.1980     1.0040 C.ar  1 <1>  -0.1500 
 16 C       -5.0250     3.0760    -0.2470 C.3   1 <1>  -0.0800 
 17 C       -4.6450     2.4960    -1.6230 C.3   1 <1>  -0.1600 
 18 C       -4.4230     0.1890    -0.6300 C.3   1 <1>  -0.1600 
 19 C       -5.4550     1.9910     0.7550 C.3   1 <1>  -0.1600 
 20 C        4.4610     1.9370     0.1060 C.ar  1 <1>   0.0830 
 21 O        5.8130     1.8470     0.2190 O.3   1 <1>  -0.3630 
 22 C        6.6640     2.5820    -0.6320 C.3   1 <1>   0.0400 
 23 H       -0.0800     2.3860    -0.9880 H     1 <1>   0.3700 
 24 H       -1.9060     4.0010    -0.2210 H     1 <1>   0.0800 
 25 H       -2.1680     3.8100     1.4630 H     1 <1>   0.0800 
 26 H       -1.8010     0.5740    -1.2060 H     1 <1>   0.0800 
 27 H       -1.9030     2.2110    -1.7630 H     1 <1>   0.0800 
 28 H       -2.6210     0.1700     1.4800 H     1 <1>   0.0800 
 29 H       -3.1960     1.5890     2.2730 H     1 <1>   0.0800 
 30 H        1.9370     3.3550    -1.6230 H     1 <1>   0.1500 
 31 H        1.7670     0.6460     1.6630 H     1 <1>   0.1500 
 32 H       -3.9170     4.8920    -0.2590 H     1 <1>   0.0800 
 33 H       -4.2960     4.3230     1.3150 H     1 <1>   0.0800 
 34 H       -3.7370     0.8040    -2.5530 H     1 <1>   0.0800 
 35 H       -4.9560     0.0370     1.4300 H     1 <1>   0.0800 
 36 H        4.3610     3.3020    -1.5560 H     1 <1>   0.1500 
 37 H        4.2120     0.5970     1.7390 H     1 <1>   0.1500 
 38 H       -5.8880     3.7030    -0.4020 H     1 <1>   0.0800 
 39 H       -4.1550     3.2470    -2.2170 H     1 <1>   0.0800 
 40 H       -5.5590     2.2420    -2.1310 H     1 <1>   0.0800 
 41 H       -3.8330    -0.7110    -0.6130 H     1 <1>   0.0800 
 42 H       -5.4040    -0.0700    -0.9890 H     1 <1>   0.0800 
 43 H       -5.5420     2.4050     1.7440 H     1 <1>   0.0800 
 44 H       -6.4360     1.6480     0.4740 H     1 <1>   0.0800 
 45 H        7.6800     2.3640    -0.3550 H     1 <1>   0.0800 
 46 H        6.4660     3.6310    -0.5020 H     1 <1>   0.0800 
 47 H        6.4890     2.2780    -1.6480 H     1 <1>   0.0800 
@<TRIPOS>BOND
  1   1   2  2   
  2   2   3  am  
  3   2   4  1   
  4   3   5  1   
  5   3  23  1   
  6   4   6  1   
  7   4   7  1   
  8   4   8  1   
  9   5   9  ar  
 10   5  10  ar  
 11   6  11  1   
 12   6  24  1   
 13   6  25  1   
 14   7  12  1   
 15   7  26  1   
 16   7  27  1   
 17   8  13  1   
 18   8  28  1   
 19   8  29  1   
 20   9  14  ar  
 21   9  30  1   
 22  10  15  ar  
 23  10  31  1   
 24  11  16  1   
 25  11  32  1   
 26  11  33  1   
 27  12  17  1   
 28  12  18  1   
 29  12  34  1   
 30  13  18  1   
 31  13  19  1   
 32  13  35  1   
 33  14  20  ar  
 34  14  36  1   
 35  15  20  ar  
 36  15  37  1   
 37  16  17  1   
 38  16  19  1   
 39  16  38  1   
 40  17  39  1   
 41  17  40  1   
 42  18  41  1   
 43  18  42  1   
 44  19  43  1   
 45  19  44  1   
 46  20  21  1   
 47  21  22  1   
 48  22  45  1   
 49  22  46  1   
 50  22  47  1   
@<TRIPOS>SUBSTRUCTURE
  1 ****   2 GROUP 4 **** **** 0

# MOE 2024.06 (io_trps.svl 2023.06)
