@<TRIPOS>MOLECULE
NONAME
36 37 1 0 0 
SMALL
USER_CHARGES


@<TRIPOS>ATOM
  1 CL      -1.4290     0.1570     2.9090 Cl    1 <1>  -0.1770 
  2 C       -2.2880    -0.0500     1.4050 C.ar  1 <1>   0.1770 
  3 C       -3.3170    -0.9670     1.3340 C.ar  1 <1>  -0.1500 
  4 C       -1.9240     0.7100     0.3120 C.ar  1 <1>  -0.1500 
  5 C       -4.0260    -1.1490     0.1460 C.ar  1 <1>   0.0860 
  6 C       -2.6060     0.5390    -0.8790 C.ar  1 <1>  -0.1500 
  7 C       -5.1220    -2.1030     0.0680 C.2   1 <1>   0.5440 
  8 C       -3.6390    -0.3800    -0.9560 C.ar  1 <1>  -0.1500 
  9 O       -5.2160    -3.0170     0.8640 O.2   1 <1>  -0.5700 
 10 N       -6.1310    -1.9800    -0.8580 N.am  1 <1>  -0.6600 
 11 C       -6.8360    -3.2150    -1.3110 C.3   1 <1>   0.1400 
 12 C       -7.0220    -0.7880    -0.7930 C.3   1 <1>   0.1400 
 13 C       -8.0170    -3.5190    -0.3700 C.3   1 <1>   0.3430 
 14 C       -8.2260    -1.0810     0.1300 C.3   1 <1>   0.3430 
 15 N       -8.9570    -2.3460    -0.2510 N.4   1 <1>  -0.9590 
 16 C      -10.0540    -2.6530     0.6910 C.3   1 <1>   0.4810 
 17 C      -11.1590    -1.6570     0.4260 C.2   1 <1>  -0.2880 
 18 C      -12.2920    -1.9220    -0.2340 C.2   1 <1>  -0.3000 
 19 H       -3.5670    -1.5460     2.2060 H     1 <1>   0.1500 
 20 H       -1.1180     1.4180     0.3940 H     1 <1>   0.1500 
 21 H       -2.3280     1.1190    -1.7440 H     1 <1>   0.1500 
 22 H       -4.1500    -0.5080    -1.8950 H     1 <1>   0.1500 
 23 H       -6.1500    -4.0460    -1.3010 H     1 <1>   0.0800 
 24 H       -7.1830    -3.0880    -2.3220 H     1 <1>   0.0800 
 25 H       -7.3640    -0.5380    -1.7820 H     1 <1>   0.0800 
 26 H       -6.4780     0.0580    -0.4080 H     1 <1>   0.0800 
 27 H       -7.6120    -3.7620     0.6000 H     1 <1>   0.0800 
 28 H       -8.5460    -4.3830    -0.7360 H     1 <1>   0.0800 
 29 H       -8.9020    -0.2420     0.1000 H     1 <1>   0.0800 
 30 H       -7.8580    -1.1720     1.1390 H     1 <1>   0.0800 
 31 H       -9.4050    -2.1910    -1.1630 H     1 <1>   0.4500 
 32 H       -9.7180    -2.5980     1.7150 H     1 <1>   0.0800 
 33 H      -10.4270    -3.6480     0.5030 H     1 <1>   0.0800 
 34 H      -10.9570    -0.6820     0.8360 H     1 <1>   0.1500 
 35 H      -13.0700    -1.1940    -0.4040 H     1 <1>   0.1500 
 36 H      -12.5560    -2.8770    -0.6580 H     1 <1>   0.1500 
@<TRIPOS>BOND
  1   1   2  1   
  2   2   3  ar  
  3   2   4  ar  
  4   3   5  ar  
  5   3  19  1   
  6   4   6  ar  
  7   4  20  1   
  8   5   7  1   
  9   5   8  ar  
 10   6   8  ar  
 11   6  21  1   
 12   7   9  2   
 13   7  10  am  
 14   8  22  1   
 15  10  11  1   
 16  10  12  1   
 17  11  13  1   
 18  11  23  1   
 19  11  24  1   
 20  12  14  1   
 21  12  25  1   
 22  12  26  1   
 23  13  15  1   
 24  13  27  1   
 25  13  28  1   
 26  14  15  1   
 27  14  29  1   
 28  14  30  1   
 29  15  16  1   
 30  15  31  1   
 31  16  17  1   
 32  16  32  1   
 33  16  33  1   
 34  17  18  2   
 35  17  34  1   
 36  18  35  1   
 37  18  36  1   
@<TRIPOS>SUBSTRUCTURE
  1 ****   7 GROUP 4 **** **** 0

# MOE 2024.06 (io_trps.svl 2023.06)
