@<TRIPOS>MOLECULE
NONAME
42 42 1 0 0 
SMALL
USER_CHARGES


@<TRIPOS>ATOM
  1 N        0.1010     0.3600    -0.1900 N.4   1 <1>  -0.9590 
  2 C        1.2470     0.1460    -1.1310 C.3   1 <1>   0.4860 
  3 C       -1.1410    -0.3470    -0.6720 C.3   1 <1>   0.3430 
  4 C       -0.0820     1.8340     0.0550 C.3   1 <1>   0.2630 
  5 C        2.5180     0.5300    -0.4020 C.ar  1 <1>  -0.1440 
  6 C       -2.3160    -0.3510     0.3510 C.3   1 <1>   0.3430 
  7 C        3.1000    -0.3050     0.5500 C.ar  1 <1>  -0.1440 
  8 C        3.1020     1.7560    -0.6930 C.ar  1 <1>  -0.1500 
  9 N       -3.5740    -1.0370    -0.1330 N.4   1 <1>  -0.9590 
 10 C        4.2400     0.1240     1.2110 C.ar  1 <1>  -0.1500 
 11 C        2.5550    -1.6860     0.8960 C.3   1 <1>  -0.0970 
 12 C        4.2410     2.1750    -0.0300 C.ar  1 <1>  -0.1430 
 13 C       -4.6920    -0.8200     0.8470 C.3   1 <1>   0.2630 
 14 C       -3.4100    -2.5160    -0.3530 C.3   1 <1>   0.2630 
 15 C        4.8050     1.3530     0.9270 C.ar  1 <1>  -0.1500 
 16 C        4.8790     3.5150    -0.3500 C.3   1 <1>  -0.0970 
 17 H        0.4550    -0.0470     0.6920 H     1 <1>   0.4500 
 18 H        1.1320     0.7480    -2.0170 H     1 <1>   0.0800 
 19 H        1.3110    -0.8890    -1.4260 H     1 <1>   0.0800 
 20 H       -0.8880    -1.3690    -0.9000 H     1 <1>   0.0800 
 21 H       -1.4760     0.1250    -1.5810 H     1 <1>   0.0800 
 22 H       -0.3480     2.3410    -0.8580 H     1 <1>   0.0800 
 23 H        0.8340     2.2660     0.4290 H     1 <1>   0.0800 
 24 H       -0.8520     2.0090     0.7890 H     1 <1>   0.0800 
 25 H       -2.5570     0.6720     0.5900 H     1 <1>   0.0800 
 26 H       -1.9850    -0.8330     1.2570 H     1 <1>   0.0800 
 27 H        2.6790     2.4020    -1.4440 H     1 <1>   0.1500 
 28 H       -3.8900    -0.6150    -1.0240 H     1 <1>   0.4500 
 29 H        4.7080    -0.4980     1.9550 H     1 <1>   0.1500 
 30 H        1.7210    -1.6060     1.5690 H     1 <1>   0.0800 
 31 H        3.3150    -2.2730     1.3830 H     1 <1>   0.0800 
 32 H        2.2620    -2.2200     0.0110 H     1 <1>   0.0800 
 33 H       -4.4490    -1.2540     1.8040 H     1 <1>   0.0800 
 34 H       -5.6010    -1.2780     0.4880 H     1 <1>   0.0800 
 35 H       -4.8780     0.2340     0.9850 H     1 <1>   0.0800 
 36 H       -3.1120    -3.0040     0.5620 H     1 <1>   0.0800 
 37 H       -2.6680    -2.7120    -1.1100 H     1 <1>   0.0800 
 38 H       -4.3430    -2.9490    -0.6780 H     1 <1>   0.0800 
 39 H        5.6930     1.6620     1.4510 H     1 <1>   0.1500 
 40 H        4.1520     4.2040    -0.7410 H     1 <1>   0.0800 
 41 H        5.6570     3.3820    -1.0810 H     1 <1>   0.0800 
 42 H        5.3100     3.9460     0.5360 H     1 <1>   0.0800 
@<TRIPOS>BOND
  1   1   2  1   
  2   1   3  1   
  3   1   4  1   
  4   1  17  1   
  5   2   5  1   
  6   2  18  1   
  7   2  19  1   
  8   3   6  1   
  9   3  20  1   
 10   3  21  1   
 11   4  22  1   
 12   4  23  1   
 13   4  24  1   
 14   5   7  ar  
 15   5   8  ar  
 16   6   9  1   
 17   6  25  1   
 18   6  26  1   
 19   7  10  ar  
 20   7  11  1   
 21   8  12  ar  
 22   8  27  1   
 23   9  13  1   
 24   9  14  1   
 25   9  28  1   
 26  10  15  ar  
 27  10  29  1   
 28  11  30  1   
 29  11  31  1   
 30  11  32  1   
 31  12  15  ar  
 32  12  16  1   
 33  13  33  1   
 34  13  34  1   
 35  13  35  1   
 36  14  36  1   
 37  14  37  1   
 38  14  38  1   
 39  15  39  1   
 40  16  40  1   
 41  16  41  1   
 42  16  42  1   
@<TRIPOS>SUBSTRUCTURE
  1 ****   1 GROUP 4 **** **** 0

# MOE 2024.06 (io_trps.svl 2023.06)
