@<TRIPOS>MOLECULE
NONAME
45 47 1 0 0 
SMALL
USER_CHARGES


@<TRIPOS>ATOM
  1 O        0.6320     0.3050    -1.0470 O.2   1 <1>  -0.5700 
  2 C        0.9960     1.4650    -0.9980 C.2   1 <1>   0.6900 
  3 N        2.2930     1.7940    -1.2920 N.am  1 <1>  -0.6600 
  4 N        0.1290     2.4700    -0.6830 N.am  1 <1>  -0.5470 
  5 C        3.0240     2.9270    -0.6360 C.3   1 <1>   0.1400 
  6 C        3.2090     0.7980    -1.9340 C.3   1 <1>   0.1400 
  7 C       -1.1800     2.4490    -0.1810 C.ar  1 <1>   0.1170 
  8 C        4.1070     2.4130     0.3310 C.3   1 <1>   0.2090 
  9 C        4.2720     0.2970    -0.9420 C.3   1 <1>   0.2090 
 10 C       -1.9910     3.5610    -0.3710 C.ar  1 <1>  -0.1500 
 11 C       -1.6990     1.3700     0.5220 C.ar  1 <1>  -0.1500 
 12 N        5.0200     1.4420    -0.3440 N.pl3 1 <1>  -0.8380 
 13 C       -3.2860     3.6070     0.1190 C.ar  1 <1>  -0.1430 
 14 C       -2.9900     1.4040     1.0150 C.ar  1 <1>  -0.1500 
 15 C        6.2300     1.1530     0.2610 C.ar  1 <1>   0.4100 
 16 C       -3.7920     2.5180     0.8200 C.ar  1 <1>  -0.1430 
 17 C       -4.1280     4.8520    -0.1240 C.3   1 <1>  -0.0970 
 18 N        6.2930     1.2590     1.5840 N.ar  1 <1>  -0.6200 
 19 C        7.3140     0.7660    -0.5240 C.ar  1 <1>  -0.1500 
 20 C       -5.2080     2.5150     1.3790 C.3   1 <1>  -0.0970 
 21 C        7.4600     0.9640     2.1330 C.ar  1 <1>   0.1600 
 22 C        8.5210     0.4630     0.0590 C.ar  1 <1>  -0.1500 
 23 C        8.5860     0.5670     1.4340 C.ar  1 <1>  -0.1500 
 24 H        0.4680     3.3770    -0.9780 H     1 <1>   0.3700 
 25 H        2.3460     3.5530    -0.0850 H     1 <1>   0.0800 
 26 H        3.4940     3.5280    -1.3940 H     1 <1>   0.0800 
 27 H        3.7020     1.2620    -2.7690 H     1 <1>   0.0800 
 28 H        2.6510    -0.0410    -2.3100 H     1 <1>   0.0800 
 29 H        3.6370     1.9340     1.1730 H     1 <1>   0.0800 
 30 H        4.6810     3.2450     0.7010 H     1 <1>   0.0800 
 31 H        4.9530    -0.3620    -1.4500 H     1 <1>   0.0800 
 32 H        3.7890    -0.2630    -0.1590 H     1 <1>   0.0800 
 33 H       -1.6000     4.3990    -0.9150 H     1 <1>   0.1500 
 34 H       -1.0950     0.4980     0.6890 H     1 <1>   0.1500 
 35 H       -3.3640     0.5520     1.5530 H     1 <1>   0.1500 
 36 H       -3.5790     5.5890    -0.6820 H     1 <1>   0.0800 
 37 H       -4.4200     5.2880     0.8140 H     1 <1>   0.0800 
 38 H       -5.0100     4.5960    -0.6820 H     1 <1>   0.0800 
 39 H        7.1890     0.7160    -1.5880 H     1 <1>   0.1500 
 40 H       -5.9180     2.6280     0.5800 H     1 <1>   0.0800 
 41 H       -5.3300     3.3230     2.0770 H     1 <1>   0.0800 
 42 H       -5.4190     1.5930     1.8890 H     1 <1>   0.0800 
 43 H        7.5220     1.0440     3.2040 H     1 <1>   0.1500 
 44 H        9.3740     0.1610    -0.5240 H     1 <1>   0.1500 
 45 H        9.4990     0.3460     1.9570 H     1 <1>   0.1500 
@<TRIPOS>BOND
  1   1   2  2   
  2   2   3  am  
  3   2   4  am  
  4   3   5  1   
  5   3   6  1   
  6   4   7  1   
  7   4  24  1   
  8   5   8  1   
  9   5  25  1   
 10   5  26  1   
 11   6   9  1   
 12   6  27  1   
 13   6  28  1   
 14   7  10  ar  
 15   7  11  ar  
 16   8  12  1   
 17   8  29  1   
 18   8  30  1   
 19   9  12  1   
 20   9  31  1   
 21   9  32  1   
 22  10  13  ar  
 23  10  33  1   
 24  11  14  ar  
 25  11  34  1   
 26  12  15  1   
 27  13  16  ar  
 28  13  17  1   
 29  14  16  ar  
 30  14  35  1   
 31  15  18  ar  
 32  15  19  ar  
 33  16  20  1   
 34  17  36  1   
 35  17  37  1   
 36  17  38  1   
 37  18  21  ar  
 38  19  22  ar  
 39  19  39  1   
 40  20  40  1   
 41  20  41  1   
 42  20  42  1   
 43  21  23  ar  
 44  21  43  1   
 45  22  23  ar  
 46  22  44  1   
 47  23  45  1   
@<TRIPOS>SUBSTRUCTURE
  1 ****   3 GROUP 4 **** **** 0

# MOE 2024.06 (io_trps.svl 2023.06)
