@<TRIPOS>MOLECULE
NONAME
66 68 1 0 0 
SMALL
USER_CHARGES


@<TRIPOS>ATOM
  1 O        8.1100     1.0340     0.1250 O.3   1 <1>  -0.5600 
  2 C        9.4200     0.7470    -0.2550 C.3   1 <1>   0.2000 
  3 C        7.3940     1.8560    -0.7480 C.3   1 <1>   0.1200 
  4 C        9.8000    -0.5790     0.4010 C.3   1 <1>  -0.1600 
  5 C       10.3460     1.8700     0.2210 C.3   1 <1>  -0.1600 
  6 C        5.9920     2.0650    -0.1590 C.3   1 <1>   0.2000 
  7 C       11.2700    -0.9330     0.1330 C.3   1 <1>  -0.1600 
  8 C       11.8200     1.5240    -0.0430 C.3   1 <1>  -0.1600 
  9 O        5.5140     0.8290     0.2770 O.3   1 <1>  -0.6800 
 10 C        4.9890     2.6690    -1.1640 C.3   1 <1>   0.3430 
 11 C       12.2340     0.1820     0.6090 C.3   1 <1>  -0.0800 
 12 N        3.5920     2.3050    -0.7790 N.4   1 <1>  -0.9590 
 13 C       13.7500    -0.1710     0.4270 C.3   1 <1>   0.0000 
 14 C        2.6340     2.2900    -1.9430 C.3   1 <1>   0.3430 
 15 C        3.0650     3.1290     0.3700 C.3   1 <1>   0.3430 
 16 C       14.1480    -0.3660    -1.0470 C.3   1 <1>  -0.2400 
 17 C       14.1020    -1.4640     1.1870 C.3   1 <1>  -0.2400 
 18 C       14.6400     0.9420     1.0130 C.3   1 <1>  -0.2400 
 19 C        1.2060     1.8750    -1.5290 C.3   1 <1>   0.2090 
 20 C        1.6400     2.7110     0.7900 C.3   1 <1>   0.2090 
 21 N        0.7230     2.7040    -0.3870 N.pl3 1 <1>  -0.8380 
 22 C       -0.6340     2.6090    -0.1020 C.ar  1 <1>   0.1000 
 23 C       -1.1820     1.4610     0.4600 C.ar  1 <1>  -0.1500 
 24 C       -1.4700     3.6810    -0.3830 C.ar  1 <1>  -0.1500 
 25 C       -2.5360     1.3880     0.7340 C.ar  1 <1>  -0.1500 
 26 C       -2.8240     3.6120    -0.1100 C.ar  1 <1>  -0.1500 
 27 C       -3.3590     2.4640     0.4500 C.ar  1 <1>  -0.1500 
 28 H        9.4700     0.6390    -1.3270 H     1 <1>   0.0800 
 29 H        7.3360     1.3680    -1.7060 H     1 <1>   0.0800 
 30 H        7.9060     2.7970    -0.8520 H     1 <1>   0.0800 
 31 H        9.1710    -1.3620     0.0160 H     1 <1>   0.0800 
 32 H        9.6460    -0.5080     1.4640 H     1 <1>   0.0800 
 33 H       10.2070     2.0190     1.2780 H     1 <1>   0.0800 
 34 H       10.1130     2.7860    -0.2880 H     1 <1>   0.0800 
 35 H        6.0730     2.7030     0.7040 H     1 <1>   0.0800 
 36 H       11.3970    -1.1030    -0.9220 H     1 <1>   0.0800 
 37 H       11.4800    -1.8550     0.6430 H     1 <1>   0.0800 
 38 H       12.4160     2.3290     0.3440 H     1 <1>   0.0800 
 39 H       11.9770     1.4780    -1.1060 H     1 <1>   0.0800 
 40 H        6.2970     0.3410     0.6380 H     1 <1>   0.4000 
 41 H        5.2060     2.2590    -2.1370 H     1 <1>   0.0800 
 42 H        5.1080     3.7390    -1.2210 H     1 <1>   0.0800 
 43 H       12.0730     0.2930     1.6680 H     1 <1>   0.0800 
 44 H        3.6950     1.3370    -0.4150 H     1 <1>   0.4500 
 45 H        2.9890     1.6120    -2.7020 H     1 <1>   0.0800 
 46 H        2.5800     3.2750    -2.3760 H     1 <1>   0.0800 
 47 H        3.0370     4.1670     0.0860 H     1 <1>   0.0800 
 48 H        3.7200     3.0310     1.2200 H     1 <1>   0.0800 
 49 H       13.5950    -1.1710    -1.4950 H     1 <1>   0.0800 
 50 H       15.1940    -0.6060    -1.1220 H     1 <1>   0.0800 
 51 H       13.9760     0.5270    -1.6180 H     1 <1>   0.0800 
 52 H       15.1630    -1.6350     1.1760 H     1 <1>   0.0800 
 53 H       13.6360    -2.3210     0.7370 H     1 <1>   0.0800 
 54 H       13.7840    -1.3970     2.2120 H     1 <1>   0.0800 
 55 H       15.6730     0.6430     1.0110 H     1 <1>   0.0800 
 56 H       14.3550     1.1580     2.0270 H     1 <1>   0.0800 
 57 H       14.5700     1.8460     0.4360 H     1 <1>   0.0800 
 58 H        1.1940     0.8350    -1.2520 H     1 <1>   0.0800 
 59 H        0.5390     2.0030    -2.3640 H     1 <1>   0.0800 
 60 H        1.2660     3.4030     1.5250 H     1 <1>   0.0800 
 61 H        1.6650     1.7330     1.2390 H     1 <1>   0.0800 
 62 H       -0.5500     0.6230     0.6820 H     1 <1>   0.1500 
 63 H       -1.0520     4.5700    -0.8160 H     1 <1>   0.1500 
 64 H       -2.9520     0.4960     1.1690 H     1 <1>   0.1500 
 65 H       -3.4630     4.4500    -0.3320 H     1 <1>   0.1500 
 66 H       -4.4130     2.4090     0.6630 H     1 <1>   0.1500 
@<TRIPOS>BOND
  1   1   2  1   
  2   1   3  1   
  3   2   4  1   
  4   2   5  1   
  5   2  28  1   
  6   3   6  1   
  7   3  29  1   
  8   3  30  1   
  9   4   7  1   
 10   4  31  1   
 11   4  32  1   
 12   5   8  1   
 13   5  33  1   
 14   5  34  1   
 15   6   9  1   
 16   6  10  1   
 17   6  35  1   
 18   7  11  1   
 19   7  36  1   
 20   7  37  1   
 21   8  11  1   
 22   8  38  1   
 23   8  39  1   
 24   9  40  1   
 25  10  12  1   
 26  10  41  1   
 27  10  42  1   
 28  11  13  1   
 29  11  43  1   
 30  12  14  1   
 31  12  15  1   
 32  12  44  1   
 33  13  16  1   
 34  13  17  1   
 35  13  18  1   
 36  14  19  1   
 37  14  45  1   
 38  14  46  1   
 39  15  20  1   
 40  15  47  1   
 41  15  48  1   
 42  16  49  1   
 43  16  50  1   
 44  16  51  1   
 45  17  52  1   
 46  17  53  1   
 47  17  54  1   
 48  18  55  1   
 49  18  56  1   
 50  18  57  1   
 51  19  21  1   
 52  19  58  1   
 53  19  59  1   
 54  20  21  1   
 55  20  60  1   
 56  20  61  1   
 57  21  22  1   
 58  22  23  ar  
 59  22  24  ar  
 60  23  25  ar  
 61  23  62  1   
 62  24  26  ar  
 63  24  63  1   
 64  25  27  ar  
 65  25  64  1   
 66  26  27  ar  
 67  26  65  1   
 68  27  66  1   
@<TRIPOS>SUBSTRUCTURE
  1 ****   6 GROUP 4 **** **** 0

# MOE 2024.06 (io_trps.svl 2023.06)
