@<TRIPOS>MOLECULE
NONAME
52 54 1 0 0 
SMALL
USER_CHARGES


@<TRIPOS>ATOM
  1 S       -0.3400    -0.7040     1.4220 S.o2  1 <1>   1.4470 
  2 O       -0.4830    -0.8670     2.8490 O.2   1 <1>  -0.6500 
  3 O       -0.5240    -1.8360     0.5460 O.2   1 <1>  -0.6500 
  4 N       -1.5820     0.4070     1.0180 N.am  1 <1>  -0.7570 
  5 C        1.1730     0.2140     1.0340 C.ar  1 <1>  -0.0090 
  6 C       -1.7880     0.8640    -0.2740 C.ar  1 <1>   0.1990 
  7 C        1.9500     0.7890     2.0340 C.ar  1 <1>  -0.1500 
  8 C        1.5840     0.3950    -0.2820 C.ar  1 <1>  -0.1500 
  9 C       -1.4600     2.1700    -0.6480 C.ar  1 <1>  -0.1440 
 10 C       -2.3300     0.0050    -1.2230 C.ar  1 <1>  -0.1500 
 11 C        3.0930     1.5080     1.7330 C.ar  1 <1>  -0.1500 
 12 C        2.7240     1.1160    -0.5870 C.ar  1 <1>  -0.1500 
 13 C       -1.6760     2.5810    -1.9540 C.ar  1 <1>  -0.1500 
 14 C       -0.8710     3.1730     0.3410 C.3   1 <1>  -0.0170 
 15 C       -2.5410     0.4230    -2.5230 C.ar  1 <1>  -0.1500 
 16 C        3.5020     1.6810     0.4170 C.ar  1 <1>   0.1170 
 17 C       -2.2130     1.7150    -2.8900 C.ar  1 <1>  -0.1500 
 18 C       -1.9840     3.9250     1.0740 C.3   1 <1>  -0.2400 
 19 N        4.6580     2.4250     0.1570 N.am  1 <1>  -0.5470 
 20 C        5.5230     2.4110    -0.9010 C.2   1 <1>   0.6900 
 21 O        5.4260     1.5740    -1.7780 O.2   1 <1>  -0.5700 
 22 N        6.5280     3.3430    -0.9380 N.am  1 <1>  -0.6600 
 23 C        7.7130     3.1560    -1.8200 C.3   1 <1>   0.1400 
 24 C        6.4660     4.6780    -0.2810 C.3   1 <1>   0.1400 
 25 C        8.9960     3.3710    -1.0070 C.3   1 <1>  -0.1600 
 26 C        7.7290     4.8930     0.5600 C.3   1 <1>  -0.1600 
 27 C        8.9980     4.7280    -0.2880 C.3   1 <1>  -0.1600 
 28 H       -2.4170     0.1250     1.5200 H     1 <1>   0.4200 
 29 H        1.6550     0.6690     3.0640 H     1 <1>   0.1500 
 30 H        1.0020    -0.0320    -1.0810 H     1 <1>   0.1500 
 31 H       -2.5820    -1.0030    -0.9420 H     1 <1>   0.1500 
 32 H        3.6740     1.9340     2.5300 H     1 <1>   0.1500 
 33 H        3.0090     1.2380    -1.6170 H     1 <1>   0.1500 
 34 H       -1.4280     3.5850    -2.2520 H     1 <1>   0.1500 
 35 H       -0.2510     3.8770    -0.1850 H     1 <1>   0.0800 
 36 H       -0.2430     2.6750     1.0570 H     1 <1>   0.0800 
 37 H       -2.9570    -0.2550    -3.2480 H     1 <1>   0.1500 
 38 H       -2.3750     2.0460    -3.9010 H     1 <1>   0.1500 
 39 H       -2.6070     4.4480     0.3700 H     1 <1>   0.0800 
 40 H       -1.5600     4.6380     1.7590 H     1 <1>   0.0800 
 41 H       -2.5950     3.2340     1.6280 H     1 <1>   0.0800 
 42 H        5.0200     2.9700     0.9300 H     1 <1>   0.3700 
 43 H        7.6640     3.8640    -2.6290 H     1 <1>   0.0800 
 44 H        7.7190     2.1650    -2.2410 H     1 <1>   0.0800 
 45 H        5.5900     4.7690     0.3370 H     1 <1>   0.0800 
 46 H        6.4090     5.4350    -1.0450 H     1 <1>   0.0800 
 47 H        9.8450     3.3070    -1.6630 H     1 <1>   0.0800 
 48 H        9.0810     2.5770    -0.2850 H     1 <1>   0.0800 
 49 H        7.7380     4.1840     1.3690 H     1 <1>   0.0800 
 50 H        7.7080     5.8800     0.9880 H     1 <1>   0.0800 
 51 H        9.0440     5.5170    -1.0190 H     1 <1>   0.0800 
 52 H        9.8700     4.8060     0.3400 H     1 <1>   0.0800 
@<TRIPOS>BOND
  1   1   2  2   
  2   1   3  2   
  3   1   4  am  
  4   1   5  1   
  5   4   6  1   
  6   4  28  1   
  7   5   7  ar  
  8   5   8  ar  
  9   6   9  ar  
 10   6  10  ar  
 11   7  11  ar  
 12   7  29  1   
 13   8  12  ar  
 14   8  30  1   
 15   9  13  ar  
 16   9  14  1   
 17  10  15  ar  
 18  10  31  1   
 19  11  16  ar  
 20  11  32  1   
 21  12  16  ar  
 22  12  33  1   
 23  13  17  ar  
 24  13  34  1   
 25  14  18  1   
 26  14  35  1   
 27  14  36  1   
 28  15  17  ar  
 29  15  37  1   
 30  16  19  1   
 31  17  38  1   
 32  18  39  1   
 33  18  40  1   
 34  18  41  1   
 35  19  20  am  
 36  19  42  1   
 37  20  21  2   
 38  20  22  am  
 39  22  23  1   
 40  22  24  1   
 41  23  25  1   
 42  23  43  1   
 43  23  44  1   
 44  24  26  1   
 45  24  45  1   
 46  24  46  1   
 47  25  27  1   
 48  25  47  1   
 49  25  48  1   
 50  26  27  1   
 51  26  49  1   
 52  26  50  1   
 53  27  51  1   
 54  27  52  1   
@<TRIPOS>SUBSTRUCTURE
  1 ****  12 GROUP 4 **** **** 0

# MOE 2024.06 (io_trps.svl 2023.06)
