@<TRIPOS>MOLECULE
NONAME
44 46 1 0 0 
SMALL
USER_CHARGES


@<TRIPOS>ATOM
  1 CL       3.2990     0.4450     3.6120 Cl    1 <1>  -0.1770 
  2 C        3.4270     0.5270     1.8680 C.ar  1 <1>   0.1770 
  3 C        4.4350     1.2580     1.2480 C.ar  1 <1>  -0.1440 
  4 C        2.4780    -0.1700     1.1430 C.ar  1 <1>  -0.1500 
  5 C        4.4790     1.2820    -0.1500 C.ar  1 <1>   0.1170 
  6 C        5.4850     2.0250     2.0560 C.3   1 <1>  -0.0970 
  7 C        2.5240    -0.1420    -0.2370 C.ar  1 <1>  -0.1500 
  8 N        5.4840     2.0220    -0.7930 N.am  1 <1>  -0.5470 
  9 C        3.5170     0.5800    -0.8720 C.ar  1 <1>  -0.1500 
 10 C        5.9660     2.0670    -2.0690 C.2   1 <1>   0.5690 
 11 O        5.5520     1.3990    -2.9860 O.2   1 <1>  -0.5700 
 12 C        7.1190     3.0430    -2.3120 C.3   1 <1>   0.1710 
 13 N        7.8650     3.4040    -1.0670 N.3   1 <1>  -0.8100 
 14 C        8.6640     4.6330    -1.2730 C.3   1 <1>   0.1100 
 15 C        8.7770     2.3040    -0.6610 C.3   1 <1>   0.1100 
 16 C        9.4360     5.0500    -0.0070 C.3   1 <1>   0.2090 
 17 C        9.5630     2.6300     0.6230 C.3   1 <1>   0.2090 
 18 N       10.2910     3.9320     0.5040 N.pl3 1 <1>  -0.8380 
 19 C       11.5380     4.1410     1.0570 C.ar  1 <1>   0.7200 
 20 N       12.0880     3.1240     1.7210 N.ar  1 <1>  -0.6200 
 21 N       12.0880     5.3430     0.8850 N.ar  1 <1>  -0.6200 
 22 C       13.2720     3.3360     2.2420 C.ar  1 <1>   0.1600 
 23 C       13.2720     5.5270     1.4160 C.ar  1 <1>   0.1600 
 24 C       13.9190     4.5400     2.1160 C.ar  1 <1>  -0.1500 
 25 H        1.7140    -0.7250     1.6570 H     1 <1>   0.1500 
 26 H        5.3700     1.8930     3.1150 H     1 <1>   0.0800 
 27 H        5.4110     3.0780     1.8470 H     1 <1>   0.0800 
 28 H        6.4700     1.6850     1.7910 H     1 <1>   0.0800 
 29 H        1.7920    -0.6790    -0.8160 H     1 <1>   0.1500 
 30 H        6.0460     2.6260    -0.1840 H     1 <1>   0.3700 
 31 H        3.5340     0.5950    -1.9460 H     1 <1>   0.1500 
 32 H        6.6890     3.9310    -2.7390 H     1 <1>   0.0800 
 33 H        7.7900     2.6210    -3.0380 H     1 <1>   0.0800 
 34 H        8.0120     5.4410    -1.5540 H     1 <1>   0.0800 
 35 H        9.3720     4.4830    -2.0710 H     1 <1>   0.0800 
 36 H        9.4850     2.1070    -1.4480 H     1 <1>   0.0800 
 37 H        8.2110     1.4030    -0.4960 H     1 <1>   0.0800 
 38 H        8.7340     5.3300     0.7580 H     1 <1>   0.0800 
 39 H       10.0280     5.9160    -0.2420 H     1 <1>   0.0800 
 40 H       10.2480     1.8230     0.8100 H     1 <1>   0.0800 
 41 H        8.8830     2.6850     1.4550 H     1 <1>   0.0800 
 42 H       13.7370     2.5290     2.7820 H     1 <1>   0.1500 
 43 H       13.7370     6.4900     1.2900 H     1 <1>   0.1500 
 44 H       14.8880     4.7020     2.5470 H     1 <1>   0.1500 
@<TRIPOS>BOND
  1   1   2  1   
  2   2   3  ar  
  3   2   4  ar  
  4   3   5  ar  
  5   3   6  1   
  6   4   7  ar  
  7   4  25  1   
  8   5   8  1   
  9   5   9  ar  
 10   6  26  1   
 11   6  27  1   
 12   6  28  1   
 13   7   9  ar  
 14   7  29  1   
 15   8  10  am  
 16   8  30  1   
 17   9  31  1   
 18  10  11  2   
 19  10  12  1   
 20  12  13  1   
 21  12  32  1   
 22  12  33  1   
 23  13  14  1   
 24  13  15  1   
 25  14  16  1   
 26  14  34  1   
 27  14  35  1   
 28  15  17  1   
 29  15  36  1   
 30  15  37  1   
 31  16  18  1   
 32  16  38  1   
 33  16  39  1   
 34  17  18  1   
 35  17  40  1   
 36  17  41  1   
 37  18  19  1   
 38  19  20  ar  
 39  19  21  ar  
 40  20  22  ar  
 41  21  23  ar  
 42  22  24  ar  
 43  22  42  1   
 44  23  24  ar  
 45  23  43  1   
 46  24  44  1   
@<TRIPOS>SUBSTRUCTURE
  1 ****  15 GROUP 4 **** **** 0

# MOE 2024.06 (io_trps.svl 2023.06)
