@<TRIPOS>MOLECULE
NONAME
48 50 1 0 0 
SMALL
USER_CHARGES


@<TRIPOS>ATOM
  1 O        0.4820    -0.2270     1.2260 O.2   1 <1>  -0.5700 
  2 C        0.5080    -0.5480     0.0550 C.2   1 <1>   0.6900 
  3 N       -0.5170    -1.2170    -0.5140 N.am  1 <1>  -0.7300 
  4 N        1.5690    -0.2510    -0.7270 N.am  1 <1>  -0.7300 
  5 C       -1.7510    -1.6180     0.1780 C.3   1 <1>   0.2200 
  6 C        2.7860     0.4600    -0.2680 C.3   1 <1>   0.1400 
  7 C       -1.9330    -3.1320     0.0280 C.3   1 <1>  -0.1600 
  8 C       -2.9310    -0.8530    -0.4300 C.3   1 <1>  -0.1600 
  9 C        3.9360    -0.5310    -0.0840 C.3   1 <1>   0.0210 
 10 C       -3.2630    -3.5950     0.6400 C.3   1 <1>  -0.1600 
 11 C       -4.2640    -1.3120     0.1820 C.3   1 <1>  -0.1600 
 12 C        5.2440     0.1620     0.2640 C.2   1 <1>  -0.1810 
 13 C       -4.4480    -2.8290     0.0370 C.3   1 <1>  -0.1600 
 14 C        6.4840    -0.5160     0.3110 C.ar  1 <1>   0.0000 
 15 C        5.4790     1.4600     0.5770 C.2   1 <1>  -0.3020 
 16 C        7.4410     0.4310     0.6570 C.ar  1 <1>  -0.1520 
 17 C        6.8760    -1.8400     0.0920 C.ar  1 <1>  -0.1500 
 18 N        6.8110     1.6390     0.8190 N.pl3 1 <1>   0.0330 
 19 C        8.7870     0.0800     0.7850 C.ar  1 <1>  -0.1500 
 20 C        8.2000    -2.1950     0.2150 C.ar  1 <1>   0.0820 
 21 C        9.1600    -1.2260     0.5640 C.ar  1 <1>  -0.1500 
 22 O        8.5090    -3.5020    -0.0150 O.3   1 <1>  -0.3620 
 23 C        9.8360    -3.9650     0.0960 C.3   1 <1>   0.0400 
 24 H       -0.4940    -1.4020    -1.5100 H     1 <1>   0.3700 
 25 H        1.5820    -0.5990    -1.6810 H     1 <1>   0.3700 
 26 H       -1.6780    -1.3760     1.2260 H     1 <1>   0.0800 
 27 H        2.5910     0.9590     0.6670 H     1 <1>   0.0800 
 28 H        3.0570     1.2030    -0.9980 H     1 <1>   0.0800 
 29 H       -1.1200    -3.6360     0.5220 H     1 <1>   0.0800 
 30 H       -1.9170    -3.3970    -1.0140 H     1 <1>   0.0800 
 31 H       -2.9600    -1.0170    -1.4920 H     1 <1>   0.0800 
 32 H       -2.8010     0.1990    -0.2470 H     1 <1>   0.0800 
 33 H        4.0770    -1.0820    -0.9960 H     1 <1>   0.0800 
 34 H        3.6870    -1.2200     0.7030 H     1 <1>   0.0800 
 35 H       -3.2400    -3.4330     1.7050 H     1 <1>   0.0800 
 36 H       -3.3910    -4.6510     0.4720 H     1 <1>   0.0800 
 37 H       -5.0780    -0.8010    -0.3020 H     1 <1>   0.0800 
 38 H       -4.2840    -1.0490     1.2260 H     1 <1>   0.0800 
 39 H       -5.3580    -3.1290     0.5270 H     1 <1>   0.0800 
 40 H       -4.5400    -3.0790    -1.0070 H     1 <1>   0.0800 
 41 H        4.7820     2.2760     0.6490 H     1 <1>   0.1500 
 42 H        6.1410    -2.5760    -0.1710 H     1 <1>   0.1500 
 43 H        7.2710     2.5150     1.0830 H     1 <1>   0.2700 
 44 H        9.5130     0.8270     1.0530 H     1 <1>   0.1500 
 45 H       10.1950    -1.4910     0.6630 H     1 <1>   0.1500 
 46 H        9.8420    -5.0170    -0.1240 H     1 <1>   0.0800 
 47 H       10.1810    -3.8000     1.1010 H     1 <1>   0.0800 
 48 H       10.4490    -3.4400    -0.6160 H     1 <1>   0.0800 
@<TRIPOS>BOND
  1   1   2  2   
  2   2   3  am  
  3   2   4  am  
  4   3   5  1   
  5   3  24  1   
  6   4   6  1   
  7   4  25  1   
  8   5   7  1   
  9   5   8  1   
 10   5  26  1   
 11   6   9  1   
 12   6  27  1   
 13   6  28  1   
 14   7  10  1   
 15   7  29  1   
 16   7  30  1   
 17   8  11  1   
 18   8  31  1   
 19   8  32  1   
 20   9  12  1   
 21   9  33  1   
 22   9  34  1   
 23  10  13  1   
 24  10  35  1   
 25  10  36  1   
 26  11  13  1   
 27  11  37  1   
 28  11  38  1   
 29  12  14  1   
 30  12  15  2   
 31  13  39  1   
 32  13  40  1   
 33  14  16  ar  
 34  14  17  ar  
 35  15  18  1   
 36  15  41  1   
 37  16  18  1   
 38  16  19  ar  
 39  17  20  ar  
 40  17  42  1   
 41  18  43  1   
 42  19  21  ar  
 43  19  44  1   
 44  20  21  ar  
 45  20  22  1   
 46  21  45  1   
 47  22  23  1   
 48  23  46  1   
 49  23  47  1   
 50  23  48  1   
@<TRIPOS>SUBSTRUCTURE
  1 ****   9 GROUP 4 **** **** 0

# MOE 2024.06 (io_trps.svl 2023.06)
