@<TRIPOS>MOLECULE
NONAME
47 48 1 0 0 
SMALL
USER_CHARGES


@<TRIPOS>ATOM
  1 S       -0.8510     0.5090    -1.2470 S.3   1 <1>  -0.3320 
  2 C       -0.3810     1.6380     0.0900 C.ar  1 <1>   0.1020 
  3 C        0.6820     0.0330    -2.1600 C.3   1 <1>   0.0700 
  4 C       -1.3100     1.9830     1.0860 C.ar  1 <1>   0.0860 
  5 C        0.9130     2.1400     0.1030 C.ar  1 <1>  -0.1500 
  6 C        0.3010    -1.0420    -3.1750 C.3   1 <1>  -0.2400 
  7 C       -2.6910     1.5280     1.1480 C.2   1 <1>   0.5440 
  8 C       -0.8550     2.8370     2.0950 C.ar  1 <1>  -0.1500 
  9 C        1.3220     2.9880     1.1150 C.ar  1 <1>  -0.1500 
 10 O       -3.2190     1.3260     2.2250 O.2   1 <1>  -0.5700 
 11 N       -3.4530     1.3670     0.0260 N.am  1 <1>  -0.7300 
 12 C        0.4340     3.3340     2.1160 C.ar  1 <1>  -0.1500 
 13 C       -4.8460     0.8630     0.0000 C.3   1 <1>   0.1400 
 14 C       -5.8230     2.0360     0.0530 C.3   1 <1>  -0.0170 
 15 C       -7.2550     1.5280     0.0000 C.ar  1 <1>  -0.1430 
 16 C       -7.9350     1.4620    -1.2040 C.ar  1 <1>  -0.1500 
 17 C       -7.8920     1.1220     1.1590 C.ar  1 <1>  -0.1500 
 18 C       -9.2390     0.9990    -1.2680 C.ar  1 <1>   0.0830 
 19 C       -9.1910     0.6470     1.1140 C.ar  1 <1>  -0.1500 
 20 O       -9.7890     1.0010    -2.5160 O.3   1 <1>  -0.3630 
 21 C       -9.8810     0.5680    -0.0940 C.ar  1 <1>   0.0830 
 22 C      -11.1600     1.2720    -2.7020 C.3   1 <1>   0.0400 
 23 O      -11.1500     0.0670    -0.1550 O.3   1 <1>  -0.3630 
 24 C      -11.7540    -0.5730     0.9470 C.3   1 <1>   0.0400 
 25 H        1.3880    -0.3400    -1.4380 H     1 <1>   0.0800 
 26 H        1.0610     0.9150    -2.6460 H     1 <1>   0.0800 
 27 H        1.6210     1.8900    -0.6610 H     1 <1>   0.1500 
 28 H       -0.1090    -1.8990    -2.6700 H     1 <1>   0.0800 
 29 H        1.1700    -1.3500    -3.7280 H     1 <1>   0.0800 
 30 H       -0.4300    -0.6590    -3.8650 H     1 <1>   0.0800 
 31 H       -1.5350     3.1150     2.8830 H     1 <1>   0.1500 
 32 H        2.3260     3.3760     1.1270 H     1 <1>   0.1500 
 33 H       -2.9660     1.3720    -0.8750 H     1 <1>   0.3700 
 34 H        0.7470     3.9900     2.9100 H     1 <1>   0.1500 
 35 H       -5.0120     0.2160     0.8450 H     1 <1>   0.0800 
 36 H       -5.0030     0.2910    -0.8980 H     1 <1>   0.0800 
 37 H       -5.6400     2.6960    -0.7760 H     1 <1>   0.0800 
 38 H       -5.6680     2.5850     0.9650 H     1 <1>   0.0800 
 39 H       -7.4580     1.7730    -2.1150 H     1 <1>   0.1500 
 40 H       -7.3740     1.1700     2.1020 H     1 <1>   0.1500 
 41 H       -9.6430     0.3420     2.0380 H     1 <1>   0.1500 
 42 H      -11.3020     1.6010    -3.7150 H     1 <1>   0.0800 
 43 H      -11.4620     2.0440    -2.0160 H     1 <1>   0.0800 
 44 H      -11.7180     0.3690    -2.5320 H     1 <1>   0.0800 
 45 H      -12.7070    -0.9560     0.6300 H     1 <1>   0.0800 
 46 H      -11.8940     0.1460     1.7350 H     1 <1>   0.0800 
 47 H      -11.1230    -1.3830     1.2690 H     1 <1>   0.0800 
@<TRIPOS>BOND
  1   1   2  1   
  2   1   3  1   
  3   2   4  ar  
  4   2   5  ar  
  5   3   6  1   
  6   3  25  1   
  7   3  26  1   
  8   4   7  1   
  9   4   8  ar  
 10   5   9  ar  
 11   5  27  1   
 12   6  28  1   
 13   6  29  1   
 14   6  30  1   
 15   7  10  2   
 16   7  11  am  
 17   8  12  ar  
 18   8  31  1   
 19   9  12  ar  
 20   9  32  1   
 21  11  13  1   
 22  11  33  1   
 23  12  34  1   
 24  13  14  1   
 25  13  35  1   
 26  13  36  1   
 27  14  15  1   
 28  14  37  1   
 29  14  38  1   
 30  15  16  ar  
 31  15  17  ar  
 32  16  18  ar  
 33  16  39  1   
 34  17  19  ar  
 35  17  40  1   
 36  18  20  1   
 37  18  21  ar  
 38  19  21  ar  
 39  19  41  1   
 40  20  22  1   
 41  21  23  1   
 42  22  42  1   
 43  22  43  1   
 44  22  44  1   
 45  23  24  1   
 46  24  45  1   
 47  24  46  1   
 48  24  47  1   
@<TRIPOS>SUBSTRUCTURE
  1 ****  13 GROUP 4 **** **** 0

# MOE 2024.06 (io_trps.svl 2023.06)
