@<TRIPOS>MOLECULE
NONAME
52 54 1 0 0 
SMALL
USER_CHARGES


@<TRIPOS>ATOM
  1 O        0.2340    -1.1110    -0.6840 O.3   1 <1>  -0.3630 
  2 C       -1.0470    -1.5550    -0.7230 C.ar  1 <1>   0.0830 
  3 C        0.7370    -0.6440     0.5530 C.3   1 <1>   0.2640 
  4 C       -1.5560    -2.5360     0.1340 C.ar  1 <1>   0.0830 
  5 C       -1.8770    -0.9890    -1.6750 C.ar  1 <1>  -0.1500 
  6 C        1.9150     0.2840     0.2940 C.ar  1 <1>  -0.1440 
  7 O       -0.7960    -3.1730     1.0540 O.3   1 <1>  -0.3630 
  8 C       -2.8910    -2.8930     0.0570 C.ar  1 <1>  -0.1500 
  9 C       -3.2090    -1.3580    -1.7560 C.ar  1 <1>  -0.1500 
 10 C        1.9400     1.5570     0.8460 C.ar  1 <1>  -0.1500 
 11 C        2.9800    -0.1350    -0.4890 C.ar  1 <1>  -0.1500 
 12 C        0.1480    -4.0940     0.5460 C.3   1 <1>   0.0400 
 13 C       -3.7270    -2.3040    -0.8820 C.ar  1 <1>  -0.1430 
 14 C        3.0160     2.3980     0.6180 C.ar  1 <1>  -0.1500 
 15 C        4.0570     0.7040    -0.7170 C.ar  1 <1>  -0.1500 
 16 C       -5.1930    -2.6890    -0.9480 C.3   1 <1>   0.4860 
 17 C        4.0760     1.9720    -0.1630 C.ar  1 <1>  -0.1500 
 18 N       -5.8960    -2.0950     0.2210 N.4   1 <1>  -0.9590 
 19 C       -7.2860    -2.6490     0.3630 C.3   1 <1>   0.3430 
 20 C       -5.8100    -0.5960     0.1890 C.3   1 <1>   0.3430 
 21 C       -8.3490    -1.6580    -0.1350 C.3   1 <1>  -0.0800 
 22 C       -6.8630     0.0180     1.1110 C.3   1 <1>  -0.1600 
 23 C       -8.2950    -0.3470     0.6740 C.3   1 <1>  -0.1600 
 24 C       -9.7530    -2.2730    -0.0660 C.3   1 <1>  -0.2400 
 25 H        1.0570    -1.4870     1.1370 H     1 <1>   0.0800 
 26 H       -0.0520    -0.1260     1.0690 H     1 <1>   0.0800 
 27 H       -1.4700    -0.2530    -2.3470 H     1 <1>   0.1500 
 28 H       -3.2510    -3.6430     0.7390 H     1 <1>   0.1500 
 29 H       -3.8270    -0.8970    -2.5090 H     1 <1>   0.1500 
 30 H        1.1230     1.9020     1.4550 H     1 <1>   0.1500 
 31 H        2.9700    -1.1180    -0.9270 H     1 <1>   0.1500 
 32 H        0.6780    -4.5260     1.3750 H     1 <1>   0.0800 
 33 H        0.8360    -3.5800    -0.1020 H     1 <1>   0.0800 
 34 H       -0.3730    -4.8610     0.0010 H     1 <1>   0.0800 
 35 H        3.0290     3.3840     1.0490 H     1 <1>   0.1500 
 36 H        4.8780     0.3710    -1.3270 H     1 <1>   0.1500 
 37 H       -5.2770    -3.7640    -0.9250 H     1 <1>   0.0800 
 38 H       -5.6290    -2.3310    -1.8660 H     1 <1>   0.0800 
 39 H        4.9120     2.6250    -0.3400 H     1 <1>   0.1500 
 40 H       -5.3620    -2.3920     1.0470 H     1 <1>   0.4500 
 41 H       -7.4830    -2.8500     1.4040 H     1 <1>   0.0800 
 42 H       -7.3750    -3.5800    -0.1740 H     1 <1>   0.0800 
 43 H       -5.9870    -0.2430    -0.8150 H     1 <1>   0.0800 
 44 H       -4.8240    -0.2770     0.4870 H     1 <1>   0.0800 
 45 H       -8.1430    -1.4410    -1.1700 H     1 <1>   0.0800 
 46 H       -6.7550     1.0890     1.1140 H     1 <1>   0.0800 
 47 H       -6.6860    -0.3210     2.1170 H     1 <1>   0.0800 
 48 H       -8.9090    -0.4210     1.5570 H     1 <1>   0.0800 
 49 H       -8.7030     0.4470     0.0700 H     1 <1>   0.0800 
 50 H      -10.0130    -2.5320     0.9470 H     1 <1>   0.0800 
 51 H       -9.8100    -3.1600    -0.6720 H     1 <1>   0.0800 
 52 H      -10.4840    -1.5720    -0.4320 H     1 <1>   0.0800 
@<TRIPOS>BOND
  1   1   2  1   
  2   1   3  1   
  3   2   4  ar  
  4   2   5  ar  
  5   3   6  1   
  6   3  25  1   
  7   3  26  1   
  8   4   7  1   
  9   4   8  ar  
 10   5   9  ar  
 11   5  27  1   
 12   6  10  ar  
 13   6  11  ar  
 14   7  12  1   
 15   8  13  ar  
 16   8  28  1   
 17   9  13  ar  
 18   9  29  1   
 19  10  14  ar  
 20  10  30  1   
 21  11  15  ar  
 22  11  31  1   
 23  12  32  1   
 24  12  33  1   
 25  12  34  1   
 26  13  16  1   
 27  14  17  ar  
 28  14  35  1   
 29  15  17  ar  
 30  15  36  1   
 31  16  18  1   
 32  16  37  1   
 33  16  38  1   
 34  17  39  1   
 35  18  19  1   
 36  18  20  1   
 37  18  40  1   
 38  19  21  1   
 39  19  41  1   
 40  19  42  1   
 41  20  22  1   
 42  20  43  1   
 43  20  44  1   
 44  21  23  1   
 45  21  24  1   
 46  21  45  1   
 47  22  23  1   
 48  22  46  1   
 49  22  47  1   
 50  23  48  1   
 51  23  49  1   
 52  24  50  1   
 53  24  51  1   
 54  24  52  1   
@<TRIPOS>SUBSTRUCTURE
  1 ****   2 GROUP 4 **** **** 0

# MOE 2024.06 (io_trps.svl 2023.06)
