@<TRIPOS>MOLECULE
NONAME
37 38 1 0 0 
SMALL
USER_CHARGES


@<TRIPOS>ATOM
  1 BR       0.4650     0.7240    -2.1750 Br    1 <1>  -0.1110 
  2 C        1.8320     1.3980    -0.9910 C.ar  1 <1>   0.1110 
  3 C        1.7090     2.6720    -0.4580 C.ar  1 <1>   0.0830 
  4 C        2.8980     0.5710    -0.7010 C.ar  1 <1>  -0.1500 
  5 O        0.6220     3.4220    -0.7610 O.3   1 <1>  -0.3630 
  6 C        2.7290     3.1240     0.3850 C.ar  1 <1>   0.0830 
  7 C        3.9100     1.0070     0.1530 C.ar  1 <1>   0.0860 
  8 C       -0.2990     3.6430     0.2840 C.3   1 <1>   0.0400 
  9 O        2.7380     4.3620     0.9360 O.3   1 <1>  -0.3630 
 10 C        3.7910     2.2900     0.6940 C.ar  1 <1>  -0.1500 
 11 C        5.0340     0.1460     0.4650 C.2   1 <1>   0.5440 
 12 C        2.7830     5.4600     0.0520 C.3   1 <1>   0.1200 
 13 O        4.8310    -1.0120     0.7790 O.2   1 <1>  -0.5700 
 14 N        6.3340     0.5950     0.4010 N.am  1 <1>  -0.6600 
 15 C        3.0690     6.7130     0.8720 C.3   1 <1>  -0.2400 
 16 C        7.4820    -0.2800     0.7260 C.3   1 <1>   0.1400 
 17 C        6.7830     1.8110    -0.3140 C.3   1 <1>   0.1400 
 18 C        8.7170     0.5350     0.3570 C.3   1 <1>  -0.1600 
 19 C        8.2270     1.5180    -0.7030 C.3   1 <1>  -0.1600 
 20 H        2.9500    -0.4160    -1.1280 H     1 <1>   0.1500 
 21 H       -1.1240     4.2080    -0.1100 H     1 <1>   0.0800 
 22 H        0.1810     4.1930     1.0730 H     1 <1>   0.0800 
 23 H       -0.6450     2.6910     0.6480 H     1 <1>   0.0800 
 24 H        4.5450     2.6440     1.3720 H     1 <1>   0.1500 
 25 H        1.8360     5.5450    -0.4510 H     1 <1>   0.0800 
 26 H        3.5630     5.2870    -0.6690 H     1 <1>   0.0800 
 27 H        2.2880     6.8680     1.5950 H     1 <1>   0.0800 
 28 H        3.1110     7.5700     0.2240 H     1 <1>   0.0800 
 29 H        4.0140     6.6180     1.3780 H     1 <1>   0.0800 
 30 H        7.4230    -1.1740     0.1280 H     1 <1>   0.0800 
 31 H        7.4730    -0.5460     1.7700 H     1 <1>   0.0800 
 32 H        6.7450     2.6500     0.3600 H     1 <1>   0.0800 
 33 H        6.1740     2.0060    -1.1800 H     1 <1>   0.0800 
 34 H        9.5160    -0.0910     0.0010 H     1 <1>   0.0800 
 35 H        9.0530     1.0710     1.2280 H     1 <1>   0.0800 
 36 H        8.8220     2.4130    -0.7400 H     1 <1>   0.0800 
 37 H        8.2400     1.0470    -1.6700 H     1 <1>   0.0800 
@<TRIPOS>BOND
  1   1   2  1   
  2   2   3  ar  
  3   2   4  ar  
  4   3   5  1   
  5   3   6  ar  
  6   4   7  ar  
  7   4  20  1   
  8   5   8  1   
  9   6   9  1   
 10   6  10  ar  
 11   7  10  ar  
 12   7  11  1   
 13   8  21  1   
 14   8  22  1   
 15   8  23  1   
 16   9  12  1   
 17  10  24  1   
 18  11  13  2   
 19  11  14  am  
 20  12  15  1   
 21  12  25  1   
 22  12  26  1   
 23  14  16  1   
 24  14  17  1   
 25  15  27  1   
 26  15  28  1   
 27  15  29  1   
 28  16  18  1   
 29  16  30  1   
 30  16  31  1   
 31  17  19  1   
 32  17  32  1   
 33  17  33  1   
 34  18  19  1   
 35  18  34  1   
 36  18  35  1   
 37  19  36  1   
 38  19  37  1   
@<TRIPOS>SUBSTRUCTURE
  1 ****  10 GROUP 4 **** **** 0

# MOE 2024.06 (io_trps.svl 2023.06)
