@<TRIPOS>MOLECULE
NONAME
41 42 1 0 0 
SMALL
USER_CHARGES


@<TRIPOS>ATOM
  1 CL      -0.0490    -0.8400    -2.1700 Cl    1 <1>  -0.1770 
  2 C       -0.2590     0.2100    -0.7890 C.ar  1 <1>   0.1770 
  3 C        0.6290     1.2360    -0.5150 C.ar  1 <1>   0.3960 
  4 C       -1.3340     0.0320     0.0470 C.ar  1 <1>   0.1600 
  5 N        0.4290     2.0360     0.5330 N.ar  1 <1>  -0.6200 
  6 C        1.8060     1.4690    -1.3320 C.2   1 <1>   0.5440 
  7 N       -1.5380     0.8070     1.0930 N.ar  1 <1>  -0.6200 
  8 C       -0.6340     1.7590     1.2610 C.ar  1 <1>   0.7220 
  9 O        2.7340     0.6810    -1.3250 O.2   1 <1>  -0.5700 
 10 N        1.9780     2.6510    -2.0070 N.am  1 <1>  -0.7300 
 11 S       -0.8460     2.8260     2.6730 S.3   1 <1>  -0.3310 
 12 C        3.0310     2.9620    -3.0090 C.3   1 <1>   0.1400 
 13 C       -2.3860     2.2280     3.5060 C.3   1 <1>  -0.0100 
 14 C        4.4560     3.0110    -2.4250 C.3   1 <1>  -0.1600 
 15 C        4.5680     3.6530    -1.0380 C.3   1 <1>   0.3430 
 16 N        4.3360     2.6190    -0.0010 N.4   1 <1>  -0.9590 
 17 C        3.6090     3.1480     1.2030 C.3   1 <1>   0.3430 
 18 C        5.5740     1.8720     0.3920 C.3   1 <1>   0.3430 
 19 C        3.4120     2.0500     2.2650 C.3   1 <1>   0.1200 
 20 C        5.2660     0.8290     1.4830 C.3   1 <1>   0.1200 
 21 O        4.6340     1.4390     2.5720 O.3   1 <1>  -0.5600 
 22 H       -2.0370    -0.7610    -0.1490 H     1 <1>   0.1500 
 23 H        1.1860     3.3060    -2.0140 H     1 <1>   0.3700 
 24 H        2.8020     3.9190    -3.4490 H     1 <1>   0.0800 
 25 H        2.9950     2.2280    -3.7990 H     1 <1>   0.0800 
 26 H       -2.5560     2.8470     4.3680 H     1 <1>   0.0800 
 27 H       -2.2320     1.2030     3.7930 H     1 <1>   0.0800 
 28 H       -3.1980     2.3130     2.8050 H     1 <1>   0.0800 
 29 H        5.0540     3.5880    -3.1070 H     1 <1>   0.0800 
 30 H        4.8770     2.0210    -2.4200 H     1 <1>   0.0800 
 31 H        3.8350     4.4390    -0.9540 H     1 <1>   0.0800 
 32 H        5.5470     4.0850    -0.9050 H     1 <1>   0.0800 
 33 H        3.7140     1.9160    -0.4470 H     1 <1>   0.4500 
 34 H        2.6450     3.5330     0.9120 H     1 <1>   0.0800 
 35 H        4.1720     3.9530     1.6450 H     1 <1>   0.0800 
 36 H        6.3120     2.5590     0.7740 H     1 <1>   0.0800 
 37 H        5.9910     1.3740    -0.4670 H     1 <1>   0.0800 
 38 H        2.7270     1.2950     1.9190 H     1 <1>   0.0800 
 39 H        3.0190     2.4770     3.1720 H     1 <1>   0.0800 
 40 H        6.1780     0.3840     1.8400 H     1 <1>   0.0800 
 41 H        4.6280     0.0500     1.1010 H     1 <1>   0.0800 
@<TRIPOS>BOND
  1   1   2  1   
  2   2   3  ar  
  3   2   4  ar  
  4   3   5  ar  
  5   3   6  1   
  6   4   7  ar  
  7   4  22  1   
  8   5   8  ar  
  9   6   9  2   
 10   6  10  am  
 11   7   8  ar  
 12   8  11  1   
 13  10  12  1   
 14  10  23  1   
 15  11  13  1   
 16  12  14  1   
 17  12  24  1   
 18  12  25  1   
 19  13  26  1   
 20  13  27  1   
 21  13  28  1   
 22  14  15  1   
 23  14  29  1   
 24  14  30  1   
 25  15  16  1   
 26  15  31  1   
 27  15  32  1   
 28  16  17  1   
 29  16  18  1   
 30  16  33  1   
 31  17  19  1   
 32  17  34  1   
 33  17  35  1   
 34  18  20  1   
 35  18  36  1   
 36  18  37  1   
 37  19  21  1   
 38  19  38  1   
 39  19  39  1   
 40  20  21  1   
 41  20  40  1   
 42  20  41  1   
@<TRIPOS>SUBSTRUCTURE
  1 ****   6 GROUP 4 **** **** 0

# MOE 2024.06 (io_trps.svl 2023.06)
