@<TRIPOS>MOLECULE
NONAME
42 44 1 0 0 
SMALL
USER_CHARGES


@<TRIPOS>ATOM
  1 CL       0.7790    -0.1010     1.8060 Cl    1 <1>  -0.1770 
  2 C       -0.6260    -0.7620     0.9940 C.ar  1 <1>   0.1770 
  3 C       -0.4530    -1.7510     0.0230 C.ar  1 <1>   0.1170 
  4 C       -1.8730    -0.2770     1.3350 C.ar  1 <1>  -0.1500 
  5 N        0.8400    -2.2100    -0.2760 N.am  1 <1>  -0.5470 
  6 C       -1.5900    -2.2510    -0.6080 C.ar  1 <1>  -0.1500 
  7 C       -2.9780    -0.7950     0.6880 C.ar  1 <1>   0.1770 
  8 C        1.3800    -2.8060    -1.3780 C.2   1 <1>   0.5690 
  9 C       -2.8490    -1.7750    -0.2790 C.ar  1 <1>  -0.1500 
 10 CL      -4.5670    -0.1990     1.1000 Cl    1 <1>  -0.1770 
 11 O        0.7460    -3.1280    -2.3540 O.2   1 <1>  -0.5700 
 12 C        2.8910    -3.0480    -1.3440 C.3   1 <1>   0.1710 
 13 N        3.6070    -2.1850    -0.3540 N.3   1 <1>  -0.8100 
 14 C        4.9550    -2.7210    -0.0660 C.3   1 <1>   0.1100 
 15 C        3.7170    -0.7880    -0.8420 C.3   1 <1>   0.1100 
 16 C        5.6830    -1.8700     0.9870 C.3   1 <1>   0.1400 
 17 C        4.4160     0.1200     0.1850 C.3   1 <1>   0.1400 
 18 N        5.7490    -0.4410     0.5560 N.am  1 <1>  -0.6600 
 19 C        6.9420     0.1550     0.1950 C.2   1 <1>   0.7150 
 20 O        7.9080    -0.5630    -0.0010 O.2   1 <1>  -0.5700 
 21 C        7.0540     1.5930     0.0580 C.2   1 <1>   0.0550 
 22 O        7.8210     2.1380    -0.8830 O.3   1 <1>  -0.2800 
 23 C        6.4750     2.6020     0.7710 C.2   1 <1>  -0.1500 
 24 C        7.7460     3.4460    -0.7920 C.2   1 <1>  -0.0100 
 25 C        6.9230     3.8020     0.2170 C.2   1 <1>  -0.1500 
 26 H       -1.9840     0.4850     2.0850 H     1 <1>   0.1500 
 27 H        1.5760    -1.9470     0.3920 H     1 <1>   0.3700 
 28 H       -1.4950    -3.0170    -1.3580 H     1 <1>   0.1500 
 29 H       -3.7260    -2.1610    -0.7680 H     1 <1>   0.1500 
 30 H        3.2940    -2.8940    -2.3290 H     1 <1>   0.0800 
 31 H        3.0360    -4.0810    -1.0860 H     1 <1>   0.0800 
 32 H        5.5470    -2.7450    -0.9670 H     1 <1>   0.0800 
 33 H        4.8700    -3.7280     0.3050 H     1 <1>   0.0800 
 34 H        2.7360    -0.3890    -1.0400 H     1 <1>   0.0800 
 35 H        4.2740    -0.7650    -1.7630 H     1 <1>   0.0800 
 36 H        6.6710    -2.2660     1.1460 H     1 <1>   0.0800 
 37 H        5.1520    -1.9320     1.9200 H     1 <1>   0.0800 
 38 H        3.8050     0.1980     1.0670 H     1 <1>   0.0800 
 39 H        4.5180     1.1020    -0.2410 H     1 <1>   0.0800 
 40 H        5.8050     2.5130     1.6070 H     1 <1>   0.1500 
 41 H        8.3110     4.0500    -1.4810 H     1 <1>   0.1500 
 42 H        6.6560     4.7900     0.5480 H     1 <1>   0.1500 
@<TRIPOS>BOND
  1   1   2  1   
  2   2   3  ar  
  3   2   4  ar  
  4   3   5  1   
  5   3   6  ar  
  6   4   7  ar  
  7   4  26  1   
  8   5   8  am  
  9   5  27  1   
 10   6   9  ar  
 11   6  28  1   
 12   7   9  ar  
 13   7  10  1   
 14   8  11  2   
 15   8  12  1   
 16   9  29  1   
 17  12  13  1   
 18  12  30  1   
 19  12  31  1   
 20  13  14  1   
 21  13  15  1   
 22  14  16  1   
 23  14  32  1   
 24  14  33  1   
 25  15  17  1   
 26  15  34  1   
 27  15  35  1   
 28  16  18  1   
 29  16  36  1   
 30  16  37  1   
 31  17  18  1   
 32  17  38  1   
 33  17  39  1   
 34  18  19  am  
 35  19  20  2   
 36  19  21  1   
 37  21  22  1   
 38  21  23  2   
 39  22  24  1   
 40  23  25  1   
 41  23  40  1   
 42  24  25  2   
 43  24  41  1   
 44  25  42  1   
@<TRIPOS>SUBSTRUCTURE
  1 ****  15 GROUP 4 **** **** 0

# MOE 2024.06 (io_trps.svl 2023.06)
