@<TRIPOS>MOLECULE
NONAME
33 34 1 0 0 
SMALL
USER_CHARGES


@<TRIPOS>ATOM
  1 S       -0.1020     0.0940    -0.5370 S.o2  1 <1>   1.4470 
  2 O       -0.5130     1.4560    -0.7660 O.2   1 <1>  -0.6500 
  3 O       -0.6710    -0.9830    -1.3100 O.2   1 <1>  -0.6500 
  4 N       -0.6780    -0.2230     0.9820 N.am  1 <1>  -0.9780 
  5 C        1.6990    -0.0470    -0.3830 C.ar  1 <1>  -0.0090 
  6 C        2.4350     0.8980     0.3220 C.ar  1 <1>  -0.1500 
  7 C        2.3940    -1.1060    -0.9560 C.ar  1 <1>  -0.1500 
  8 C        3.8080     0.7930     0.4480 C.ar  1 <1>  -0.1500 
  9 C        3.7680    -1.2140    -0.8330 C.ar  1 <1>  -0.1500 
 10 C        4.5000    -0.2670    -0.1250 C.ar  1 <1>   0.1170 
 11 N        5.8920    -0.3260     0.0160 N.am  1 <1>  -0.5470 
 12 C        6.7620    -1.3780    -0.0420 C.2   1 <1>   0.6900 
 13 O        6.3650    -2.5230    -0.1510 O.2   1 <1>  -0.5700 
 14 N        8.1050    -1.1240     0.0450 N.am  1 <1>  -0.6600 
 15 C        8.7520     0.2060     0.0140 C.3   1 <1>   0.1400 
 16 C        9.1110    -2.2050    -0.0410 C.3   1 <1>   0.1400 
 17 C       10.2440    -0.0820     0.1330 C.3   1 <1>  -0.1600 
 18 C       10.4110    -1.4990    -0.4070 C.3   1 <1>  -0.1600 
 19 H       -1.0600    -1.1610     0.8980 H     1 <1>   0.4200 
 20 H       -1.4770     0.4000     1.0630 H     1 <1>   0.4200 
 21 H        1.9200     1.7280     0.7780 H     1 <1>   0.1500 
 22 H        1.8570    -1.8590    -1.5080 H     1 <1>   0.1500 
 23 H        4.3460     1.5410     1.0020 H     1 <1>   0.1500 
 24 H        4.2730    -2.0430    -1.2950 H     1 <1>   0.1500 
 25 H        6.3460     0.5350     0.2900 H     1 <1>   0.3700 
 26 H        8.4110     0.8240     0.8270 H     1 <1>   0.0800 
 27 H        8.5380     0.6810    -0.9290 H     1 <1>   0.0800 
 28 H        8.8330    -2.9360    -0.7820 H     1 <1>   0.0800 
 29 H        9.1930    -2.6810     0.9210 H     1 <1>   0.0800 
 30 H       10.5240    -0.0540     1.1720 H     1 <1>   0.0800 
 31 H       10.8360     0.6360    -0.4080 H     1 <1>   0.0800 
 32 H       10.5030    -1.4750    -1.4790 H     1 <1>   0.0800 
 33 H       11.2680    -2.0010     0.0070 H     1 <1>   0.0800 
@<TRIPOS>BOND
  1   1   2  2   
  2   1   3  2   
  3   1   4  am  
  4   1   5  1   
  5   4  19  1   
  6   4  20  1   
  7   5   6  ar  
  8   5   7  ar  
  9   6   8  ar  
 10   6  21  1   
 11   7   9  ar  
 12   7  22  1   
 13   8  10  ar  
 14   8  23  1   
 15   9  10  ar  
 16   9  24  1   
 17  10  11  1   
 18  11  12  am  
 19  11  25  1   
 20  12  13  2   
 21  12  14  am  
 22  14  15  1   
 23  14  16  1   
 24  15  17  1   
 25  15  26  1   
 26  15  27  1   
 27  16  18  1   
 28  16  28  1   
 29  16  29  1   
 30  17  18  1   
 31  17  30  1   
 32  17  31  1   
 33  18  32  1   
 34  18  33  1   
@<TRIPOS>SUBSTRUCTURE
  1 ****  10 GROUP 4 **** **** 0

# MOE 2024.06 (io_trps.svl 2023.06)
