@<TRIPOS>MOLECULE
NONAME
46 48 1 0 0 
SMALL
USER_CHARGES


@<TRIPOS>ATOM
  1 O       -0.6950     1.3030    -0.1750 O.2   1 <1>  -0.5700 
  2 C       -0.2800     2.2870     0.3980 C.2   1 <1>   0.5440 
  3 N       -1.2180     3.1770     0.8190 N.am  1 <1>  -0.7300 
  4 C        1.1440     2.5180     0.5560 C.ar  1 <1>   0.0860 
  5 C       -1.0480     4.6450     0.9950 C.3   1 <1>   0.1400 
  6 C        1.6910     2.9410     1.7660 C.ar  1 <1>  -0.1500 
  7 C        2.0170     2.3340    -0.5140 C.ar  1 <1>  -0.1500 
  8 C       -1.5410     5.4530    -0.2330 C.3   1 <1>   0.1430 
  9 C        3.0440     3.1970     1.8950 C.ar  1 <1>  -0.1500 
 10 C        3.3710     2.5890    -0.3920 C.ar  1 <1>  -0.1500 
 11 C       -3.0350     5.1030    -0.4650 C.ar  1 <1>  -0.1430 
 12 C       -1.3580     6.9640     0.0560 C.3   1 <1>  -0.1600 
 13 C       -0.6850     5.1430    -1.4890 C.3   1 <1>  -0.1600 
 14 C        3.8920     3.0290     0.8130 C.ar  1 <1>  -0.1430 
 15 C       -3.4060     4.0340    -1.2790 C.ar  1 <1>  -0.1500 
 16 C       -4.0570     5.8200     0.1550 C.ar  1 <1>  -0.1500 
 17 C        0.1090     7.4130     0.0520 C.3   1 <1>   0.1200 
 18 C        0.7460     5.6830    -1.3920 C.3   1 <1>   0.1200 
 19 C        5.3770     3.3100     0.9490 C.3   1 <1>  -0.0970 
 20 C       -4.7360     3.7060    -1.4790 C.ar  1 <1>  -0.1500 
 21 C       -5.3880     5.4960    -0.0440 C.ar  1 <1>  -0.1500 
 22 O        0.7010     7.0520    -1.1510 O.3   1 <1>  -0.5600 
 23 C       -5.7310     4.4380    -0.8640 C.ar  1 <1>  -0.1500 
 24 H       -2.1830     2.8990     0.6100 H     1 <1>   0.3700 
 25 H       -0.0170     4.8700     1.1940 H     1 <1>   0.0800 
 26 H       -1.6160     4.9430     1.8590 H     1 <1>   0.0800 
 27 H        1.0420     3.0670     2.6150 H     1 <1>   0.1500 
 28 H        1.6210     1.9850    -1.4530 H     1 <1>   0.1500 
 29 H        3.4370     3.5250     2.8410 H     1 <1>   0.1500 
 30 H        4.0190     2.4400    -1.2390 H     1 <1>   0.1500 
 31 H       -1.7740     7.2210     1.0120 H     1 <1>   0.0800 
 32 H       -1.8800     7.5340    -0.6930 H     1 <1>   0.0800 
 33 H       -1.1510     5.5880    -2.3520 H     1 <1>   0.0800 
 34 H       -0.6240     4.0870    -1.6690 H     1 <1>   0.0800 
 35 H       -2.6710     3.4240    -1.7700 H     1 <1>   0.1500 
 36 H       -3.8490     6.6440     0.8080 H     1 <1>   0.1500 
 37 H        0.6700     6.9730     0.8580 H     1 <1>   0.0800 
 38 H        0.1710     8.4850     0.1340 H     1 <1>   0.0800 
 39 H        1.2650     5.5340    -2.3230 H     1 <1>   0.0800 
 40 H        1.3060     5.2100    -0.6050 H     1 <1>   0.0800 
 41 H        5.5520     4.0680     1.6910 H     1 <1>   0.0800 
 42 H        5.7830     3.6530     0.0140 H     1 <1>   0.0800 
 43 H        5.8920     2.4120     1.2420 H     1 <1>   0.0800 
 44 H       -4.9930     2.8770    -2.1150 H     1 <1>   0.1500 
 45 H       -6.1600     6.0680     0.4420 H     1 <1>   0.1500 
 46 H       -6.7650     4.1860    -1.0200 H     1 <1>   0.1500 
@<TRIPOS>BOND
  1   1   2  2   
  2   2   3  am  
  3   2   4  1   
  4   3   5  1   
  5   3  24  1   
  6   4   6  ar  
  7   4   7  ar  
  8   5   8  1   
  9   5  25  1   
 10   5  26  1   
 11   6   9  ar  
 12   6  27  1   
 13   7  10  ar  
 14   7  28  1   
 15   8  11  1   
 16   8  12  1   
 17   8  13  1   
 18   9  14  ar  
 19   9  29  1   
 20  10  14  ar  
 21  10  30  1   
 22  11  15  ar  
 23  11  16  ar  
 24  12  17  1   
 25  12  31  1   
 26  12  32  1   
 27  13  18  1   
 28  13  33  1   
 29  13  34  1   
 30  14  19  1   
 31  15  20  ar  
 32  15  35  1   
 33  16  21  ar  
 34  16  36  1   
 35  17  22  1   
 36  17  37  1   
 37  17  38  1   
 38  18  22  1   
 39  18  39  1   
 40  18  40  1   
 41  19  41  1   
 42  19  42  1   
 43  19  43  1   
 44  20  23  ar  
 45  20  44  1   
 46  21  23  ar  
 47  21  45  1   
 48  23  46  1   
@<TRIPOS>SUBSTRUCTURE
  1 ****   5 GROUP 4 **** **** 0

# MOE 2024.06 (io_trps.svl 2023.06)
