@<TRIPOS>MOLECULE
NONAME
43 44 1 0 0 
SMALL
USER_CHARGES


@<TRIPOS>ATOM
  1 O       -1.2100     0.8790     0.6730 O.2   1 <1>  -0.5700 
  2 C       -1.2010     2.0880     0.8000 C.2   1 <1>   0.6900 
  3 N       -2.3770     2.7320     1.0460 N.am  1 <1>  -0.6600 
  4 N       -0.0760     2.8380     0.6720 N.am  1 <1>  -0.5470 
  5 C       -3.0360     3.3870    -0.1160 C.3   1 <1>   0.1400 
  6 C       -3.3440     2.0590     1.9620 C.3   1 <1>   0.1400 
  7 C        1.2390     2.4090     0.4500 C.ar  1 <1>   0.1170 
  8 C       -3.8860     2.3560    -0.8920 C.3   1 <1>   0.3430 
  9 C       -4.1970     1.0330     1.1880 C.3   1 <1>   0.3430 
 10 C        1.6400     1.7470    -0.7150 C.ar  1 <1>  -0.1440 
 11 C        2.1870     2.6790     1.4300 C.ar  1 <1>  -0.1500 
 12 N       -4.8840     1.6490    -0.0090 N.4   1 <1>  -0.9590 
 13 C        2.9630     1.3620    -0.8630 C.ar  1 <1>  -0.1500 
 14 C        0.6670     1.4350    -1.8450 C.3   1 <1>  -0.0970 
 15 C        3.5060     2.2960     1.2730 C.ar  1 <1>  -0.1500 
 16 C       -5.6280     0.6280    -0.7960 C.3   1 <1>   0.3430 
 17 C        3.8950     1.6340     0.1240 C.ar  1 <1>  -0.1500 
 18 C       -6.8750     0.1680    -0.0360 C.3   1 <1>  -0.1600 
 19 C       -7.7070    -0.7980    -0.8860 C.3   1 <1>  -0.2400 
 20 H       -0.1680     3.7730     1.0570 H     1 <1>   0.3700 
 21 H       -2.2880     3.7960    -0.7740 H     1 <1>   0.0800 
 22 H       -3.6540     4.1990     0.2270 H     1 <1>   0.0800 
 23 H       -3.9750     2.7940     2.4290 H     1 <1>   0.0800 
 24 H       -2.8010     1.5490     2.7410 H     1 <1>   0.0800 
 25 H       -3.2160     1.6310    -1.3250 H     1 <1>   0.0800 
 26 H       -4.3990     2.8560    -1.6970 H     1 <1>   0.0800 
 27 H       -4.9260     0.6080     1.8580 H     1 <1>   0.0800 
 28 H       -3.5470     0.2370     0.8620 H     1 <1>   0.0800 
 29 H        1.8920     3.1880     2.3290 H     1 <1>   0.1500 
 30 H       -5.5590     2.3450     0.3330 H     1 <1>   0.4500 
 31 H        3.2800     0.8450    -1.7510 H     1 <1>   0.1500 
 32 H       -0.0060     2.2570    -1.9990 H     1 <1>   0.0800 
 33 H        0.1020     0.5540    -1.6010 H     1 <1>   0.0800 
 34 H        1.1960     1.2590    -2.7640 H     1 <1>   0.0800 
 35 H        4.2280     2.5090     2.0420 H     1 <1>   0.1500 
 36 H       -4.9910    -0.2180    -1.0030 H     1 <1>   0.0800 
 37 H       -5.9380     1.0520    -1.7370 H     1 <1>   0.0800 
 38 H        4.9190     1.3290    -0.0040 H     1 <1>   0.1500 
 39 H       -7.4870     1.0180     0.2120 H     1 <1>   0.0800 
 40 H       -6.5970    -0.3380     0.8720 H     1 <1>   0.0800 
 41 H       -8.0340    -0.3250    -1.7970 H     1 <1>   0.0800 
 42 H       -8.5800    -1.1120    -0.3390 H     1 <1>   0.0800 
 43 H       -7.1370    -1.6760    -1.1380 H     1 <1>   0.0800 
@<TRIPOS>BOND
  1   1   2  2   
  2   2   3  am  
  3   2   4  am  
  4   3   5  1   
  5   3   6  1   
  6   4   7  1   
  7   4  20  1   
  8   5   8  1   
  9   5  21  1   
 10   5  22  1   
 11   6   9  1   
 12   6  23  1   
 13   6  24  1   
 14   7  10  ar  
 15   7  11  ar  
 16   8  12  1   
 17   8  25  1   
 18   8  26  1   
 19   9  12  1   
 20   9  27  1   
 21   9  28  1   
 22  10  13  ar  
 23  10  14  1   
 24  11  15  ar  
 25  11  29  1   
 26  12  16  1   
 27  12  30  1   
 28  13  17  ar  
 29  13  31  1   
 30  14  32  1   
 31  14  33  1   
 32  14  34  1   
 33  15  17  ar  
 34  15  35  1   
 35  16  18  1   
 36  16  36  1   
 37  16  37  1   
 38  17  38  1   
 39  18  19  1   
 40  18  39  1   
 41  18  40  1   
 42  19  41  1   
 43  19  42  1   
 44  19  43  1   
@<TRIPOS>SUBSTRUCTURE
  1 ****   2 GROUP 4 **** **** 0

# MOE 2024.06 (io_trps.svl 2023.06)
