@<TRIPOS>MOLECULE
NONAME
44 47 1 0 0 
SMALL
USER_CHARGES


@<TRIPOS>ATOM
  1 O        0.0520    -0.6120     0.0620 O.2   1 <1>  -0.5700 
  2 C       -0.2320    -1.7820     0.0140 C.2   1 <1>   0.5690 
  3 N        0.6300    -2.7940    -0.2620 N.am  1 <1>  -0.4200 
  4 C       -1.6250    -2.3200     0.2800 C.3   1 <1>  -0.0190 
  5 C        0.0100    -4.0010    -0.2300 C.2   1 <1>   0.5690 
  6 C        2.0690    -2.6060    -0.5540 C.3   1 <1>   0.1400 
  7 C       -1.4630    -3.8410     0.0590 C.3   1 <1>  -0.0990 
  8 C       -2.6780    -1.6690    -0.6330 C.3   1 <1>  -0.0170 
  9 O        0.5380    -5.0680    -0.4030 O.2   1 <1>  -0.5700 
 10 C        2.8850    -2.6640     0.7380 C.3   1 <1>  -0.0170 
 11 C       -4.0620    -2.2480    -0.3770 C.ar  1 <1>  -0.1440 
 12 C        4.3610    -2.4820     0.4280 C.ar  1 <1>  -0.1440 
 13 C       -4.6410    -3.1230    -1.2840 C.ar  1 <1>  -0.1500 
 14 C       -4.7570    -1.9030     0.7720 C.ar  1 <1>  -0.1500 
 15 C        4.9180    -1.2080     0.4300 C.ar  1 <1>  -0.1500 
 16 C        5.1540    -3.5920     0.1350 C.ar  1 <1>  -0.1500 
 17 C       -5.8960    -3.6540    -1.0400 C.ar  1 <1>  -0.1500 
 18 C       -6.0120    -2.4330     1.0170 C.ar  1 <1>  -0.1500 
 19 C        6.2620    -1.0840     0.1370 C.ar  1 <1>   0.0820 
 20 C        6.5040    -3.4470    -0.1580 C.ar  1 <1>  -0.1500 
 21 C       -6.5810    -3.3100     0.1110 C.ar  1 <1>  -0.1500 
 22 O        6.9990     0.0310     0.0810 O.3   1 <1>  -0.3620 
 23 C        7.0330    -2.1720    -0.1490 C.ar  1 <1>   0.0820 
 24 C        8.3230    -0.3730    -0.2610 C.3   1 <1>   0.4000 
 25 O        8.2910    -1.7920    -0.3980 O.3   1 <1>  -0.3620 
 26 H       -1.8660    -2.1250     1.3100 H     1 <1>   0.0800 
 27 H        2.2160    -1.6530    -1.0330 H     1 <1>   0.0800 
 28 H        2.4010    -3.3780    -1.2280 H     1 <1>   0.0800 
 29 H       -2.0270    -4.1990    -0.7820 H     1 <1>   0.0800 
 30 H       -1.7330    -4.3970     0.9380 H     1 <1>   0.0800 
 31 H       -2.4050    -1.8070    -1.6650 H     1 <1>   0.0800 
 32 H       -2.7030    -0.6090    -0.4490 H     1 <1>   0.0800 
 33 H        2.7340    -3.6140     1.2200 H     1 <1>   0.0800 
 34 H        2.5590    -1.8870     1.4070 H     1 <1>   0.0800 
 35 H       -4.1220    -3.3980    -2.1850 H     1 <1>   0.1500 
 36 H       -4.3260    -1.2190     1.4820 H     1 <1>   0.1500 
 37 H        4.3360    -0.3310     0.6500 H     1 <1>   0.1500 
 38 H        4.7210    -4.5780     0.1330 H     1 <1>   0.1500 
 39 H       -6.3400    -4.3330    -1.7460 H     1 <1>   0.1500 
 40 H       -6.5450    -2.1620     1.9110 H     1 <1>   0.1500 
 41 H        7.1270    -4.2920    -0.3860 H     1 <1>   0.1500 
 42 H       -7.5570    -3.7220     0.3010 H     1 <1>   0.1500 
 43 H        8.9980    -0.1030     0.5310 H     1 <1>   0.0800 
 44 H        8.6060     0.0730    -1.1980 H     1 <1>   0.0800 
@<TRIPOS>BOND
  1   1   2  2   
  2   2   3  am  
  3   2   4  1   
  4   3   5  am  
  5   3   6  1   
  6   4   7  1   
  7   4   8  1   
  8   4  26  1   
  9   5   7  1   
 10   5   9  2   
 11   6  10  1   
 12   6  27  1   
 13   6  28  1   
 14   7  29  1   
 15   7  30  1   
 16   8  11  1   
 17   8  31  1   
 18   8  32  1   
 19  10  12  1   
 20  10  33  1   
 21  10  34  1   
 22  11  13  ar  
 23  11  14  ar  
 24  12  15  ar  
 25  12  16  ar  
 26  13  17  ar  
 27  13  35  1   
 28  14  18  ar  
 29  14  36  1   
 30  15  19  ar  
 31  15  37  1   
 32  16  20  ar  
 33  16  38  1   
 34  17  21  ar  
 35  17  39  1   
 36  18  21  ar  
 37  18  40  1   
 38  19  22  1   
 39  19  23  ar  
 40  20  23  ar  
 41  20  41  1   
 42  21  42  1   
 43  22  24  1   
 44  23  25  1   
 45  24  25  1   
 46  24  43  1   
 47  24  44  1   
@<TRIPOS>SUBSTRUCTURE
  1 ****   3 GROUP 4 **** **** 0

# MOE 2024.06 (io_trps.svl 2023.06)
