@<TRIPOS>MOLECULE
NONAME
32 32 1 0 0 
SMALL
USER_CHARGES


@<TRIPOS>ATOM
  1 I       -1.5940     0.2040    -1.5840 I     1 <1>  -0.0810 
  2 C       -0.6590     1.9640    -0.8370 C.ar  1 <1>   0.0810 
  3 C        0.5610     2.3400    -1.3670 C.ar  1 <1>  -0.1500 
  4 C       -1.2960     2.6830     0.1550 C.ar  1 <1>  -0.1500 
  5 C        1.1710     3.4870    -0.8790 C.ar  1 <1>  -0.1440 
  6 C       -0.6830     3.8260     0.6380 C.ar  1 <1>  -0.1500 
  7 C        0.5510     4.2320     0.1250 C.ar  1 <1>   0.0830 
  8 C        2.5040     3.9320    -1.4400 C.3   1 <1>   0.4870 
  9 O        1.2040     5.3400     0.5700 O.3   1 <1>  -0.3630 
 10 N        3.4740     3.8900    -0.3290 N.4   1 <1>  -0.9060 
 11 C        0.5510     6.2830     1.4000 C.3   1 <1>   0.0400 
 12 C        4.8110     4.4200    -0.6690 C.3   1 <1>   0.3430 
 13 C        5.6980     4.3490     0.5680 C.3   1 <1>  -0.1600 
 14 C        7.1070     4.8430     0.2450 C.3   1 <1>   0.1200 
 15 O        7.9010     4.5930     1.3420 O.3   1 <1>  -0.6800 
 16 H        1.0070     1.7410    -2.1430 H     1 <1>   0.1500 
 17 H       -2.2470     2.3590     0.5420 H     1 <1>   0.1500 
 18 H       -1.1830     4.3790     1.4120 H     1 <1>   0.1500 
 19 H        2.4120     4.9370    -1.8190 H     1 <1>   0.0800 
 20 H        2.8130     3.2790    -2.2390 H     1 <1>   0.0800 
 21 H        3.5260     2.9310     0.0310 H     1 <1>   0.4500 
 22 H        3.0350     4.4520     0.4200 H     1 <1>   0.4500 
 23 H        1.2080     7.1230     1.5440 H     1 <1>   0.0800 
 24 H        0.3320     5.8270     2.3500 H     1 <1>   0.0800 
 25 H       -0.3530     6.6110     0.9170 H     1 <1>   0.0800 
 26 H        4.7310     5.4430    -1.0020 H     1 <1>   0.0800 
 27 H        5.2500     3.8330    -1.4620 H     1 <1>   0.0800 
 28 H        5.7650     3.3260     0.9000 H     1 <1>   0.0800 
 29 H        5.2840     4.9570     1.3530 H     1 <1>   0.0800 
 30 H        7.1340     5.9000     0.0350 H     1 <1>   0.0800 
 31 H        7.5300     4.3000    -0.5850 H     1 <1>   0.0800 
 32 H        7.7360     5.2280     2.0680 H     1 <1>   0.4000 
@<TRIPOS>BOND
  1   1   2  1   
  2   2   3  ar  
  3   2   4  ar  
  4   3   5  ar  
  5   3  16  1   
  6   4   6  ar  
  7   4  17  1   
  8   5   7  ar  
  9   5   8  1   
 10   6   7  ar  
 11   6  18  1   
 12   7   9  1   
 13   8  10  1   
 14   8  19  1   
 15   8  20  1   
 16   9  11  1   
 17  10  12  1   
 18  10  21  1   
 19  10  22  1   
 20  11  23  1   
 21  11  24  1   
 22  11  25  1   
 23  12  13  1   
 24  12  26  1   
 25  12  27  1   
 26  13  14  1   
 27  13  28  1   
 28  13  29  1   
 29  14  15  1   
 30  14  30  1   
 31  14  31  1   
 32  15  32  1   
@<TRIPOS>SUBSTRUCTURE
  1 ****   5 GROUP 4 **** **** 0

# MOE 2024.06 (io_trps.svl 2023.06)
