@<TRIPOS>MOLECULE
NONAME
42 44 1 0 0 
SMALL
USER_CHARGES


@<TRIPOS>ATOM
  1 CL       0.0880     0.6300     1.5820 Cl    1 <1>  -0.1770 
  2 C       -0.8530     1.8690     0.7750 C.ar  1 <1>   0.1770 
  3 C       -0.1920     2.9290     0.1580 C.ar  1 <1>   0.1170 
  4 C       -2.2280     1.7530     0.7760 C.ar  1 <1>  -0.1500 
  5 N        1.2170     2.9810     0.2010 N.am  1 <1>  -0.5470 
  6 C       -0.9810     3.8810    -0.4810 C.ar  1 <1>  -0.1500 
  7 C       -3.0080     2.7120     0.1410 C.ar  1 <1>   0.1170 
  8 C        2.1110     3.9690    -0.1090 C.2   1 <1>   0.5690 
  9 C       -2.3610     3.7720    -0.4870 C.ar  1 <1>  -0.1500 
 10 N       -4.4200     2.6120     0.1350 N.am  1 <1>  -0.2370 
 11 O        1.7850     5.0620    -0.5020 O.2   1 <1>  -0.5700 
 12 C        3.5970     3.6550     0.0720 C.3   1 <1>  -0.0190 
 13 C       -5.1940     2.3530     1.2350 C.2   1 <1>   0.5690 
 14 C       -5.2180     2.7650    -0.9680 C.2   1 <1>   0.5690 
 15 C        4.2100     4.4970     1.2080 C.3   1 <1>  -0.1600 
 16 C        4.3840     3.8600    -1.2370 C.3   1 <1>  -0.1600 
 17 O       -4.8030     2.1560     2.3560 O.2   1 <1>  -0.5700 
 18 C       -6.6640     2.3290     0.8880 C.3   1 <1>  -0.0990 
 19 O       -4.8540     2.9970    -2.0910 O.2   1 <1>  -0.5700 
 20 C       -6.6800     2.6060    -0.6220 C.3   1 <1>  -0.0990 
 21 C        5.7030     4.1920     1.3950 C.3   1 <1>  -0.1600 
 22 C        5.8770     3.5530    -1.0520 C.3   1 <1>  -0.1600 
 23 C        6.4770     4.3910     0.0850 C.3   1 <1>  -0.1600 
 24 H       -2.6870     0.9190     1.2750 H     1 <1>   0.1500 
 25 H        1.6370     2.1350     0.5890 H     1 <1>   0.3700 
 26 H       -0.5260     4.7140    -0.9850 H     1 <1>   0.1500 
 27 H       -2.9410     4.5240    -0.9940 H     1 <1>   0.1500 
 28 H        3.6910     2.6200     0.3470 H     1 <1>   0.0800 
 29 H        3.6850     4.3020     2.1270 H     1 <1>   0.0800 
 30 H        4.0880     5.5430     0.9780 H     1 <1>   0.0800 
 31 H        4.2710     4.8800    -1.5630 H     1 <1>   0.0800 
 32 H        3.9790     3.2250    -2.0060 H     1 <1>   0.0800 
 33 H       -7.1810     3.0950     1.4370 H     1 <1>   0.0800 
 34 H       -7.0800     1.3650     1.1190 H     1 <1>   0.0800 
 35 H       -7.0980     1.7820    -1.1720 H     1 <1>   0.0800 
 36 H       -7.2120     3.5120    -0.8540 H     1 <1>   0.0800 
 37 H        5.8230     3.1760     1.7290 H     1 <1>   0.0800 
 38 H        6.1100     4.8390     2.1530 H     1 <1>   0.0800 
 39 H        6.4030     3.7620    -1.9680 H     1 <1>   0.0800 
 40 H        6.0050     2.5070    -0.8300 H     1 <1>   0.0800 
 41 H        7.5080     4.1180     0.2290 H     1 <1>   0.0800 
 42 H        6.4480     5.4320    -0.1890 H     1 <1>   0.0800 
@<TRIPOS>BOND
  1   1   2  1   
  2   2   3  ar  
  3   2   4  ar  
  4   3   5  1   
  5   3   6  ar  
  6   4   7  ar  
  7   4  24  1   
  8   5   8  am  
  9   5  25  1   
 10   6   9  ar  
 11   6  26  1   
 12   7   9  ar  
 13   7  10  1   
 14   8  11  2   
 15   8  12  1   
 16   9  27  1   
 17  10  13  am  
 18  10  14  am  
 19  12  15  1   
 20  12  16  1   
 21  12  28  1   
 22  13  17  2   
 23  13  18  1   
 24  14  19  2   
 25  14  20  1   
 26  15  21  1   
 27  15  29  1   
 28  15  30  1   
 29  16  22  1   
 30  16  31  1   
 31  16  32  1   
 32  18  20  1   
 33  18  33  1   
 34  18  34  1   
 35  20  35  1   
 36  20  36  1   
 37  21  23  1   
 38  21  37  1   
 39  21  38  1   
 40  22  23  1   
 41  22  39  1   
 42  22  40  1   
 43  23  41  1   
 44  23  42  1   
@<TRIPOS>SUBSTRUCTURE
  1 ****   3 GROUP 4 **** **** 0

# MOE 2024.06 (io_trps.svl 2023.06)
