@<TRIPOS>MOLECULE
NONAME
44 44 1 0 0 
SMALL
USER_CHARGES


@<TRIPOS>ATOM
  1 O        0.4840     0.8330    -2.1890 O.2   1 <1>  -0.5700 
  2 C        0.5630     1.1720    -1.0220 C.2   1 <1>   0.6160 
  3 N        1.2610     0.3900    -0.1550 N.am  1 <1>  -0.7300 
  4 C       -0.1060     2.3810    -0.5590 C.2   1 <1>   0.1230 
  5 C        2.1980    -0.7300    -0.4970 C.3   1 <1>   0.1140 
  6 N        0.4700     3.1740     0.4560 N.am  1 <1>  -0.5390 
  7 C       -1.3160     2.7450    -1.0650 C.2   1 <1>  -0.1780 
  8 C        3.4220    -0.7540     0.4450 C.2   1 <1>   0.9060 
  9 C        1.4300    -2.0700    -0.5400 C.3   1 <1>  -0.1600 
 10 C        1.7370     3.6120     0.6900 C.2   1 <1>   0.5690 
 11 C       -2.1340     3.8890    -0.7680 C.ar  1 <1>   0.0280 
 12 O        3.3820    -0.0630     1.4790 O.co2 1 <1>  -0.9000 
 13 O        4.4150    -1.4270     0.1430 O.co2 1 <1>  -0.9000 
 14 C        1.0930    -2.7330     0.8160 C.3   1 <1>  -0.0800 
 15 O        1.9130     4.4430     1.5420 O.2   1 <1>  -0.5700 
 16 C        2.9220     3.1490    -0.1250 C.3   1 <1>  -0.1790 
 17 C       -1.6060     5.1660    -0.5730 C.ar  1 <1>  -0.1500 
 18 C       -3.5170     3.7450    -0.6800 C.ar  1 <1>  -0.1500 
 19 C        0.4430    -4.0990     0.5670 C.3   1 <1>  -0.2400 
 20 C        0.1650    -1.8820     1.6920 C.3   1 <1>  -0.2400 
 21 C       -2.4200     6.2440    -0.2800 C.ar  1 <1>  -0.1500 
 22 C       -4.3370     4.8190    -0.3900 C.ar  1 <1>  -0.1500 
 23 C       -3.7890     6.0730    -0.1850 C.ar  1 <1>  -0.1500 
 24 H        1.4850     0.7350     0.7890 H     1 <1>   0.3700 
 25 H        2.5850    -0.5430    -1.4810 H     1 <1>   0.0800 
 26 H       -0.2030     3.6710     1.0410 H     1 <1>   0.3700 
 27 H       -1.7580     2.0890    -1.7960 H     1 <1>   0.1500 
 28 H        0.5360    -1.9370    -1.1220 H     1 <1>   0.0800 
 29 H        2.0580    -2.7550    -1.0810 H     1 <1>   0.0800 
 30 H        2.0120    -2.8960     1.3570 H     1 <1>   0.0800 
 31 H        2.6450     2.9750    -1.1470 H     1 <1>   0.0800 
 32 H        3.3200     2.2470     0.2990 H     1 <1>   0.0800 
 33 H        3.6890     3.8990    -0.1000 H     1 <1>   0.0800 
 34 H       -0.5450     5.3230    -0.6620 H     1 <1>   0.1500 
 35 H       -3.9550     2.7750    -0.8360 H     1 <1>   0.1500 
 36 H       -0.4830    -3.9840     0.0330 H     1 <1>   0.0800 
 37 H        0.2470    -4.5950     1.5010 H     1 <1>   0.0800 
 38 H        1.1020    -4.7230    -0.0120 H     1 <1>   0.0800 
 39 H       -0.7090    -1.5850     1.1420 H     1 <1>   0.0800 
 40 H        0.6830    -1.0020     2.0290 H     1 <1>   0.0800 
 41 H       -0.1380    -2.4330     2.5640 H     1 <1>   0.0800 
 42 H       -1.9880     7.2190    -0.1290 H     1 <1>   0.1500 
 43 H       -5.4030     4.6830    -0.3220 H     1 <1>   0.1500 
 44 H       -4.4240     6.9110     0.0430 H     1 <1>   0.1500 
@<TRIPOS>BOND
  1   1   2  2   
  2   2   3  am  
  3   2   4  1   
  4   3   5  1   
  5   3  24  1   
  6   4   6  1   
  7   4   7  2   
  8   5   8  1   
  9   5   9  1   
 10   5  25  1   
 11   6  10  am  
 12   6  26  1   
 13   7  11  1   
 14   7  27  1   
 15   8  12  ar  
 16   8  13  ar  
 17   9  14  1   
 18   9  28  1   
 19   9  29  1   
 20  10  15  2   
 21  10  16  1   
 22  11  17  ar  
 23  11  18  ar  
 24  14  19  1   
 25  14  20  1   
 26  14  30  1   
 27  16  31  1   
 28  16  32  1   
 29  16  33  1   
 30  17  21  ar  
 31  17  34  1   
 32  18  22  ar  
 33  18  35  1   
 34  19  36  1   
 35  19  37  1   
 36  19  38  1   
 37  20  39  1   
 38  20  40  1   
 39  20  41  1   
 40  21  23  ar  
 41  21  42  1   
 42  22  23  ar  
 43  22  43  1   
 44  23  44  1   
@<TRIPOS>SUBSTRUCTURE
  1 ****   4 GROUP 4 **** **** 0

# MOE 2024.06 (io_trps.svl 2023.06)
