@<TRIPOS>MOLECULE
NONAME
37 39 1 0 0 
SMALL
USER_CHARGES


@<TRIPOS>ATOM
  1 S        0.1360     0.7830     0.9620 S.3   1 <1>  -0.0800 
  2 C       -1.5690     0.5840     1.3060 C.2   1 <1>  -0.1100 
  3 C       -0.2180     1.3330    -0.6630 C.2   1 <1>  -0.1100 
  4 C       -2.3350     0.9270     0.2450 C.2   1 <1>  -0.0540 
  5 C       -1.5450     1.3510    -0.8790 C.2   1 <1>  -0.1500 
  6 C       -3.7800     0.8820     0.1820 C.ar  1 <1>   0.0540 
  7 C       -4.4260    -0.2150    -0.3710 C.ar  1 <1>   0.0730 
  8 C       -4.5870     1.9180     0.6560 C.ar  1 <1>  -0.1440 
  9 C       -3.7000    -1.3270    -0.8980 C.1   1 <1>   0.4840 
 10 C       -5.8190    -0.2230    -0.4180 C.ar  1 <1>   0.4100 
 11 C       -5.9710     1.8010     0.5510 C.ar  1 <1>   0.1660 
 12 C       -3.9330     3.1720     1.2500 C.3   1 <1>  -0.0170 
 13 N       -3.1470    -2.2170    -1.3520 N.1   1 <1>  -0.5570 
 14 N       -6.5800     0.7540     0.0220 N.ar  1 <1>  -0.6200 
 15 N       -6.5500    -1.2530    -0.9340 N.pl3 1 <1>  -0.9000 
 16 C       -6.9370     2.8810     1.0390 C.3   1 <1>  -0.0170 
 17 C       -3.6110     4.2160     0.1710 C.3   1 <1>  -0.1600 
 18 C       -7.1700     4.0100     0.0210 C.3   1 <1>  -0.1600 
 19 C       -4.7690     4.5410    -0.7890 C.3   1 <1>  -0.1600 
 20 C       -6.0430     5.0530    -0.0920 C.3   1 <1>  -0.1600 
 21 H       -1.8380     0.2240     2.2830 H     1 <1>   0.1500 
 22 H        0.6170     1.5860    -1.2930 H     1 <1>   0.1500 
 23 H       -2.0200     1.6480    -1.7970 H     1 <1>   0.1500 
 24 H       -3.0240     2.9150     1.7620 H     1 <1>   0.0800 
 25 H       -4.5540     3.6210     1.9990 H     1 <1>   0.0800 
 26 H       -7.5450    -1.0390    -1.0330 H     1 <1>   0.4000 
 27 H       -6.1650    -1.8380    -1.6790 H     1 <1>   0.4000 
 28 H       -6.6360     3.2830     1.9860 H     1 <1>   0.0800 
 29 H       -7.8870     2.4080     1.2210 H     1 <1>   0.0800 
 30 H       -2.7810     3.8620    -0.4140 H     1 <1>   0.0800 
 31 H       -3.2890     5.1220     0.6560 H     1 <1>   0.0800 
 32 H       -8.0640     4.5310     0.3180 H     1 <1>   0.0800 
 33 H       -7.3690     3.5780    -0.9460 H     1 <1>   0.0800 
 34 H       -4.9960     3.6870    -1.4030 H     1 <1>   0.0800 
 35 H       -4.4220     5.3110    -1.4570 H     1 <1>   0.0800 
 36 H       -5.8120     5.4630     0.8760 H     1 <1>   0.0800 
 37 H       -6.4280     5.8660    -0.6840 H     1 <1>   0.0800 
@<TRIPOS>BOND
  1   1   2  1   
  2   1   3  1   
  3   2   4  2   
  4   2  21  1   
  5   3   5  2   
  6   3  22  1   
  7   4   5  1   
  8   4   6  1   
  9   5  23  1   
 10   6   7  ar  
 11   6   8  ar  
 12   7   9  1   
 13   7  10  ar  
 14   8  11  ar  
 15   8  12  1   
 16   9  13  3   
 17  10  14  ar  
 18  10  15  1   
 19  11  14  ar  
 20  11  16  1   
 21  12  17  1   
 22  12  24  1   
 23  12  25  1   
 24  15  26  1   
 25  15  27  1   
 26  16  18  1   
 27  16  28  1   
 28  16  29  1   
 29  17  19  1   
 30  17  30  1   
 31  17  31  1   
 32  18  20  1   
 33  18  32  1   
 34  18  33  1   
 35  19  20  1   
 36  19  34  1   
 37  19  35  1   
 38  20  36  1   
 39  20  37  1   
@<TRIPOS>SUBSTRUCTURE
  1 ****   6 GROUP 4 **** **** 0

# MOE 2024.06 (io_trps.svl 2023.06)
