@<TRIPOS>MOLECULE
NONAME
43 46 1 0 0 
SMALL
USER_CHARGES


@<TRIPOS>ATOM
  1 N        1.5900    -1.3520     0.5550 N.ar  1 <1>  -0.6200 
  2 C        1.8720    -0.6620    -0.5420 C.ar  1 <1>   0.4100 
  3 C        0.7500    -2.3630     0.3930 C.ar  1 <1>   0.1600 
  4 N        2.7460     0.3900    -0.3880 N.pl3 1 <1>  -0.8380 
  5 C        1.3420    -0.9490    -1.7960 C.ar  1 <1>  -0.1500 
  6 C        0.1720    -2.7260    -0.8110 C.ar  1 <1>  -0.1500 
  7 C        4.1510    -0.0380    -0.1080 C.3   1 <1>   0.2090 
  8 C        2.2400     1.4690     0.5130 C.3   1 <1>   0.2090 
  9 C        0.4710    -2.0020    -1.9480 C.ar  1 <1>  -0.1500 
 10 C        5.1100     1.1630     0.0050 C.3   1 <1>   0.3430 
 11 C        3.2240     2.6530     0.6010 C.3   1 <1>   0.3430 
 12 N        4.6150     2.2130     0.9820 N.4   1 <1>  -0.9590 
 13 C        5.5540     3.3790     1.1600 C.3   1 <1>   0.4230 
 14 C        5.9560     4.0200    -0.1890 C.3   1 <1>  -0.0170 
 15 C        6.8820     2.9050     1.7850 C.3   1 <1>  -0.0170 
 16 C        7.2590     3.3340    -0.5210 C.ar  1 <1>  -0.1430 
 17 C        7.7780     2.7080     0.5860 C.ar  1 <1>  -0.1430 
 18 C        7.9120     3.2790    -1.7370 C.ar  1 <1>  -0.1500 
 19 C        8.9670     2.0080     0.5120 C.ar  1 <1>  -0.1500 
 20 C        9.1050     2.5780    -1.8230 C.ar  1 <1>  -0.1500 
 21 C        9.6290     1.9460    -0.7040 C.ar  1 <1>  -0.1500 
 22 H        0.5070    -2.9380     1.2710 H     1 <1>   0.1500 
 23 H        1.6240    -0.3390    -2.6320 H     1 <1>   0.1500 
 24 H       -0.5020    -3.5620    -0.8590 H     1 <1>   0.1500 
 25 H        4.4860    -0.6830    -0.9030 H     1 <1>   0.0800 
 26 H        4.1780    -0.6080     0.8050 H     1 <1>   0.0800 
 27 H        2.0710     1.0670     1.4980 H     1 <1>   0.0800 
 28 H        1.2940     1.8210     0.1390 H     1 <1>   0.0800 
 29 H        0.0430    -2.2520    -2.9040 H     1 <1>   0.1500 
 30 H        5.2180     1.6000    -0.9740 H     1 <1>   0.0800 
 31 H        6.0810     0.8060     0.3060 H     1 <1>   0.0800 
 32 H        2.8510     3.3600     1.3230 H     1 <1>   0.0800 
 33 H        3.2470     3.1390    -0.3590 H     1 <1>   0.0800 
 34 H        4.5320     1.7370     1.8890 H     1 <1>   0.4500 
 35 H        5.0920     4.1140     1.7990 H     1 <1>   0.0800 
 36 H        6.1510     5.0690    -0.0490 H     1 <1>   0.0800 
 37 H        5.2200     3.8960    -0.9620 H     1 <1>   0.0800 
 38 H        6.7770     2.0100     2.3720 H     1 <1>   0.0800 
 39 H        7.2980     3.6860     2.3960 H     1 <1>   0.0800 
 40 H        7.5110     3.7720    -2.6060 H     1 <1>   0.1500 
 41 H        9.3800     1.5200     1.3780 H     1 <1>   0.1500 
 42 H        9.6310     2.5270    -2.7610 H     1 <1>   0.1500 
 43 H       10.5590     1.4080    -0.7820 H     1 <1>   0.1500 
@<TRIPOS>BOND
  1   1   2  ar  
  2   1   3  ar  
  3   2   4  1   
  4   2   5  ar  
  5   3   6  ar  
  6   3  22  1   
  7   4   7  1   
  8   4   8  1   
  9   5   9  ar  
 10   5  23  1   
 11   6   9  ar  
 12   6  24  1   
 13   7  10  1   
 14   7  25  1   
 15   7  26  1   
 16   8  11  1   
 17   8  27  1   
 18   8  28  1   
 19   9  29  1   
 20  10  12  1   
 21  10  30  1   
 22  10  31  1   
 23  11  12  1   
 24  11  32  1   
 25  11  33  1   
 26  12  13  1   
 27  12  34  1   
 28  13  14  1   
 29  13  15  1   
 30  13  35  1   
 31  14  16  1   
 32  14  36  1   
 33  14  37  1   
 34  15  17  1   
 35  15  38  1   
 36  15  39  1   
 37  16  17  ar  
 38  16  18  ar  
 39  17  19  ar  
 40  18  20  ar  
 41  18  40  1   
 42  19  21  ar  
 43  19  41  1   
 44  20  21  ar  
 45  20  42  1   
 46  21  43  1   
@<TRIPOS>SUBSTRUCTURE
  1 ****  10 GROUP 4 **** **** 0

# MOE 2024.06 (io_trps.svl 2023.06)
