@<TRIPOS>MOLECULE
NONAME
38 39 1 0 0 
SMALL
USER_CHARGES


@<TRIPOS>ATOM
  1 O       -1.5770     5.9930     0.1050 O.3   1 <1>  -0.3630 
  2 C       -0.3750     6.5620    -0.1650 C.ar  1 <1>   0.0830 
  3 C       -2.7740     6.7280    -0.0080 C.3   1 <1>   0.1200 
  4 C        0.7400     5.7520    -0.0270 C.ar  1 <1>  -0.1500 
  5 C       -0.2160     7.8860    -0.5620 C.ar  1 <1>  -0.1500 
  6 C       -3.9300     5.8030     0.3560 C.3   1 <1>   0.0960 
  7 C        2.0120     6.2400    -0.2780 C.ar  1 <1>  -0.1440 
  8 C        1.0500     8.3870    -0.8180 C.ar  1 <1>  -0.1430 
  9 N       -5.2050     6.5300     0.2320 N.pl3 1 <1>   0.0480 
 10 C        2.1540     7.5630    -0.6730 C.ar  1 <1>  -0.1500 
 11 C        3.2240     5.3250    -0.1170 C.3   1 <1>   0.0640 
 12 C        1.2370     9.8310    -1.2500 C.3   1 <1>  -0.0960 
 13 C       -6.0300     6.5790    -0.8370 C.2   1 <1>   0.0360 
 14 C       -5.7930     7.3140     1.1530 C.2   1 <1>  -0.3020 
 15 C        4.1690     5.8540     0.9660 C.3   1 <1>  -0.2400 
 16 C        3.9630     5.1560    -1.4490 C.3   1 <1>  -0.2400 
 17 N       -7.0740     7.3220    -0.6630 N.2   1 <1>  -0.5650 
 18 C       -6.9280     7.7860     0.5920 C.2   1 <1>   0.0770 
 19 H       -2.8650     7.0700    -1.0240 H     1 <1>   0.0800 
 20 H       -2.7240     7.5600     0.6730 H     1 <1>   0.0800 
 21 H        0.5970     4.7330     0.2810 H     1 <1>   0.1500 
 22 H       -1.0600     8.5370    -0.6750 H     1 <1>   0.1500 
 23 H       -3.8230     5.4610     1.3700 H     1 <1>   0.0800 
 24 H       -3.9460     4.9560    -0.3060 H     1 <1>   0.0800 
 25 H        3.1350     7.9580    -0.8710 H     1 <1>   0.1500 
 26 H        2.8830     4.3520     0.1930 H     1 <1>   0.0800 
 27 H        0.3280    10.2260    -1.6660 H     1 <1>   0.0800 
 28 H        2.0080     9.8970    -1.9970 H     1 <1>   0.0800 
 29 H        1.5220    10.4290    -0.4030 H     1 <1>   0.0800 
 30 H       -5.8200     6.0420    -1.7460 H     1 <1>   0.1500 
 31 H       -5.3880     7.4910     2.1330 H     1 <1>   0.1500 
 32 H        4.5810     6.8070     0.6850 H     1 <1>   0.0800 
 33 H        4.9780     5.1630     1.1260 H     1 <1>   0.0800 
 34 H        3.6330     5.9730     1.8910 H     1 <1>   0.0800 
 35 H        4.3700     6.0930    -1.7830 H     1 <1>   0.0800 
 36 H        3.2830     4.7910    -2.1980 H     1 <1>   0.0800 
 37 H        4.7660     4.4500    -1.3420 H     1 <1>   0.0800 
 38 H       -7.6590     8.4440     1.0310 H     1 <1>   0.1500 
@<TRIPOS>BOND
  1   1   2  1   
  2   1   3  1   
  3   2   4  ar  
  4   2   5  ar  
  5   3   6  1   
  6   3  19  1   
  7   3  20  1   
  8   4   7  ar  
  9   4  21  1   
 10   5   8  ar  
 11   5  22  1   
 12   6   9  1   
 13   6  23  1   
 14   6  24  1   
 15   7  10  ar  
 16   7  11  1   
 17   8  10  ar  
 18   8  12  1   
 19   9  13  1   
 20   9  14  1   
 21  10  25  1   
 22  11  15  1   
 23  11  16  1   
 24  11  26  1   
 25  12  27  1   
 26  12  28  1   
 27  12  29  1   
 28  13  17  2   
 29  13  30  1   
 30  14  18  2   
 31  14  31  1   
 32  15  32  1   
 33  15  33  1   
 34  15  34  1   
 35  16  35  1   
 36  16  36  1   
 37  16  37  1   
 38  17  18  1   
 39  18  38  1   
@<TRIPOS>SUBSTRUCTURE
  1 ****   2 GROUP 4 **** **** 0

# MOE 2024.06 (io_trps.svl 2023.06)
