@<TRIPOS>MOLECULE
NONAME
45 47 1 0 0 
SMALL
USER_CHARGES


@<TRIPOS>ATOM
  1 O       -1.0530    -1.4070     2.2890 O.2   1 <1>  -0.5700 
  2 C       -1.7330    -1.3350     1.2790 C.2   1 <1>   0.7150 
  3 N       -1.6070    -2.3250     0.3270 N.am  1 <1>  -0.6600 
  4 C       -2.6460    -0.2310     1.0720 C.2   1 <1>   0.0550 
  5 C       -0.2810    -2.7020    -0.2400 C.3   1 <1>   0.2200 
  6 C       -2.6990    -3.3050     0.0600 C.3   1 <1>   0.2200 
  7 O       -3.2420     0.3770     2.0950 O.3   1 <1>  -0.2800 
  8 C       -3.0570     0.3720    -0.0790 C.2   1 <1>  -0.1500 
  9 C        0.4760    -3.6610     0.6910 C.3   1 <1>  -0.1600 
 10 C        0.5660    -1.4620    -0.5670 C.3   1 <1>  -0.1600 
 11 C       -3.4360    -2.9490    -1.2380 C.3   1 <1>  -0.1600 
 12 C       -3.6870    -3.4380     1.2320 C.3   1 <1>  -0.1600 
 13 C       -4.0130     1.3340     1.6320 C.2   1 <1>  -0.0100 
 14 C       -3.9450     1.3850     0.2850 C.2   1 <1>  -0.1500 
 15 C        1.8260    -4.0680     0.0800 C.3   1 <1>  -0.1600 
 16 C        1.9120    -1.8680    -1.1860 C.3   1 <1>  -0.1600 
 17 C       -4.5160    -3.9930    -1.5580 C.3   1 <1>  -0.1600 
 18 C       -4.7640    -4.4870     0.9200 C.3   1 <1>  -0.1600 
 19 C        2.6720    -2.8340    -0.2660 C.3   1 <1>  -0.1600 
 20 C       -5.4970    -4.1540    -0.3880 C.3   1 <1>  -0.1600 
 21 H       -0.4550    -3.2170    -1.1700 H     1 <1>   0.0800 
 22 H       -2.2490    -4.2740    -0.0760 H     1 <1>   0.0800 
 23 H       -2.7600     0.1320    -1.0840 H     1 <1>   0.1500 
 24 H       -0.1130    -4.5430     0.8690 H     1 <1>   0.0800 
 25 H        0.6560    -3.1810     1.6360 H     1 <1>   0.0800 
 26 H        0.7620    -0.9040     0.3330 H     1 <1>   0.0800 
 27 H        0.0330    -0.8310    -1.2550 H     1 <1>   0.0800 
 28 H       -2.7370    -2.9000    -2.0530 H     1 <1>   0.0800 
 29 H       -3.9100    -1.9910    -1.1320 H     1 <1>   0.0800 
 30 H       -4.1770    -2.4990     1.4170 H     1 <1>   0.0800 
 31 H       -3.1530    -3.7290     2.1200 H     1 <1>   0.0800 
 32 H       -4.5750     1.9330     2.3280 H     1 <1>   0.1500 
 33 H       -4.4520     2.0530    -0.3880 H     1 <1>   0.1500 
 34 H        1.6560    -4.6460    -0.8130 H     1 <1>   0.0800 
 35 H        2.3630    -4.6880     0.7770 H     1 <1>   0.0800 
 36 H        2.5090    -0.9890    -1.3550 H     1 <1>   0.0800 
 37 H        1.7420    -2.3400    -2.1380 H     1 <1>   0.0800 
 38 H       -4.0490    -4.9410    -1.7640 H     1 <1>   0.0800 
 39 H       -5.0560    -3.6940    -2.4400 H     1 <1>   0.0800 
 40 H       -5.4720    -4.5270     1.7300 H     1 <1>   0.0800 
 41 H       -4.3050    -5.4580     0.8360 H     1 <1>   0.0800 
 42 H        3.5850    -3.1460    -0.7440 H     1 <1>   0.0800 
 43 H        2.9360    -2.3220     0.6440 H     1 <1>   0.0800 
 44 H       -6.2030    -4.9340    -0.6130 H     1 <1>   0.0800 
 45 H       -6.0490    -3.2390    -0.2590 H     1 <1>   0.0800 
@<TRIPOS>BOND
  1   1   2  2   
  2   2   3  am  
  3   2   4  1   
  4   3   5  1   
  5   3   6  1   
  6   4   7  1   
  7   4   8  2   
  8   5   9  1   
  9   5  10  1   
 10   5  21  1   
 11   6  11  1   
 12   6  12  1   
 13   6  22  1   
 14   7  13  1   
 15   8  14  1   
 16   8  23  1   
 17   9  15  1   
 18   9  24  1   
 19   9  25  1   
 20  10  16  1   
 21  10  26  1   
 22  10  27  1   
 23  11  17  1   
 24  11  28  1   
 25  11  29  1   
 26  12  18  1   
 27  12  30  1   
 28  12  31  1   
 29  13  14  2   
 30  13  32  1   
 31  14  33  1   
 32  15  19  1   
 33  15  34  1   
 34  15  35  1   
 35  16  19  1   
 36  16  36  1   
 37  16  37  1   
 38  17  20  1   
 39  17  38  1   
 40  17  39  1   
 41  18  20  1   
 42  18  40  1   
 43  18  41  1   
 44  19  42  1   
 45  19  43  1   
 46  20  44  1   
 47  20  45  1   
@<TRIPOS>SUBSTRUCTURE
  1 ****   3 GROUP 4 **** **** 0

# MOE 2024.06 (io_trps.svl 2023.06)
