@<TRIPOS>MOLECULE
NONAME
42 44 1 0 0 
SMALL
USER_CHARGES


@<TRIPOS>ATOM
  1 O       -2.4890     1.3840     2.3190 O.co2 1 <1>  -0.9000 
  2 C       -2.5910     2.6130     2.2990 C.2   1 <1>   0.9060 
  3 O       -3.2640     3.2210     3.1400 O.co2 1 <1>  -0.9000 
  4 C       -1.9360     3.4310     1.2050 C.3   1 <1>  -0.1860 
  5 C       -2.9650     4.1160     0.2790 C.3   1 <1>  -0.0190 
  6 C       -0.8950     2.6590     0.3840 C.3   1 <1>  -0.0220 
  7 C       -3.8320     3.1790    -0.5960 C.2   1 <1>   0.5690 
  8 C       -2.2150     5.1590    -0.5790 C.3   1 <1>  -0.0220 
  9 C       -0.2850     3.5380    -0.7090 C.2   1 <1>  -0.2760 
 10 O       -3.4100     2.8520    -1.6840 O.2   1 <1>  -0.5700 
 11 N       -5.1080     2.8180    -0.1960 N.am  1 <1>  -0.4770 
 12 C       -0.8680     4.6740    -1.1270 C.2   1 <1>  -0.2760 
 13 C        1.0130     2.9320    -1.2290 C.3   1 <1>  -0.1020 
 14 C       -6.1800     2.3830    -0.9910 C.ar  1 <1>   0.1170 
 15 C       -5.5080     2.6750     1.2340 C.3   1 <1>   0.1400 
 16 C       -0.3310     5.6350    -2.1810 C.3   1 <1>  -0.1020 
 17 C       -7.2870     2.0700    -0.2290 C.ar  1 <1>  -0.1430 
 18 C       -6.2570     2.2550    -2.3730 C.ar  1 <1>  -0.1500 
 19 C       -6.9920     2.2870     1.2320 C.3   1 <1>  -0.0170 
 20 C       -8.4650     1.6280    -0.8010 C.ar  1 <1>  -0.1500 
 21 C       -7.4310     1.8140    -2.9620 C.ar  1 <1>  -0.1500 
 22 C       -8.5330     1.5000    -2.1800 C.ar  1 <1>  -0.1500 
 23 H       -1.4070     4.2060     1.7270 H     1 <1>   0.0800 
 24 H       -3.6390     4.6750     0.9000 H     1 <1>   0.0800 
 25 H       -1.3500     1.7920    -0.0660 H     1 <1>   0.0800 
 26 H       -0.1300     2.3130     1.0570 H     1 <1>   0.0800 
 27 H       -2.0310     6.0290     0.0250 H     1 <1>   0.0800 
 28 H       -2.8530     5.4590    -1.3920 H     1 <1>   0.0800 
 29 H        1.7520     2.9300    -0.4480 H     1 <1>   0.0800 
 30 H        1.4100     3.4590    -2.0720 H     1 <1>   0.0800 
 31 H        0.8330     1.9170    -1.5350 H     1 <1>   0.0800 
 32 H       -5.3520     3.5880     1.7800 H     1 <1>   0.0800 
 33 H       -4.9410     1.8780     1.6810 H     1 <1>   0.0800 
 34 H       -0.9800     5.6270    -3.0390 H     1 <1>   0.0800 
 35 H        0.6570     5.3820    -2.5060 H     1 <1>   0.0800 
 36 H       -0.2970     6.6320    -1.7810 H     1 <1>   0.0800 
 37 H       -5.4070     2.4960    -2.9830 H     1 <1>   0.1500 
 38 H       -7.5900     3.0860     1.6290 H     1 <1>   0.0800 
 39 H       -7.1480     1.3920     1.8060 H     1 <1>   0.0800 
 40 H       -9.3130     1.3870    -0.1860 H     1 <1>   0.1500 
 41 H       -7.4840     1.7140    -4.0310 H     1 <1>   0.1500 
 42 H       -9.4410     1.1560    -2.6430 H     1 <1>   0.1500 
@<TRIPOS>BOND
  1   1   2  ar  
  2   2   3  ar  
  3   2   4  1   
  4   4   5  1   
  5   4   6  1   
  6   4  23  1   
  7   5   7  1   
  8   5   8  1   
  9   5  24  1   
 10   6   9  1   
 11   6  25  1   
 12   6  26  1   
 13   7  10  2   
 14   7  11  am  
 15   8  12  1   
 16   8  27  1   
 17   8  28  1   
 18   9  12  2   
 19   9  13  1   
 20  11  14  1   
 21  11  15  1   
 22  12  16  1   
 23  13  29  1   
 24  13  30  1   
 25  13  31  1   
 26  14  17  ar  
 27  14  18  ar  
 28  15  19  1   
 29  15  32  1   
 30  15  33  1   
 31  16  34  1   
 32  16  35  1   
 33  16  36  1   
 34  17  19  1   
 35  17  20  ar  
 36  18  21  ar  
 37  18  37  1   
 38  19  38  1   
 39  19  39  1   
 40  20  22  ar  
 41  20  40  1   
 42  21  22  ar  
 43  21  41  1   
 44  22  42  1   
@<TRIPOS>SUBSTRUCTURE
  1 ****   7 GROUP 4 **** **** 0

# MOE 2024.06 (io_trps.svl 2023.06)
