@<TRIPOS>MOLECULE
NONAME
30 31 1 0 0 
SMALL
USER_CHARGES


@<TRIPOS>ATOM
  1 O        1.0820     1.7900    -0.5020 O.co2 1 <1>  -0.9000 
  2 C        1.0460     3.0070    -0.7730 C.2   1 <1>   1.0320 
  3 O        2.0530     3.5550    -1.2560 O.co2 1 <1>  -0.9000 
  4 C       -0.1690     3.7720    -0.5480 C.2   1 <1>  -0.0920 
  5 O       -1.2210     3.2070     0.0280 O.3   1 <1>  -0.2800 
  6 C       -0.4950     5.0600    -0.8430 C.2   1 <1>  -0.1500 
  7 C       -2.2080     4.0680     0.0890 C.2   1 <1>  -0.0400 
  8 C       -1.8190     5.2510    -0.4350 C.2   1 <1>  -0.1500 
  9 C       -3.5120     3.5650     0.6710 C.3   1 <1>   0.5230 
 10 N       -3.7250     2.1850     0.1510 N.4   1 <1>  -0.9590 
 11 C       -5.1420     1.8730    -0.1640 C.3   1 <1>   0.3430 
 12 C       -3.0700     1.1640     1.0240 C.3   1 <1>   0.3430 
 13 C       -5.2220     0.5150    -0.8660 C.3   1 <1>  -0.1600 
 14 C       -3.1240    -0.2010     0.3370 C.3   1 <1>  -0.1600 
 15 C       -4.5580    -0.5960    -0.0420 C.3   1 <1>  -0.1600 
 16 H        0.1500     5.7850    -1.3100 H     1 <1>   0.1500 
 17 H       -2.3670     6.1700    -0.5470 H     1 <1>   0.1500 
 18 H       -4.3110     4.2180     0.3640 H     1 <1>   0.0800 
 19 H       -3.4550     3.5550     1.7460 H     1 <1>   0.0800 
 20 H       -3.1670     2.1660    -0.7180 H     1 <1>   0.4500 
 21 H       -5.5550     2.6330    -0.8070 H     1 <1>   0.0800 
 22 H       -5.7190     1.8410     0.7460 H     1 <1>   0.0800 
 23 H       -3.5750     1.1120     1.9740 H     1 <1>   0.0800 
 24 H       -2.0370     1.4260     1.2000 H     1 <1>   0.0800 
 25 H       -4.7460     0.5870    -1.8290 H     1 <1>   0.0800 
 26 H       -6.2550     0.2660    -1.0350 H     1 <1>   0.0800 
 27 H       -2.7070    -0.9410     0.9970 H     1 <1>   0.0800 
 28 H       -2.5010    -0.1740    -0.5410 H     1 <1>   0.0800 
 29 H       -4.5440    -1.5130    -0.6080 H     1 <1>   0.0800 
 30 H       -5.1300    -0.7730     0.8540 H     1 <1>   0.0800 
@<TRIPOS>BOND
  1   1   2  ar  
  2   2   3  ar  
  3   2   4  1   
  4   4   5  1   
  5   4   6  2   
  6   5   7  1   
  7   6   8  1   
  8   6  16  1   
  9   7   8  2   
 10   7   9  1   
 11   8  17  1   
 12   9  10  1   
 13   9  18  1   
 14   9  19  1   
 15  10  11  1   
 16  10  12  1   
 17  10  20  1   
 18  11  13  1   
 19  11  21  1   
 20  11  22  1   
 21  12  14  1   
 22  12  23  1   
 23  12  24  1   
 24  13  15  1   
 25  13  25  1   
 26  13  26  1   
 27  14  15  1   
 28  14  27  1   
 29  14  28  1   
 30  15  29  1   
 31  15  30  1   
@<TRIPOS>SUBSTRUCTURE
  1 ****   5 GROUP 4 **** **** 0

# MOE 2024.06 (io_trps.svl 2023.06)
