@<TRIPOS>MOLECULE
NONAME
38 39 1 0 0 
SMALL
USER_CHARGES


@<TRIPOS>ATOM
  1 F        0.1630    -0.2490     1.2100 F     1 <1>  -0.3400 
  2 C        0.4020    -1.3780     0.5570 C.3   1 <1>   1.1640 
  3 F        1.1230    -2.1380     1.3730 F     1 <1>  -0.3400 
  4 F        1.1970    -1.0630    -0.4580 F     1 <1>  -0.3400 
  5 C       -0.9020    -2.0590     0.1050 C.ar  1 <1>  -0.1440 
  6 C       -1.4680    -1.7660    -1.1310 C.ar  1 <1>  -0.1500 
  7 C       -1.5480    -2.9780     0.9250 C.ar  1 <1>  -0.1500 
  8 C       -2.6440    -2.3720    -1.5360 C.ar  1 <1>  -0.1500 
  9 C       -2.7240    -3.5860     0.5230 C.ar  1 <1>  -0.1500 
 10 C       -3.2840    -3.2820    -0.7090 C.ar  1 <1>  -0.1430 
 11 C       -4.5830    -3.9320    -1.1440 C.3   1 <1>   0.4870 
 12 N       -5.6990    -3.3170    -0.3750 N.4   1 <1>  -0.9590 
 13 C       -6.9750    -4.0900    -0.5270 C.3   1 <1>   0.3430 
 14 C       -5.8760    -1.8720    -0.6900 C.3   1 <1>   0.3430 
 15 C       -8.2120    -3.2930    -0.0690 C.3   1 <1>  -0.0800 
 16 C       -6.7880    -1.2350     0.3660 C.3   1 <1>  -0.1600 
 17 C       -7.8450    -2.1930     0.9480 C.3   1 <1>  -0.1600 
 18 C       -9.2740    -4.2620     0.4690 C.3   1 <1>   0.1200 
 19 O      -10.4600    -3.5800     0.6530 O.3   1 <1>  -0.6800 
 20 H       -0.9890    -1.0590    -1.7910 H     1 <1>   0.1500 
 21 H       -1.1320    -3.2290     1.8890 H     1 <1>   0.1500 
 22 H       -3.0470    -2.1240    -2.5050 H     1 <1>   0.1500 
 23 H       -3.1880    -4.3000     1.1830 H     1 <1>   0.1500 
 24 H       -4.5320    -4.9900    -0.9440 H     1 <1>   0.0800 
 25 H       -4.7340    -3.7900    -2.2020 H     1 <1>   0.0800 
 26 H       -5.4220    -3.3460     0.6130 H     1 <1>   0.4500 
 27 H       -6.9030    -4.9950     0.0550 H     1 <1>   0.0800 
 28 H       -7.1160    -4.3730    -1.5580 H     1 <1>   0.0800 
 29 H       -6.3240    -1.7680    -1.6650 H     1 <1>   0.0800 
 30 H       -4.9260    -1.3600    -0.6950 H     1 <1>   0.0800 
 31 H       -8.6290    -2.8250    -0.9460 H     1 <1>   0.0800 
 32 H       -7.2820    -0.3960    -0.0930 H     1 <1>   0.0800 
 33 H       -6.1860    -0.8390     1.1660 H     1 <1>   0.0800 
 34 H       -7.4590    -2.6520     1.8440 H     1 <1>   0.0800 
 35 H       -8.7180    -1.6260     1.2260 H     1 <1>   0.0800 
 36 H       -8.9840    -4.7010     1.4100 H     1 <1>   0.0800 
 37 H       -9.4700    -5.0480    -0.2420 H     1 <1>   0.0800 
 38 H      -10.4270    -2.9950     1.4360 H     1 <1>   0.4000 
@<TRIPOS>BOND
  1   1   2  1   
  2   2   3  1   
  3   2   4  1   
  4   2   5  1   
  5   5   6  ar  
  6   5   7  ar  
  7   6   8  ar  
  8   6  20  1   
  9   7   9  ar  
 10   7  21  1   
 11   8  10  ar  
 12   8  22  1   
 13   9  10  ar  
 14   9  23  1   
 15  10  11  1   
 16  11  12  1   
 17  11  24  1   
 18  11  25  1   
 19  12  13  1   
 20  12  14  1   
 21  12  26  1   
 22  13  15  1   
 23  13  27  1   
 24  13  28  1   
 25  14  16  1   
 26  14  29  1   
 27  14  30  1   
 28  15  17  1   
 29  15  18  1   
 30  15  31  1   
 31  16  17  1   
 32  16  32  1   
 33  16  33  1   
 34  17  34  1   
 35  17  35  1   
 36  18  19  1   
 37  18  36  1   
 38  18  37  1   
 39  19  38  1   
@<TRIPOS>SUBSTRUCTURE
  1 ****  10 GROUP 4 **** **** 0

# MOE 2024.06 (io_trps.svl 2023.06)
