@<TRIPOS>MOLECULE
NONAME
43 44 1 0 0 
SMALL
USER_CHARGES


@<TRIPOS>ATOM
  1 S       -0.0440     0.2680    -0.9420 S.o2  1 <1>   1.4470 
  2 O        0.6390     0.2940    -2.2130 O.2   1 <1>  -0.6500 
  3 O       -0.8870     1.3790    -0.5630 O.2   1 <1>  -0.6500 
  4 N        1.1860     0.1990     0.1990 N.am  1 <1>  -0.9140 
  5 C       -0.9200    -1.3070    -0.7290 C.ar  1 <1>  -0.0090 
  6 C        0.7730     0.4820     1.5730 C.3   1 <1>   0.1160 
  7 C       -2.2000    -1.3540    -0.1970 C.ar  1 <1>  -0.1500 
  8 C       -0.3200    -2.5100    -1.0750 C.ar  1 <1>  -0.1500 
  9 C       -2.8950    -2.5480    -0.0050 C.ar  1 <1>   0.0860 
 10 C       -0.9800    -3.7120    -0.8970 C.ar  1 <1>  -0.1500 
 11 C       -2.2590    -3.7400    -0.3670 C.ar  1 <1>  -0.1430 
 12 C       -4.2350    -2.5030     0.5510 C.2   1 <1>   0.5440 
 13 C       -2.9550    -5.0840    -0.1860 C.3   1 <1>  -0.0960 
 14 O       -4.5100    -3.0940     1.5760 O.2   1 <1>  -0.5700 
 15 N       -5.2010    -1.7770    -0.0830 N.am  1 <1>  -0.7300 
 16 C       -6.5940    -1.6240     0.3660 C.3   1 <1>   0.2200 
 17 C       -7.5170    -2.3310    -0.6310 C.3   1 <1>  -0.1600 
 18 C       -6.9200    -0.1300     0.4640 C.3   1 <1>  -0.1600 
 19 C       -8.9940    -2.1120    -0.2720 C.3   1 <1>  -0.1600 
 20 C       -8.3960     0.0930     0.8250 C.3   1 <1>  -0.1600 
 21 C       -9.3250    -0.6170    -0.1700 C.3   1 <1>  -0.1600 
 22 H        1.8360     0.9210    -0.1080 H     1 <1>   0.4200 
 23 H        0.0320    -0.2320     1.8920 H     1 <1>   0.0800 
 24 H        0.3610     1.4750     1.6480 H     1 <1>   0.0800 
 25 H        1.6250     0.4090     2.2280 H     1 <1>   0.0800 
 26 H       -2.6810    -0.4320     0.0860 H     1 <1>   0.1500 
 27 H        0.6760    -2.5030    -1.4870 H     1 <1>   0.1500 
 28 H       -0.4860    -4.6270    -1.1740 H     1 <1>   0.1500 
 29 H       -3.9310    -5.0620    -0.6370 H     1 <1>   0.0800 
 30 H       -3.0660    -5.2990     0.8620 H     1 <1>   0.0800 
 31 H       -2.3920    -5.8790    -0.6390 H     1 <1>   0.0800 
 32 H       -4.9860    -1.3330    -0.9750 H     1 <1>   0.3700 
 33 H       -6.7160    -2.0740     1.3390 H     1 <1>   0.0800 
 34 H       -7.3020    -3.3860    -0.6230 H     1 <1>   0.0800 
 35 H       -7.3370    -1.9520    -1.6210 H     1 <1>   0.0800 
 36 H       -6.7160     0.3470    -0.4780 H     1 <1>   0.0800 
 37 H       -6.2980     0.3190     1.2180 H     1 <1>   0.0800 
 38 H       -9.2040    -2.5880     0.6710 H     1 <1>   0.0800 
 39 H       -9.6190    -2.5710    -1.0190 H     1 <1>   0.0800 
 40 H       -8.6120     1.1480     0.8320 H     1 <1>   0.0800 
 41 H       -8.5800    -0.2870     1.8160 H     1 <1>   0.0800 
 42 H      -10.3480    -0.4950     0.1420 H     1 <1>   0.0800 
 43 H       -9.2210    -0.1620    -1.1410 H     1 <1>   0.0800 
@<TRIPOS>BOND
  1   1   2  2   
  2   1   3  2   
  3   1   4  am  
  4   1   5  1   
  5   4   6  1   
  6   4  22  1   
  7   5   7  ar  
  8   5   8  ar  
  9   6  23  1   
 10   6  24  1   
 11   6  25  1   
 12   7   9  ar  
 13   7  26  1   
 14   8  10  ar  
 15   8  27  1   
 16   9  11  ar  
 17   9  12  1   
 18  10  11  ar  
 19  10  28  1   
 20  11  13  1   
 21  12  14  2   
 22  12  15  am  
 23  13  29  1   
 24  13  30  1   
 25  13  31  1   
 26  15  16  1   
 27  15  32  1   
 28  16  17  1   
 29  16  18  1   
 30  16  33  1   
 31  17  19  1   
 32  17  34  1   
 33  17  35  1   
 34  18  20  1   
 35  18  36  1   
 36  18  37  1   
 37  19  21  1   
 38  19  38  1   
 39  19  39  1   
 40  20  21  1   
 41  20  40  1   
 42  20  41  1   
 43  21  42  1   
 44  21  43  1   
@<TRIPOS>SUBSTRUCTURE
  1 ****   9 GROUP 4 **** **** 0

# MOE 2024.06 (io_trps.svl 2023.06)
