@<TRIPOS>MOLECULE
NONAME
49 51 1 0 0 
SMALL
USER_CHARGES


@<TRIPOS>ATOM
  1 F        0.1010    -0.9210     0.8260 F     1 <1>  -0.1900 
  2 C       -0.0550    -1.9270    -0.0020 C.ar  1 <1>   0.1900 
  3 C        1.0300    -2.7620    -0.2990 C.ar  1 <1>   0.1000 
  4 C       -1.3110    -2.1090    -0.5480 C.ar  1 <1>  -0.1500 
  5 N        2.3220    -2.6210     0.2230 N.pl3 1 <1>  -0.8380 
  6 C        0.7910    -3.8070    -1.1820 C.ar  1 <1>  -0.1500 
  7 C       -1.5140    -3.1610    -1.4260 C.ar  1 <1>  -0.1500 
  8 C        3.0550    -1.3840    -0.1670 C.3   1 <1>   0.2090 
  9 C        2.4660    -2.8600     1.6880 C.3   1 <1>   0.2090 
 10 C       -0.4620    -4.0070    -1.7400 C.ar  1 <1>  -0.1500 
 11 C        4.5420    -1.4880     0.2230 C.3   1 <1>   0.1100 
 12 C        3.9540    -2.9590     2.0770 C.3   1 <1>   0.1100 
 13 N        4.7330    -1.7650     1.6680 N.3   1 <1>  -0.8100 
 14 C        6.1590    -1.9100     2.0800 C.3   1 <1>   0.1710 
 15 C        7.0960    -0.7390     1.7530 C.2   1 <1>   0.5690 
 16 O        7.3770     0.0460     2.6260 O.2   1 <1>  -0.5700 
 17 N        7.5990    -0.6690     0.4790 N.am  1 <1>  -0.5470 
 18 C        8.4900     0.2220    -0.1410 C.ar  1 <1>   0.1170 
 19 C        8.4940     0.3350    -1.5360 C.ar  1 <1>  -0.1430 
 20 C        9.3950     0.9840     0.5930 C.ar  1 <1>  -0.1500 
 21 C        9.3930     1.1900    -2.1550 C.ar  1 <1>  -0.1500 
 22 C        7.5270    -0.4530    -2.4170 C.3   1 <1>  -0.0170 
 23 C       10.2830     1.8380    -0.0320 C.ar  1 <1>  -0.1500 
 24 C       10.2840     1.9410    -1.4100 C.ar  1 <1>  -0.1500 
 25 C        8.0320    -1.8790    -2.6550 C.3   1 <1>  -0.2400 
 26 H       -2.1120    -1.4410    -0.2890 H     1 <1>   0.1500 
 27 H        1.6050    -4.4650    -1.4270 H     1 <1>   0.1500 
 28 H       -2.4850    -3.3210    -1.8620 H     1 <1>   0.1500 
 29 H        2.6220    -0.5310     0.3250 H     1 <1>   0.0800 
 30 H        2.9700    -1.2390    -1.2300 H     1 <1>   0.0800 
 31 H        1.9630    -3.7740     1.9510 H     1 <1>   0.0800 
 32 H        2.0100    -2.0540     2.2370 H     1 <1>   0.0800 
 33 H       -0.6180    -4.8250    -2.4210 H     1 <1>   0.1500 
 34 H        5.0090    -0.5510    -0.0240 H     1 <1>   0.0800 
 35 H        4.9950    -2.2690    -0.3630 H     1 <1>   0.0800 
 36 H        4.3660    -3.8390     1.6140 H     1 <1>   0.0800 
 37 H        4.0210    -3.0770     3.1440 H     1 <1>   0.0800 
 38 H        6.5680    -2.8000     1.6360 H     1 <1>   0.0800 
 39 H        6.1880    -2.0430     3.1480 H     1 <1>   0.0800 
 40 H        7.2190    -1.3620    -0.1590 H     1 <1>   0.3700 
 41 H        9.4140     0.9130     1.6640 H     1 <1>   0.1500 
 42 H        9.4060     1.2810    -3.2270 H     1 <1>   0.1500 
 43 H        7.4220     0.0410    -3.3680 H     1 <1>   0.0800 
 44 H        6.5500    -0.4730    -1.9700 H     1 <1>   0.0800 
 45 H       10.9730     2.4200     0.5540 H     1 <1>   0.1500 
 46 H       10.9760     2.6030    -1.9010 H     1 <1>   0.1500 
 47 H        8.9890    -1.8500    -3.1470 H     1 <1>   0.0800 
 48 H        7.3420    -2.4180    -3.2810 H     1 <1>   0.0800 
 49 H        8.1450    -2.4090    -1.7270 H     1 <1>   0.0800 
@<TRIPOS>BOND
  1   1   2  1   
  2   2   3  ar  
  3   2   4  ar  
  4   3   5  1   
  5   3   6  ar  
  6   4   7  ar  
  7   4  26  1   
  8   5   8  1   
  9   5   9  1   
 10   6  10  ar  
 11   6  27  1   
 12   7  10  ar  
 13   7  28  1   
 14   8  11  1   
 15   8  29  1   
 16   8  30  1   
 17   9  12  1   
 18   9  31  1   
 19   9  32  1   
 20  10  33  1   
 21  11  13  1   
 22  11  34  1   
 23  11  35  1   
 24  12  13  1   
 25  12  36  1   
 26  12  37  1   
 27  13  14  1   
 28  14  15  1   
 29  14  38  1   
 30  14  39  1   
 31  15  16  2   
 32  15  17  am  
 33  17  18  1   
 34  17  40  1   
 35  18  19  ar  
 36  18  20  ar  
 37  19  21  ar  
 38  19  22  1   
 39  20  23  ar  
 40  20  41  1   
 41  21  24  ar  
 42  21  42  1   
 43  22  25  1   
 44  22  43  1   
 45  22  44  1   
 46  23  24  ar  
 47  23  45  1   
 48  24  46  1   
 49  25  47  1   
 50  25  48  1   
 51  25  49  1   
@<TRIPOS>SUBSTRUCTURE
  1 ****  11 GROUP 4 **** **** 0

# MOE 2024.06 (io_trps.svl 2023.06)
