@<TRIPOS>MOLECULE
NONAME
46 47 1 0 0 
SMALL
USER_CHARGES


@<TRIPOS>ATOM
  1 O       -0.1320    -0.0320     0.9530 O.2   1 <1>  -0.5700 
  2 C       -0.0830    -0.9910     0.2080 C.2   1 <1>   0.6900 
  3 N       -1.2010    -1.5250    -0.3590 N.am  1 <1>  -0.5470 
  4 N        1.1030    -1.5780    -0.0820 N.am  1 <1>  -0.7300 
  5 C       -2.5360    -1.0880    -0.3270 C.ar  1 <1>   0.1170 
  6 C        2.4060    -1.1520     0.4540 C.3   1 <1>   0.2200 
  7 C       -3.5510    -2.0290    -0.4390 C.ar  1 <1>  -0.1500 
  8 C       -2.8730     0.2550    -0.2050 C.ar  1 <1>  -0.1500 
  9 C        3.2040    -0.4730    -0.6640 C.3   1 <1>  -0.1600 
 10 C        3.1430    -2.3800     0.9980 C.3   1 <1>  -0.1600 
 11 C       -4.8880    -1.6460    -0.4280 C.ar  1 <1>   0.0830 
 12 C       -4.2020     0.6630    -0.1840 C.ar  1 <1>   0.0830 
 13 C        4.6170    -0.1020    -0.1890 C.3   1 <1>  -0.1600 
 14 C        4.5560    -2.0120     1.4760 C.3   1 <1>  -0.1600 
 15 O       -5.9120    -2.5440    -0.5280 O.3   1 <1>  -0.3630 
 16 C       -5.2100    -0.2950    -0.3020 C.ar  1 <1>   0.0830 
 17 O       -4.5660     1.9730    -0.0480 O.3   1 <1>  -0.3630 
 18 C        5.3580    -1.3280     0.3600 C.3   1 <1>  -0.1600 
 19 C       -5.6790    -3.9090    -0.7940 C.3   1 <1>   0.0400 
 20 O       -6.5180     0.0900    -0.3110 O.3   1 <1>  -0.3630 
 21 C       -3.6050     2.9810     0.1760 C.3   1 <1>   0.0400 
 22 C       -7.1010     0.2150     0.9630 C.3   1 <1>   0.0400 
 23 H       -1.0520    -2.4360    -0.7750 H     1 <1>   0.3700 
 24 H        1.1540    -2.2670    -0.8260 H     1 <1>   0.3700 
 25 H        2.2580    -0.4480     1.2580 H     1 <1>   0.0800 
 26 H       -3.2780    -3.0600    -0.5270 H     1 <1>   0.1500 
 27 H       -2.0800     0.9710    -0.1300 H     1 <1>   0.1500 
 28 H        2.6880     0.4200    -0.9740 H     1 <1>   0.0800 
 29 H        3.2820    -1.1350    -1.5080 H     1 <1>   0.0800 
 30 H        3.2200    -3.1270     0.2280 H     1 <1>   0.0800 
 31 H        2.5870    -2.7910     1.8220 H     1 <1>   0.0800 
 32 H        4.5470     0.6470     0.5820 H     1 <1>   0.0800 
 33 H        5.1740     0.3210    -1.0080 H     1 <1>   0.0800 
 34 H        5.0710    -2.9000     1.7990 H     1 <1>   0.0800 
 35 H        4.4830    -1.3470     2.3200 H     1 <1>   0.0800 
 36 H        6.3190    -1.0270     0.7410 H     1 <1>   0.0800 
 37 H        5.5270    -2.0300    -0.4390 H     1 <1>   0.0800 
 38 H       -6.6330    -4.3960    -0.8840 H     1 <1>   0.0800 
 39 H       -5.1280    -4.3360     0.0240 H     1 <1>   0.0800 
 40 H       -5.1370    -3.9960    -1.7190 H     1 <1>   0.0800 
 41 H       -4.1240     3.9140     0.3010 H     1 <1>   0.0800 
 42 H       -2.9530     3.0370    -0.6770 H     1 <1>   0.0800 
 43 H       -3.0530     2.7450     1.0690 H     1 <1>   0.0800 
 44 H       -8.1260     0.5130     0.8340 H     1 <1>   0.0800 
 45 H       -6.5650     0.9640     1.5190 H     1 <1>   0.0800 
 46 H       -7.0500    -0.7360     1.4620 H     1 <1>   0.0800 
@<TRIPOS>BOND
  1   1   2  2   
  2   2   3  am  
  3   2   4  am  
  4   3   5  1   
  5   3  23  1   
  6   4   6  1   
  7   4  24  1   
  8   5   7  ar  
  9   5   8  ar  
 10   6   9  1   
 11   6  10  1   
 12   6  25  1   
 13   7  11  ar  
 14   7  26  1   
 15   8  12  ar  
 16   8  27  1   
 17   9  13  1   
 18   9  28  1   
 19   9  29  1   
 20  10  14  1   
 21  10  30  1   
 22  10  31  1   
 23  11  15  1   
 24  11  16  ar  
 25  12  16  ar  
 26  12  17  1   
 27  13  18  1   
 28  13  32  1   
 29  13  33  1   
 30  14  18  1   
 31  14  34  1   
 32  14  35  1   
 33  15  19  1   
 34  16  20  1   
 35  17  21  1   
 36  18  36  1   
 37  18  37  1   
 38  19  38  1   
 39  19  39  1   
 40  19  40  1   
 41  20  22  1   
 42  21  41  1   
 43  21  42  1   
 44  21  43  1   
 45  22  44  1   
 46  22  45  1   
 47  22  46  1   
@<TRIPOS>SUBSTRUCTURE
  1 ****   3 GROUP 4 **** **** 0

# MOE 2024.06 (io_trps.svl 2023.06)
