@<TRIPOS>MOLECULE
NONAME
47 48 1 0 0 
SMALL
USER_CHARGES


@<TRIPOS>ATOM
  1 CL      -0.3420     1.4080    -0.7200 Cl    1 <1>  -0.1770 
  2 C        1.3930     1.5880    -0.5450 C.ar  1 <1>   0.1770 
  3 C        1.9360     2.0510     0.6470 C.ar  1 <1>   0.0830 
  4 C        2.1900     1.2570    -1.6230 C.ar  1 <1>  -0.1500 
  5 O        1.0840     2.3570     1.6660 O.3   1 <1>  -0.3630 
  6 C        3.3180     2.1790     0.7440 C.ar  1 <1>  -0.1500 
  7 C        3.5700     1.3890    -1.5180 C.ar  1 <1>   0.0830 
  8 C        1.5620     2.8360     2.9050 C.3   1 <1>   0.0400 
  9 C        4.1440     1.8540    -0.3270 C.ar  1 <1>   0.1170 
 10 O        4.4240     1.0810    -2.5430 O.3   1 <1>  -0.3630 
 11 N        5.5480     1.9640    -0.2840 N.am  1 <1>  -0.5470 
 12 C        3.9320     0.6390    -3.7910 C.3   1 <1>   0.0400 
 13 C        6.4330     2.4140     0.6560 C.2   1 <1>   0.5690 
 14 O        6.1020     2.8190     1.7430 O.2   1 <1>  -0.5700 
 15 C        7.9150     2.3690     0.3090 C.3   1 <1>  -0.0190 
 16 C        8.7870     3.2490     1.2150 C.3   1 <1>   0.1400 
 17 C        8.2570     2.8220    -1.1200 C.3   1 <1>  -0.0990 
 18 N        9.9000     3.6930     0.3410 N.am  1 <1>  -0.6600 
 19 C        9.6100     3.4560    -0.9660 C.2   1 <1>   0.5690 
 20 C       11.0910     4.4270     0.8610 C.3   1 <1>   0.3000 
 21 O       10.2950     3.7010    -1.9290 O.2   1 <1>  -0.5700 
 22 C       11.0610     4.5330     2.3920 C.3   1 <1>  -0.2400 
 23 C       11.0990     5.8430     0.2790 C.3   1 <1>  -0.2400 
 24 C       12.3600     3.6710     0.4570 C.3   1 <1>  -0.2400 
 25 H        1.7100     0.9050    -2.5150 H     1 <1>   0.1500 
 26 H        3.7600     2.5320     1.6520 H     1 <1>   0.1500 
 27 H        0.7160     3.0080     3.5450 H     1 <1>   0.0800 
 28 H        2.0910     3.7590     2.7430 H     1 <1>   0.0800 
 29 H        2.2060     2.0940     3.3430 H     1 <1>   0.0800 
 30 H        5.9610     1.6480    -1.1640 H     1 <1>   0.3700 
 31 H        4.7710     0.4720    -4.4420 H     1 <1>   0.0800 
 32 H        3.2950     1.4000    -4.2070 H     1 <1>   0.0800 
 33 H        3.3930    -0.2810    -3.6490 H     1 <1>   0.0800 
 34 H        8.2490     1.3550     0.4350 H     1 <1>   0.0800 
 35 H        9.1430     2.6810     2.0570 H     1 <1>   0.0800 
 36 H        8.2460     4.1150     1.5590 H     1 <1>   0.0800 
 37 H        7.5750     3.5730    -1.4740 H     1 <1>   0.0800 
 38 H        8.2990     1.9990    -1.8100 H     1 <1>   0.0800 
 39 H       11.0850     3.5590     2.8440 H     1 <1>   0.0800 
 40 H       10.1890     5.0670     2.7230 H     1 <1>   0.0800 
 41 H       11.9240     5.0730     2.7380 H     1 <1>   0.0800 
 42 H       10.1870     6.3530     0.5280 H     1 <1>   0.0800 
 43 H       11.2040     5.8170    -0.7910 H     1 <1>   0.0800 
 44 H       11.9250     6.4050     0.6750 H     1 <1>   0.0800 
 45 H       13.2280     4.1540     0.8650 H     1 <1>   0.0800 
 46 H       12.3250     2.6610     0.8240 H     1 <1>   0.0800 
 47 H       12.4700     3.6490    -0.6120 H     1 <1>   0.0800 
@<TRIPOS>BOND
  1   1   2  1   
  2   2   3  ar  
  3   2   4  ar  
  4   3   5  1   
  5   3   6  ar  
  6   4   7  ar  
  7   4  25  1   
  8   5   8  1   
  9   6   9  ar  
 10   6  26  1   
 11   7   9  ar  
 12   7  10  1   
 13   8  27  1   
 14   8  28  1   
 15   8  29  1   
 16   9  11  1   
 17  10  12  1   
 18  11  13  am  
 19  11  30  1   
 20  12  31  1   
 21  12  32  1   
 22  12  33  1   
 23  13  14  2   
 24  13  15  1   
 25  15  16  1   
 26  15  17  1   
 27  15  34  1   
 28  16  18  1   
 29  16  35  1   
 30  16  36  1   
 31  17  19  1   
 32  17  37  1   
 33  17  38  1   
 34  18  19  am  
 35  18  20  1   
 36  19  21  2   
 37  20  22  1   
 38  20  23  1   
 39  20  24  1   
 40  22  39  1   
 41  22  40  1   
 42  22  41  1   
 43  23  42  1   
 44  23  43  1   
 45  23  44  1   
 46  24  45  1   
 47  24  46  1   
 48  24  47  1   
@<TRIPOS>SUBSTRUCTURE
  1 ****  13 GROUP 4 **** **** 0

# MOE 2024.06 (io_trps.svl 2023.06)
