@<TRIPOS>MOLECULE
NONAME
43 45 1 0 0 
SMALL
USER_CHARGES


@<TRIPOS>ATOM
  1 S        0.0410     0.0370    -0.4180 S.o2  1 <1>   1.5000 
  2 O       -0.3030     0.2420    -1.8070 O.2   1 <1>  -0.6500 
  3 O       -0.4090     0.9860     0.5740 O.2   1 <1>  -0.6500 
  4 N        1.7400     0.0970    -0.3790 N.am  1 <1>  -0.8490 
  5 C       -0.3600    -1.6530     0.0930 C.2   1 <1>  -0.0220 
  6 C        2.3640    -0.6370    -1.4980 C.3   1 <1>   0.1960 
  7 C        2.2230     1.4930    -0.3580 C.3   1 <1>   0.1960 
  8 S        0.7170    -2.4600     1.2340 S.3   1 <1>  -0.0800 
  9 C       -1.3840    -2.4790    -0.2110 C.2   1 <1>  -0.1500 
 10 C        3.9090    -0.6700    -1.3770 C.3   1 <1>   0.3430 
 11 C        3.7680     1.5950    -0.4090 C.3   1 <1>   0.3430 
 12 C       -0.2710    -3.9080     1.2440 C.2   1 <1>  -0.1100 
 13 C       -1.3340    -3.7560     0.4350 C.2   1 <1>  -0.1500 
 14 N        4.4330     0.2450    -0.2940 N.4   1 <1>  -0.9590 
 15 C        5.9250     0.2890    -0.1950 C.3   1 <1>   0.4230 
 16 C        6.4880    -1.1360    -0.0270 C.3   1 <1>  -0.1600 
 17 C        6.3520     1.1730     0.9930 C.3   1 <1>  -0.1600 
 18 C        8.0080    -1.1380     0.1860 C.3   1 <1>  -0.1600 
 19 C        7.8730     1.1660     1.2040 C.3   1 <1>  -0.1600 
 20 C        8.4030    -0.2600     1.3770 C.3   1 <1>  -0.1600 
 21 H        2.0970    -0.1760    -2.4360 H     1 <1>   0.0800 
 22 H        1.9970    -1.6500    -1.5250 H     1 <1>   0.0800 
 23 H        1.8820     1.9720     0.5460 H     1 <1>   0.0800 
 24 H        1.8040     2.0420    -1.1850 H     1 <1>   0.0800 
 25 H       -2.1940    -2.2370    -0.8780 H     1 <1>   0.1500 
 26 H        4.3380    -0.4000    -2.3280 H     1 <1>   0.0800 
 27 H        4.2040    -1.6840    -1.1660 H     1 <1>   0.0800 
 28 H        4.0850     2.2390     0.3940 H     1 <1>   0.0800 
 29 H        4.0570     2.0650    -1.3340 H     1 <1>   0.0800 
 30 H        0.0490    -4.7280     1.8630 H     1 <1>   0.1500 
 31 H       -2.0990    -4.4940     0.2620 H     1 <1>   0.1500 
 32 H        4.0700    -0.1520     0.5850 H     1 <1>   0.4500 
 33 H        6.3340     0.7120    -1.0990 H     1 <1>   0.0800 
 34 H        6.2910    -1.7270    -0.9020 H     1 <1>   0.0800 
 35 H        6.0250    -1.6100     0.8220 H     1 <1>   0.0800 
 36 H        5.8810     0.8210     1.8940 H     1 <1>   0.0800 
 37 H        6.0630     2.1950     0.8290 H     1 <1>   0.0800 
 38 H        8.5020    -0.7760    -0.7010 H     1 <1>   0.0800 
 39 H        8.3500    -2.1450     0.3580 H     1 <1>   0.0800 
 40 H        8.1210     1.7440     2.0790 H     1 <1>   0.0800 
 41 H        8.3610     1.6270     0.3620 H     1 <1>   0.0800 
 42 H        9.4770    -0.2370     1.4660 H     1 <1>   0.0800 
 43 H        8.0120    -0.6850     2.2860 H     1 <1>   0.0800 
@<TRIPOS>BOND
  1   1   2  2   
  2   1   3  2   
  3   1   4  am  
  4   1   5  1   
  5   4   6  1   
  6   4   7  1   
  7   5   8  1   
  8   5   9  2   
  9   6  10  1   
 10   6  21  1   
 11   6  22  1   
 12   7  11  1   
 13   7  23  1   
 14   7  24  1   
 15   8  12  1   
 16   9  13  1   
 17   9  25  1   
 18  10  14  1   
 19  10  26  1   
 20  10  27  1   
 21  11  14  1   
 22  11  28  1   
 23  11  29  1   
 24  12  13  2   
 25  12  30  1   
 26  13  31  1   
 27  14  15  1   
 28  14  32  1   
 29  15  16  1   
 30  15  17  1   
 31  15  33  1   
 32  16  18  1   
 33  16  34  1   
 34  16  35  1   
 35  17  19  1   
 36  17  36  1   
 37  17  37  1   
 38  18  20  1   
 39  18  38  1   
 40  18  39  1   
 41  19  20  1   
 42  19  40  1   
 43  19  41  1   
 44  20  42  1   
 45  20  43  1   
@<TRIPOS>SUBSTRUCTURE
  1 ****   4 GROUP 4 **** **** 0

# MOE 2024.06 (io_trps.svl 2023.06)
