@<TRIPOS>MOLECULE
NONAME
53 55 1 0 0 
SMALL
USER_CHARGES


@<TRIPOS>ATOM
  1 O        1.2990    -0.7860     1.0800 O.2   1 <1>  -0.5700 
  2 C        1.1900    -1.3880     0.0280 C.2   1 <1>   0.5440 
  3 N        2.2410    -1.2910    -0.8570 N.am  1 <1>  -0.6600 
  4 C        0.0360    -2.2290    -0.2410 C.ar  1 <1>   0.0860 
  5 C        3.1250    -0.0910    -0.7950 C.3   1 <1>   0.1400 
  6 C        2.9650    -2.5300    -1.2570 C.3   1 <1>   0.1400 
  7 C       -0.3890    -2.4980    -1.5440 C.ar  1 <1>  -0.1500 
  8 C       -0.6910    -2.8070     0.8010 C.ar  1 <1>  -0.1500 
  9 C        4.2630    -0.3390     0.2120 C.3   1 <1>   0.3430 
 10 C        4.1340    -2.7910    -0.2830 C.3   1 <1>   0.3430 
 11 C       -1.4730    -3.3190    -1.7950 C.ar  1 <1>  -0.1500 
 12 C       -1.7760    -3.6290     0.5570 C.ar  1 <1>  -0.1500 
 13 N        5.0390    -1.5900    -0.1170 N.4   1 <1>  -0.9590 
 14 C       -2.1670    -3.8890    -0.7440 C.ar  1 <1>  -0.1500 
 15 C        6.0910    -1.8460     0.9030 C.3   1 <1>   0.4860 
 16 C        6.9830    -2.9630     0.3970 C.ar  1 <1>  -0.1430 
 17 C        6.7790    -4.2610     0.8340 C.ar  1 <1>  -0.1500 
 18 C        7.9990    -2.7080    -0.5090 C.ar  1 <1>  -0.1500 
 19 C        7.5520    -5.3110     0.3670 C.ar  1 <1>   0.0830 
 20 C        8.7860    -3.7440    -0.9820 C.ar  1 <1>  -0.1500 
 21 O        7.2020    -6.5210     0.8890 O.3   1 <1>  -0.3630 
 22 C        8.5750    -5.0560    -0.5630 C.ar  1 <1>   0.0830 
 23 C        8.0520    -7.6440     0.8560 C.3   1 <1>   0.1200 
 24 O        9.3310    -6.0810    -1.0510 O.3   1 <1>  -0.3630 
 25 C        7.4730    -8.7020     1.7910 C.3   1 <1>  -0.2400 
 26 C       10.4230    -5.8780    -1.9220 C.3   1 <1>   0.0400 
 27 H        2.5500     0.7660    -0.4810 H     1 <1>   0.0800 
 28 H        3.5230     0.1210    -1.7710 H     1 <1>   0.0800 
 29 H        3.3360    -2.4240    -2.2620 H     1 <1>   0.0800 
 30 H        2.2970    -3.3740    -1.2410 H     1 <1>   0.0800 
 31 H        0.1320    -2.0520    -2.3730 H     1 <1>   0.1500 
 32 H       -0.4000    -2.6060     1.8180 H     1 <1>   0.1500 
 33 H        3.8210    -0.4310     1.1920 H     1 <1>   0.0800 
 34 H        4.9200     0.5150     0.2210 H     1 <1>   0.0800 
 35 H        4.7040    -3.6340    -0.6380 H     1 <1>   0.0800 
 36 H        3.7170    -3.0580     0.6740 H     1 <1>   0.0800 
 37 H       -1.7840    -3.5140    -2.8080 H     1 <1>   0.1500 
 38 H       -2.3210    -4.0640     1.3780 H     1 <1>   0.1500 
 39 H        5.5240    -1.4530    -1.0120 H     1 <1>   0.4500 
 40 H       -3.0120    -4.5280    -0.9360 H     1 <1>   0.1500 
 41 H        5.6420    -2.1270     1.8420 H     1 <1>   0.0800 
 42 H        6.6850    -0.9600     1.0590 H     1 <1>   0.0800 
 43 H        6.0110    -4.4910     1.5520 H     1 <1>   0.1500 
 44 H        8.1970    -1.7080    -0.8560 H     1 <1>   0.1500 
 45 H        9.5620    -3.5040    -1.6840 H     1 <1>   0.1500 
 46 H        9.0330    -7.3430     1.1790 H     1 <1>   0.0800 
 47 H        8.0890    -8.0130    -0.1550 H     1 <1>   0.0800 
 48 H        7.4280    -8.3210     2.7960 H     1 <1>   0.0800 
 49 H        8.1010    -9.5740     1.7830 H     1 <1>   0.0800 
 50 H        6.4880    -8.9840     1.4660 H     1 <1>   0.0800 
 51 H       10.8700    -6.8340    -2.1250 H     1 <1>   0.0800 
 52 H       11.1410    -5.2360    -1.4410 H     1 <1>   0.0800 
 53 H       10.0660    -5.4430    -2.8380 H     1 <1>   0.0800 
@<TRIPOS>BOND
  1   1   2  2   
  2   2   3  am  
  3   2   4  1   
  4   3   5  1   
  5   3   6  1   
  6   4   7  ar  
  7   4   8  ar  
  8   5   9  1   
  9   5  27  1   
 10   5  28  1   
 11   6  10  1   
 12   6  29  1   
 13   6  30  1   
 14   7  11  ar  
 15   7  31  1   
 16   8  12  ar  
 17   8  32  1   
 18   9  13  1   
 19   9  33  1   
 20   9  34  1   
 21  10  13  1   
 22  10  35  1   
 23  10  36  1   
 24  11  14  ar  
 25  11  37  1   
 26  12  14  ar  
 27  12  38  1   
 28  13  15  1   
 29  13  39  1   
 30  14  40  1   
 31  15  16  1   
 32  15  41  1   
 33  15  42  1   
 34  16  17  ar  
 35  16  18  ar  
 36  17  19  ar  
 37  17  43  1   
 38  18  20  ar  
 39  18  44  1   
 40  19  21  1   
 41  19  22  ar  
 42  20  22  ar  
 43  20  45  1   
 44  21  23  1   
 45  22  24  1   
 46  23  25  1   
 47  23  46  1   
 48  23  47  1   
 49  24  26  1   
 50  25  48  1   
 51  25  49  1   
 52  25  50  1   
 53  26  51  1   
 54  26  52  1   
 55  26  53  1   
@<TRIPOS>SUBSTRUCTURE
  1 ****  10 GROUP 4 **** **** 0

# MOE 2024.06 (io_trps.svl 2023.06)
