@<TRIPOS>MOLECULE
NONAME
46 47 1 0 0 
SMALL
USER_CHARGES


@<TRIPOS>ATOM
  1 S        0.5560     1.3880    -1.0630 S.o2  1 <1>   1.4470 
  2 O        0.7860     0.1530    -1.7740 O.2   1 <1>  -0.6500 
  3 O        0.8000     2.6540    -1.7120 O.2   1 <1>  -0.6500 
  4 N        1.6530     1.4400     0.2540 N.am  1 <1>  -0.7570 
  5 C       -1.0730     1.4010    -0.2730 C.ar  1 <1>  -0.0090 
  6 C        2.3260     0.3310     0.7550 C.ar  1 <1>   0.1990 
  7 C       -1.4790     2.4750     0.5090 C.ar  1 <1>  -0.1500 
  8 C       -1.9480     0.3300    -0.4080 C.ar  1 <1>  -0.1500 
  9 C        3.5330    -0.0680     0.1680 C.ar  1 <1>  -0.1440 
 10 C        1.8380    -0.3700     1.8660 C.ar  1 <1>  -0.1430 
 11 C       -2.7090     2.4900     1.1460 C.ar  1 <1>  -0.1430 
 12 C       -3.1810     0.3260     0.2170 C.ar  1 <1>  -0.1500 
 13 C        4.2180    -1.1590     0.6760 C.ar  1 <1>  -0.1500 
 14 C        4.1460     0.6570    -1.0300 C.3   1 <1>  -0.0170 
 15 C        2.5430    -1.4580     2.3540 C.ar  1 <1>  -0.1500 
 16 C        0.5540     0.0220     2.5930 C.3   1 <1>  -0.0170 
 17 C       -3.5710     1.4070     1.0020 C.ar  1 <1>   0.0830 
 18 C       -3.1070     3.6880     1.9970 C.3   1 <1>  -0.0970 
 19 C        3.7260    -1.8560     1.7620 C.ar  1 <1>  -0.1500 
 20 C        4.9750     1.8610    -0.5760 C.3   1 <1>  -0.2400 
 21 C        0.7730     1.2350     3.5000 C.3   1 <1>  -0.2400 
 22 O       -4.7660     1.4600     1.6440 O.3   1 <1>  -0.3630 
 23 C       -5.7190     0.4270     1.5320 C.3   1 <1>   0.0400 
 24 H        2.2540     2.2390     0.0850 H     1 <1>   0.4200 
 25 H       -0.8120     3.3130     0.6190 H     1 <1>   0.1500 
 26 H       -1.6560    -0.5160    -1.0090 H     1 <1>   0.1500 
 27 H       -3.8210    -0.5250     0.0830 H     1 <1>   0.1500 
 28 H        5.1440    -1.4760     0.2290 H     1 <1>   0.1500 
 29 H        3.3830     0.9740    -1.7180 H     1 <1>   0.0800 
 30 H        4.7810    -0.0200    -1.5740 H     1 <1>   0.0800 
 31 H        2.1780    -2.0060     3.2050 H     1 <1>   0.1500 
 32 H        0.2090    -0.8020     3.1940 H     1 <1>   0.0800 
 33 H       -0.2240     0.2290     1.8880 H     1 <1>   0.0800 
 34 H       -2.3360     4.4360     2.0040 H     1 <1>   0.0800 
 35 H       -3.2880     3.3700     3.0080 H     1 <1>   0.0800 
 36 H       -4.0080     4.1260     1.6070 H     1 <1>   0.0800 
 37 H        4.2650    -2.7030     2.1490 H     1 <1>   0.1500 
 38 H        4.3610     2.5680    -0.0480 H     1 <1>   0.0800 
 39 H        5.4100     2.3510    -1.4280 H     1 <1>   0.0800 
 40 H        5.7650     1.5380     0.0780 H     1 <1>   0.0800 
 41 H        1.5350     1.0210     4.2280 H     1 <1>   0.0800 
 42 H       -0.1400     1.4800     4.0130 H     1 <1>   0.0800 
 43 H        1.0790     2.0860     2.9190 H     1 <1>   0.0800 
 44 H       -6.5790     0.7020     2.1150 H     1 <1>   0.0800 
 45 H       -5.2940    -0.4840     1.9140 H     1 <1>   0.0800 
 46 H       -5.9980     0.3200     0.4990 H     1 <1>   0.0800 
@<TRIPOS>BOND
  1   1   2  2   
  2   1   3  2   
  3   1   4  am  
  4   1   5  1   
  5   4   6  1   
  6   4  24  1   
  7   5   7  ar  
  8   5   8  ar  
  9   6   9  ar  
 10   6  10  ar  
 11   7  11  ar  
 12   7  25  1   
 13   8  12  ar  
 14   8  26  1   
 15   9  13  ar  
 16   9  14  1   
 17  10  15  ar  
 18  10  16  1   
 19  11  17  ar  
 20  11  18  1   
 21  12  17  ar  
 22  12  27  1   
 23  13  19  ar  
 24  13  28  1   
 25  14  20  1   
 26  14  29  1   
 27  14  30  1   
 28  15  19  ar  
 29  15  31  1   
 30  16  21  1   
 31  16  32  1   
 32  16  33  1   
 33  17  22  1   
 34  18  34  1   
 35  18  35  1   
 36  18  36  1   
 37  19  37  1   
 38  20  38  1   
 39  20  39  1   
 40  20  40  1   
 41  21  41  1   
 42  21  42  1   
 43  21  43  1   
 44  22  23  1   
 45  23  44  1   
 46  23  45  1   
 47  23  46  1   
@<TRIPOS>SUBSTRUCTURE
  1 ****   4 GROUP 4 **** **** 0

# MOE 2024.06 (io_trps.svl 2023.06)
