@<TRIPOS>MOLECULE
NONAME
30 30 1 0 0 
SMALL
USER_CHARGES


@<TRIPOS>ATOM
  1 CL       0.4310     0.8120     1.2830 Cl    1 <1>  -0.1770 
  2 C        1.6700    -0.3870     0.9990 C.ar  1 <1>   0.1770 
  3 C        2.8260    -0.0360     0.3360 C.ar  1 <1>  -0.1500 
  4 C        1.4720    -1.6760     1.4470 C.ar  1 <1>  -0.1500 
  5 C        3.8400    -0.9700     0.0910 C.ar  1 <1>  -0.1790 
  6 C        2.4560    -2.6170     1.2180 C.ar  1 <1>  -0.1500 
  7 C        3.6360    -2.2890     0.5490 C.ar  1 <1>   0.1170 
  8 C        5.0400    -0.5330    -0.6170 C.2   1 <1>   0.9790 
  9 N        4.6300    -3.2490     0.3210 N.am  1 <1>  -0.5470 
 10 O        5.1550     0.6450    -0.9930 O.co2 1 <1>  -0.9000 
 11 O        5.9810    -1.3130    -0.8680 O.co2 1 <1>  -0.9000 
 12 C        4.8000    -4.5790     0.5990 C.2   1 <1>   0.5690 
 13 O        3.9700    -5.2380     1.1850 O.2   1 <1>  -0.5700 
 14 C        6.1080    -5.2810     0.1460 C.3   1 <1>   0.0610 
 15 C        6.8440    -5.8520     1.3740 C.3   1 <1>  -0.2400 
 16 C        7.0870    -4.3400    -0.5900 C.3   1 <1>  -0.2400 
 17 C        5.7720    -6.4430    -0.8080 C.3   1 <1>  -0.2400 
 18 H        2.9480     0.9790     0.0010 H     1 <1>   0.1500 
 19 H        0.5660    -1.9350     1.9620 H     1 <1>   0.1500 
 20 H        2.2960    -3.6180     1.5680 H     1 <1>   0.1500 
 21 H        5.4260    -2.8160    -0.1870 H     1 <1>   0.3700 
 22 H        7.0940    -5.0570     2.0550 H     1 <1>   0.0800 
 23 H        7.7490    -6.3530     1.0810 H     1 <1>   0.0800 
 24 H        6.2150    -6.5540     1.8920 H     1 <1>   0.0800 
 25 H        6.6310    -3.9320    -1.4760 H     1 <1>   0.0800 
 26 H        7.9770    -4.8660    -0.8850 H     1 <1>   0.0800 
 27 H        7.3780    -3.5190     0.0440 H     1 <1>   0.0800 
 28 H        5.2600    -6.0690    -1.6770 H     1 <1>   0.0800 
 29 H        5.1290    -7.1530    -0.3180 H     1 <1>   0.0800 
 30 H        6.6650    -6.9520    -1.1250 H     1 <1>   0.0800 
@<TRIPOS>BOND
  1   1   2  1   
  2   2   3  ar  
  3   2   4  ar  
  4   3   5  ar  
  5   3  18  1   
  6   4   6  ar  
  7   4  19  1   
  8   5   7  ar  
  9   5   8  1   
 10   6   7  ar  
 11   6  20  1   
 12   7   9  1   
 13   8  10  ar  
 14   8  11  ar  
 15   9  12  am  
 16   9  21  1   
 17  12  13  2   
 18  12  14  1   
 19  14  15  1   
 20  14  16  1   
 21  14  17  1   
 22  15  22  1   
 23  15  23  1   
 24  15  24  1   
 25  16  25  1   
 26  16  26  1   
 27  16  27  1   
 28  17  28  1   
 29  17  29  1   
 30  17  30  1   
@<TRIPOS>SUBSTRUCTURE
  1 ****   7 GROUP 4 **** **** 0

# MOE 2024.06 (io_trps.svl 2023.06)
