@<TRIPOS>MOLECULE
NONAME
36 36 1 0 0 
SMALL
USER_CHARGES


@<TRIPOS>ATOM
  1 O        0.2280     0.3150    -0.5330 O.co2 1 <1>  -0.9000 
  2 C        0.3110     1.5190    -0.8050 C.2   1 <1>   0.9060 
  3 O       -0.3580     2.0430    -1.7010 O.co2 1 <1>  -0.9000 
  4 C        1.2920     2.3950    -0.0200 C.3   1 <1>  -0.1860 
  5 C        2.6620     1.6940     0.0950 C.3   1 <1>  -0.1600 
  6 C        0.7160     2.7760     1.3590 C.3   1 <1>  -0.2400 
  7 C        3.7800     2.5710     0.6950 C.3   1 <1>  -0.0990 
  8 C        5.1500     1.9130     0.7160 C.2   1 <1>   0.5690 
  9 O        6.1050     2.5810     1.0320 O.2   1 <1>  -0.5700 
 10 N        5.2650     0.6020     0.3890 N.am  1 <1>  -0.7300 
 11 C        6.5090    -0.1770     0.3570 C.3   1 <1>   0.2200 
 12 C        6.7650    -0.6400    -1.0800 C.3   1 <1>  -0.1600 
 13 C        6.3660    -1.3690     1.3090 C.3   1 <1>  -0.1600 
 14 C        7.9940    -1.5570    -1.1590 C.3   1 <1>  -0.1600 
 15 C        7.5950    -2.2890     1.2350 C.3   1 <1>  -0.1600 
 16 C        7.8560    -2.7520    -0.2050 C.3   1 <1>  -0.1600 
 17 H        1.4150     3.2940    -0.5960 H     1 <1>   0.0800 
 18 H        2.9520     1.3860    -0.8960 H     1 <1>   0.0800 
 19 H        2.5370     0.8040     0.6890 H     1 <1>   0.0800 
 20 H        0.6190     1.8970     1.9720 H     1 <1>   0.0800 
 21 H       -0.2630     3.2040     1.2290 H     1 <1>   0.0800 
 22 H        1.3370     3.4960     1.8590 H     1 <1>   0.0800 
 23 H        3.5350     2.8320     1.7070 H     1 <1>   0.0800 
 24 H        3.8580     3.4800     0.1280 H     1 <1>   0.0800 
 25 H        4.4200     0.0950     0.1170 H     1 <1>   0.3700 
 26 H        7.3310     0.4400     0.6830 H     1 <1>   0.0800 
 27 H        6.9220     0.2220    -1.7050 H     1 <1>   0.0800 
 28 H        5.9040    -1.1730    -1.4450 H     1 <1>   0.0800 
 29 H        5.4890    -1.9350     1.0470 H     1 <1>   0.0800 
 30 H        6.2510    -1.0070     2.3150 H     1 <1>   0.0800 
 31 H        8.8750    -0.9940    -0.8990 H     1 <1>   0.0800 
 32 H        8.1160    -1.9120    -2.1680 H     1 <1>   0.0800 
 33 H        7.4420    -3.1450     1.8690 H     1 <1>   0.0800 
 34 H        8.4570    -1.7580     1.6010 H     1 <1>   0.0800 
 35 H        8.7550    -3.3430    -0.2350 H     1 <1>   0.0800 
 36 H        7.0410    -3.3750    -0.5310 H     1 <1>   0.0800 
@<TRIPOS>BOND
  1   1   2  ar  
  2   2   3  ar  
  3   2   4  1   
  4   4   5  1   
  5   4   6  1   
  6   4  17  1   
  7   5   7  1   
  8   5  18  1   
  9   5  19  1   
 10   6  20  1   
 11   6  21  1   
 12   6  22  1   
 13   7   8  1   
 14   7  23  1   
 15   7  24  1   
 16   8   9  2   
 17   8  10  am  
 18  10  11  1   
 19  10  25  1   
 20  11  12  1   
 21  11  13  1   
 22  11  26  1   
 23  12  14  1   
 24  12  27  1   
 25  12  28  1   
 26  13  15  1   
 27  13  29  1   
 28  13  30  1   
 29  14  16  1   
 30  14  31  1   
 31  14  32  1   
 32  15  16  1   
 33  15  33  1   
 34  15  34  1   
 35  16  35  1   
 36  16  36  1   
@<TRIPOS>SUBSTRUCTURE
  1 ****  10 GROUP 4 **** **** 0

# MOE 2024.06 (io_trps.svl 2023.06)
