@<TRIPOS>MOLECULE
NONAME
42 43 1 0 0 
SMALL
USER_CHARGES


@<TRIPOS>ATOM
  1 BR      -0.1720     0.7420    -1.7790 Br    1 <1>  -0.1110 
  2 C       -1.8100     1.4360    -1.0530 C.ar  1 <1>   0.1110 
  3 C       -2.5900     0.6190    -0.2590 C.ar  1 <1>  -0.1500 
  4 C       -2.1690     2.7390    -1.3390 C.ar  1 <1>  -0.1500 
  5 C       -3.7680     1.1280     0.2590 C.ar  1 <1>  -0.1500 
  6 C       -3.3520     3.2280    -0.8130 C.ar  1 <1>  -0.1500 
  7 C       -4.1820     2.4380    -0.0110 C.ar  1 <1>   0.0860 
  8 C       -5.4110     3.0000     0.5210 C.2   1 <1>   0.5440 
  9 O       -5.3610     4.0670     1.1090 O.2   1 <1>  -0.5700 
 10 N       -6.6430     2.3560     0.3670 N.am  1 <1>  -0.2980 
 11 N       -6.8010     1.0280     0.0850 N.2   1 <1>  -0.5120 
 12 C       -7.9580     3.0130     0.6190 C.3   1 <1>   0.5800 
 13 C       -8.0150     0.6640     0.2830 C.2   1 <1>   0.3890 
 14 O       -7.8850     3.6310     1.8450 O.3   1 <1>  -0.6800 
 15 C       -8.4180     4.0340    -0.5070 C.3   1 <1>   0.0000 
 16 C       -8.8820     1.8030     0.7730 C.3   1 <1>  -0.0990 
 17 C       -8.5970    -0.6440     0.1050 C.2   1 <1>   0.7200 
 18 C       -7.4670     5.2410    -0.6700 C.3   1 <1>  -0.2400 
 19 C       -9.8100     4.6330    -0.1900 C.3   1 <1>  -0.2400 
 20 C       -8.5080     3.3590    -1.8960 C.3   1 <1>  -0.2400 
 21 O       -7.9860    -1.6310    -0.2700 O.2   1 <1>  -0.5700 
 22 O       -9.9080    -0.7870     0.3700 O.3   1 <1>  -0.4300 
 23 C      -10.5660    -2.0340     0.2300 C.3   1 <1>   0.0400 
 24 H       -2.2820    -0.3900    -0.0530 H     1 <1>   0.1500 
 25 H       -1.5370     3.3510    -1.9570 H     1 <1>   0.1500 
 26 H       -4.3800     0.5020     0.8840 H     1 <1>   0.1500 
 27 H       -3.6450     4.2440    -1.0190 H     1 <1>   0.1500 
 28 H       -7.0090     4.0870     1.8560 H     1 <1>   0.4000 
 29 H       -9.7720     1.8730     0.1830 H     1 <1>   0.0800 
 30 H       -9.1510     1.6400     1.8010 H     1 <1>   0.0800 
 31 H       -6.5090     4.9320    -1.0440 H     1 <1>   0.0800 
 32 H       -7.3240     5.7450     0.2700 H     1 <1>   0.0800 
 33 H       -7.8670     5.9540    -1.3690 H     1 <1>   0.0800 
 34 H       -9.7920     5.1390     0.7600 H     1 <1>   0.0800 
 35 H      -10.5770     3.8830    -0.1530 H     1 <1>   0.0800 
 36 H      -10.0970     5.3500    -0.9390 H     1 <1>   0.0800 
 37 H       -7.5570     2.9380    -2.1740 H     1 <1>   0.0800 
 38 H       -8.7830     4.0770    -2.6480 H     1 <1>   0.0800 
 39 H       -9.2410     2.5740    -1.9130 H     1 <1>   0.0800 
 40 H      -11.6000    -1.9070     0.4960 H     1 <1>   0.0800 
 41 H      -10.1010    -2.7500     0.8850 H     1 <1>   0.0800 
 42 H      -10.4840    -2.3600    -0.7930 H     1 <1>   0.0800 
@<TRIPOS>BOND
  1   1   2  1   
  2   2   3  ar  
  3   2   4  ar  
  4   3   5  ar  
  5   3  24  1   
  6   4   6  ar  
  7   4  25  1   
  8   5   7  ar  
  9   5  26  1   
 10   6   7  ar  
 11   6  27  1   
 12   7   8  1   
 13   8   9  2   
 14   8  10  am  
 15  10  11  1   
 16  10  12  1   
 17  11  13  2   
 18  12  14  1   
 19  12  15  1   
 20  12  16  1   
 21  13  16  1   
 22  13  17  1   
 23  14  28  1   
 24  15  18  1   
 25  15  19  1   
 26  15  20  1   
 27  16  29  1   
 28  16  30  1   
 29  17  21  2   
 30  17  22  1   
 31  18  31  1   
 32  18  32  1   
 33  18  33  1   
 34  19  34  1   
 35  19  35  1   
 36  19  36  1   
 37  20  37  1   
 38  20  38  1   
 39  20  39  1   
 40  22  23  1   
 41  23  40  1   
 42  23  41  1   
 43  23  42  1   
@<TRIPOS>SUBSTRUCTURE
  1 ****  10 GROUP 4 **** **** 0

# MOE 2024.06 (io_trps.svl 2023.06)
