@<TRIPOS>MOLECULE
NONAME
49 52 1 0 0 
SMALL
USER_CHARGES


@<TRIPOS>ATOM
  1 O        0.6640    -0.5730    -1.3460 O.2   1 <1>  -0.5700 
  2 C        1.4830    -0.8380    -0.4960 C.2   1 <1>   0.4950 
  3 C        2.6350    -0.0580    -0.1880 C.2   1 <1>  -0.1240 
  4 C        1.3140    -2.1640     0.2140 C.3   1 <1>  -0.0990 
  5 C        3.7550    -0.6270     0.3600 C.2   1 <1>  -0.0380 
  6 C        2.5280     1.4250    -0.5700 C.3   1 <1>   0.6070 
  7 C        2.6320    -2.9530     0.2090 C.3   1 <1>   0.0000 
  8 N        4.9970    -0.0510     0.5460 N.pl3 1 <1>  -0.6000 
  9 C        3.7390    -2.0810     0.8370 C.3   1 <1>  -0.0220 
 10 N        3.3520     2.2770     0.3100 N.pl3 1 <1>  -0.8690 
 11 C        1.1300     2.0430    -0.4740 C.2   1 <1>  -0.0400 
 12 C        3.0180    -3.3380    -1.2320 C.3   1 <1>  -0.2400 
 13 C        2.4600    -4.2450     1.0240 C.3   1 <1>  -0.2400 
 14 C        5.5060     1.1920     0.1230 C.ar  1 <1>   0.1000 
 15 C        4.7060     2.3360     0.0190 C.ar  1 <1>   0.1000 
 16 O        0.5130     2.1100     0.6960 O.3   1 <1>  -0.2800 
 17 C        0.3540     2.5860    -1.4380 C.2   1 <1>  -0.1500 
 18 C        6.8570     1.2920    -0.1740 C.ar  1 <1>  -0.1500 
 19 C        5.2750     3.5420    -0.3620 C.ar  1 <1>  -0.1500 
 20 C       -0.6560     2.6840     0.5040 C.2   1 <1>  -0.0400 
 21 C       -0.8180     3.0050    -0.7970 C.2   1 <1>  -0.1500 
 22 C        7.4150     2.4990    -0.5630 C.ar  1 <1>  -0.1500 
 23 C        6.6260     3.6330    -0.6560 C.ar  1 <1>  -0.1430 
 24 C       -1.5690     2.8730     1.6930 C.3   1 <1>  -0.0600 
 25 C        7.2330     4.9590    -1.0770 C.3   1 <1>  -0.0970 
 26 H        0.5380    -2.7320    -0.2690 H     1 <1>   0.0800 
 27 H        1.0000    -1.9640     1.2220 H     1 <1>   0.0800 
 28 H        2.8730     1.5310    -1.5830 H     1 <1>   0.0800 
 29 H        5.6970    -0.6230     1.0220 H     1 <1>   0.4000 
 30 H        3.6140    -2.0600     1.9050 H     1 <1>   0.0800 
 31 H        4.6910    -2.5410     0.6370 H     1 <1>   0.0800 
 32 H        2.8750     3.1730     0.4240 H     1 <1>   0.4000 
 33 H        3.2020    -2.4660    -1.8350 H     1 <1>   0.0800 
 34 H        2.2300    -3.9050    -1.6950 H     1 <1>   0.0800 
 35 H        3.9110    -3.9370    -1.2380 H     1 <1>   0.0800 
 36 H        2.1760    -4.0230     2.0370 H     1 <1>   0.0800 
 37 H        3.3790    -4.8040     1.0450 H     1 <1>   0.0800 
 38 H        1.6970    -4.8660     0.5880 H     1 <1>   0.0800 
 39 H        0.5550     2.6850    -2.4900 H     1 <1>   0.1500 
 40 H        7.4810     0.4220    -0.1040 H     1 <1>   0.1500 
 41 H        4.6520     4.4140    -0.4290 H     1 <1>   0.1500 
 42 H       -1.6560     3.4770    -1.2760 H     1 <1>   0.1500 
 43 H        8.4650     2.5500    -0.7910 H     1 <1>   0.1500 
 44 H       -1.0790     3.4810     2.4320 H     1 <1>   0.0800 
 45 H       -1.8010     1.9170     2.1250 H     1 <1>   0.0800 
 46 H       -2.4810     3.3530     1.3900 H     1 <1>   0.0800 
 47 H        6.7020     5.7760    -0.6220 H     1 <1>   0.0800 
 48 H        7.1790     5.0600    -2.1460 H     1 <1>   0.0800 
 49 H        8.2630     5.0140    -0.7730 H     1 <1>   0.0800 
@<TRIPOS>BOND
  1   1   2  2   
  2   2   3  1   
  3   2   4  1   
  4   3   5  2   
  5   3   6  1   
  6   4   7  1   
  7   4  26  1   
  8   4  27  1   
  9   5   8  1   
 10   5   9  1   
 11   6  10  1   
 12   6  11  1   
 13   6  28  1   
 14   7   9  1   
 15   7  12  1   
 16   7  13  1   
 17   8  14  1   
 18   8  29  1   
 19   9  30  1   
 20   9  31  1   
 21  10  15  1   
 22  10  32  1   
 23  11  16  1   
 24  11  17  2   
 25  12  33  1   
 26  12  34  1   
 27  12  35  1   
 28  13  36  1   
 29  13  37  1   
 30  13  38  1   
 31  14  15  ar  
 32  14  18  ar  
 33  15  19  ar  
 34  16  20  1   
 35  17  21  1   
 36  17  39  1   
 37  18  22  ar  
 38  18  40  1   
 39  19  23  ar  
 40  19  41  1   
 41  20  21  2   
 42  20  24  1   
 43  21  42  1   
 44  22  23  ar  
 45  22  43  1   
 46  23  25  1   
 47  24  44  1   
 48  24  45  1   
 49  24  46  1   
 50  25  47  1   
 51  25  48  1   
 52  25  49  1   
@<TRIPOS>SUBSTRUCTURE
  1 ****   6 GROUP 4 **** **** 0

# MOE 2024.06 (io_trps.svl 2023.06)
