@<TRIPOS>MOLECULE
NONAME
34 33 1 0 0 
SMALL
USER_CHARGES


@<TRIPOS>ATOM
  1 O       -2.8420    -1.0930    -1.4900 O.2   1 <1>  -0.5700 
  2 C       -3.4130    -1.9010    -0.8020 C.2   1 <1>   0.4950 
  3 C       -4.7880    -1.7430    -0.3620 C.2   1 <1>  -0.1240 
  4 C       -2.6170    -3.1280    -0.3680 C.3   1 <1>  -0.0990 
  5 C       -5.4080    -2.5420     0.5380 C.2   1 <1>  -0.2880 
  6 C       -5.5020    -0.5550    -1.0160 C.3   1 <1>  -0.1020 
  7 C       -1.3330    -3.3750    -1.1750 C.3   1 <1>   0.3430 
  8 C       -6.8250    -2.4670     1.0970 C.3   1 <1>  -0.1020 
  9 N       -0.4120    -2.2010    -1.2240 N.4   1 <1>  -0.9060 
 10 C        0.4160    -1.8120    -0.0900 C.3   1 <1>   0.7030 
 11 C        1.5740    -1.1220    -0.7160 C.1   1 <1>  -0.2000 
 12 C        0.9090    -3.0270     0.6950 C.3   1 <1>  -0.2400 
 13 C       -0.3400    -0.8270     0.7960 C.3   1 <1>  -0.2400 
 14 C        2.4980    -0.5720    -1.2250 C.1   1 <1>  -0.1770 
 15 H       -2.3930    -3.0600     0.6790 H     1 <1>   0.0800 
 16 H       -3.2410    -3.9920    -0.5010 H     1 <1>   0.0800 
 17 H       -4.9040    -3.3800     0.9880 H     1 <1>   0.1500 
 18 H       -5.0830     0.3670    -0.6530 H     1 <1>   0.0800 
 19 H       -6.5570    -0.5400    -0.8350 H     1 <1>   0.0800 
 20 H       -5.3670    -0.5890    -2.0830 H     1 <1>   0.0800 
 21 H       -1.6280    -3.6120    -2.1860 H     1 <1>   0.0800 
 22 H       -0.8160    -4.2360    -0.7820 H     1 <1>   0.0800 
 23 H       -7.3940    -3.3170     0.7620 H     1 <1>   0.0800 
 24 H       -7.3500    -1.5760     0.8130 H     1 <1>   0.0800 
 25 H       -6.7880    -2.4910     2.1720 H     1 <1>   0.0800 
 26 H       -0.9980    -1.3790    -1.4560 H     1 <1>   0.4500 
 27 H        0.2420    -2.2940    -2.0060 H     1 <1>   0.4500 
 28 H        1.6100    -2.7050     1.4450 H     1 <1>   0.0800 
 29 H        1.4160    -3.7210     0.0490 H     1 <1>   0.0800 
 30 H        0.1010    -3.5220     1.2010 H     1 <1>   0.0800 
 31 H        0.3260    -0.4370     1.5460 H     1 <1>   0.0800 
 32 H       -1.1580    -1.2950     1.3060 H     1 <1>   0.0800 
 33 H       -0.7070     0.0040     0.2200 H     1 <1>   0.0800 
 34 H        3.3390    -0.0660    -1.6740 H     1 <1>   0.1770 
@<TRIPOS>BOND
  1   1   2  2   
  2   2   3  1   
  3   2   4  1   
  4   3   5  2   
  5   3   6  1   
  6   4   7  1   
  7   4  15  1   
  8   4  16  1   
  9   5   8  1   
 10   5  17  1   
 11   6  18  1   
 12   6  19  1   
 13   6  20  1   
 14   7   9  1   
 15   7  21  1   
 16   7  22  1   
 17   8  23  1   
 18   8  24  1   
 19   8  25  1   
 20   9  10  1   
 21   9  26  1   
 22   9  27  1   
 23  10  11  1   
 24  10  12  1   
 25  10  13  1   
 26  11  14  3   
 27  12  28  1   
 28  12  29  1   
 29  12  30  1   
 30  13  31  1   
 31  13  32  1   
 32  13  33  1   
 33  14  34  1   
@<TRIPOS>SUBSTRUCTURE
  1 ****   4 GROUP 4 **** **** 0

# MOE 2024.06 (io_trps.svl 2023.06)
