@<TRIPOS>MOLECULE
NONAME
52 54 1 0 0 
SMALL
USER_CHARGES


@<TRIPOS>ATOM
  1 F       -0.1450    -3.2090    -2.4410 F     1 <1>  -0.1900 
  2 C       -1.0320    -2.5490    -1.7330 C.ar  1 <1>   0.1900 
  3 C       -0.8720    -2.4500    -0.3440 C.ar  1 <1>   0.1000 
  4 C       -2.0930    -1.9780    -2.4070 C.ar  1 <1>  -0.1500 
  5 N        0.1900    -3.0140     0.3770 N.pl3 1 <1>  -0.8380 
  6 C       -1.8430    -1.7390     0.3490 C.ar  1 <1>  -0.1500 
  7 C       -3.0440    -1.2760    -1.6860 C.ar  1 <1>  -0.1500 
  8 C        1.5290    -2.4040     0.1120 C.3   1 <1>   0.2090 
  9 C        0.2110    -4.5090     0.4080 C.3   1 <1>   0.2090 
 10 C       -2.9150    -1.1590    -0.3100 C.ar  1 <1>  -0.1500 
 11 C        2.5900    -2.9340     1.0980 C.3   1 <1>   0.3430 
 12 C        1.2750    -5.0330     1.3940 C.3   1 <1>   0.3430 
 13 N        2.6330    -4.4410     1.1330 N.4   1 <1>  -0.9590 
 14 C        3.6740    -4.9610     2.0510 C.3   1 <1>   0.4860 
 15 C        5.0330    -4.5160     1.5400 C.ar  1 <1>  -0.1430 
 16 C        5.4840    -4.9280     0.2850 C.ar  1 <1>   0.0830 
 17 C        5.8140    -3.6950     2.3380 C.ar  1 <1>  -0.1500 
 18 O        4.6050    -5.7200    -0.4100 O.3   1 <1>  -0.3630 
 19 C        6.7520    -4.5110    -0.1580 C.ar  1 <1>   0.0830 
 20 C        7.0460    -3.2630     1.8890 C.ar  1 <1>  -0.1500 
 21 C        4.8670    -6.2570    -1.6920 C.3   1 <1>   0.0400 
 22 O        7.2580    -4.9240    -1.3540 O.3   1 <1>  -0.3630 
 23 C        7.5080    -3.6490     0.6450 C.ar  1 <1>   0.0830 
 24 C        8.3780    -5.7850    -1.3010 C.3   1 <1>   0.0400 
 25 O        8.7140    -3.1570     0.2670 O.3   1 <1>  -0.3630 
 26 C        8.7160    -2.2250    -0.7930 C.3   1 <1>   0.0400 
 27 H       -2.1740    -2.0800    -3.4750 H     1 <1>   0.1500 
 28 H       -1.7530    -1.6420     1.4160 H     1 <1>   0.1500 
 29 H       -3.8800    -0.8220    -2.1900 H     1 <1>   0.1500 
 30 H        1.4550    -1.3340     0.2110 H     1 <1>   0.0800 
 31 H        1.8370    -2.6200    -0.8970 H     1 <1>   0.0800 
 32 H        0.4140    -4.8910    -0.5780 H     1 <1>   0.0800 
 33 H       -0.7600    -4.8680     0.7060 H     1 <1>   0.0800 
 34 H       -3.6550    -0.6120     0.2500 H     1 <1>   0.1500 
 35 H        2.3550    -2.5570     2.0780 H     1 <1>   0.0800 
 36 H        3.5550    -2.5460     0.8150 H     1 <1>   0.0800 
 37 H        1.3220    -6.1070     1.3200 H     1 <1>   0.0800 
 38 H        0.9580    -4.7800     2.3920 H     1 <1>   0.0800 
 39 H        2.9540    -4.7550     0.2010 H     1 <1>   0.4500 
 40 H        3.6460    -6.0390     2.0660 H     1 <1>   0.0800 
 41 H        3.5100    -4.5960     3.0510 H     1 <1>   0.0800 
 42 H        5.4810    -3.3820     3.3140 H     1 <1>   0.1500 
 43 H        7.6590    -2.6210     2.4980 H     1 <1>   0.1500 
 44 H        5.0510    -5.4520    -2.3820 H     1 <1>   0.0800 
 45 H        4.0060    -6.8170    -2.0100 H     1 <1>   0.0800 
 46 H        5.7190    -6.9110    -1.6310 H     1 <1>   0.0800 
 47 H        8.5740    -6.1450    -2.2950 H     1 <1>   0.0800 
 48 H        8.1570    -6.6090    -0.6470 H     1 <1>   0.0800 
 49 H        9.2330    -5.2420    -0.9400 H     1 <1>   0.0800 
 50 H        9.7230    -1.8760    -0.9300 H     1 <1>   0.0800 
 51 H        8.0740    -1.4020    -0.5340 H     1 <1>   0.0800 
 52 H        8.3700    -2.7030    -1.6910 H     1 <1>   0.0800 
@<TRIPOS>BOND
  1   1   2  1   
  2   2   3  ar  
  3   2   4  ar  
  4   3   5  1   
  5   3   6  ar  
  6   4   7  ar  
  7   4  27  1   
  8   5   8  1   
  9   5   9  1   
 10   6  10  ar  
 11   6  28  1   
 12   7  10  ar  
 13   7  29  1   
 14   8  11  1   
 15   8  30  1   
 16   8  31  1   
 17   9  12  1   
 18   9  32  1   
 19   9  33  1   
 20  10  34  1   
 21  11  13  1   
 22  11  35  1   
 23  11  36  1   
 24  12  13  1   
 25  12  37  1   
 26  12  38  1   
 27  13  14  1   
 28  13  39  1   
 29  14  15  1   
 30  14  40  1   
 31  14  41  1   
 32  15  16  ar  
 33  15  17  ar  
 34  16  18  1   
 35  16  19  ar  
 36  17  20  ar  
 37  17  42  1   
 38  18  21  1   
 39  19  22  1   
 40  19  23  ar  
 41  20  23  ar  
 42  20  43  1   
 43  21  44  1   
 44  21  45  1   
 45  21  46  1   
 46  22  24  1   
 47  23  25  1   
 48  24  47  1   
 49  24  48  1   
 50  24  49  1   
 51  25  26  1   
 52  26  50  1   
 53  26  51  1   
 54  26  52  1   
@<TRIPOS>SUBSTRUCTURE
  1 ****  11 GROUP 4 **** **** 0

# MOE 2024.06 (io_trps.svl 2023.06)
