@<TRIPOS>MOLECULE
NONAME
54 56 1 0 0 
SMALL
USER_CHARGES


@<TRIPOS>ATOM
  1 F       -0.7480    -1.1440     0.3760 F     1 <1>  -0.3400 
  2 C       -0.9580    -0.2900    -0.6210 C.3   1 <1>   1.1640 
  3 F       -1.7530    -0.9110    -1.4910 F     1 <1>  -0.3400 
  4 F        0.2160    -0.1820    -1.2350 F     1 <1>  -0.3400 
  5 C       -1.5240     1.0820    -0.1740 C.ar  1 <1>  -0.1440 
  6 C       -2.4890     1.2370     0.8340 C.ar  1 <1>  -0.1440 
  7 C       -1.0580     2.2280    -0.8190 C.ar  1 <1>  -0.1500 
  8 C       -2.9380     2.5070     1.1690 C.ar  1 <1>  -0.1500 
  9 C       -3.1030     0.0650     1.5970 C.3   1 <1>   0.2540 
 10 C       -1.5180     3.4860    -0.4780 C.ar  1 <1>  -0.1500 
 11 C       -2.4580     3.6270     0.5200 C.ar  1 <1>  -0.1500 
 12 N       -3.7230    -0.8720     0.6480 N.3   1 <1>  -0.8100 
 13 C       -4.8780    -0.3080    -0.0760 C.3   1 <1>   0.1100 
 14 C       -4.0330    -2.1810     1.2450 C.3   1 <1>   0.1100 
 15 C       -5.3310    -1.2690    -1.1920 C.3   1 <1>   0.3430 
 16 C       -4.4770    -3.1760     0.1550 C.3   1 <1>   0.3430 
 17 N       -5.6290    -2.6440    -0.6600 N.4   1 <1>  -0.9590 
 18 C       -6.0000    -3.5820    -1.7510 C.3   1 <1>   0.4860 
 19 C       -6.4530    -4.8870    -1.1270 C.ar  1 <1>  -0.1430 
 20 C       -7.6410    -4.9420    -0.4160 C.ar  1 <1>  -0.1500 
 21 C       -5.6860    -6.0330    -1.2470 C.ar  1 <1>  -0.1500 
 22 C       -8.0660    -6.1110     0.1920 C.ar  1 <1>   0.0830 
 23 C       -6.0960    -7.2120    -0.6490 C.ar  1 <1>  -0.1500 
 24 O       -9.2500    -5.9820     0.8570 O.3   1 <1>  -0.3630 
 25 C       -7.2810    -7.2720     0.0820 C.ar  1 <1>   0.0830 
 26 C      -10.0470    -7.0870     1.2250 C.3   1 <1>   0.0400 
 27 O       -7.6720    -8.4280     0.6940 O.3   1 <1>  -0.3630 
 28 C       -6.9630    -9.6410     0.5590 C.3   1 <1>   0.0400 
 29 H       -0.3240     2.1590    -1.6040 H     1 <1>   0.1500 
 30 H       -3.6730     2.6400     1.9450 H     1 <1>   0.1500 
 31 H       -3.8430     0.4110     2.3000 H     1 <1>   0.0800 
 32 H       -2.3290    -0.4310     2.1570 H     1 <1>   0.0800 
 33 H       -1.1410     4.3550    -0.9890 H     1 <1>   0.1500 
 34 H       -2.8150     4.6060     0.7910 H     1 <1>   0.1500 
 35 H       -4.6020     0.6290    -0.5310 H     1 <1>   0.0800 
 36 H       -5.6890    -0.1190     0.6050 H     1 <1>   0.0800 
 37 H       -4.8030    -2.0800     1.9910 H     1 <1>   0.0800 
 38 H       -3.1510    -2.5720     1.7260 H     1 <1>   0.0800 
 39 H       -4.5400    -1.3270    -1.9210 H     1 <1>   0.0800 
 40 H       -6.2040    -0.8630    -1.6770 H     1 <1>   0.0800 
 41 H       -4.7540    -4.1090     0.6190 H     1 <1>   0.0800 
 42 H       -3.6340    -3.3630    -0.4900 H     1 <1>   0.0800 
 43 H       -6.4330    -2.5840    -0.0260 H     1 <1>   0.4500 
 44 H       -5.1560    -3.7540    -2.3980 H     1 <1>   0.0800 
 45 H       -6.8050    -3.1700    -2.3380 H     1 <1>   0.0800 
 46 H       -8.2710    -4.0760    -0.3180 H     1 <1>   0.1500 
 47 H       -4.7630    -6.0270    -1.8040 H     1 <1>   0.1500 
 48 H       -5.4700    -8.0770    -0.7650 H     1 <1>   0.1500 
 49 H      -11.0090    -6.7200     1.5330 H     1 <1>   0.0800 
 50 H       -9.5740    -7.5990     2.0440 H     1 <1>   0.0800 
 51 H      -10.1570    -7.7390     0.3760 H     1 <1>   0.0800 
 52 H       -7.4940   -10.3990     1.1070 H     1 <1>   0.0800 
 53 H       -5.9770    -9.5190     0.9700 H     1 <1>   0.0800 
 54 H       -6.9210    -9.9080    -0.4820 H     1 <1>   0.0800 
@<TRIPOS>BOND
  1   1   2  1   
  2   2   3  1   
  3   2   4  1   
  4   2   5  1   
  5   5   6  ar  
  6   5   7  ar  
  7   6   8  ar  
  8   6   9  1   
  9   7  10  ar  
 10   7  29  1   
 11   8  11  ar  
 12   8  30  1   
 13   9  12  1   
 14   9  31  1   
 15   9  32  1   
 16  10  11  ar  
 17  10  33  1   
 18  11  34  1   
 19  12  13  1   
 20  12  14  1   
 21  13  15  1   
 22  13  35  1   
 23  13  36  1   
 24  14  16  1   
 25  14  37  1   
 26  14  38  1   
 27  15  17  1   
 28  15  39  1   
 29  15  40  1   
 30  16  17  1   
 31  16  41  1   
 32  16  42  1   
 33  17  18  1   
 34  17  43  1   
 35  18  19  1   
 36  18  44  1   
 37  18  45  1   
 38  19  20  ar  
 39  19  21  ar  
 40  20  22  ar  
 41  20  46  1   
 42  21  23  ar  
 43  21  47  1   
 44  22  24  1   
 45  22  25  ar  
 46  23  25  ar  
 47  23  48  1   
 48  24  26  1   
 49  25  27  1   
 50  26  49  1   
 51  26  50  1   
 52  26  51  1   
 53  27  28  1   
 54  28  52  1   
 55  28  53  1   
 56  28  54  1   
@<TRIPOS>SUBSTRUCTURE
  1 ****  16 GROUP 4 **** **** 0

# MOE 2024.06 (io_trps.svl 2023.06)
