@<TRIPOS>MOLECULE
NONAME
48 50 1 0 0 
SMALL
USER_CHARGES


@<TRIPOS>ATOM
  1 S       -0.1010     0.3110     0.5760 S.o2  1 <1>   1.4470 
  2 O       -0.4510    -0.9630    -0.0130 O.2   1 <1>  -0.6500 
  3 O        0.2920     0.3640     1.9680 O.2   1 <1>  -0.6500 
  4 N        1.1820     0.9560    -0.3260 N.am  1 <1>  -0.8490 
  5 C       -1.4550     1.4840     0.2720 C.ar  1 <1>  -0.0090 
  6 C        2.2460    -0.0330    -0.5200 C.3   1 <1>   0.1960 
  7 C        1.7120     2.1850     0.2730 C.3   1 <1>   0.1960 
  8 C       -2.2310     1.9800     1.3130 C.ar  1 <1>  -0.1500 
  9 C       -1.7560     1.9140    -1.0150 C.ar  1 <1>  -0.1500 
 10 C        3.3190     0.5190    -1.4640 C.3   1 <1>  -0.1600 
 11 C        2.7550     2.8180    -0.6520 C.3   1 <1>  -0.1600 
 12 C       -3.2660     2.8670     1.0770 C.ar  1 <1>  -0.1500 
 13 C       -2.7900     2.8010    -1.2530 C.ar  1 <1>  -0.1500 
 14 C        3.9010     1.8400    -0.9430 C.3   1 <1>  -0.0800 
 15 C       -3.5770     3.2910    -0.2140 C.ar  1 <1>   0.0860 
 16 C        4.8880     2.4380    -1.9520 C.3   1 <1>  -0.2400 
 17 C       -4.6710     4.2070    -0.4740 C.2   1 <1>   0.5440 
 18 O       -4.4600     5.2120    -1.1260 O.2   1 <1>  -0.5700 
 19 N       -5.9480     3.9630    -0.0130 N.am  1 <1>  -0.6600 
 20 C       -6.4410     2.6170     0.4100 C.3   1 <1>   0.1400 
 21 C       -7.0430     4.9760    -0.1260 C.3   1 <1>   0.1400 
 22 C       -7.6540     2.1940    -0.4360 C.3   1 <1>   0.1200 
 23 C       -8.2170     4.4140    -0.9430 C.3   1 <1>   0.1200 
 24 O       -8.6400     3.1860    -0.4190 O.3   1 <1>  -0.5600 
 25 H        1.8360    -0.9300    -0.9560 H     1 <1>   0.0800 
 26 H        2.6840    -0.2920     0.4310 H     1 <1>   0.0800 
 27 H        2.1580     1.9670     1.2310 H     1 <1>   0.0800 
 28 H        0.9120     2.8910     0.4280 H     1 <1>   0.0800 
 29 H       -2.0180     1.6670     2.3230 H     1 <1>   0.1500 
 30 H       -1.1660     1.5470    -1.8400 H     1 <1>   0.1500 
 31 H        2.8780     0.6660    -2.4340 H     1 <1>   0.0800 
 32 H        4.1040    -0.2090    -1.5670 H     1 <1>   0.0800 
 33 H        3.1450     3.7060    -0.1890 H     1 <1>   0.0800 
 34 H        2.2720     3.1070    -1.5690 H     1 <1>   0.0800 
 35 H       -3.8470     3.2430     1.9020 H     1 <1>   0.1500 
 36 H       -2.9990     3.1270    -2.2580 H     1 <1>   0.1500 
 37 H        4.4280     1.6440    -0.0240 H     1 <1>   0.0800 
 38 H        4.3960     2.6480    -2.8850 H     1 <1>   0.0800 
 39 H        5.6950     1.7520    -2.1360 H     1 <1>   0.0800 
 40 H        5.3030     3.3540    -1.5690 H     1 <1>   0.0800 
 41 H       -6.7290     2.6550     1.4460 H     1 <1>   0.0800 
 42 H       -5.6720     1.8740     0.3030 H     1 <1>   0.0800 
 43 H       -6.6860     5.8780    -0.5920 H     1 <1>   0.0800 
 44 H       -7.3890     5.2330     0.8590 H     1 <1>   0.0800 
 45 H       -8.0870     1.2930    -0.0410 H     1 <1>   0.0800 
 46 H       -7.3600     2.0180    -1.4570 H     1 <1>   0.0800 
 47 H       -7.9290     4.2740    -1.9700 H     1 <1>   0.0800 
 48 H       -9.0510     5.0920    -0.9070 H     1 <1>   0.0800 
@<TRIPOS>BOND
  1   1   2  2   
  2   1   3  2   
  3   1   4  am  
  4   1   5  1   
  5   4   6  1   
  6   4   7  1   
  7   5   8  ar  
  8   5   9  ar  
  9   6  10  1   
 10   6  25  1   
 11   6  26  1   
 12   7  11  1   
 13   7  27  1   
 14   7  28  1   
 15   8  12  ar  
 16   8  29  1   
 17   9  13  ar  
 18   9  30  1   
 19  10  14  1   
 20  10  31  1   
 21  10  32  1   
 22  11  14  1   
 23  11  33  1   
 24  11  34  1   
 25  12  15  ar  
 26  12  35  1   
 27  13  15  ar  
 28  13  36  1   
 29  14  16  1   
 30  14  37  1   
 31  15  17  1   
 32  16  38  1   
 33  16  39  1   
 34  16  40  1   
 35  17  18  2   
 36  17  19  am  
 37  19  20  1   
 38  19  21  1   
 39  20  22  1   
 40  20  41  1   
 41  20  42  1   
 42  21  23  1   
 43  21  43  1   
 44  21  44  1   
 45  22  24  1   
 46  22  45  1   
 47  22  46  1   
 48  23  24  1   
 49  23  47  1   
 50  23  48  1   
@<TRIPOS>SUBSTRUCTURE
  1 ****   9 GROUP 4 **** **** 0

# MOE 2024.06 (io_trps.svl 2023.06)
