@<TRIPOS>MOLECULE
NONAME
42 45 1 0 0 
SMALL
USER_CHARGES


@<TRIPOS>ATOM
  1 O        0.9170     0.1030     0.6880 O.2   1 <1>  -0.5760 
  2 C        1.8900    -0.6050     0.5310 C.2   1 <1>   0.6850 
  3 N        1.7400    -1.9870     0.4500 N.am  1 <1>  -0.4270 
  4 N        3.1510    -0.0300     0.4230 N.am  1 <1>  -0.4430 
  5 C        2.8260    -2.8160     0.2010 C.2   1 <1>   0.6990 
  6 C        0.3720    -2.5760     0.5970 C.3   1 <1>   0.0500 
  7 C        4.2260    -0.8610     0.1750 C.2   1 <1>   0.4190 
  8 C        3.3300     1.4480     0.5380 C.3   1 <1>   0.0500 
  9 O        2.6930    -4.0240     0.1020 O.2   1 <1>  -0.5760 
 10 C        4.1100    -2.2060     0.0600 C.2   1 <1>   0.2690 
 11 N        5.5410    -0.5130     0.0050 N.pl3 1 <1>  -0.7050 
 12 N        5.4040    -2.6720    -0.1870 N.pl3 1 <1>  -0.7680 
 13 C        6.2090    -1.6400    -0.2080 C.cat 1 <1>   1.0680 
 14 C        6.1250    -3.9420    -0.3880 C.3   1 <1>   0.3470 
 15 N        7.4850    -1.9590    -0.4180 N.pl3 1 <1>  -0.5810 
 16 C        7.5860    -3.4480    -0.5340 C.3   1 <1>   0.1590 
 17 C        8.5890    -1.1040    -0.4670 C.ar  1 <1>   0.3030 
 18 C        9.6200    -1.2390     0.4490 C.ar  1 <1>  -0.1590 
 19 C        8.6610    -0.1010    -1.4270 C.ar  1 <1>  -0.1590 
 20 C       10.7050    -0.3840     0.4220 C.ar  1 <1>   0.0730 
 21 C        9.7440     0.7590    -1.4610 C.ar  1 <1>  -0.1590 
 22 O       11.6590    -0.5920     1.3620 O.3   1 <1>  -0.3700 
 23 C       10.7660     0.6220    -0.5380 C.ar  1 <1>  -0.1590 
 24 C       12.8240     0.2030     1.4120 C.3   1 <1>   0.0300 
 25 H       -0.1820    -2.0450     1.3520 H     1 <1>   0.0710 
 26 H        0.4250    -3.6120     0.8860 H     1 <1>   0.0710 
 27 H       -0.1550    -2.4990    -0.3380 H     1 <1>   0.0710 
 28 H        2.5160     1.8860     1.0900 H     1 <1>   0.0710 
 29 H        3.3530     1.8870    -0.4440 H     1 <1>   0.0710 
 30 H        4.2440     1.6770     1.0560 H     1 <1>   0.0710 
 31 H        5.9600     0.4130     0.0540 H     1 <1>   0.4430 
 32 H        5.7840    -4.4410    -1.2800 H     1 <1>   0.0710 
 33 H        6.0090    -4.5910     0.4640 H     1 <1>   0.0710 
 34 H        7.9930    -3.7260    -1.4910 H     1 <1>   0.0710 
 35 H        8.2050    -3.8510     0.2500 H     1 <1>   0.0710 
 36 H        9.5900    -2.0060     1.2000 H     1 <1>   0.1410 
 37 H        7.8810     0.0070    -2.1580 H     1 <1>   0.1410 
 38 H        9.8020     1.5350    -2.2070 H     1 <1>   0.1410 
 39 H       11.5980     1.3010    -0.5820 H     1 <1>   0.1410 
 40 H       13.4340    -0.1510     2.2230 H     1 <1>   0.0710 
 41 H       12.5430     1.2260     1.5850 H     1 <1>   0.0710 
 42 H       13.3570     0.1010     0.4830 H     1 <1>   0.0710 
@<TRIPOS>BOND
  1   1   2  2   
  2   2   3  am  
  3   2   4  am  
  4   3   5  am  
  5   3   6  1   
  6   4   7  1   
  7   4   8  1   
  8   5   9  2   
  9   5  10  1   
 10   6  25  1   
 11   6  26  1   
 12   6  27  1   
 13   7  10  2   
 14   7  11  1   
 15   8  28  1   
 16   8  29  1   
 17   8  30  1   
 18  10  12  1   
 19  11  13  ar  
 20  11  31  1   
 21  12  13  ar  
 22  12  14  1   
 23  13  15  ar  
 24  14  16  1   
 25  14  32  1   
 26  14  33  1   
 27  15  16  1   
 28  15  17  1   
 29  16  34  1   
 30  16  35  1   
 31  17  18  ar  
 32  17  19  ar  
 33  18  20  ar  
 34  18  36  1   
 35  19  21  ar  
 36  19  37  1   
 37  20  22  1   
 38  20  23  ar  
 39  21  23  ar  
 40  21  38  1   
 41  22  24  1   
 42  23  39  1   
 43  24  40  1   
 44  24  41  1   
 45  24  42  1   
@<TRIPOS>SUBSTRUCTURE
  1 ****  13 GROUP 4 **** **** 0

# MOE 2024.06 (io_trps.svl 2023.06)
