@<TRIPOS>MOLECULE
NONAME
38 38 1 0 0 
SMALL
USER_CHARGES


@<TRIPOS>ATOM
  1 CL       0.0560    -0.3510     0.0260 Cl    1 <1>  -0.1770 
  2 C       -1.5840    -0.9710     0.0260 C.ar  1 <1>   0.1770 
  3 C       -1.7880    -2.3450     0.0450 C.ar  1 <1>  -0.1440 
  4 C       -2.6480    -0.0770     0.0080 C.ar  1 <1>  -0.1440 
  5 C       -3.0880    -2.8220     0.0450 C.ar  1 <1>  -0.1500 
  6 C       -0.6160    -3.3160     0.0640 C.3   1 <1>  -0.0960 
  7 C       -3.9410    -0.5750     0.0080 C.ar  1 <1>  -0.1500 
  8 C       -2.4030     1.4260    -0.0120 C.3   1 <1>  -0.0960 
  9 C       -4.1650    -1.9500     0.0270 C.ar  1 <1>   0.0830 
 10 O       -5.3990    -2.5140     0.0280 O.3   1 <1>  -0.3630 
 11 C       -6.5650    -1.7320     0.0100 C.3   1 <1>   0.1200 
 12 C       -7.7520    -2.6980     0.0180 C.3   1 <1>   0.3430 
 13 N       -9.0620    -1.9770     0.0000 N.4   1 <1>  -0.9060 
 14 C      -10.2060    -2.9390     0.0080 C.3   1 <1>   0.3430 
 15 C      -11.5590    -2.2230    -0.0100 C.3   1 <1>   0.1200 
 16 O      -12.5330    -3.2070    -0.0010 O.3   1 <1>  -0.5600 
 17 C      -13.8420    -2.7280    -0.0150 C.3   1 <1>   0.0400 
 18 H       -3.2770    -3.8810     0.0590 H     1 <1>   0.1500 
 19 H       -0.0140    -3.1470     0.9400 H     1 <1>   0.0800 
 20 H       -0.0060    -3.1720    -0.8090 H     1 <1>   0.0800 
 21 H       -0.9580    -4.3350     0.0770 H     1 <1>   0.0800 
 22 H       -4.7570     0.1220    -0.0060 H     1 <1>   0.1500 
 23 H       -1.8460     1.7180     0.8610 H     1 <1>   0.0800 
 24 H       -3.3280     1.9730    -0.0240 H     1 <1>   0.0800 
 25 H       -1.8380     1.6940    -0.8870 H     1 <1>   0.0800 
 26 H       -6.5530    -1.1370    -0.8860 H     1 <1>   0.0800 
 27 H       -6.5630    -1.1120     0.8900 H     1 <1>   0.0800 
 28 H       -7.6890    -3.3130     0.9020 H     1 <1>   0.0800 
 29 H       -7.6790    -3.3380    -0.8470 H     1 <1>   0.0800 
 30 H       -9.1220    -1.3860    -0.8400 H     1 <1>   0.4500 
 31 H       -9.1310    -1.3620     0.8220 H     1 <1>   0.4500 
 32 H      -10.1580    -3.5560     0.8910 H     1 <1>   0.0800 
 33 H      -10.1480    -3.5810    -0.8570 H     1 <1>   0.0800 
 34 H      -11.6780    -1.6380    -0.9060 H     1 <1>   0.0800 
 35 H      -11.6870    -1.6120     0.8670 H     1 <1>   0.0800 
 36 H      -14.5090    -3.5740    -0.0070 H     1 <1>   0.0800 
 37 H      -14.0060    -2.1520    -0.9100 H     1 <1>   0.0800 
 38 H      -14.0150    -2.1260     0.8600 H     1 <1>   0.0800 
@<TRIPOS>BOND
  1   1   2  1   
  2   2   3  ar  
  3   2   4  ar  
  4   3   5  ar  
  5   3   6  1   
  6   4   7  ar  
  7   4   8  1   
  8   5   9  ar  
  9   5  18  1   
 10   6  19  1   
 11   6  20  1   
 12   6  21  1   
 13   7   9  ar  
 14   7  22  1   
 15   8  23  1   
 16   8  24  1   
 17   8  25  1   
 18   9  10  1   
 19  10  11  1   
 20  11  12  1   
 21  11  26  1   
 22  11  27  1   
 23  12  13  1   
 24  12  28  1   
 25  12  29  1   
 26  13  14  1   
 27  13  30  1   
 28  13  31  1   
 29  14  15  1   
 30  14  32  1   
 31  14  33  1   
 32  15  16  1   
 33  15  34  1   
 34  15  35  1   
 35  16  17  1   
 36  17  36  1   
 37  17  37  1   
 38  17  38  1   
@<TRIPOS>SUBSTRUCTURE
  1 ****  10 GROUP 4 **** **** 0

# MOE 2024.06 (io_trps.svl 2023.06)
