@<TRIPOS>MOLECULE
NONAME
42 43 1 0 0 
SMALL
USER_CHARGES


@<TRIPOS>ATOM
  1 O       -3.5880     2.1570     2.5720 O.2   1 <1>  -0.5700 
  2 C       -2.8920     2.3170     1.5980 C.2   1 <1>   0.5690 
  3 N       -2.8320     1.4020     0.5950 N.am  1 <1>  -0.7300 
  4 C       -2.0590     3.5890     1.5000 C.3   1 <1>   0.1810 
  5 C       -3.5630     0.1280     0.5290 C.3   1 <1>   0.2200 
  6 O       -1.2950     3.6190     0.3000 O.3   1 <1>  -0.3630 
  7 C       -2.5300    -1.0040     0.4490 C.3   1 <1>  -0.1600 
  8 C       -4.5280     0.2090    -0.6590 C.3   1 <1>  -0.1600 
  9 C       -0.4740     4.6610     0.0040 C.ar  1 <1>   0.0820 
 10 C       -3.1540    -2.3850     0.7020 C.3   1 <1>  -0.1600 
 11 C       -5.3250    -1.0760    -0.9400 C.3   1 <1>  -0.1600 
 12 C        0.2380     4.6000    -1.1910 C.ar  1 <1>  -0.1440 
 13 C       -0.3250     5.7660     0.8400 C.ar  1 <1>  -0.1500 
 14 C       -3.7280    -3.0760    -0.5440 C.3   1 <1>  -0.1600 
 15 C       -4.4560    -2.1810    -1.5590 C.3   1 <1>  -0.1600 
 16 C        1.0880     5.6390    -1.5360 C.ar  1 <1>  -0.1500 
 17 C        0.0930     3.4040    -2.1220 C.3   1 <1>  -0.0970 
 18 C        0.5260     6.7970     0.4850 C.ar  1 <1>  -0.1500 
 19 C        1.2320     6.7340    -0.7030 C.ar  1 <1>  -0.1500 
 20 H       -2.2190     1.6110    -0.1970 H     1 <1>   0.3700 
 21 H       -1.3830     3.6320     2.3340 H     1 <1>   0.0800 
 22 H       -2.7130     4.4400     1.5090 H     1 <1>   0.0800 
 23 H       -4.1370     0.0110     1.4350 H     1 <1>   0.0800 
 24 H       -1.8030    -0.8350     1.2250 H     1 <1>   0.0800 
 25 H       -2.0170    -0.9890    -0.4960 H     1 <1>   0.0800 
 26 H       -3.9860     0.4880    -1.5450 H     1 <1>   0.0800 
 27 H       -5.2330     0.9950    -0.4490 H     1 <1>   0.0800 
 28 H       -3.9260    -2.2950     1.4480 H     1 <1>   0.0800 
 29 H       -2.4000    -3.0320     1.1180 H     1 <1>   0.0800 
 30 H       -6.0970    -0.8290    -1.6490 H     1 <1>   0.0800 
 31 H       -5.8130    -1.4280    -0.0480 H     1 <1>   0.0800 
 32 H       -0.8570     5.8480     1.7680 H     1 <1>   0.1500 
 33 H       -4.4070    -3.8430    -0.2120 H     1 <1>   0.0800 
 34 H       -2.9260    -3.5750    -1.0620 H     1 <1>   0.0800 
 35 H       -3.7370    -1.7400    -2.2270 H     1 <1>   0.0800 
 36 H       -5.0850    -2.8150    -2.1610 H     1 <1>   0.0800 
 37 H        1.6430     5.6030    -2.4570 H     1 <1>   0.1500 
 38 H       -0.9310     3.3100    -2.4360 H     1 <1>   0.0800 
 39 H        0.3840     2.5060    -1.6080 H     1 <1>   0.0800 
 40 H        0.7100     3.5140    -2.9950 H     1 <1>   0.0800 
 41 H        0.6410     7.6500     1.1310 H     1 <1>   0.1500 
 42 H        1.8950     7.5360    -0.9790 H     1 <1>   0.1500 
@<TRIPOS>BOND
  1   1   2  2   
  2   2   3  am  
  3   2   4  1   
  4   3   5  1   
  5   3  20  1   
  6   4   6  1   
  7   4  21  1   
  8   4  22  1   
  9   5   7  1   
 10   5   8  1   
 11   5  23  1   
 12   6   9  1   
 13   7  10  1   
 14   7  24  1   
 15   7  25  1   
 16   8  11  1   
 17   8  26  1   
 18   8  27  1   
 19   9  12  ar  
 20   9  13  ar  
 21  10  14  1   
 22  10  28  1   
 23  10  29  1   
 24  11  15  1   
 25  11  30  1   
 26  11  31  1   
 27  12  16  ar  
 28  12  17  1   
 29  13  18  ar  
 30  13  32  1   
 31  14  15  1   
 32  14  33  1   
 33  14  34  1   
 34  15  35  1   
 35  15  36  1   
 36  16  19  ar  
 37  16  37  1   
 38  17  38  1   
 39  17  39  1   
 40  17  40  1   
 41  18  19  ar  
 42  18  41  1   
 43  19  42  1   
@<TRIPOS>SUBSTRUCTURE
  1 ****   3 GROUP 4 **** **** 0

# MOE 2024.06 (io_trps.svl 2023.06)
