@<TRIPOS>MOLECULE
NONAME
49 50 1 0 0 
SMALL
USER_CHARGES


@<TRIPOS>ATOM
  1 O       -0.1260     0.2960    -0.4230 O.2   1 <1>  -0.5700 
  2 C       -0.1500     1.4450    -0.0130 C.2   1 <1>   0.4690 
  3 C        1.0540     2.1600     0.3220 C.ar  1 <1>   0.0860 
  4 C       -1.3870     2.1390     0.1610 C.2   1 <1>  -0.1240 
  5 C        0.9480     3.4700     0.8060 C.ar  1 <1>   0.0830 
  6 C        2.3330     1.6140     0.1910 C.ar  1 <1>  -0.1500 
  7 C       -1.3860     3.4030     0.6420 C.2   1 <1>  -0.0730 
  8 C       -2.6500     1.3660    -0.2030 C.3   1 <1>   0.2480 
  9 O       -0.2610     4.0510     0.9540 O.3   1 <1>  -0.1590 
 10 C        2.0810     4.1970     1.1410 C.ar  1 <1>  -0.1500 
 11 C        3.4640     2.3360     0.5240 C.ar  1 <1>  -0.1440 
 12 N       -3.8310     2.2480    -0.3770 N.3   1 <1>  -0.8100 
 13 C        3.3330     3.6330     1.0010 C.ar  1 <1>  -0.1500 
 14 C        4.8480     1.7290     0.3750 C.3   1 <1>  -0.0970 
 15 C       -5.0800     1.4790    -0.2820 C.3   1 <1>   0.1100 
 16 C       -3.7300     2.9780    -1.6580 C.3   1 <1>   0.0300 
 17 C       -6.2630     2.4180     0.0040 C.3   1 <1>   0.3430 
 18 N       -7.5360     1.6840     0.3120 N.4   1 <1>  -0.9590 
 19 C       -8.0480     0.9240    -0.8610 C.3   1 <1>   0.3430 
 20 C       -8.5470     2.6400     0.8380 C.3   1 <1>   0.3430 
 21 C       -7.8980    -0.5640    -0.5750 C.3   1 <1>  -0.2400 
 22 C       -9.6510     1.8760     1.5590 C.3   1 <1>  -0.2400 
 23 H        2.4240     0.6070    -0.1800 H     1 <1>   0.1500 
 24 H       -2.2780     3.9820     0.8110 H     1 <1>   0.1500 
 25 H       -2.8300     0.6600     0.5900 H     1 <1>   0.0800 
 26 H       -2.4880     0.8030    -1.1080 H     1 <1>   0.0800 
 27 H        1.9740     5.2020     1.5110 H     1 <1>   0.1500 
 28 H        4.2090     4.2020     1.2620 H     1 <1>   0.1500 
 29 H        4.7890     0.7240    -0.0020 H     1 <1>   0.0800 
 30 H        5.3430     1.7080     1.3300 H     1 <1>   0.0800 
 31 H        5.4350     2.3170    -0.3080 H     1 <1>   0.0800 
 32 H       -5.0000     0.7850     0.5380 H     1 <1>   0.0800 
 33 H       -5.2350     0.9250    -1.1930 H     1 <1>   0.0800 
 34 H       -2.8070     3.5320    -1.7010 H     1 <1>   0.0800 
 35 H       -4.5370     3.6800    -1.7610 H     1 <1>   0.0800 
 36 H       -3.7500     2.2920    -2.4890 H     1 <1>   0.0800 
 37 H       -6.4140     3.0650    -0.8430 H     1 <1>   0.0800 
 38 H       -5.9940     3.0300     0.8490 H     1 <1>   0.0800 
 39 H       -7.3410     1.0090     1.0650 H     1 <1>   0.4500 
 40 H       -7.5000     1.1880    -1.7520 H     1 <1>   0.0800 
 41 H       -9.0890     1.1500    -1.0290 H     1 <1>   0.0800 
 42 H       -8.9620     3.2260     0.0330 H     1 <1>   0.0800 
 43 H       -8.0790     3.3150     1.5380 H     1 <1>   0.0800 
 44 H       -6.8670    -0.8330    -0.4310 H     1 <1>   0.0800 
 45 H       -8.2700    -1.1230    -1.4160 H     1 <1>   0.0800 
 46 H       -8.4720    -0.8470     0.2890 H     1 <1>   0.0800 
 47 H      -10.1980     1.2410     0.8870 H     1 <1>   0.0800 
 48 H      -10.3470     2.5800     1.9810 H     1 <1>   0.0800 
 49 H       -9.2470     1.2890     2.3650 H     1 <1>   0.0800 
@<TRIPOS>BOND
  1   1   2  2   
  2   2   3  1   
  3   2   4  1   
  4   3   5  ar  
  5   3   6  ar  
  6   4   7  2   
  7   4   8  1   
  8   5   9  1   
  9   5  10  ar  
 10   6  11  ar  
 11   6  23  1   
 12   7   9  1   
 13   7  24  1   
 14   8  12  1   
 15   8  25  1   
 16   8  26  1   
 17  10  13  ar  
 18  10  27  1   
 19  11  13  ar  
 20  11  14  1   
 21  12  15  1   
 22  12  16  1   
 23  13  28  1   
 24  14  29  1   
 25  14  30  1   
 26  14  31  1   
 27  15  17  1   
 28  15  32  1   
 29  15  33  1   
 30  16  34  1   
 31  16  35  1   
 32  16  36  1   
 33  17  18  1   
 34  17  37  1   
 35  17  38  1   
 36  18  19  1   
 37  18  20  1   
 38  18  39  1   
 39  19  21  1   
 40  19  40  1   
 41  19  41  1   
 42  20  22  1   
 43  20  42  1   
 44  20  43  1   
 45  21  44  1   
 46  21  45  1   
 47  21  46  1   
 48  22  47  1   
 49  22  48  1   
 50  22  49  1   
@<TRIPOS>SUBSTRUCTURE
  1 ****   4 GROUP 4 **** **** 0

# MOE 2024.06 (io_trps.svl 2023.06)
