@<TRIPOS>MOLECULE
NONAME
37 38 1 0 0 
SMALL
USER_CHARGES


@<TRIPOS>ATOM
  1 S       -0.2650     0.4660     0.7370 S.3   1 <1>  -0.0800 
  2 C        1.1320     0.6230    -0.2830 C.2   1 <1>   0.4420 
  3 C       -0.7630    -0.8450    -0.2750 C.2   1 <1>   0.1980 
  4 N        1.1360    -0.2380    -1.2340 N.2   1 <1>  -0.3380 
  5 N        2.1020     1.5770    -0.0670 N.am  1 <1>  -0.4940 
  6 N        0.0550    -1.0740    -1.2230 N.2   1 <1>  -0.3380 
  7 C       -2.0540    -1.5630     0.0650 C.3   1 <1>   0.1640 
  8 C        2.2700     2.4960     0.9270 C.2   1 <1>   0.5690 
  9 C       -3.2700    -0.6760    -0.1700 C.ar  1 <1>  -0.1440 
 10 O        1.5370     2.6010     1.8750 O.2   1 <1>  -0.5700 
 11 C        3.4630     3.4290     0.8220 C.3   1 <1>  -0.0990 
 12 C       -3.9540    -0.1100     0.8970 C.ar  1 <1>  -0.1500 
 13 C       -3.7040    -0.4280    -1.4630 C.ar  1 <1>  -0.1500 
 14 C        3.2770     4.4930    -0.2720 C.3   1 <1>  -0.1600 
 15 C       -5.0640     0.6870     0.6760 C.ar  1 <1>  -0.1500 
 16 C       -4.8140     0.3680    -1.6850 C.ar  1 <1>  -0.1500 
 17 C        4.4890     5.4260    -0.3510 C.3   1 <1>  -0.2400 
 18 C       -5.5020     0.9290    -0.6220 C.ar  1 <1>   0.0830 
 19 O       -6.5810     1.6940    -0.9270 O.3   1 <1>  -0.3630 
 20 C       -7.3260     2.3420     0.0800 C.3   1 <1>   0.0400 
 21 H        2.8160     1.5770    -0.7900 H     1 <1>   0.3700 
 22 H       -2.0170    -1.8840     1.0890 H     1 <1>   0.0800 
 23 H       -2.1350    -2.4420    -0.5490 H     1 <1>   0.0800 
 24 H        4.3450     2.8480     0.6270 H     1 <1>   0.0800 
 25 H        3.5960     3.9150     1.7730 H     1 <1>   0.0800 
 26 H       -3.6260    -0.2850     1.9070 H     1 <1>   0.1500 
 27 H       -3.1800    -0.8500    -2.3030 H     1 <1>   0.1500 
 28 H        2.3960     5.0750    -0.0540 H     1 <1>   0.0800 
 29 H        3.1320     4.0200    -1.2280 H     1 <1>   0.0800 
 30 H       -5.5700     1.1090     1.5230 H     1 <1>   0.1500 
 31 H       -5.1530     0.5610    -2.6870 H     1 <1>   0.1500 
 32 H        4.6360     5.9340     0.5860 H     1 <1>   0.0800 
 33 H        4.3340     6.1660    -1.1170 H     1 <1>   0.0800 
 34 H        5.3810     4.8720    -0.5880 H     1 <1>   0.0800 
 35 H       -8.1140     2.8980    -0.3940 H     1 <1>   0.0800 
 36 H       -6.6770     3.0120     0.6160 H     1 <1>   0.0800 
 37 H       -7.7450     1.6000     0.7360 H     1 <1>   0.0800 
@<TRIPOS>BOND
  1   1   2  1   
  2   1   3  1   
  3   2   4  2   
  4   2   5  1   
  5   3   6  2   
  6   3   7  1   
  7   4   6  1   
  8   5   8  am  
  9   5  21  1   
 10   7   9  1   
 11   7  22  1   
 12   7  23  1   
 13   8  10  2   
 14   8  11  1   
 15   9  12  ar  
 16   9  13  ar  
 17  11  14  1   
 18  11  24  1   
 19  11  25  1   
 20  12  15  ar  
 21  12  26  1   
 22  13  16  ar  
 23  13  27  1   
 24  14  17  1   
 25  14  28  1   
 26  14  29  1   
 27  15  18  ar  
 28  15  30  1   
 29  16  18  ar  
 30  16  31  1   
 31  17  32  1   
 32  17  33  1   
 33  17  34  1   
 34  18  19  1   
 35  19  20  1   
 36  20  35  1   
 37  20  36  1   
 38  20  37  1   
@<TRIPOS>SUBSTRUCTURE
  1 ****   1 GROUP 4 **** **** 0

# MOE 2024.06 (io_trps.svl 2023.06)
