@<TRIPOS>MOLECULE
NONAME
43 45 1 0 0 
SMALL
USER_CHARGES


@<TRIPOS>ATOM
  1 BR       0.8780    -2.0660    -3.1550 Br    1 <1>  -0.1110 
  2 C        0.1660    -2.8630    -1.5520 C.ar  1 <1>   0.1110 
  3 C        0.9310    -2.9350    -0.4030 C.ar  1 <1>   0.1900 
  4 C       -1.1260    -3.3560    -1.5770 C.ar  1 <1>  -0.1500 
  5 F        2.1490    -2.4630    -0.3910 F     1 <1>  -0.1900 
  6 C        0.4210    -3.5050     0.7480 C.ar  1 <1>  -0.1500 
  7 C       -1.6550    -3.9250    -0.4220 C.ar  1 <1>  -0.1440 
  8 C       -0.8750    -4.0010     0.7320 C.ar  1 <1>  -0.1500 
  9 C       -3.0760    -4.4620    -0.4220 C.3   1 <1>   0.4870 
 10 N       -3.9560    -3.4960     0.2890 N.4   1 <1>  -0.9590 
 11 C       -5.3390    -4.0570     0.5110 C.3   1 <1>   0.3430 
 12 C       -4.0270    -2.1620    -0.4200 C.3   1 <1>   0.3430 
 13 C       -6.2630    -3.0840     1.2730 C.3   1 <1>   0.2090 
 14 C       -4.9220    -1.1420     0.3140 C.3   1 <1>   0.2090 
 15 N       -6.2490    -1.7230     0.6650 N.pl3 1 <1>  -0.8380 
 16 C       -7.3500    -1.3450    -0.1020 C.ar  1 <1>   0.1000 
 17 C       -8.3140    -0.4760     0.4110 C.ar  1 <1>  -0.1430 
 18 C       -7.5040    -1.8340    -1.3950 C.ar  1 <1>  -0.1500 
 19 C       -9.4010    -0.1150    -0.3680 C.ar  1 <1>  -0.1500 
 20 C       -8.1850     0.0860     1.8200 C.3   1 <1>  -0.0970 
 21 C       -8.5910    -1.4710    -2.1680 C.ar  1 <1>  -0.1500 
 22 C       -9.5420    -0.6090    -1.6530 C.ar  1 <1>  -0.1500 
 23 H       -1.6900    -3.2900    -2.4920 H     1 <1>   0.1500 
 24 H        1.0330    -3.5600     1.6320 H     1 <1>   0.1500 
 25 H       -1.2610    -4.4510     1.6320 H     1 <1>   0.1500 
 26 H       -3.0930    -5.4170     0.0790 H     1 <1>   0.0800 
 27 H       -3.4170    -4.6020    -1.4340 H     1 <1>   0.0800 
 28 H       -3.5350    -3.3150     1.2090 H     1 <1>   0.4500 
 29 H       -5.2790    -4.9810     1.0630 H     1 <1>   0.0800 
 30 H       -5.7980    -4.2710    -0.4400 H     1 <1>   0.0800 
 31 H       -4.4270    -2.3010    -1.4100 H     1 <1>   0.0800 
 32 H       -3.0390    -1.7430    -0.5200 H     1 <1>   0.0800 
 33 H       -5.9520    -3.0120     2.3010 H     1 <1>   0.0800 
 34 H       -7.2700    -3.4680     1.2660 H     1 <1>   0.0800 
 35 H       -5.0650    -0.2760    -0.3110 H     1 <1>   0.0800 
 36 H       -4.4350    -0.8110     1.2150 H     1 <1>   0.0800 
 37 H       -6.7740    -2.5020    -1.8040 H     1 <1>   0.1500 
 38 H      -10.1480     0.5550     0.0190 H     1 <1>   0.1500 
 39 H       -8.1790    -0.7190     2.5330 H     1 <1>   0.0800 
 40 H       -9.0020     0.7440     2.0530 H     1 <1>   0.0800 
 41 H       -7.2660     0.6350     1.9100 H     1 <1>   0.0800 
 42 H       -8.7030    -1.8540    -3.1670 H     1 <1>   0.1500 
 43 H      -10.3910    -0.3220    -2.2500 H     1 <1>   0.1500 
@<TRIPOS>BOND
  1   1   2  1   
  2   2   3  ar  
  3   2   4  ar  
  4   3   5  1   
  5   3   6  ar  
  6   4   7  ar  
  7   4  23  1   
  8   6   8  ar  
  9   6  24  1   
 10   7   8  ar  
 11   7   9  1   
 12   8  25  1   
 13   9  10  1   
 14   9  26  1   
 15   9  27  1   
 16  10  11  1   
 17  10  12  1   
 18  10  28  1   
 19  11  13  1   
 20  11  29  1   
 21  11  30  1   
 22  12  14  1   
 23  12  31  1   
 24  12  32  1   
 25  13  15  1   
 26  13  33  1   
 27  13  34  1   
 28  14  15  1   
 29  14  35  1   
 30  14  36  1   
 31  15  16  1   
 32  16  17  ar  
 33  16  18  ar  
 34  17  19  ar  
 35  17  20  1   
 36  18  21  ar  
 37  18  37  1   
 38  19  22  ar  
 39  19  38  1   
 40  20  39  1   
 41  20  40  1   
 42  20  41  1   
 43  21  22  ar  
 44  21  42  1   
 45  22  43  1   
@<TRIPOS>SUBSTRUCTURE
  1 ****  12 GROUP 4 **** **** 0

# MOE 2024.06 (io_trps.svl 2023.06)
