@<TRIPOS>MOLECULE
NONAME
48 51 1 0 0 
SMALL
USER_CHARGES


@<TRIPOS>ATOM
  1 O       -0.9350     0.3500     1.5150 O.2   1 <1>  -0.5700 
  2 C       -0.8700     1.4510     1.0310 C.2   1 <1>   0.5690 
  3 N       -1.7430     1.9200     0.1030 N.am  1 <1>  -0.7300 
  4 C        0.2190     2.3860     1.4870 C.3   1 <1>  -0.1790 
  5 C       -2.8340     1.2720    -0.6970 C.3   1 <1>   0.2200 
  6 C       -4.0580     2.2110    -0.8400 C.3   1 <1>   0.0000 
  7 C       -3.3230    -0.0530    -0.0930 C.3   1 <1>  -0.0800 
  8 C       -4.5860     2.4850     0.5820 C.3   1 <1>   0.3430 
  9 C       -5.1390     1.5190    -1.7080 C.3   1 <1>   0.1100 
 10 C       -3.7420     3.5500    -1.5710 C.3   1 <1>  -0.0170 
 11 C       -3.9050     0.1670     1.3110 C.3   1 <1>   0.3430 
 12 C       -4.3350    -0.7100    -1.0320 C.3   1 <1>   0.1100 
 13 N       -4.9390     1.2610     1.3850 N.4   1 <1>  -0.9590 
 14 N       -5.4850     0.1660    -1.2620 N.3   1 <1>  -0.8100 
 15 C       -2.6990     4.4580    -0.9290 C.ar  1 <1>  -0.1440 
 16 C       -6.3300     0.7770     1.0940 C.3   1 <1>   0.3430 
 17 C       -6.5580     0.0640    -0.2570 C.3   1 <1>   0.1100 
 18 C       -3.0110     5.2500     0.1670 C.ar  1 <1>  -0.1500 
 19 C       -1.4130     4.5030    -1.4500 C.ar  1 <1>  -0.1500 
 20 C       -2.0420     6.0430     0.7570 C.ar  1 <1>  -0.1500 
 21 C       -0.4440     5.2950    -0.8610 C.ar  1 <1>  -0.1500 
 22 C       -0.7570     6.0610     0.2470 C.ar  1 <1>  -0.1500 
 23 H       -1.5590     2.8840    -0.2050 H     1 <1>   0.3700 
 24 H       -0.2030     3.3280     1.7820 H     1 <1>   0.0800 
 25 H        0.9170     2.5420     0.6870 H     1 <1>   0.0800 
 26 H        0.7390     1.9590     2.3240 H     1 <1>   0.0800 
 27 H       -2.4390     1.0700    -1.6800 H     1 <1>   0.0800 
 28 H       -2.4970    -0.7370    -0.0240 H     1 <1>   0.0800 
 29 H       -5.4420     3.1350     0.5210 H     1 <1>   0.0800 
 30 H       -3.8130     3.0180     1.1110 H     1 <1>   0.0800 
 31 H       -6.0320     2.1200    -1.7520 H     1 <1>   0.0800 
 32 H       -4.7700     1.4350    -2.7180 H     1 <1>   0.0800 
 33 H       -4.6490     4.1210    -1.6710 H     1 <1>   0.0800 
 34 H       -3.4190     3.3290    -2.5750 H     1 <1>   0.0800 
 35 H       -4.3230    -0.7580     1.6720 H     1 <1>   0.0800 
 36 H       -3.0940     0.4260     1.9700 H     1 <1>   0.0800 
 37 H       -4.6610    -1.6570    -0.6370 H     1 <1>   0.0800 
 38 H       -3.8610    -0.9070    -1.9800 H     1 <1>   0.0800 
 39 H       -4.9430     1.5610     2.3680 H     1 <1>   0.4500 
 40 H       -7.0050     1.6150     1.1400 H     1 <1>   0.0800 
 41 H       -6.6360     0.0980     1.8730 H     1 <1>   0.0800 
 42 H       -6.7490    -0.9780    -0.0640 H     1 <1>   0.0800 
 43 H       -7.4650     0.4520    -0.6900 H     1 <1>   0.0800 
 44 H       -4.0080     5.2720     0.5680 H     1 <1>   0.1500 
 45 H       -1.1500     3.9210    -2.3180 H     1 <1>   0.1500 
 46 H       -2.2870     6.6540     1.6090 H     1 <1>   0.1500 
 47 H        0.5530     5.3230    -1.2670 H     1 <1>   0.1500 
 48 H       -0.0040     6.6800     0.7050 H     1 <1>   0.1500 
@<TRIPOS>BOND
  1   1   2  2   
  2   2   3  am  
  3   2   4  1   
  4   3   5  1   
  5   3  23  1   
  6   4  24  1   
  7   4  25  1   
  8   4  26  1   
  9   5   6  1   
 10   5   7  1   
 11   5  27  1   
 12   6   8  1   
 13   6   9  1   
 14   6  10  1   
 15   7  11  1   
 16   7  12  1   
 17   7  28  1   
 18   8  13  1   
 19   8  29  1   
 20   8  30  1   
 21   9  14  1   
 22   9  31  1   
 23   9  32  1   
 24  10  15  1   
 25  10  33  1   
 26  10  34  1   
 27  11  13  1   
 28  11  35  1   
 29  11  36  1   
 30  12  14  1   
 31  12  37  1   
 32  12  38  1   
 33  13  16  1   
 34  13  39  1   
 35  14  17  1   
 36  15  18  ar  
 37  15  19  ar  
 38  16  17  1   
 39  16  40  1   
 40  16  41  1   
 41  17  42  1   
 42  17  43  1   
 43  18  20  ar  
 44  18  44  1   
 45  19  21  ar  
 46  19  45  1   
 47  20  22  ar  
 48  20  46  1   
 49  21  22  ar  
 50  21  47  1   
 51  22  48  1   
@<TRIPOS>SUBSTRUCTURE
  1 ****   6 GROUP 4 **** **** 0

# MOE 2024.06 (io_trps.svl 2023.06)
