@<TRIPOS>MOLECULE
NONAME
38 39 1 0 0 
SMALL
USER_CHARGES


@<TRIPOS>ATOM
  1 F       -0.2720     0.4980    -0.5950 F     1 <1>  -0.1900 
  2 C       -1.4660     0.9920    -0.3980 C.ar  1 <1>   0.1900 
  3 C       -1.5830     2.2810     0.0840 C.ar  1 <1>  -0.1500 
  4 C       -2.5670     0.2050    -0.6800 C.ar  1 <1>  -0.1500 
  5 C       -2.8520     2.7960     0.2910 C.ar  1 <1>  -0.1500 
  6 C       -3.8330     0.7280    -0.4700 C.ar  1 <1>  -0.1500 
  7 C       -3.9770     2.0290     0.0170 C.ar  1 <1>   0.0830 
  8 O       -5.1780     2.6160     0.2510 O.3   1 <1>  -0.3630 
  9 C       -6.3870     1.9290     0.0380 C.3   1 <1>   0.1200 
 10 C       -7.5240     2.8900     0.4030 C.3   1 <1>   0.3430 
 11 N       -8.8810     2.2740     0.2300 N.4   1 <1>  -0.9590 
 12 C       -9.9380     3.3200     0.2930 C.3   1 <1>   0.3430 
 13 C       -9.1580     1.2180     1.2410 C.3   1 <1>   0.3430 
 14 C      -11.1860     2.8890    -0.4820 C.3   1 <1>  -0.1600 
 15 C       -9.8310     0.0160     0.5780 C.3   1 <1>  -0.1600 
 16 C      -11.8120     1.5430    -0.0720 C.3   1 <1>  -0.1600 
 17 C      -10.9400     0.3340    -0.4420 C.3   1 <1>  -0.1600 
 18 H       -0.7020     2.8620     0.2910 H     1 <1>   0.1500 
 19 H       -2.4270    -0.7940    -1.0540 H     1 <1>   0.1500 
 20 H       -2.9710     3.7970     0.6650 H     1 <1>   0.1500 
 21 H       -4.6800     0.1080    -0.6940 H     1 <1>   0.1500 
 22 H       -6.3880     1.0590     0.6690 H     1 <1>   0.0800 
 23 H       -6.4360     1.6540    -1.0010 H     1 <1>   0.0800 
 24 H       -7.4430     3.7560    -0.2340 H     1 <1>   0.0800 
 25 H       -7.3990     3.2090     1.4250 H     1 <1>   0.0800 
 26 H       -8.9480     1.8390    -0.7000 H     1 <1>   0.4500 
 27 H       -9.5700     4.2370    -0.1400 H     1 <1>   0.0800 
 28 H      -10.1960     3.5210     1.3210 H     1 <1>   0.0800 
 29 H       -9.8050     1.6110     2.0090 H     1 <1>   0.0800 
 30 H       -8.2460     0.8930     1.7150 H     1 <1>   0.0800 
 31 H      -10.9620     2.8770    -1.5340 H     1 <1>   0.0800 
 32 H      -11.9290     3.6550    -0.3400 H     1 <1>   0.0800 
 33 H      -10.2560    -0.5820     1.3660 H     1 <1>   0.0800 
 34 H       -9.0820    -0.5950     0.1050 H     1 <1>   0.0800 
 35 H      -12.7460     1.4460    -0.6040 H     1 <1>   0.0800 
 36 H      -12.0530     1.5330     0.9780 H     1 <1>   0.0800 
 37 H      -11.5740    -0.5350    -0.5190 H     1 <1>   0.0800 
 38 H      -10.5140     0.4830    -1.4200 H     1 <1>   0.0800 
@<TRIPOS>BOND
  1   1   2  1   
  2   2   3  ar  
  3   2   4  ar  
  4   3   5  ar  
  5   3  18  1   
  6   4   6  ar  
  7   4  19  1   
  8   5   7  ar  
  9   5  20  1   
 10   6   7  ar  
 11   6  21  1   
 12   7   8  1   
 13   8   9  1   
 14   9  10  1   
 15   9  22  1   
 16   9  23  1   
 17  10  11  1   
 18  10  24  1   
 19  10  25  1   
 20  11  12  1   
 21  11  13  1   
 22  11  26  1   
 23  12  14  1   
 24  12  27  1   
 25  12  28  1   
 26  13  15  1   
 27  13  29  1   
 28  13  30  1   
 29  14  16  1   
 30  14  31  1   
 31  14  32  1   
 32  15  17  1   
 33  15  33  1   
 34  15  34  1   
 35  16  17  1   
 36  16  35  1   
 37  16  36  1   
 38  17  37  1   
 39  17  38  1   
@<TRIPOS>SUBSTRUCTURE
  1 ****   9 GROUP 4 **** **** 0

# MOE 2024.06 (io_trps.svl 2023.06)
