@<TRIPOS>MOLECULE
NONAME
41 42 1 0 0 
SMALL
USER_CHARGES


@<TRIPOS>ATOM
  1 O        0.2280    -0.3440     1.7480 O.2   1 <1>  -0.5700 
  2 C        0.7090    -1.1330     0.9740 C.2   1 <1>   0.5690 
  3 N       -0.0640    -2.0040     0.2770 N.am  1 <1>  -0.7300 
  4 C        2.2060    -1.1440     0.7620 C.3   1 <1>  -0.0990 
  5 C       -1.5200    -2.0920     0.4410 C.3   1 <1>   0.2200 
  6 C        2.6530     0.0460    -0.0940 C.3   1 <1>  -0.0160 
  7 C       -1.9830    -3.5300     0.2260 C.3   1 <1>  -0.1600 
  8 C       -2.1960    -1.1490    -0.5510 C.3   1 <1>  -0.1600 
  9 C        4.1500    -0.0200    -0.3470 C.ar  1 <1>  -0.1440 
 10 C       -3.5050    -3.6130     0.3270 C.3   1 <1>   0.3430 
 11 C       -3.7130    -1.2600    -0.4360 C.3   1 <1>   0.3430 
 12 C        5.0370     0.4900     0.5880 C.ar  1 <1>  -0.1500 
 13 C        4.6420    -0.5940    -1.5090 C.ar  1 <1>  -0.1500 
 14 N       -4.1340    -2.6770    -0.6540 N.4   1 <1>  -0.9590 
 15 C        6.4010     0.4260     0.3660 C.ar  1 <1>  -0.1500 
 16 C        6.0070    -0.6580    -1.7330 C.ar  1 <1>  -0.1500 
 17 C       -5.6250    -2.7940    -0.6140 C.3   1 <1>   0.2630 
 18 C        6.8870    -0.1480    -0.7960 C.ar  1 <1>  -0.1500 
 19 H        0.3750    -2.6410    -0.3900 H     1 <1>   0.3700 
 20 H        2.5030    -2.0620     0.2900 H     1 <1>   0.0800 
 21 H        2.6880    -1.0950     1.7210 H     1 <1>   0.0800 
 22 H       -1.7750    -1.7870     1.4450 H     1 <1>   0.0800 
 23 H        2.4110     0.9660     0.4120 H     1 <1>   0.0800 
 24 H        2.1250     0.0420    -1.0310 H     1 <1>   0.0800 
 25 H       -1.5510    -4.1590     0.9850 H     1 <1>   0.0800 
 26 H       -1.6670    -3.8930    -0.7360 H     1 <1>   0.0800 
 27 H       -1.8890    -1.3710    -1.5570 H     1 <1>   0.0800 
 28 H       -1.9060    -0.1370    -0.3260 H     1 <1>   0.0800 
 29 H       -3.8120    -3.3510     1.3280 H     1 <1>   0.0800 
 30 H       -3.8240    -4.6250     0.1310 H     1 <1>   0.0800 
 31 H       -4.1760    -0.6170    -1.1670 H     1 <1>   0.0800 
 32 H       -4.0220    -0.9330     0.5450 H     1 <1>   0.0800 
 33 H        4.6680     0.9380     1.4950 H     1 <1>   0.1500 
 34 H        3.9680    -0.9930    -2.2460 H     1 <1>   0.1500 
 35 H       -3.8160    -2.9520    -1.5950 H     1 <1>   0.4500 
 36 H        7.0840     0.8240     1.0960 H     1 <1>   0.1500 
 37 H        6.3830    -1.1040    -2.6370 H     1 <1>   0.1500 
 38 H       -5.9970    -2.5110     0.3580 H     1 <1>   0.0800 
 39 H       -5.9270    -3.8080    -0.8180 H     1 <1>   0.0800 
 40 H       -6.0710    -2.1490    -1.3540 H     1 <1>   0.0800 
 41 H        7.9480    -0.1980    -0.9690 H     1 <1>   0.1500 
@<TRIPOS>BOND
  1   1   2  2   
  2   2   3  am  
  3   2   4  1   
  4   3   5  1   
  5   3  19  1   
  6   4   6  1   
  7   4  20  1   
  8   4  21  1   
  9   5   7  1   
 10   5   8  1   
 11   5  22  1   
 12   6   9  1   
 13   6  23  1   
 14   6  24  1   
 15   7  10  1   
 16   7  25  1   
 17   7  26  1   
 18   8  11  1   
 19   8  27  1   
 20   8  28  1   
 21   9  12  ar  
 22   9  13  ar  
 23  10  14  1   
 24  10  29  1   
 25  10  30  1   
 26  11  14  1   
 27  11  31  1   
 28  11  32  1   
 29  12  15  ar  
 30  12  33  1   
 31  13  16  ar  
 32  13  34  1   
 33  14  17  1   
 34  14  35  1   
 35  15  18  ar  
 36  15  36  1   
 37  16  18  ar  
 38  16  37  1   
 39  17  38  1   
 40  17  39  1   
 41  17  40  1   
 42  18  41  1   
@<TRIPOS>SUBSTRUCTURE
  1 ****   2 GROUP 4 **** **** 0

# MOE 2024.06 (io_trps.svl 2023.06)
