@<TRIPOS>MOLECULE
NONAME
50 52 1 0 0 
SMALL
USER_CHARGES


@<TRIPOS>ATOM
  1 S        1.1420    -0.0220     1.8470 S.o2  1 <1>   1.4470 
  2 O        0.1170    -0.0710     2.8600 O.2   1 <1>  -0.6500 
  3 O        2.3890     0.6750     2.0650 O.2   1 <1>  -0.6500 
  4 N        0.4050     0.7240     0.5410 N.am  1 <1>  -0.9140 
  5 C        1.4690    -1.6840     1.2020 C.ar  1 <1>  -0.0090 
  6 C       -0.2090     2.0110     0.9220 C.3   1 <1>   0.4800 
  7 C        0.6030    -2.7410     1.4640 C.ar  1 <1>  -0.1500 
  8 C        2.5780    -1.9350     0.4020 C.ar  1 <1>  -0.1500 
  9 C       -0.9730     2.5970    -0.2750 C.ar  1 <1>  -0.1430 
 10 C        0.7270     3.0930     1.5360 C.2   1 <1>   0.5690 
 11 C        0.8360    -4.0030     0.9450 C.ar  1 <1>  -0.1500 
 12 C        2.8180    -3.1940    -0.1200 C.ar  1 <1>  -0.1500 
 13 C       -0.8540     2.1210    -1.5790 C.ar  1 <1>  -0.1500 
 14 C       -1.8290     3.6660    -0.0380 C.ar  1 <1>  -0.1500 
 15 O        0.3370     3.6410     2.5420 O.2   1 <1>  -0.5700 
 16 N        1.9390     3.4610     0.9840 N.am  1 <1>  -0.6600 
 17 C        1.9440    -4.2300     0.1510 C.ar  1 <1>  -0.1500 
 18 C       -1.5680     2.7030    -2.6120 C.ar  1 <1>  -0.1500 
 19 C       -2.5430     4.2480    -1.0700 C.ar  1 <1>  -0.1500 
 20 C        2.4820     2.9320    -0.3030 C.3   1 <1>   0.1400 
 21 C        2.9080     4.2840     1.7720 C.3   1 <1>   0.1400 
 22 C       -2.4120     3.7680    -2.3590 C.ar  1 <1>  -0.1500 
 23 C        3.1140     4.0580    -1.1420 C.3   1 <1>   0.3430 
 24 C        3.5280     5.3940     0.9050 C.3   1 <1>   0.3430 
 25 N        4.1330     4.8470    -0.3620 N.4   1 <1>  -0.9590 
 26 C        4.7190     5.9410    -1.1930 C.3   1 <1>   0.2630 
 27 H       -0.4020     0.1370     0.3450 H     1 <1>   0.4200 
 28 H       -0.9510     1.8060     1.6770 H     1 <1>   0.0800 
 29 H       -0.2630    -2.5810     2.0850 H     1 <1>   0.1500 
 30 H        3.2660    -1.1350     0.1870 H     1 <1>   0.1500 
 31 H        0.1550    -4.8100     1.1610 H     1 <1>   0.1500 
 32 H        3.6840    -3.3690    -0.7360 H     1 <1>   0.1500 
 33 H       -0.2100     1.2930    -1.8180 H     1 <1>   0.1500 
 34 H       -1.9500     4.0580     0.9600 H     1 <1>   0.1500 
 35 H        2.1280    -5.2120    -0.2530 H     1 <1>   0.1500 
 36 H       -1.4720     2.3250    -3.6160 H     1 <1>   0.1500 
 37 H       -3.2030     5.0750    -0.8690 H     1 <1>   0.1500 
 38 H        1.7060     2.4740    -0.8840 H     1 <1>   0.0800 
 39 H        3.2180     2.1750    -0.0890 H     1 <1>   0.0800 
 40 H        3.6810     3.6410     2.1560 H     1 <1>   0.0800 
 41 H        2.4230     4.7400     2.6180 H     1 <1>   0.0800 
 42 H       -2.9700     4.2190    -3.1620 H     1 <1>   0.1500 
 43 H        2.3250     4.7130    -1.4740 H     1 <1>   0.0800 
 44 H        3.5740     3.6270    -2.0160 H     1 <1>   0.0800 
 45 H        4.2800     5.9080     1.4810 H     1 <1>   0.0800 
 46 H        2.7540     6.1040     0.6630 H     1 <1>   0.0800 
 47 H        4.8810     4.1960    -0.0850 H     1 <1>   0.4500 
 48 H        3.9520     6.6370    -1.4930 H     1 <1>   0.0800 
 49 H        5.1810     5.5340    -2.0780 H     1 <1>   0.0800 
 50 H        5.4690     6.4770    -0.6320 H     1 <1>   0.0800 
@<TRIPOS>BOND
  1   1   2  2   
  2   1   3  2   
  3   1   4  am  
  4   1   5  1   
  5   4   6  1   
  6   4  27  1   
  7   5   7  ar  
  8   5   8  ar  
  9   6   9  1   
 10   6  10  1   
 11   6  28  1   
 12   7  11  ar  
 13   7  29  1   
 14   8  12  ar  
 15   8  30  1   
 16   9  13  ar  
 17   9  14  ar  
 18  10  15  2   
 19  10  16  am  
 20  11  17  ar  
 21  11  31  1   
 22  12  17  ar  
 23  12  32  1   
 24  13  18  ar  
 25  13  33  1   
 26  14  19  ar  
 27  14  34  1   
 28  16  20  1   
 29  16  21  1   
 30  17  35  1   
 31  18  22  ar  
 32  18  36  1   
 33  19  22  ar  
 34  19  37  1   
 35  20  23  1   
 36  20  38  1   
 37  20  39  1   
 38  21  24  1   
 39  21  40  1   
 40  21  41  1   
 41  22  42  1   
 42  23  25  1   
 43  23  43  1   
 44  23  44  1   
 45  24  25  1   
 46  24  45  1   
 47  24  46  1   
 48  25  26  1   
 49  25  47  1   
 50  26  48  1   
 51  26  49  1   
 52  26  50  1   
@<TRIPOS>SUBSTRUCTURE
  1 ****   4 GROUP 4 **** **** 0

# MOE 2024.06 (io_trps.svl 2023.06)
