@<TRIPOS>MOLECULE
NONAME
44 46 1 0 0 
SMALL
USER_CHARGES


@<TRIPOS>ATOM
  1 CL       0.7650    -0.6020    -0.0790 Cl    1 <1>  -0.1770 
  2 C       -0.1870    -2.0290    -0.4170 C.ar  1 <1>   0.1770 
  3 C        0.2930    -3.3110    -0.1440 C.ar  1 <1>   0.0860 
  4 C       -1.4410    -1.8230    -0.9570 C.ar  1 <1>  -0.1500 
  5 C        1.5980    -3.5830     0.4250 C.2   1 <1>   0.5440 
  6 C       -0.5620    -4.3750    -0.4400 C.ar  1 <1>  -0.1500 
  7 C       -2.2570    -2.9050    -1.2350 C.ar  1 <1>  -0.1500 
  8 O        1.7230    -4.4690     1.2470 O.2   1 <1>  -0.5700 
  9 N        2.7040    -2.8870     0.0380 N.am  1 <1>  -0.7300 
 10 C       -1.8330    -4.2020    -0.9750 C.ar  1 <1>  -0.0090 
 11 C        4.0620    -3.0490     0.5830 C.3   1 <1>   0.2200 
 12 S       -2.9020    -5.6230    -1.3490 S.o2  1 <1>   1.4470 
 13 C        4.4190    -1.7980     1.3750 C.3   1 <1>  -0.1600 
 14 C        5.0540    -3.0280    -0.5720 C.3   1 <1>  -0.1600 
 15 O       -4.2890    -5.2370    -1.2010 O.2   1 <1>  -0.6500 
 16 O       -2.4660    -6.2270    -2.5870 O.2   1 <1>  -0.6500 
 17 N       -2.5540    -6.7230    -0.1100 N.am  1 <1>  -0.8490 
 18 C        4.8540    -0.7580     0.3360 C.3   1 <1>  -0.1600 
 19 C        5.2690    -1.5480    -0.9120 C.3   1 <1>  -0.1600 
 20 C       -3.0550    -8.0580    -0.3800 C.3   1 <1>   0.1960 
 21 C       -3.0800    -6.3670     1.1970 C.3   1 <1>   0.1960 
 22 C       -2.9990    -8.7710     0.9670 C.3   1 <1>  -0.1600 
 23 C       -2.9570    -7.6500     2.0070 C.3   1 <1>  -0.1600 
 24 H       -1.7790    -0.8200    -1.1570 H     1 <1>   0.1500 
 25 H       -0.2150    -5.3770    -0.2400 H     1 <1>   0.1500 
 26 H       -3.2370    -2.7420    -1.6560 H     1 <1>   0.1500 
 27 H        2.5980    -2.0620    -0.5530 H     1 <1>   0.3700 
 28 H        4.1360    -3.9470     1.1750 H     1 <1>   0.0800 
 29 H        5.2540    -2.0270     2.0120 H     1 <1>   0.0800 
 30 H        3.6020    -1.4590     1.9890 H     1 <1>   0.0800 
 31 H        4.7120    -3.6050    -1.4130 H     1 <1>   0.0800 
 32 H        5.9840    -3.4450    -0.2260 H     1 <1>   0.0800 
 33 H        5.6650    -0.1580     0.7110 H     1 <1>   0.0800 
 34 H        4.0270    -0.1110     0.0980 H     1 <1>   0.0800 
 35 H        4.6450    -1.2680    -1.7430 H     1 <1>   0.0800 
 36 H        6.2970    -1.3610    -1.1720 H     1 <1>   0.0800 
 37 H       -2.4520    -8.5520    -1.1250 H     1 <1>   0.0800 
 38 H       -4.0760    -8.0040    -0.7240 H     1 <1>   0.0800 
 39 H       -4.1190    -6.0890     1.1210 H     1 <1>   0.0800 
 40 H       -2.5190    -5.5590     1.6380 H     1 <1>   0.0800 
 41 H       -2.1070    -9.3700     1.0260 H     1 <1>   0.0800 
 42 H       -3.8580    -9.4060     1.0930 H     1 <1>   0.0800 
 43 H       -3.7510    -7.7300     2.7270 H     1 <1>   0.0800 
 44 H       -2.0120    -7.6580     2.5220 H     1 <1>   0.0800 
@<TRIPOS>BOND
  1   1   2  1   
  2   2   3  ar  
  3   2   4  ar  
  4   3   5  1   
  5   3   6  ar  
  6   4   7  ar  
  7   4  24  1   
  8   5   8  2   
  9   5   9  am  
 10   6  10  ar  
 11   6  25  1   
 12   7  10  ar  
 13   7  26  1   
 14   9  11  1   
 15   9  27  1   
 16  10  12  1   
 17  11  13  1   
 18  11  14  1   
 19  11  28  1   
 20  12  15  2   
 21  12  16  2   
 22  12  17  am  
 23  13  18  1   
 24  13  29  1   
 25  13  30  1   
 26  14  19  1   
 27  14  31  1   
 28  14  32  1   
 29  17  20  1   
 30  17  21  1   
 31  18  19  1   
 32  18  33  1   
 33  18  34  1   
 34  19  35  1   
 35  19  36  1   
 36  20  22  1   
 37  20  37  1   
 38  20  38  1   
 39  21  23  1   
 40  21  39  1   
 41  21  40  1   
 42  22  23  1   
 43  22  41  1   
 44  22  42  1   
 45  23  43  1   
 46  23  44  1   
@<TRIPOS>SUBSTRUCTURE
  1 ****   6 GROUP 4 **** **** 0

# MOE 2024.06 (io_trps.svl 2023.06)
