@<TRIPOS>MOLECULE
NONAME
44 47 1 0 0 
SMALL
USER_CHARGES


@<TRIPOS>ATOM
  1 S       -0.0610     0.4870     0.0150 S.o2  1 <1>   1.3330 
  2 O        0.3490     0.2020    -1.3350 O.2   1 <1>  -0.6500 
  3 O        0.3550    -0.4140     1.0620 O.2   1 <1>  -0.6500 
  4 N       -1.7230     0.3620    -0.0420 N.am  1 <1>  -0.9140 
  5 C        0.2430     2.1820     0.4660 C.3   1 <1>  -0.1350 
  6 C       -2.1440    -0.9800    -0.4360 C.3   1 <1>   0.4190 
  7 C       -3.6320    -0.9510    -0.7270 C.ar  1 <1>  -0.1440 
  8 C       -1.9890    -2.0820     0.6890 C.3   1 <1>   0.5670 
  9 C       -4.2680    -1.8150     0.1550 C.ar  1 <1>   0.0000 
 10 C       -4.3640    -0.2600    -1.6540 C.ar  1 <1>  -0.1500 
 11 N       -1.2510    -3.3250     0.2670 N.4   1 <1>  -0.9590 
 12 C       -3.4150    -2.4840     1.0240 C.ar  1 <1>  -0.1440 
 13 C       -5.6520    -2.0020     0.1650 C.ar  1 <1>   0.0000 
 14 C       -5.7600    -0.4340    -1.6820 C.ar  1 <1>  -0.1500 
 15 C        0.2180    -3.1150     0.0280 C.3   1 <1>   0.3430 
 16 C       -1.8890    -4.0880    -0.8630 C.3   1 <1>   0.3430 
 17 C       -3.9260    -3.3410     1.9610 C.ar  1 <1>  -0.1500 
 18 C       -6.1560    -2.8930     1.1340 C.ar  1 <1>  -0.1500 
 19 C       -6.3860    -1.2780    -0.7970 C.ar  1 <1>  -0.1500 
 20 C        0.9150    -4.4230    -0.4120 C.3   1 <1>   0.1200 
 21 C       -1.0940    -5.3720    -1.1940 C.3   1 <1>   0.1200 
 22 C       -5.3170    -3.5400     2.0090 C.ar  1 <1>  -0.1500 
 23 O        0.0280    -5.5090    -0.3640 O.3   1 <1>  -0.5600 
 24 H       -2.0220     0.9640    -0.8080 H     1 <1>   0.4200 
 25 H       -0.2000     2.3980     1.4190 H     1 <1>   0.0800 
 26 H       -0.1700     2.8470    -0.2660 H     1 <1>   0.0800 
 27 H        1.2990     2.3620     0.5330 H     1 <1>   0.0800 
 28 H       -1.6290    -1.2840    -1.3310 H     1 <1>   0.0800 
 29 H       -1.5260    -1.6480     1.5580 H     1 <1>   0.0800 
 30 H       -3.9100     0.4140    -2.3610 H     1 <1>   0.1500 
 31 H       -1.2910    -3.9750     1.0630 H     1 <1>   0.4500 
 32 H       -6.3350     0.1120    -2.4100 H     1 <1>   0.1500 
 33 H        0.6890    -2.7570     0.9300 H     1 <1>   0.0800 
 34 H        0.3750    -2.3650    -0.7300 H     1 <1>   0.0800 
 35 H       -1.9400    -3.4730    -1.7460 H     1 <1>   0.0800 
 36 H       -2.8990    -4.3600    -0.6030 H     1 <1>   0.0800 
 37 H       -3.3030    -3.8680     2.6640 H     1 <1>   0.1500 
 38 H       -7.2200    -3.0520     1.1760 H     1 <1>   0.1500 
 39 H       -7.4550    -1.4010    -0.8210 H     1 <1>   0.1500 
 40 H        1.7400    -4.6400     0.2430 H     1 <1>   0.0800 
 41 H        1.2970    -4.3320    -1.4150 H     1 <1>   0.0800 
 42 H       -0.7660    -5.3630    -2.2200 H     1 <1>   0.0800 
 43 H       -1.7160    -6.2390    -1.0500 H     1 <1>   0.0800 
 44 H       -5.7200    -4.2120     2.7490 H     1 <1>   0.1500 
@<TRIPOS>BOND
  1   1   2  2   
  2   1   3  2   
  3   1   4  am  
  4   1   5  1   
  5   4   6  1   
  6   4  24  1   
  7   5  25  1   
  8   5  26  1   
  9   5  27  1   
 10   6   7  1   
 11   6   8  1   
 12   6  28  1   
 13   7   9  ar  
 14   7  10  ar  
 15   8  11  1   
 16   8  12  1   
 17   8  29  1   
 18   9  12  ar  
 19   9  13  ar  
 20  10  14  ar  
 21  10  30  1   
 22  11  15  1   
 23  11  16  1   
 24  11  31  1   
 25  12  17  ar  
 26  13  18  ar  
 27  13  19  ar  
 28  14  19  ar  
 29  14  32  1   
 30  15  20  1   
 31  15  33  1   
 32  15  34  1   
 33  16  21  1   
 34  16  35  1   
 35  16  36  1   
 36  17  22  ar  
 37  17  37  1   
 38  18  22  ar  
 39  18  38  1   
 40  19  39  1   
 41  20  23  1   
 42  20  40  1   
 43  20  41  1   
 44  21  23  1   
 45  21  42  1   
 46  21  43  1   
 47  22  44  1   
@<TRIPOS>SUBSTRUCTURE
  1 ****   8 GROUP 4 **** **** 0

# MOE 2024.06 (io_trps.svl 2023.06)
