@<TRIPOS>MOLECULE
NONAME
34 34 1 0 0 
SMALL
USER_CHARGES


@<TRIPOS>ATOM
  1 O       -2.0270     0.2870     2.8310 O.3   1 <1>  -0.5320 
  2 C       -2.3400     0.8900     1.6770 C.ar  1 <1>   0.0830 
  3 C       -3.4630     0.4680     0.9900 C.ar  1 <1>  -0.1500 
  4 C       -1.5530     1.9160     1.1820 C.ar  1 <1>  -0.1500 
  5 C       -3.8180     1.0810    -0.2030 C.ar  1 <1>  -0.1430 
  6 C       -1.8990     2.5220    -0.0120 C.ar  1 <1>  -0.1500 
  7 C       -3.0260     2.1070    -0.7030 C.ar  1 <1>  -0.1500 
  8 C       -5.0620     0.6330    -0.9420 C.3   1 <1>   0.4860 
  9 N       -6.2550     1.0700    -0.1640 N.4   1 <1>  -0.9590 
 10 C       -7.4910     0.4160    -0.6720 C.3   1 <1>   0.3430 
 11 C       -6.3580     2.5650    -0.1260 C.3   1 <1>   0.2630 
 12 C       -8.6240     0.5480     0.3470 C.3   1 <1>  -0.1600 
 13 C       -9.8640    -0.2290    -0.1150 C.3   1 <1>  -0.1600 
 14 C      -11.0000    -0.1030     0.9030 C.3   1 <1>  -0.2400 
 15 H       -1.2030     0.6190     3.2330 H     1 <1>   0.4500 
 16 H       -4.0360    -0.3410     1.4070 H     1 <1>   0.1500 
 17 H       -0.6770     2.2410     1.7160 H     1 <1>   0.1500 
 18 H       -1.2870     3.3180    -0.4050 H     1 <1>   0.1500 
 19 H       -3.2710     2.5930    -1.6320 H     1 <1>   0.1500 
 20 H       -5.0480    -0.4420    -1.0320 H     1 <1>   0.0800 
 21 H       -5.0810     1.0600    -1.9320 H     1 <1>   0.0800 
 22 H       -6.0880     0.7470     0.8000 H     1 <1>   0.4500 
 23 H       -7.3030    -0.6330    -0.8390 H     1 <1>   0.0800 
 24 H       -7.7890     0.8570    -1.6100 H     1 <1>   0.0800 
 25 H       -6.5180     2.9570    -1.1170 H     1 <1>   0.0800 
 26 H       -5.4500     2.9910     0.2720 H     1 <1>   0.0800 
 27 H       -7.1770     2.8700     0.5040 H     1 <1>   0.0800 
 28 H       -8.8960     1.5820     0.4700 H     1 <1>   0.0800 
 29 H       -8.3050     0.1560     1.2970 H     1 <1>   0.0800 
 30 H       -9.6210    -1.2720    -0.2390 H     1 <1>   0.0800 
 31 H      -10.2050     0.1500    -1.0650 H     1 <1>   0.0800 
 32 H      -10.7010    -0.4970     1.8590 H     1 <1>   0.0800 
 33 H      -11.8590    -0.6560     0.5650 H     1 <1>   0.0800 
 34 H      -11.2890     0.9260     1.0280 H     1 <1>   0.0800 
@<TRIPOS>BOND
  1   1   2  1   
  2   1  15  1   
  3   2   3  ar  
  4   2   4  ar  
  5   3   5  ar  
  6   3  16  1   
  7   4   6  ar  
  8   4  17  1   
  9   5   7  ar  
 10   5   8  1   
 11   6   7  ar  
 12   6  18  1   
 13   7  19  1   
 14   8   9  1   
 15   8  20  1   
 16   8  21  1   
 17   9  10  1   
 18   9  11  1   
 19   9  22  1   
 20  10  12  1   
 21  10  23  1   
 22  10  24  1   
 23  11  25  1   
 24  11  26  1   
 25  11  27  1   
 26  12  13  1   
 27  12  28  1   
 28  12  29  1   
 29  13  14  1   
 30  13  30  1   
 31  13  31  1   
 32  14  32  1   
 33  14  33  1   
 34  14  34  1   
@<TRIPOS>SUBSTRUCTURE
  1 ****   9 GROUP 4 **** **** 0

# MOE 2024.06 (io_trps.svl 2023.06)
