@<TRIPOS>MOLECULE
NONAME
52 54 1 0 0 
SMALL
USER_CHARGES


@<TRIPOS>ATOM
  1 F        0.0410    -0.5220     1.1190 F     1 <1>  -0.1900 
  2 C        1.0510    -1.2790     0.7800 C.ar  1 <1>   0.1900 
  3 C        0.8590    -2.6430     0.6850 C.ar  1 <1>  -0.1500 
  4 C        2.2730    -0.6860     0.5300 C.ar  1 <1>  -0.1500 
  5 C        1.9340    -3.4390     0.3250 C.ar  1 <1>  -0.1500 
  6 C        3.3400    -1.4930     0.1720 C.ar  1 <1>  -0.1500 
  7 C        3.1740    -2.8680     0.0680 C.ar  1 <1>  -0.1430 
  8 C        4.3440    -3.7590    -0.3190 C.3   1 <1>  -0.0160 
  9 C        4.9930    -4.3540     0.9300 C.3   1 <1>   0.1400 
 10 N        6.0970    -5.2620     0.5430 N.am  1 <1>  -0.6600 
 11 C        5.9830    -6.6000     0.3830 C.2   1 <1>   0.5690 
 12 C        7.4930    -4.8030     0.4470 C.3   1 <1>   0.1400 
 13 O        4.9530    -7.2270     0.4090 O.2   1 <1>  -0.5700 
 14 C        7.3290    -7.2250     0.1500 C.3   1 <1>  -0.0990 
 15 C        8.2240    -6.0050    -0.1680 C.3   1 <1>  -0.0190 
 16 C        9.6700    -6.0790     0.3190 C.2   1 <1>   0.5690 
 17 O        9.9190    -6.8420     1.2210 O.2   1 <1>  -0.5700 
 18 N       10.6520    -5.2860    -0.2330 N.am  1 <1>  -0.6600 
 19 C       10.4670    -4.2700    -1.3080 C.3   1 <1>   0.1400 
 20 C       12.0550    -5.3570     0.2690 C.3   1 <1>   0.1400 
 21 C       10.8500    -2.8890    -0.7690 C.3   1 <1>  -0.1600 
 22 C       12.4660    -3.9930     0.8300 C.3   1 <1>  -0.1600 
 23 C       12.2890    -2.8700    -0.2100 C.3   1 <1>  -0.0190 
 24 C       12.6730    -1.5130     0.3790 C.2   1 <1>   0.6590 
 25 O       11.8510    -0.7020     0.7230 O.2   1 <1>  -0.5700 
 26 O       13.9770    -1.2840     0.4880 O.3   1 <1>  -0.4300 
 27 C       14.4740    -0.0740     1.0200 C.3   1 <1>   0.0400 
 28 H       -0.1070    -3.0690     0.8870 H     1 <1>   0.1500 
 29 H        2.3820     0.3800     0.6150 H     1 <1>   0.1500 
 30 H        1.8030    -4.5060     0.2470 H     1 <1>   0.1500 
 31 H        4.2980    -1.0440    -0.0260 H     1 <1>   0.1500 
 32 H        5.0700    -3.1900    -0.8710 H     1 <1>   0.0800 
 33 H        3.9900    -4.5570    -0.9480 H     1 <1>   0.0800 
 34 H        4.2560    -4.9130     1.4820 H     1 <1>   0.0800 
 35 H        5.3690    -3.5710     1.5660 H     1 <1>   0.0800 
 36 H        7.8650    -4.5910     1.4360 H     1 <1>   0.0800 
 37 H        7.5720    -3.9280    -0.1730 H     1 <1>   0.0800 
 38 H        7.2960    -7.9240    -0.6640 H     1 <1>   0.0800 
 39 H        7.6200    -7.7280     1.0530 H     1 <1>   0.0800 
 40 H        8.2190    -5.8960    -1.2350 H     1 <1>   0.0800 
 41 H        9.4540    -4.2390    -1.6630 H     1 <1>   0.0800 
 42 H       11.1000    -4.5250    -2.1410 H     1 <1>   0.0800 
 43 H       12.7060    -5.6340    -0.5430 H     1 <1>   0.0800 
 44 H       12.1550    -6.1040     1.0380 H     1 <1>   0.0800 
 45 H       10.1540    -2.6140     0.0050 H     1 <1>   0.0800 
 46 H       10.7620    -2.1620    -1.5580 H     1 <1>   0.0800 
 47 H       13.4940    -4.0380     1.1440 H     1 <1>   0.0800 
 48 H       11.8680    -3.7830     1.7010 H     1 <1>   0.0800 
 49 H       12.9630    -3.0590    -1.0260 H     1 <1>   0.0800 
 50 H       15.5490    -0.1130     1.0120 H     1 <1>   0.0800 
 51 H       14.1150     0.0360     2.0290 H     1 <1>   0.0800 
 52 H       14.1270     0.7430     0.4120 H     1 <1>   0.0800 
@<TRIPOS>BOND
  1   1   2  1   
  2   2   3  ar  
  3   2   4  ar  
  4   3   5  ar  
  5   3  28  1   
  6   4   6  ar  
  7   4  29  1   
  8   5   7  ar  
  9   5  30  1   
 10   6   7  ar  
 11   6  31  1   
 12   7   8  1   
 13   8   9  1   
 14   8  32  1   
 15   8  33  1   
 16   9  10  1   
 17   9  34  1   
 18   9  35  1   
 19  10  11  am  
 20  10  12  1   
 21  11  13  2   
 22  11  14  1   
 23  12  15  1   
 24  12  36  1   
 25  12  37  1   
 26  14  15  1   
 27  14  38  1   
 28  14  39  1   
 29  15  16  1   
 30  15  40  1   
 31  16  17  2   
 32  16  18  am  
 33  18  19  1   
 34  18  20  1   
 35  19  21  1   
 36  19  41  1   
 37  19  42  1   
 38  20  22  1   
 39  20  43  1   
 40  20  44  1   
 41  21  23  1   
 42  21  45  1   
 43  21  46  1   
 44  22  23  1   
 45  22  47  1   
 46  22  48  1   
 47  23  24  1   
 48  23  49  1   
 49  24  25  2   
 50  24  26  1   
 51  26  27  1   
 52  27  50  1   
 53  27  51  1   
 54  27  52  1   
@<TRIPOS>SUBSTRUCTURE
  1 ****  12 GROUP 4 **** **** 0

# MOE 2024.06 (io_trps.svl 2023.06)
