@<TRIPOS>MOLECULE
NONAME
33 36 1 0 0 
SMALL
USER_CHARGES


@<TRIPOS>ATOM
  1 O        0.1320     1.0290    -2.2030 O.2   1 <1>  -0.5700 
  2 C       -0.3320     1.9590    -1.5940 C.2   1 <1>   0.5690 
  3 N        0.3590     2.9330    -0.9340 N.am  1 <1>  -0.2370 
  4 C       -1.8170     2.2390    -1.5820 C.3   1 <1>  -0.0190 
  5 C        1.7150     2.8890    -0.6350 C.ar  1 <1>   0.4270 
  6 C       -0.4860     3.9240    -0.5330 C.2   1 <1>   0.5690 
  7 C       -1.9220     3.5900    -0.8640 C.3   1 <1>  -0.0190 
  8 C       -2.5670     1.3250    -0.6100 C.3   1 <1>   0.2000 
  9 N        2.1050     1.9810     0.2520 N.ar  1 <1>  -0.6200 
 10 C        2.5890     3.7790    -1.2510 C.ar  1 <1>  -0.1500 
 11 O       -0.1700     4.9780    -0.0420 O.2   1 <1>  -0.5700 
 12 C       -2.7210     3.2060     0.3820 C.3   1 <1>   0.2000 
 13 O       -2.2730     1.9210     0.5990 O.3   1 <1>  -0.5600 
 14 C       -4.0740     1.5840    -0.6930 C.3   1 <1>  -0.1600 
 15 C        3.3990     1.9540     0.5200 C.ar  1 <1>   0.1600 
 16 C        3.9340     3.7390    -0.9600 C.ar  1 <1>  -0.1500 
 17 C       -4.1850     2.9390     0.0180 C.3   1 <1>  -0.1600 
 18 C        4.3480     2.7930    -0.0450 C.ar  1 <1>  -0.1430 
 19 C        5.8180     2.6900     0.3250 C.3   1 <1>  -0.0970 
 20 H       -2.2230     2.2320    -2.5760 H     1 <1>   0.0800 
 21 H       -2.3810     4.3680    -1.4470 H     1 <1>   0.0800 
 22 H       -2.2700     0.2890    -0.6260 H     1 <1>   0.0800 
 23 H        2.2080     4.4970    -1.9520 H     1 <1>   0.1500 
 24 H       -2.5640     3.8340     1.2450 H     1 <1>   0.0800 
 25 H       -4.6060     0.8210    -0.1510 H     1 <1>   0.0800 
 26 H       -4.4260     1.6110    -1.7090 H     1 <1>   0.0800 
 27 H        3.7210     1.2160     1.2350 H     1 <1>   0.1500 
 28 H        4.6280     4.4170    -1.4250 H     1 <1>   0.1500 
 29 H       -4.5950     3.7100    -0.6100 H     1 <1>   0.0800 
 30 H       -4.7750     2.8540     0.9140 H     1 <1>   0.0800 
 31 H        5.9860     1.8850     1.0180 H     1 <1>   0.0800 
 32 H        6.1460     3.6080     0.7790 H     1 <1>   0.0800 
 33 H        6.4060     2.5090    -0.5570 H     1 <1>   0.0800 
@<TRIPOS>BOND
  1   1   2  2   
  2   2   3  am  
  3   2   4  1   
  4   3   5  1   
  5   3   6  am  
  6   4   7  1   
  7   4   8  1   
  8   4  20  1   
  9   5   9  ar  
 10   5  10  ar  
 11   6   7  1   
 12   6  11  2   
 13   7  12  1   
 14   7  21  1   
 15   8  13  1   
 16   8  14  1   
 17   8  22  1   
 18   9  15  ar  
 19  10  16  ar  
 20  10  23  1   
 21  12  13  1   
 22  12  17  1   
 23  12  24  1   
 24  14  17  1   
 25  14  25  1   
 26  14  26  1   
 27  15  18  ar  
 28  15  27  1   
 29  16  18  ar  
 30  16  28  1   
 31  17  29  1   
 32  17  30  1   
 33  18  19  1   
 34  19  31  1   
 35  19  32  1   
 36  19  33  1   
@<TRIPOS>SUBSTRUCTURE
  1 ****   3 GROUP 4 **** **** 0

# MOE 2024.06 (io_trps.svl 2023.06)
