@<TRIPOS>MOLECULE
NONAME
35 36 1 0 0 
SMALL
USER_CHARGES


@<TRIPOS>ATOM
  1 BR      -0.2960     0.8830     1.1510 Br    1 <1>  -0.1110 
  2 C        0.3260     2.5510     0.4090 C.ar  1 <1>   0.1110 
  3 C        1.7150     2.7970     0.3520 C.ar  1 <1>   0.3100 
  4 C       -0.6210     3.4320    -0.0370 C.ar  1 <1>  -0.1500 
  5 N        2.5960     1.8590     0.7860 N.ar  1 <1>  -0.6200 
  6 C        2.1290     4.0370    -0.1780 C.ar  1 <1>   0.0000 
  7 C       -0.1970     4.6440    -0.5850 C.ar  1 <1>  -0.1500 
  8 C        3.8650     2.1130     0.7220 C.ar  1 <1>   0.1660 
  9 C        3.5190     4.2810    -0.1960 C.ar  1 <1>   0.1010 
 10 C        1.1400     4.9290    -0.6580 C.ar  1 <1>  -0.1500 
 11 C        4.4010     3.3260     0.2410 C.ar  1 <1>  -0.1440 
 12 C        4.7650     0.9940     1.2200 C.3   1 <1>  -0.0960 
 13 S        4.1200     5.8660    -0.8120 S.3   1 <1>  -0.3310 
 14 C        5.9160     3.5640     0.2130 C.3   1 <1>  -0.0170 
 15 C        3.4440     7.1160     0.4010 C.3   1 <1>  -0.0360 
 16 C        6.5080     3.1580    -1.1430 C.3   1 <1>  -0.1600 
 17 C        2.8400     8.3330    -0.2750 C.2   1 <1>   0.9060 
 18 C        8.0250     3.3670    -1.1790 C.3   1 <1>  -0.2400 
 19 O        3.5240     9.3570    -0.3790 O.co2 1 <1>  -0.9000 
 20 O        1.6600     8.2850    -0.6440 O.co2 1 <1>  -0.9000 
 21 H       -1.6690     3.2040     0.0280 H     1 <1>   0.1500 
 22 H       -0.9220     5.3530    -0.9480 H     1 <1>   0.1500 
 23 H        1.4400     5.8650    -1.0970 H     1 <1>   0.1500 
 24 H        4.1880     0.1050     1.4080 H     1 <1>   0.0800 
 25 H        5.2390     1.2880     2.1380 H     1 <1>   0.0800 
 26 H        5.5120     0.7560     0.4870 H     1 <1>   0.0800 
 27 H        6.4020     3.0190     1.0010 H     1 <1>   0.0800 
 28 H        6.1340     4.6000     0.4000 H     1 <1>   0.0800 
 29 H        4.2610     7.4250     1.0230 H     1 <1>   0.0800 
 30 H        2.6950     6.6290     0.9920 H     1 <1>   0.0800 
 31 H        6.0500     3.7500    -1.9170 H     1 <1>   0.0800 
 32 H        6.2830     2.1260    -1.3440 H     1 <1>   0.0800 
 33 H        8.2630     4.4030    -1.0100 H     1 <1>   0.0800 
 34 H        8.4110     3.0830    -2.1430 H     1 <1>   0.0800 
 35 H        8.5080     2.7700    -0.4260 H     1 <1>   0.0800 
@<TRIPOS>BOND
  1   1   2  1   
  2   2   3  ar  
  3   2   4  ar  
  4   3   5  ar  
  5   3   6  ar  
  6   4   7  ar  
  7   4  21  1   
  8   5   8  ar  
  9   6   9  ar  
 10   6  10  ar  
 11   7  10  ar  
 12   7  22  1   
 13   8  11  ar  
 14   8  12  1   
 15   9  11  ar  
 16   9  13  1   
 17  10  23  1   
 18  11  14  1   
 19  12  24  1   
 20  12  25  1   
 21  12  26  1   
 22  13  15  1   
 23  14  16  1   
 24  14  27  1   
 25  14  28  1   
 26  15  17  1   
 27  15  29  1   
 28  15  30  1   
 29  16  18  1   
 30  16  31  1   
 31  16  32  1   
 32  17  19  ar  
 33  17  20  ar  
 34  18  33  1   
 35  18  34  1   
 36  18  35  1   
@<TRIPOS>SUBSTRUCTURE
  1 ****   9 GROUP 4 **** **** 0

# MOE 2024.06 (io_trps.svl 2023.06)
