@<TRIPOS>MOLECULE
NONAME
38 40 1 0 0 
SMALL
USER_CHARGES


@<TRIPOS>ATOM
  1 CL      -0.3170    -0.1310    -1.9060 Cl    1 <1>  -0.1770 
  2 C       -1.6620    -0.9120    -1.1010 C.ar  1 <1>   0.1770 
  3 C       -2.8740    -0.2420    -1.0490 C.ar  1 <1>   0.1770 
  4 C       -1.5070    -2.1680    -0.5300 C.ar  1 <1>  -0.0090 
  5 CL      -3.0210     1.3460    -1.7820 Cl    1 <1>  -0.1770 
  6 C       -3.9770    -0.8110    -0.4240 C.ar  1 <1>   0.0830 
  7 S        0.0660    -3.0560    -0.5810 S.o2  1 <1>   1.4470 
  8 C       -2.6200    -2.7300     0.0930 C.ar  1 <1>  -0.1500 
  9 O       -5.1410    -0.1110    -0.4020 O.3   1 <1>  -0.3630 
 10 C       -3.8360    -2.0700     0.1500 C.ar  1 <1>  -0.1500 
 11 O        0.5640    -3.1510    -1.9330 O.2   1 <1>  -0.6500 
 12 O       -0.0480    -4.2560     0.2140 O.2   1 <1>  -0.6500 
 13 N        1.1100    -2.1150     0.3300 N.am  1 <1>  -0.9140 
 14 C       -6.3120    -0.6220     0.1960 C.3   1 <1>   0.0400 
 15 C        2.5050    -2.4350     0.0870 C.3   1 <1>   0.2760 
 16 C        3.3550    -1.9840     1.2910 C.3   1 <1>  -0.0800 
 17 C        3.0800    -1.5840    -1.0600 C.3   1 <1>  -0.1600 
 18 C        3.6080    -0.5140     0.9840 C.3   1 <1>  -0.1600 
 19 C        4.7680    -2.5700     1.1240 C.3   1 <1>  -0.1600 
 20 C        4.2060    -0.7800    -0.3860 C.3   1 <1>  -0.0800 
 21 C        5.3490    -1.7470    -0.0400 C.3   1 <1>  -0.1600 
 22 H       -2.5350    -3.7070     0.5440 H     1 <1>   0.1500 
 23 H       -4.6600    -2.5530     0.6440 H     1 <1>   0.1500 
 24 H        0.9280    -2.4310     1.2780 H     1 <1>   0.4200 
 25 H       -7.0920     0.1090     0.0770 H     1 <1>   0.0800 
 26 H       -6.1280    -0.7900     1.2420 H     1 <1>   0.0800 
 27 H       -6.5910    -1.5350    -0.3000 H     1 <1>   0.0800 
 28 H        2.6330    -3.4920    -0.0920 H     1 <1>   0.0800 
 29 H        2.9170    -2.1930     2.2510 H     1 <1>   0.0800 
 30 H        2.3390    -0.9140    -1.4570 H     1 <1>   0.0800 
 31 H        3.4540    -2.2020    -1.8560 H     1 <1>   0.0800 
 32 H        4.3060    -0.0560     1.6630 H     1 <1>   0.0800 
 33 H        2.7010     0.0670     0.9340 H     1 <1>   0.0800 
 34 H        4.7470    -3.6240     0.9020 H     1 <1>   0.0800 
 35 H        5.3480    -2.4090     2.0170 H     1 <1>   0.0800 
 36 H        4.5140     0.0940    -0.9360 H     1 <1>   0.0800 
 37 H        5.6210    -2.3650    -0.8780 H     1 <1>   0.0800 
 38 H        6.2150    -1.1980     0.2890 H     1 <1>   0.0800 
@<TRIPOS>BOND
  1   1   2  1   
  2   2   3  ar  
  3   2   4  ar  
  4   3   5  1   
  5   3   6  ar  
  6   4   7  1   
  7   4   8  ar  
  8   6   9  1   
  9   6  10  ar  
 10   7  11  2   
 11   7  12  2   
 12   7  13  am  
 13   8  10  ar  
 14   8  22  1   
 15   9  14  1   
 16  10  23  1   
 17  13  15  1   
 18  13  24  1   
 19  14  25  1   
 20  14  26  1   
 21  14  27  1   
 22  15  16  1   
 23  15  17  1   
 24  15  28  1   
 25  16  18  1   
 26  16  19  1   
 27  16  29  1   
 28  17  20  1   
 29  17  30  1   
 30  17  31  1   
 31  18  20  1   
 32  18  32  1   
 33  18  33  1   
 34  19  21  1   
 35  19  34  1   
 36  19  35  1   
 37  20  21  1   
 38  20  36  1   
 39  21  37  1   
 40  21  38  1   
@<TRIPOS>SUBSTRUCTURE
  1 ****  13 GROUP 4 **** **** 0

# MOE 2024.06 (io_trps.svl 2023.06)
