@<TRIPOS>MOLECULE
NONAME
43 44 1 0 0 
SMALL
USER_CHARGES


@<TRIPOS>ATOM
  1 S        0.0120    -0.0820    -0.3230 S.o2  1 <1>   1.3330 
  2 O        0.1400    -1.4360    -0.8080 O.2   1 <1>  -0.6500 
  3 O       -1.2410     0.6230    -0.4470 O.2   1 <1>  -0.6500 
  4 N        1.2400     0.8570    -1.1160 N.am  1 <1>  -0.6930 
  5 C        0.5240    -0.0470     1.3800 C.3   1 <1>  -0.1350 
  6 C        1.2870     2.2470    -1.0120 C.ar  1 <1>   0.1990 
  7 C        2.3860     0.1050    -1.6860 C.3   1 <1>   0.1160 
  8 C        2.3150     2.9330    -0.3390 C.ar  1 <1>   0.0860 
  9 C        0.2760     2.9850    -1.6210 C.ar  1 <1>  -0.1500 
 10 C        3.3960     2.2430     0.3190 C.2   1 <1>   0.5440 
 11 C        2.2840     4.3290    -0.3120 C.ar  1 <1>  -0.1500 
 12 C        0.2620     4.3640    -1.5830 C.ar  1 <1>  -0.1500 
 13 O        3.1900     1.4730     1.2370 O.2   1 <1>  -0.5700 
 14 N        4.6810     2.4510    -0.0950 N.am  1 <1>  -0.7300 
 15 C        1.2730     5.0410    -0.9250 C.ar  1 <1>  -0.1500 
 16 C        5.8780     1.8000     0.4620 C.3   1 <1>   0.2200 
 17 C        6.9140     2.8770     0.8010 C.3   1 <1>  -0.1600 
 18 C        6.4240     0.8060    -0.5680 C.3   1 <1>  -0.1600 
 19 C        8.2280     2.2480     1.2860 C.3   1 <1>  -0.1600 
 20 C        7.7370     0.1730    -0.0850 C.3   1 <1>  -0.1600 
 21 C        8.7770     1.2480     0.2590 C.3   1 <1>  -0.1600 
 22 H       -0.1700    -0.5950     1.9850 H     1 <1>   0.0800 
 23 H        0.5680     0.9640     1.7340 H     1 <1>   0.0800 
 24 H        1.4950    -0.4890     1.4840 H     1 <1>   0.0800 
 25 H        2.0260    -0.6160    -2.4000 H     1 <1>   0.0800 
 26 H        2.9100    -0.4110    -0.9000 H     1 <1>   0.0800 
 27 H        3.0650     0.7750    -2.1840 H     1 <1>   0.0800 
 28 H       -0.5120     2.4610    -2.1330 H     1 <1>   0.1500 
 29 H        3.0640     4.8590     0.2060 H     1 <1>   0.1500 
 30 H       -0.5340     4.9100    -2.0600 H     1 <1>   0.1500 
 31 H        4.8590     3.0780    -0.8790 H     1 <1>   0.3700 
 32 H        1.2640     6.1180    -0.8910 H     1 <1>   0.1500 
 33 H        5.6200     1.2680     1.3630 H     1 <1>   0.0800 
 34 H        6.5210     3.5160     1.5720 H     1 <1>   0.0800 
 35 H        7.1140     3.4740    -0.0710 H     1 <1>   0.0800 
 36 H        6.6010     1.3120    -1.5000 H     1 <1>   0.0800 
 37 H        5.6970     0.0300    -0.7300 H     1 <1>   0.0800 
 38 H        8.0570     1.7400     2.2200 H     1 <1>   0.0800 
 39 H        8.9560     3.0220     1.4610 H     1 <1>   0.0800 
 40 H        8.1290    -0.4760    -0.8500 H     1 <1>   0.0800 
 41 H        7.5440    -0.4260     0.7880 H     1 <1>   0.0800 
 42 H        9.6630     0.7790     0.6510 H     1 <1>   0.0800 
 43 H        9.0550     1.7750    -0.6380 H     1 <1>   0.0800 
@<TRIPOS>BOND
  1   1   2  2   
  2   1   3  2   
  3   1   4  am  
  4   1   5  1   
  5   4   6  1   
  6   4   7  1   
  7   5  22  1   
  8   5  23  1   
  9   5  24  1   
 10   6   8  ar  
 11   6   9  ar  
 12   7  25  1   
 13   7  26  1   
 14   7  27  1   
 15   8  10  1   
 16   8  11  ar  
 17   9  12  ar  
 18   9  28  1   
 19  10  13  2   
 20  10  14  am  
 21  11  15  ar  
 22  11  29  1   
 23  12  15  ar  
 24  12  30  1   
 25  14  16  1   
 26  14  31  1   
 27  15  32  1   
 28  16  17  1   
 29  16  18  1   
 30  16  33  1   
 31  17  19  1   
 32  17  34  1   
 33  17  35  1   
 34  18  20  1   
 35  18  36  1   
 36  18  37  1   
 37  19  21  1   
 38  19  38  1   
 39  19  39  1   
 40  20  21  1   
 41  20  40  1   
 42  20  41  1   
 43  21  42  1   
 44  21  43  1   
@<TRIPOS>SUBSTRUCTURE
  1 ****  10 GROUP 4 **** **** 0

# MOE 2024.06 (io_trps.svl 2023.06)
