@<TRIPOS>MOLECULE
NONAME
55 56 1 0 0 
SMALL
USER_CHARGES


@<TRIPOS>ATOM
  1 S       -1.5600    -0.8620    -1.2830 S.o2  1 <1>   1.3330 
  2 O       -2.6170    -1.1390    -2.2320 O.2   1 <1>  -0.6500 
  3 O       -1.9330    -0.4220     0.0400 O.2   1 <1>  -0.6500 
  4 N       -0.5680    -2.2370    -1.1710 N.am  1 <1>  -0.8490 
  5 C       -0.4970     0.3510    -2.0410 C.3   1 <1>  -0.1350 
  6 C        0.0430    -2.4730     0.1670 C.3   1 <1>   0.2760 
  7 C       -1.2180    -3.4400    -1.7850 C.3   1 <1>   0.2570 
  8 C        0.9890    -1.3070     0.5410 C.3   1 <1>  -0.1600 
  9 C        0.8670    -3.7830     0.2080 C.3   1 <1>  -0.1600 
 10 C       -2.4110    -4.0620    -1.0350 C.2   1 <1>   0.5690 
 11 C        1.7020    -1.5180     1.8840 C.3   1 <1>  -0.1600 
 12 C        1.5840    -4.0010     1.5490 C.3   1 <1>  -0.1600 
 13 O       -2.2130    -5.0360    -0.3480 O.2   1 <1>  -0.5700 
 14 N       -3.6570    -3.5230    -1.1990 N.am  1 <1>  -0.5470 
 15 C        2.4970    -2.8230     1.8900 C.3   1 <1>  -0.1600 
 16 C       -4.8690    -3.9660    -0.6420 C.ar  1 <1>   0.1170 
 17 C       -5.4970    -3.2260     0.3690 C.ar  1 <1>  -0.1440 
 18 C       -5.4580    -5.1480    -1.1030 C.ar  1 <1>  -0.1440 
 19 C       -6.6820    -3.7020     0.9150 C.ar  1 <1>  -0.1500 
 20 C       -4.8760    -1.9230     0.8950 C.3   1 <1>   0.0630 
 21 C       -6.6440    -5.5930    -0.5470 C.ar  1 <1>  -0.1500 
 22 C       -4.8240    -5.9790    -2.2130 C.3   1 <1>  -0.0970 
 23 C       -7.2550    -4.8740     0.4610 C.ar  1 <1>  -0.1500 
 24 C       -3.9350    -2.2330     2.0620 C.3   1 <1>  -0.2400 
 25 C       -5.9070    -0.8630     1.3080 C.3   1 <1>  -0.2400 
 26 H       -0.1440    -0.0100    -2.9860 H     1 <1>   0.0800 
 27 H        0.3470     0.5660    -1.4180 H     1 <1>   0.0800 
 28 H       -1.0410     1.2610    -2.2030 H     1 <1>   0.0800 
 29 H       -0.7400    -2.5420     0.9070 H     1 <1>   0.0800 
 30 H       -0.4830    -4.2110    -1.9230 H     1 <1>   0.0800 
 31 H       -1.5450    -3.1970    -2.7790 H     1 <1>   0.0800 
 32 H        0.4500    -0.3850     0.6320 H     1 <1>   0.0800 
 33 H        1.7300    -1.1960    -0.2310 H     1 <1>   0.0800 
 34 H        1.5990    -3.7660    -0.5800 H     1 <1>   0.0800 
 35 H        0.2350    -4.6380     0.0700 H     1 <1>   0.0800 
 36 H        0.9700    -1.5410     2.6750 H     1 <1>   0.0800 
 37 H        2.3660    -0.6920     2.0740 H     1 <1>   0.0800 
 38 H        2.1660    -4.9050     1.5030 H     1 <1>   0.0800 
 39 H        0.8500    -4.1220     2.3280 H     1 <1>   0.0800 
 40 H       -3.6890    -2.6080    -1.6660 H     1 <1>   0.3700 
 41 H        2.9390    -2.9750     2.8600 H     1 <1>   0.0800 
 42 H        3.2950    -2.7640     1.1680 H     1 <1>   0.0800 
 43 H       -7.1760    -3.1720     1.7070 H     1 <1>   0.1500 
 44 H       -4.3000    -1.4720     0.1100 H     1 <1>   0.0800 
 45 H       -7.1000    -6.5040    -0.8910 H     1 <1>   0.1500 
 46 H       -5.5110    -6.7170    -2.5830 H     1 <1>   0.0800 
 47 H       -4.5360    -5.3470    -3.0330 H     1 <1>   0.0800 
 48 H       -3.9530    -6.4830    -1.8340 H     1 <1>   0.0800 
 49 H       -8.1740    -5.2270     0.8940 H     1 <1>   0.1500 
 50 H       -4.4830    -2.6520     2.8860 H     1 <1>   0.0800 
 51 H       -3.4360    -1.3370     2.3870 H     1 <1>   0.0800 
 52 H       -3.1900    -2.9430     1.7510 H     1 <1>   0.0800 
 53 H       -6.4250    -1.1490     2.2040 H     1 <1>   0.0800 
 54 H       -6.6210    -0.7180     0.5170 H     1 <1>   0.0800 
 55 H       -5.4090     0.0720     1.4920 H     1 <1>   0.0800 
@<TRIPOS>BOND
  1   1   2  2   
  2   1   3  2   
  3   1   4  am  
  4   1   5  1   
  5   4   6  1   
  6   4   7  1   
  7   5  26  1   
  8   5  27  1   
  9   5  28  1   
 10   6   8  1   
 11   6   9  1   
 12   6  29  1   
 13   7  10  1   
 14   7  30  1   
 15   7  31  1   
 16   8  11  1   
 17   8  32  1   
 18   8  33  1   
 19   9  12  1   
 20   9  34  1   
 21   9  35  1   
 22  10  13  2   
 23  10  14  am  
 24  11  15  1   
 25  11  36  1   
 26  11  37  1   
 27  12  15  1   
 28  12  38  1   
 29  12  39  1   
 30  14  16  1   
 31  14  40  1   
 32  15  41  1   
 33  15  42  1   
 34  16  17  ar  
 35  16  18  ar  
 36  17  19  ar  
 37  17  20  1   
 38  18  21  ar  
 39  18  22  1   
 40  19  23  ar  
 41  19  43  1   
 42  20  24  1   
 43  20  25  1   
 44  20  44  1   
 45  21  23  ar  
 46  21  45  1   
 47  22  46  1   
 48  22  47  1   
 49  22  48  1   
 50  23  49  1   
 51  24  50  1   
 52  24  51  1   
 53  24  52  1   
 54  25  53  1   
 55  25  54  1   
 56  25  55  1   
@<TRIPOS>SUBSTRUCTURE
  1 ****  10 GROUP 4 **** **** 0

# MOE 2024.06 (io_trps.svl 2023.06)
