@<TRIPOS>MOLECULE
NONAME
51 54 1 0 0 
SMALL
USER_CHARGES


@<TRIPOS>ATOM
  1 F       -0.9250    -0.5130    -0.5900 F     1 <1>  -0.3400 
  2 C       -2.2370    -0.4200    -0.3960 C.3   1 <1>   1.0200 
  3 F       -2.5980    -1.5900     0.1150 F     1 <1>  -0.3400 
  4 F       -2.7690    -0.3480    -1.6120 F     1 <1>  -0.3400 
  5 C       -2.5740     0.7870     0.4910 C.3   1 <1>   0.1760 
  6 N       -4.0370     0.9900     0.5500 N.pl3 1 <1>   0.3140 
  7 C       -1.8530     2.0870     0.0290 C.3   1 <1>  -0.1600 
  8 N       -4.9500     0.0260     0.8150 N.2   1 <1>  -0.7070 
  9 C       -4.6090     2.2130     0.5240 C.2   1 <1>  -0.0680 
 10 C       -2.4360     3.3620     0.6540 C.3   1 <1>   0.4690 
 11 C       -6.0730     0.6620     0.9080 C.2   1 <1>   0.1390 
 12 N       -3.8850     3.3870     0.3660 N.pl3 1 <1>  -0.8530 
 13 C       -5.9490     2.0430     0.7220 C.2   1 <1>  -0.0860 
 14 C       -1.7560     4.6000     0.0880 C.2   1 <1>  -0.0400 
 15 C       -6.9900     3.0230     0.7740 C.2   1 <1>   0.7160 
 16 O       -0.4850     4.8130     0.3820 O.3   1 <1>  -0.2800 
 17 C       -2.2230     5.5870    -0.7080 C.2   1 <1>  -0.1500 
 18 O       -6.8110     4.0480     1.4150 O.2   1 <1>  -0.5700 
 19 N       -8.1960     2.8520     0.1200 N.am  1 <1>  -0.6600 
 20 C       -0.1180     5.9300    -0.2140 C.2   1 <1>  -0.0100 
 21 C       -1.1480     6.4620    -0.9060 C.2   1 <1>  -0.1500 
 22 C       -9.3880     3.6750     0.4790 C.3   1 <1>   0.2200 
 23 C       -8.4110     1.8620    -0.9700 C.3   1 <1>   0.1400 
 24 C      -10.6950     2.8790     0.2600 C.3   1 <1>  -0.1600 
 25 C       -9.3670     4.9880    -0.3230 C.3   1 <1>  -0.1600 
 26 C       -9.4610     0.8220    -0.5420 C.3   1 <1>  -0.1600 
 27 C      -10.4940     1.3700     0.4610 C.3   1 <1>  -0.1600 
 28 C      -10.4820     5.9630     0.0840 C.3   1 <1>  -0.2400 
 29 H       -2.2560     0.5540     1.4880 H     1 <1>   0.0800 
 30 H       -1.9270     2.1820    -1.0410 H     1 <1>   0.0800 
 31 H       -0.8070     2.0270     0.2700 H     1 <1>   0.0800 
 32 H       -2.2960     3.3480     1.7220 H     1 <1>   0.0800 
 33 H       -7.0090     0.1760     1.1220 H     1 <1>   0.1500 
 34 H       -4.3510     4.2480     0.6950 H     1 <1>   0.4000 
 35 H       -3.2100     5.7030    -1.1230 H     1 <1>   0.1500 
 36 H        0.8940     6.2760    -0.0930 H     1 <1>   0.1500 
 37 H       -1.1750     7.3610    -1.4940 H     1 <1>   0.1500 
 38 H       -9.3180     3.9140     1.5280 H     1 <1>   0.0800 
 39 H       -7.4930     1.3780    -1.2550 H     1 <1>   0.0800 
 40 H       -8.7730     2.3930    -1.8350 H     1 <1>   0.0800 
 41 H      -11.0630     3.0490    -0.7370 H     1 <1>   0.0800 
 42 H      -11.4430     3.2410     0.9420 H     1 <1>   0.0800 
 43 H       -9.4510     4.7720    -1.3730 H     1 <1>   0.0800 
 44 H       -8.4220     5.4760    -0.1600 H     1 <1>   0.0800 
 45 H       -8.9720    -0.0350    -0.1160 H     1 <1>   0.0800 
 46 H       -9.9690     0.4820    -1.4280 H     1 <1>   0.0800 
 47 H      -11.4280     0.8470     0.3510 H     1 <1>   0.0800 
 48 H      -10.1370     1.2030     1.4640 H     1 <1>   0.0800 
 49 H      -11.4530     5.5530    -0.1300 H     1 <1>   0.0800 
 50 H      -10.3770     6.8840    -0.4610 H     1 <1>   0.0800 
 51 H      -10.4190     6.1820     1.1360 H     1 <1>   0.0800 
@<TRIPOS>BOND
  1   1   2  1   
  2   2   3  1   
  3   2   4  1   
  4   2   5  1   
  5   5   6  1   
  6   5   7  1   
  7   5  29  1   
  8   6   8  1   
  9   6   9  1   
 10   7  10  1   
 11   7  30  1   
 12   7  31  1   
 13   8  11  2   
 14   9  12  1   
 15   9  13  2   
 16  10  12  1   
 17  10  14  1   
 18  10  32  1   
 19  11  13  1   
 20  11  33  1   
 21  12  34  1   
 22  13  15  1   
 23  14  16  1   
 24  14  17  2   
 25  15  18  2   
 26  15  19  am  
 27  16  20  1   
 28  17  21  1   
 29  17  35  1   
 30  19  22  1   
 31  19  23  1   
 32  20  21  2   
 33  20  36  1   
 34  21  37  1   
 35  22  24  1   
 36  22  25  1   
 37  22  38  1   
 38  23  26  1   
 39  23  39  1   
 40  23  40  1   
 41  24  27  1   
 42  24  41  1   
 43  24  42  1   
 44  25  28  1   
 45  25  43  1   
 46  25  44  1   
 47  26  27  1   
 48  26  45  1   
 49  26  46  1   
 50  27  47  1   
 51  27  48  1   
 52  28  49  1   
 53  28  50  1   
 54  28  51  1   
@<TRIPOS>SUBSTRUCTURE
  1 ****   9 GROUP 4 **** **** 0

# MOE 2024.06 (io_trps.svl 2023.06)
