@<TRIPOS>MOLECULE
NONAME
46 49 1 0 0 
SMALL
USER_CHARGES


@<TRIPOS>ATOM
  1 O       -0.8040    -1.4900     1.9210 O.2   1 <1>  -0.5700 
  2 C       -1.0290    -1.8650     0.7900 C.2   1 <1>   0.5440 
  3 N       -2.0910    -1.4460     0.0300 N.am  1 <1>  -0.4200 
  4 C       -0.2570    -2.8100     0.0350 C.ar  1 <1>   0.0860 
  5 C       -2.0300    -2.0920    -1.1830 C.2   1 <1>   0.5440 
  6 C       -3.1000    -0.4610     0.4880 C.3   1 <1>   0.2200 
  7 C       -0.8820    -2.9490    -1.1920 C.ar  1 <1>   0.0860 
  8 C        0.8950    -3.5280     0.3210 C.ar  1 <1>  -0.1500 
  9 O       -2.8250    -1.9590    -2.0900 O.2   1 <1>  -0.5700 
 10 C       -4.4980    -1.0950     0.5450 C.3   1 <1>  -0.1600 
 11 C       -3.0860     0.7920    -0.4000 C.3   1 <1>  -0.1600 
 12 C       -0.3540    -3.8080    -2.1470 C.ar  1 <1>  -0.1500 
 13 C        1.4390    -4.4060    -0.6160 C.ar  1 <1>   0.0860 
 14 C       -5.5440    -0.0740     1.0170 C.3   1 <1>  -0.1600 
 15 C       -4.1330     1.8120     0.0720 C.3   1 <1>  -0.1600 
 16 C        0.7950    -4.5220    -1.8550 C.ar  1 <1>  -0.1500 
 17 C        2.6360    -5.1640    -0.3080 C.2   1 <1>   0.5440 
 18 C       -5.5310     1.1810     0.1330 C.3   1 <1>  -0.1600 
 19 O        3.5720    -4.6380     0.2510 O.2   1 <1>  -0.5700 
 20 N        2.7680    -6.4820    -0.6040 N.am  1 <1>  -0.7300 
 21 C        1.6900    -7.4790    -0.7460 C.3   1 <1>   0.3200 
 22 C        1.9640    -8.6350     0.1950 C.2   1 <1>  -0.0400 
 23 O        3.0590    -9.3510     0.0210 O.3   1 <1>  -0.2800 
 24 C        1.2570    -9.1010     1.2480 C.2   1 <1>  -0.1500 
 25 C        3.0770   -10.2840     0.9520 C.2   1 <1>  -0.0100 
 26 C        1.9900   -10.1860     1.7450 C.2   1 <1>  -0.1500 
 27 H       -2.8400    -0.1540     1.4880 H     1 <1>   0.0800 
 28 H        1.3750    -3.4020     1.2780 H     1 <1>   0.1500 
 29 H       -4.4860    -1.9310     1.2220 H     1 <1>   0.0800 
 30 H       -4.7790    -1.4480    -0.4310 H     1 <1>   0.0800 
 31 H       -3.3060     0.5200    -1.4180 H     1 <1>   0.0800 
 32 H       -2.1110     1.2440    -0.3700 H     1 <1>   0.0800 
 33 H       -0.8440    -3.9030    -3.1020 H     1 <1>   0.1500 
 34 H       -5.3370     0.2050     2.0370 H     1 <1>   0.0800 
 35 H       -6.5220    -0.5230     0.9910 H     1 <1>   0.0800 
 36 H       -4.1470     2.6520    -0.6010 H     1 <1>   0.0800 
 37 H       -3.8630     2.1760     1.0490 H     1 <1>   0.0800 
 38 H        1.2140    -5.1790    -2.5990 H     1 <1>   0.1500 
 39 H       -6.2350     1.9000     0.5180 H     1 <1>   0.0800 
 40 H       -5.8440     0.9160    -0.8630 H     1 <1>   0.0800 
 41 H        3.6550    -6.9030    -0.3100 H     1 <1>   0.3700 
 42 H        1.6680    -7.8410    -1.7590 H     1 <1>   0.0800 
 43 H        0.7370    -7.0390    -0.5090 H     1 <1>   0.0800 
 44 H        0.3270    -8.7440     1.6530 H     1 <1>   0.1500 
 45 H        3.9020   -10.9750     0.9780 H     1 <1>   0.1500 
 46 H        1.7140   -10.7950     2.5880 H     1 <1>   0.1500 
@<TRIPOS>BOND
  1   1   2  2   
  2   2   3  am  
  3   2   4  1   
  4   3   5  am  
  5   3   6  1   
  6   4   7  ar  
  7   4   8  ar  
  8   5   7  1   
  9   5   9  2   
 10   6  10  1   
 11   6  11  1   
 12   6  27  1   
 13   7  12  ar  
 14   8  13  ar  
 15   8  28  1   
 16  10  14  1   
 17  10  29  1   
 18  10  30  1   
 19  11  15  1   
 20  11  31  1   
 21  11  32  1   
 22  12  16  ar  
 23  12  33  1   
 24  13  16  ar  
 25  13  17  1   
 26  14  18  1   
 27  14  34  1   
 28  14  35  1   
 29  15  18  1   
 30  15  36  1   
 31  15  37  1   
 32  16  38  1   
 33  17  19  2   
 34  17  20  am  
 35  18  39  1   
 36  18  40  1   
 37  20  21  1   
 38  20  41  1   
 39  21  22  1   
 40  21  42  1   
 41  21  43  1   
 42  22  23  1   
 43  22  24  2   
 44  23  25  1   
 45  24  26  1   
 46  24  44  1   
 47  25  26  2   
 48  25  45  1   
 49  26  46  1   
@<TRIPOS>SUBSTRUCTURE
  1 ****   4 GROUP 4 **** **** 0

# MOE 2024.06 (io_trps.svl 2023.06)
