@<TRIPOS>MOLECULE
NONAME
35 36 1 0 0 
SMALL
USER_CHARGES


@<TRIPOS>ATOM
  1 O       -0.9910    -0.1700     0.2640 O.2   1 <1>  -0.5700 
  2 C       -1.8550     0.6820     0.2310 C.2   1 <1>   0.7060 
  3 O       -3.1330     0.2980     0.2440 O.3   1 <1>  -0.2330 
  4 C       -1.5720     2.0790     0.1770 C.2   1 <1>  -0.1360 
  5 C       -4.1600     1.1780     0.2050 C.ar  1 <1>   0.0820 
  6 C       -2.5540     3.0070     0.1340 C.2   1 <1>  -0.1670 
  7 C       -3.9190     2.5590     0.1460 C.ar  1 <1>   0.0280 
  8 C       -5.4500     0.6770     0.2210 C.ar  1 <1>  -0.1500 
  9 C       -2.2320     4.4940     0.0760 C.3   1 <1>  -0.1020 
 10 C       -5.0310     3.4050     0.1000 C.ar  1 <1>  -0.1500 
 11 C       -6.5370     1.5370     0.1820 C.ar  1 <1>   0.0830 
 12 C       -6.3240     2.9150     0.1160 C.ar  1 <1>  -0.1430 
 13 O       -7.8160     1.0790     0.1770 O.3   1 <1>  -0.2330 
 14 C       -7.4920     3.8940     0.0630 C.3   1 <1>  -0.0170 
 15 C       -8.3070     0.0010     0.7850 C.2   1 <1>   0.6590 
 16 C       -8.0050     4.0480    -1.3710 C.3   1 <1>  -0.2400 
 17 O       -7.6720    -0.7000     1.5280 O.2   1 <1>  -0.5700 
 18 C       -9.7660    -0.3000     0.4870 C.3   1 <1>  -0.0990 
 19 C       -9.9990    -0.7340    -0.9690 C.3   1 <1>  -0.2400 
 20 H       -0.5290     2.3320     0.1710 H     1 <1>   0.1500 
 21 H       -5.5870    -0.3880     0.2590 H     1 <1>   0.1500 
 22 H       -2.6380     4.9260    -0.8220 H     1 <1>   0.0800 
 23 H       -1.1680     4.6570     0.0770 H     1 <1>   0.0800 
 24 H       -2.6510     4.9970     0.9290 H     1 <1>   0.0800 
 25 H       -4.8800     4.4670     0.0480 H     1 <1>   0.1500 
 26 H       -7.1800     4.8560     0.4320 H     1 <1>   0.0800 
 27 H       -8.2890     3.5540     0.7000 H     1 <1>   0.0800 
 28 H       -7.2190     4.4090    -2.0100 H     1 <1>   0.0800 
 29 H       -8.8220     4.7470    -1.4000 H     1 <1>   0.0800 
 30 H       -8.3470     3.1010    -1.7490 H     1 <1>   0.0800 
 31 H      -10.3460     0.5790     0.7010 H     1 <1>   0.0800 
 32 H      -10.0940    -1.0820     1.1480 H     1 <1>   0.0800 
 33 H       -9.7040     0.0470    -1.6480 H     1 <1>   0.0800 
 34 H      -11.0410    -0.9520    -1.1290 H     1 <1>   0.0800 
 35 H       -9.4260    -1.6180    -1.1900 H     1 <1>   0.0800 
@<TRIPOS>BOND
  1   1   2  2   
  2   2   3  1   
  3   2   4  1   
  4   3   5  1   
  5   4   6  2   
  6   4  20  1   
  7   5   7  ar  
  8   5   8  ar  
  9   6   7  1   
 10   6   9  1   
 11   7  10  ar  
 12   8  11  ar  
 13   8  21  1   
 14   9  22  1   
 15   9  23  1   
 16   9  24  1   
 17  10  12  ar  
 18  10  25  1   
 19  11  12  ar  
 20  11  13  1   
 21  12  14  1   
 22  13  15  1   
 23  14  16  1   
 24  14  26  1   
 25  14  27  1   
 26  15  17  2   
 27  15  18  1   
 28  16  28  1   
 29  16  29  1   
 30  16  30  1   
 31  18  19  1   
 32  18  31  1   
 33  18  32  1   
 34  19  33  1   
 35  19  34  1   
 36  19  35  1   
@<TRIPOS>SUBSTRUCTURE
  1 ****   8 GROUP 4 **** **** 0

# MOE 2024.06 (io_trps.svl 2023.06)
