@<TRIPOS>MOLECULE
NONAME
53 55 1 0 0 
SMALL
USER_CHARGES


@<TRIPOS>ATOM
  1 S        0.1670     0.4000    -1.5590 S.o2  1 <1>   1.3330 
  2 O       -0.8680     0.6060    -2.5450 O.2   1 <1>  -0.6500 
  3 O        1.5340     0.7570    -1.8500 O.2   1 <1>  -0.6500 
  4 N        0.1500    -1.2720    -1.1250 N.am  1 <1>  -0.6930 
  5 C       -0.3150     1.1840    -0.0350 C.3   1 <1>  -0.1350 
  6 C        1.2330    -1.8800    -0.5190 C.ar  1 <1>   0.1990 
  7 C       -1.0440    -2.0650    -1.4800 C.3   1 <1>   0.3390 
  8 C        2.3290    -2.2860    -1.2700 C.ar  1 <1>  -0.1500 
  9 C        1.2530    -2.1010     0.8520 C.ar  1 <1>  -0.1500 
 10 C       -2.1700    -1.8000    -0.4900 C.ar  1 <1>  -0.1430 
 11 C        3.4110    -2.8970    -0.6680 C.ar  1 <1>  -0.1500 
 12 C        2.3370    -2.7120     1.4530 C.ar  1 <1>  -0.1500 
 13 C       -2.2270    -2.4960     0.7090 C.ar  1 <1>  -0.1500 
 14 C       -3.1550    -0.8670    -0.7780 C.ar  1 <1>  -0.1500 
 15 C        3.4470    -3.1170     0.7110 C.ar  1 <1>   0.0860 
 16 C       -3.2440    -2.2510     1.6150 C.ar  1 <1>  -0.1500 
 17 C       -4.1740    -0.6210     0.1260 C.ar  1 <1>  -0.1500 
 18 C        4.5820    -3.7430     1.3560 C.2   1 <1>   0.5440 
 19 C       -4.2180    -1.3120     1.3240 C.ar  1 <1>  -0.1500 
 20 O        4.3900    -4.7350     2.0350 O.2   1 <1>  -0.5700 
 21 N        5.8680    -3.2450     1.2360 N.am  1 <1>  -0.6600 
 22 C        6.1670    -1.8750     0.7390 C.3   1 <1>   0.1400 
 23 C        7.0430    -4.0170     1.7310 C.3   1 <1>   0.1400 
 24 C        7.0290    -1.9070    -0.5290 C.3   1 <1>  -0.1600 
 25 C        7.7320    -4.7090     0.5520 C.3   1 <1>  -0.1600 
 26 C        8.4830    -2.3240    -0.2610 C.3   1 <1>  -0.1600 
 27 C        8.7270    -3.8430    -0.2440 C.3   1 <1>  -0.1600 
 28 H       -0.3540     2.2470    -0.1660 H     1 <1>   0.0800 
 29 H        0.3940     0.9580     0.7350 H     1 <1>   0.0800 
 30 H       -1.2820     0.8400     0.2750 H     1 <1>   0.0800 
 31 H       -0.7940    -3.1120    -1.4620 H     1 <1>   0.0800 
 32 H       -1.3600    -1.8250    -2.4800 H     1 <1>   0.0800 
 33 H        2.3240    -2.1110    -2.3310 H     1 <1>   0.1500 
 34 H        0.4140    -1.7880     1.4460 H     1 <1>   0.1500 
 35 H        4.2480    -3.2140    -1.2650 H     1 <1>   0.1500 
 36 H        2.3400    -2.8850     2.5150 H     1 <1>   0.1500 
 37 H       -1.4790    -3.2340     0.9430 H     1 <1>   0.1500 
 38 H       -3.1360    -0.3240    -1.7090 H     1 <1>   0.1500 
 39 H       -3.2810    -2.7930     2.5440 H     1 <1>   0.1500 
 40 H       -4.9330     0.1060    -0.1040 H     1 <1>   0.1500 
 41 H       -5.0100    -1.1210     2.0270 H     1 <1>   0.1500 
 42 H        6.6770    -1.3260     1.5120 H     1 <1>   0.0800 
 43 H        5.2550    -1.3460     0.5290 H     1 <1>   0.0800 
 44 H        6.7170    -4.7670     2.4320 H     1 <1>   0.0800 
 45 H        7.7260    -3.3700     2.2520 H     1 <1>   0.0800 
 46 H        7.0430    -0.9070    -0.9270 H     1 <1>   0.0800 
 47 H        6.5810    -2.5390    -1.2750 H     1 <1>   0.0800 
 48 H        6.9710    -5.0880    -0.1090 H     1 <1>   0.0800 
 49 H        8.2650    -5.5640     0.9280 H     1 <1>   0.0800 
 50 H        8.8130    -1.8950     0.6700 H     1 <1>   0.0800 
 51 H        9.1060    -1.9040    -1.0320 H     1 <1>   0.0800 
 52 H        8.7390    -4.2020    -1.2590 H     1 <1>   0.0800 
 53 H        9.7140    -4.0080     0.1530 H     1 <1>   0.0800 
@<TRIPOS>BOND
  1   1   2  2   
  2   1   3  2   
  3   1   4  am  
  4   1   5  1   
  5   4   6  1   
  6   4   7  1   
  7   5  28  1   
  8   5  29  1   
  9   5  30  1   
 10   6   8  ar  
 11   6   9  ar  
 12   7  10  1   
 13   7  31  1   
 14   7  32  1   
 15   8  11  ar  
 16   8  33  1   
 17   9  12  ar  
 18   9  34  1   
 19  10  13  ar  
 20  10  14  ar  
 21  11  15  ar  
 22  11  35  1   
 23  12  15  ar  
 24  12  36  1   
 25  13  16  ar  
 26  13  37  1   
 27  14  17  ar  
 28  14  38  1   
 29  15  18  1   
 30  16  19  ar  
 31  16  39  1   
 32  17  19  ar  
 33  17  40  1   
 34  18  20  2   
 35  18  21  am  
 36  19  41  1   
 37  21  22  1   
 38  21  23  1   
 39  22  24  1   
 40  22  42  1   
 41  22  43  1   
 42  23  25  1   
 43  23  44  1   
 44  23  45  1   
 45  24  26  1   
 46  24  46  1   
 47  24  47  1   
 48  25  27  1   
 49  25  48  1   
 50  25  49  1   
 51  26  27  1   
 52  26  50  1   
 53  26  51  1   
 54  27  52  1   
 55  27  53  1   
@<TRIPOS>SUBSTRUCTURE
  1 ****   6 GROUP 4 **** **** 0

# MOE 2024.06 (io_trps.svl 2023.06)
