@<TRIPOS>MOLECULE
NONAME
45 47 1 0 0 
SMALL
USER_CHARGES


@<TRIPOS>ATOM
  1 O        0.5820    -0.1600     1.0540 O.2   1 <1>  -0.5700 
  2 C        0.9830    -1.3060     0.9860 C.2   1 <1>   0.6900 
  3 N        2.3250    -1.5680     1.0480 N.am  1 <1>  -0.6600 
  4 N        0.1260    -2.3620     0.8670 N.am  1 <1>  -0.5470 
  5 C        3.2740    -0.5310     1.5540 C.3   1 <1>   0.1400 
  6 C        2.9810    -2.6050     0.1910 C.3   1 <1>   0.1400 
  7 C       -1.2550    -2.4230     0.6300 C.ar  1 <1>   0.1170 
  8 C        4.0320     0.1330     0.3940 C.3   1 <1>   0.1400 
  9 C        3.7320    -1.9390    -0.9730 C.3   1 <1>   0.1400 
 10 C       -1.9660    -1.3950     0.0220 C.ar  1 <1>  -0.1500 
 11 C       -1.9460    -3.5700     0.9970 C.ar  1 <1>  -0.1500 
 12 N        4.6850    -0.9020    -0.4680 N.am  1 <1>  -0.6600 
 13 C       -3.3280    -1.4960    -0.2140 C.ar  1 <1>  -0.1440 
 14 C       -3.3040    -3.6830     0.7650 C.ar  1 <1>  -0.1500 
 15 C        6.0510    -1.1090    -0.4860 C.2   1 <1>   0.7150 
 16 C       -4.0050    -2.6520     0.1600 C.ar  1 <1>  -0.1440 
 17 C       -4.0480    -0.3320    -0.8790 C.3   1 <1>  -0.0970 
 18 O        6.4550    -2.2440    -0.6750 O.2   1 <1>  -0.5700 
 19 C        6.9820    -0.0160    -0.2940 C.2   1 <1>   0.0550 
 20 C       -5.5000    -2.8110    -0.0770 C.3   1 <1>  -0.0970 
 21 O        8.1300    -0.1960     0.3560 O.3   1 <1>  -0.2800 
 22 C        6.9160     1.2890    -0.6840 C.2   1 <1>  -0.1500 
 23 C        8.7860     0.9420     0.3900 C.2   1 <1>  -0.0100 
 24 C        8.0850     1.9080    -0.2390 C.2   1 <1>  -0.1500 
 25 H        0.5620    -3.2390     1.1240 H     1 <1>   0.3700 
 26 H        3.9790    -0.9950     2.2220 H     1 <1>   0.0800 
 27 H        2.7430     0.2210     2.1130 H     1 <1>   0.0800 
 28 H        2.2530    -3.2860    -0.2100 H     1 <1>   0.0800 
 29 H        3.6780    -3.1710     0.7850 H     1 <1>   0.0800 
 30 H        4.7600     0.8100     0.8020 H     1 <1>   0.0800 
 31 H        3.3380     0.7050    -0.1980 H     1 <1>   0.0800 
 32 H        3.0210    -1.4720    -1.6310 H     1 <1>   0.0800 
 33 H        4.2550    -2.6910    -1.5390 H     1 <1>   0.0800 
 34 H       -1.4430    -0.5040    -0.2720 H     1 <1>   0.1500 
 35 H       -1.4240    -4.3800     1.4700 H     1 <1>   0.1500 
 36 H       -3.8140    -4.5820     1.0620 H     1 <1>   0.1500 
 37 H       -3.3680     0.4750    -1.0850 H     1 <1>   0.0800 
 38 H       -4.8230     0.0390    -0.2320 H     1 <1>   0.0800 
 39 H       -4.4860    -0.6500    -1.8070 H     1 <1>   0.0800 
 40 H       -5.7160    -2.7320    -1.1270 H     1 <1>   0.0800 
 41 H       -6.0380    -2.0460     0.4510 H     1 <1>   0.0800 
 42 H       -5.8460    -3.7680     0.2680 H     1 <1>   0.0800 
 43 H        6.1290     1.7690    -1.2370 H     1 <1>   0.1500 
 44 H        9.7440     0.9770     0.8790 H     1 <1>   0.1500 
 45 H        8.3480     2.9410    -0.3830 H     1 <1>   0.1500 
@<TRIPOS>BOND
  1   1   2  2   
  2   2   3  am  
  3   2   4  am  
  4   3   5  1   
  5   3   6  1   
  6   4   7  1   
  7   4  25  1   
  8   5   8  1   
  9   5  26  1   
 10   5  27  1   
 11   6   9  1   
 12   6  28  1   
 13   6  29  1   
 14   7  10  ar  
 15   7  11  ar  
 16   8  12  1   
 17   8  30  1   
 18   8  31  1   
 19   9  12  1   
 20   9  32  1   
 21   9  33  1   
 22  10  13  ar  
 23  10  34  1   
 24  11  14  ar  
 25  11  35  1   
 26  12  15  am  
 27  13  16  ar  
 28  13  17  1   
 29  14  16  ar  
 30  14  36  1   
 31  15  18  2   
 32  15  19  1   
 33  16  20  1   
 34  17  37  1   
 35  17  38  1   
 36  17  39  1   
 37  19  21  1   
 38  19  22  2   
 39  20  40  1   
 40  20  41  1   
 41  20  42  1   
 42  21  23  1   
 43  22  24  1   
 44  22  43  1   
 45  23  24  2   
 46  23  44  1   
 47  24  45  1   
@<TRIPOS>SUBSTRUCTURE
  1 ****   3 GROUP 4 **** **** 0

# MOE 2024.06 (io_trps.svl 2023.06)
