@<TRIPOS>MOLECULE
NONAME
44 45 1 0 0 
SMALL
USER_CHARGES


@<TRIPOS>ATOM
  1 O        0.8570    -0.7940    -0.7650 O.2   1 <1>  -0.5700 
  2 C        0.4820    -1.6060    -1.5880 C.2   1 <1>   0.6900 
  3 N       -0.8260    -1.9480    -1.7300 N.am  1 <1>  -0.5470 
  4 N        1.4020    -2.2350    -2.3630 N.am  1 <1>  -0.7300 
  5 C       -1.9690    -1.4360    -1.0950 C.ar  1 <1>   0.1170 
  6 C        2.8320    -1.8230    -2.5150 C.3   1 <1>   0.1400 
  7 C       -3.0650    -2.2700    -0.9080 C.ar  1 <1>  -0.1500 
  8 C       -2.0600    -0.1170    -0.6610 C.ar  1 <1>  -0.1500 
  9 C        3.7250    -2.3270    -1.3600 C.3   1 <1>   0.3430 
 10 C       -4.2190    -1.8090    -0.3000 C.ar  1 <1>  -0.1500 
 11 C       -3.2110     0.3490    -0.0520 C.ar  1 <1>  -0.1500 
 12 N        3.3380    -1.7170    -0.0560 N.4   1 <1>  -0.9590 
 13 C       -4.2970    -0.4890     0.1340 C.ar  1 <1>   0.0830 
 14 C        3.8730    -0.3600     0.1860 C.3   1 <1>   0.3430 
 15 C        3.6490    -2.5240     1.1410 C.3   1 <1>   0.3430 
 16 O       -5.3890     0.0500     0.7390 O.3   1 <1>  -0.3620 
 17 C        3.6490    -0.1400     1.6740 C.3   1 <1>  -0.1600 
 18 C        3.5560    -1.5360     2.2980 C.3   1 <1>  -0.1600 
 19 C       -6.5410    -0.7230     0.9800 C.3   1 <1>   0.1200 
 20 C       -7.5710     0.1670     1.6680 C.3   1 <1>  -0.2400 
 21 H       -1.0030    -2.7470    -2.3300 H     1 <1>   0.3700 
 22 H        1.0410    -2.8080    -3.1280 H     1 <1>   0.3700 
 23 H        2.8910    -0.7490    -2.5780 H     1 <1>   0.0800 
 24 H        3.2060    -2.2230    -3.4420 H     1 <1>   0.0800 
 25 H       -3.0190    -3.2920    -1.2360 H     1 <1>   0.1500 
 26 H       -1.2340     0.5560    -0.8010 H     1 <1>   0.1500 
 27 H        4.7570    -2.1000    -1.5730 H     1 <1>   0.0800 
 28 H        3.6270    -3.3980    -1.3030 H     1 <1>   0.0800 
 29 H       -5.0420    -2.4860    -0.1730 H     1 <1>   0.1500 
 30 H       -3.2750     1.3690     0.2820 H     1 <1>   0.1500 
 31 H        2.3040    -1.5810    -0.0890 H     1 <1>   0.4500 
 32 H        3.3560     0.3800    -0.4050 H     1 <1>   0.0800 
 33 H        4.9280    -0.3340    -0.0320 H     1 <1>   0.0800 
 34 H        4.6530    -2.9090     1.0740 H     1 <1>   0.0800 
 35 H        2.9540    -3.3410     1.2600 H     1 <1>   0.0800 
 36 H        2.7230     0.3920     1.8170 H     1 <1>   0.0800 
 37 H        4.4480     0.4420     2.0990 H     1 <1>   0.0800 
 38 H        4.3500    -1.7120     3.0030 H     1 <1>   0.0800 
 39 H        2.6140    -1.6570     2.8060 H     1 <1>   0.0800 
 40 H       -6.2700    -1.5510     1.6120 H     1 <1>   0.0800 
 41 H       -6.9170    -1.0780     0.0360 H     1 <1>   0.0800 
 42 H       -7.1790     0.5310     2.6010 H     1 <1>   0.0800 
 43 H       -8.4650    -0.3950     1.8670 H     1 <1>   0.0800 
 44 H       -7.8210     1.0000     1.0350 H     1 <1>   0.0800 
@<TRIPOS>BOND
  1   1   2  2   
  2   2   3  am  
  3   2   4  am  
  4   3   5  1   
  5   3  21  1   
  6   4   6  1   
  7   4  22  1   
  8   5   7  ar  
  9   5   8  ar  
 10   6   9  1   
 11   6  23  1   
 12   6  24  1   
 13   7  10  ar  
 14   7  25  1   
 15   8  11  ar  
 16   8  26  1   
 17   9  12  1   
 18   9  27  1   
 19   9  28  1   
 20  10  13  ar  
 21  10  29  1   
 22  11  13  ar  
 23  11  30  1   
 24  12  14  1   
 25  12  15  1   
 26  12  31  1   
 27  13  16  1   
 28  14  17  1   
 29  14  32  1   
 30  14  33  1   
 31  15  18  1   
 32  15  34  1   
 33  15  35  1   
 34  16  19  1   
 35  17  18  1   
 36  17  36  1   
 37  17  37  1   
 38  18  38  1   
 39  18  39  1   
 40  19  20  1   
 41  19  40  1   
 42  19  41  1   
 43  20  42  1   
 44  20  43  1   
 45  20  44  1   
@<TRIPOS>SUBSTRUCTURE
  1 ****   1 GROUP 4 **** **** 0

# MOE 2024.06 (io_trps.svl 2023.06)
