@<TRIPOS>MOLECULE
NONAME
54 55 1 0 0 
SMALL
USER_CHARGES


@<TRIPOS>ATOM
  1 O       -1.9250    -2.3810    -1.9710 O.2   1 <1>  -0.5700 
  2 C       -1.4980    -3.0040    -1.0280 C.2   1 <1>   0.5690 
  3 N       -2.2920    -3.3650     0.0210 N.am  1 <1>  -0.7300 
  4 C       -0.0250    -3.3960    -1.0160 C.3   1 <1>   0.1810 
  5 C       -3.7290    -3.1020     0.2280 C.3   1 <1>   0.2200 
  6 O        0.3010    -4.1210     0.1640 O.3   1 <1>  -0.3630 
  7 C       -4.5480    -3.7520    -0.8900 C.3   1 <1>  -0.1600 
  8 C       -3.9850    -1.5940     0.2790 C.3   1 <1>  -0.1600 
  9 C        1.5640    -4.5720     0.3910 C.ar  1 <1>   0.0830 
 10 C       -6.0460    -3.4490    -0.7800 C.3   1 <1>   0.5030 
 11 C       -5.4720    -1.2490     0.4120 C.3   1 <1>   0.5030 
 12 C        1.7950    -5.2710     1.5730 C.ar  1 <1>  -0.1440 
 13 C        2.6130    -4.3640    -0.5030 C.ar  1 <1>  -0.1500 
 14 N       -6.2770    -2.0140    -0.5520 N.4   1 <1>  -0.9060 
 15 C       -6.7300    -3.7650    -2.1100 C.3   1 <1>  -0.2400 
 16 C       -6.7250    -4.2830     0.3100 C.3   1 <1>  -0.2400 
 17 C       -5.6890     0.2190     0.0490 C.3   1 <1>  -0.2400 
 18 C       -5.9890    -1.4650     1.8370 C.3   1 <1>  -0.2400 
 19 C        3.0660    -5.7500     1.8440 C.ar  1 <1>  -0.1500 
 20 C        0.6720    -5.5160     2.5700 C.3   1 <1>  -0.0970 
 21 C        3.8820    -4.8440    -0.2240 C.ar  1 <1>  -0.1430 
 22 C        4.1030    -5.5390     0.9520 C.ar  1 <1>  -0.1500 
 23 C        5.0240    -4.6180    -1.1980 C.3   1 <1>  -0.0970 
 24 H       -1.8170    -3.8920     0.7630 H     1 <1>   0.3700 
 25 H        0.5800    -2.5090    -1.0480 H     1 <1>   0.0800 
 26 H        0.1850    -4.0190    -1.8660 H     1 <1>   0.0800 
 27 H       -4.0070    -3.5410     1.1710 H     1 <1>   0.0800 
 28 H       -4.3930    -4.8160    -0.8730 H     1 <1>   0.0800 
 29 H       -4.1970    -3.3950    -1.8410 H     1 <1>   0.0800 
 30 H       -3.6080    -1.1390    -0.6190 H     1 <1>   0.0800 
 31 H       -3.4410    -1.1690     1.1040 H     1 <1>   0.0800 
 32 H        2.4660    -3.8320    -1.4210 H     1 <1>   0.1500 
 33 H       -7.2640    -1.8740    -0.3350 H     1 <1>   0.4500 
 34 H       -6.1140    -1.5660    -1.4570 H     1 <1>   0.4500 
 35 H       -6.3120    -3.1840    -2.9140 H     1 <1>   0.0800 
 36 H       -7.7890    -3.5830    -2.0570 H     1 <1>   0.0800 
 37 H       -6.5900    -4.8030    -2.3570 H     1 <1>   0.0800 
 38 H       -6.1950    -4.2540     1.2400 H     1 <1>   0.0800 
 39 H       -6.7480    -5.3170     0.0100 H     1 <1>   0.0800 
 40 H       -7.7410    -3.9690     0.4670 H     1 <1>   0.0800 
 41 H       -5.3690     0.4270    -0.9570 H     1 <1>   0.0800 
 42 H       -5.1140     0.8490     0.7060 H     1 <1>   0.0800 
 43 H       -6.7230     0.4980     0.1540 H     1 <1>   0.0800 
 44 H       -5.7170    -2.4230     2.2330 H     1 <1>   0.0800 
 45 H       -7.0570    -1.3480     1.8870 H     1 <1>   0.0800 
 46 H       -5.5510    -0.7340     2.4940 H     1 <1>   0.0800 
 47 H        3.2600    -6.2920     2.7530 H     1 <1>   0.1500 
 48 H        0.2770    -4.5760     2.9110 H     1 <1>   0.0800 
 49 H        1.0250    -6.0670     3.4230 H     1 <1>   0.0800 
 50 H       -0.1140    -6.0780     2.1010 H     1 <1>   0.0800 
 51 H        5.0830    -5.9200     1.1800 H     1 <1>   0.1500 
 52 H        4.8530    -3.7330    -1.7850 H     1 <1>   0.0800 
 53 H        5.1100    -5.4620    -1.8590 H     1 <1>   0.0800 
 54 H        5.9510    -4.4970    -0.6670 H     1 <1>   0.0800 
@<TRIPOS>BOND
  1   1   2  2   
  2   2   3  am  
  3   2   4  1   
  4   3   5  1   
  5   3  24  1   
  6   4   6  1   
  7   4  25  1   
  8   4  26  1   
  9   5   7  1   
 10   5   8  1   
 11   5  27  1   
 12   6   9  1   
 13   7  10  1   
 14   7  28  1   
 15   7  29  1   
 16   8  11  1   
 17   8  30  1   
 18   8  31  1   
 19   9  12  ar  
 20   9  13  ar  
 21  10  14  1   
 22  10  15  1   
 23  10  16  1   
 24  11  14  1   
 25  11  17  1   
 26  11  18  1   
 27  12  19  ar  
 28  12  20  1   
 29  13  21  ar  
 30  13  32  1   
 31  14  33  1   
 32  14  34  1   
 33  15  35  1   
 34  15  36  1   
 35  15  37  1   
 36  16  38  1   
 37  16  39  1   
 38  16  40  1   
 39  17  41  1   
 40  17  42  1   
 41  17  43  1   
 42  18  44  1   
 43  18  45  1   
 44  18  46  1   
 45  19  22  ar  
 46  19  47  1   
 47  20  48  1   
 48  20  49  1   
 49  20  50  1   
 50  21  22  ar  
 51  21  23  1   
 52  22  51  1   
 53  23  52  1   
 54  23  53  1   
 55  23  54  1   
@<TRIPOS>SUBSTRUCTURE
  1 ****   3 GROUP 4 **** **** 0

# MOE 2024.06 (io_trps.svl 2023.06)
