@<TRIPOS>MOLECULE
NONAME
56 59 1 0 0 
SMALL
USER_CHARGES


@<TRIPOS>ATOM
  1 O        5.6730     1.5680    -0.8590 O.co2 1 <1>  -0.9000 
  2 C        5.4710     1.0060     0.2210 C.2   1 <1>   0.9060 
  3 O        6.3610     1.0710     1.0720 O.co2 1 <1>  -0.9000 
  4 C        4.2790     0.0940     0.4630 C.3   1 <1>  -0.1860 
  5 C        4.5710    -1.3890     0.0670 C.3   1 <1>  -0.0190 
  6 C        2.9750     0.5910    -0.1880 C.3   1 <1>  -0.1600 
  7 C        5.4590    -1.5250    -1.1930 C.2   1 <1>   0.5690 
  8 C        3.2600    -2.2200    -0.0520 C.3   1 <1>  -0.1600 
  9 C        1.7580    -0.2150     0.3070 C.3   1 <1>  -0.1600 
 10 O        4.9090    -1.5810    -2.2710 O.2   1 <1>  -0.5700 
 11 N        6.8400    -1.5730    -1.1410 N.am  1 <1>  -0.6600 
 12 C        2.1150    -1.6360     0.7840 C.3   1 <1>  -0.1600 
 13 C        7.6960    -1.4530     0.0950 C.3   1 <1>   0.1400 
 14 C        7.6010    -1.2180    -2.3780 C.3   1 <1>   0.1400 
 15 C        8.7350    -0.3050    -0.0010 C.3   1 <1>   0.3430 
 16 C        7.9640     0.2820    -2.3480 C.3   1 <1>   0.3430 
 17 N        8.2920     0.7550    -0.9660 N.4   1 <1>  -0.9590 
 18 C        8.8890     2.1060    -0.8780 C.3   1 <1>   0.4860 
 19 C        9.8510     2.2200     0.2920 C.ar  1 <1>  -0.1440 
 20 C       11.2220     1.8880     0.1400 C.ar  1 <1>   0.0000 
 21 C        9.3560     2.6300     1.5020 C.ar  1 <1>  -0.1500 
 22 C       12.0650     1.9990     1.2700 C.ar  1 <1>   0.0000 
 23 C       11.7990     1.4410    -1.0720 C.ar  1 <1>  -0.1500 
 24 C       10.1970     2.7420     2.6120 C.ar  1 <1>  -0.1500 
 25 C       11.5220     2.4340     2.4940 C.ar  1 <1>  -0.1500 
 26 C       13.4290     1.6660     1.1450 C.ar  1 <1>  -0.1500 
 27 C       13.1260     1.1240    -1.1640 C.ar  1 <1>  -0.1500 
 28 C       13.9510     1.2370    -0.0420 C.ar  1 <1>  -0.1500 
 29 H        4.1240     0.1240     1.5250 H     1 <1>   0.0800 
 30 H        5.1050    -1.8210     0.8890 H     1 <1>   0.0800 
 31 H        3.0690     0.4900    -1.2570 H     1 <1>   0.0800 
 32 H        2.8310     1.6370     0.0240 H     1 <1>   0.0800 
 33 H        3.4530    -3.2360     0.2440 H     1 <1>   0.0800 
 34 H        2.9210    -2.2460    -1.0730 H     1 <1>   0.0800 
 35 H        1.0440    -0.2750    -0.4960 H     1 <1>   0.0800 
 36 H        1.2870     0.3110     1.1190 H     1 <1>   0.0800 
 37 H        2.4150    -1.6040     1.8180 H     1 <1>   0.0800 
 38 H        1.2470    -2.2680     0.7150 H     1 <1>   0.0800 
 39 H        8.2120    -2.3810     0.2600 H     1 <1>   0.0800 
 40 H        7.0940    -1.2710     0.9640 H     1 <1>   0.0800 
 41 H        7.0320    -1.4310    -3.2670 H     1 <1>   0.0800 
 42 H        8.4970    -1.8090    -2.4240 H     1 <1>   0.0800 
 43 H        9.6880    -0.6980    -0.3080 H     1 <1>   0.0800 
 44 H        8.8500     0.1210     0.9830 H     1 <1>   0.0800 
 45 H        7.1140     0.8420    -2.7080 H     1 <1>   0.0800 
 46 H        8.7910     0.4600    -3.0120 H     1 <1>   0.0800 
 47 H        7.3290     0.9720    -0.5830 H     1 <1>   0.4500 
 48 H        8.0900     2.8190    -0.7460 H     1 <1>   0.0800 
 49 H        9.3990     2.3500    -1.7920 H     1 <1>   0.0800 
 50 H        8.3070     2.8600     1.6250 H     1 <1>   0.1500 
 51 H       11.1880     1.3450    -1.9490 H     1 <1>   0.1500 
 52 H        9.7810     3.0690     3.5500 H     1 <1>   0.1500 
 53 H       12.1740     2.5190     3.3450 H     1 <1>   0.1500 
 54 H       14.0590     1.7560     2.0110 H     1 <1>   0.1500 
 55 H       13.5560     0.7870    -2.0920 H     1 <1>   0.1500 
 56 H       14.9950     0.9850    -0.1300 H     1 <1>   0.1500 
@<TRIPOS>BOND
  1   1   2  ar  
  2   2   3  ar  
  3   2   4  1   
  4   4   5  1   
  5   4   6  1   
  6   4  29  1   
  7   5   7  1   
  8   5   8  1   
  9   5  30  1   
 10   6   9  1   
 11   6  31  1   
 12   6  32  1   
 13   7  10  2   
 14   7  11  am  
 15   8  12  1   
 16   8  33  1   
 17   8  34  1   
 18   9  12  1   
 19   9  35  1   
 20   9  36  1   
 21  11  13  1   
 22  11  14  1   
 23  12  37  1   
 24  12  38  1   
 25  13  15  1   
 26  13  39  1   
 27  13  40  1   
 28  14  16  1   
 29  14  41  1   
 30  14  42  1   
 31  15  17  1   
 32  15  43  1   
 33  15  44  1   
 34  16  17  1   
 35  16  45  1   
 36  16  46  1   
 37  17  18  1   
 38  17  47  1   
 39  18  19  1   
 40  18  48  1   
 41  18  49  1   
 42  19  20  ar  
 43  19  21  ar  
 44  20  22  ar  
 45  20  23  ar  
 46  21  24  ar  
 47  21  50  1   
 48  22  25  ar  
 49  22  26  ar  
 50  23  27  ar  
 51  23  51  1   
 52  24  25  ar  
 53  24  52  1   
 54  25  53  1   
 55  26  28  ar  
 56  26  54  1   
 57  27  28  ar  
 58  27  55  1   
 59  28  56  1   
@<TRIPOS>SUBSTRUCTURE
  1 ****  17 GROUP 4 **** **** 0

# MOE 2024.06 (io_trps.svl 2023.06)
