@<TRIPOS>MOLECULE
NONAME
45 47 1 0 0 
SMALL
USER_CHARGES


@<TRIPOS>ATOM
  1 S       -0.5790     0.6800     1.5920 S.o2  1 <1>   1.4470 
  2 O       -1.3450     1.1370     2.7310 O.2   1 <1>  -0.6500 
  3 O       -0.3870    -0.7380     1.3830 O.2   1 <1>  -0.6500 
  4 N       -1.3490     1.2820     0.2100 N.am  1 <1>  -0.8490 
  5 C        1.0430     1.4980     1.5560 C.ar  1 <1>  -0.0090 
  6 C       -2.5510     0.4870    -0.1120 C.3   1 <1>   0.1960 
  7 C       -1.7230     2.7050     0.3500 C.3   1 <1>   0.1960 
  8 C        1.8050     1.5170     0.3940 C.ar  1 <1>  -0.1500 
  9 C        1.5660     2.1120     2.6860 C.ar  1 <1>  -0.1500 
 10 C       -3.2770     0.9770    -1.3830 C.3   1 <1>   0.2090 
 11 C       -2.3850     3.2700    -0.9220 C.3   1 <1>   0.2090 
 12 C        3.0520     2.1260     0.3290 C.ar  1 <1>  -0.0090 
 13 C        2.8030     2.7280     2.6510 C.ar  1 <1>  -0.1500 
 14 N       -3.5490     2.4460    -1.3610 N.pl3 1 <1>  -0.8380 
 15 S        4.0230     2.1000    -1.2000 S.o2  1 <1>   1.2040 
 16 C        3.5370     2.7330     1.4800 C.ar  1 <1>  -0.1500 
 17 C       -4.8240     2.8830    -1.0190 C.ar  1 <1>   0.1000 
 18 O        5.0660     3.0980    -1.1250 O.2   1 <1>  -0.6500 
 19 O        3.1190     2.0810    -2.3280 O.2   1 <1>  -0.6500 
 20 C        4.8090     0.5030    -1.1210 C.3   1 <1>  -0.1350 
 21 C       -5.6130     3.4950    -1.9820 C.ar  1 <1>  -0.1500 
 22 C       -5.3360     2.7300     0.2650 C.ar  1 <1>  -0.1500 
 23 C       -6.8850     3.9450    -1.6770 C.ar  1 <1>  -0.1500 
 24 C       -6.6070     3.1770     0.5760 C.ar  1 <1>  -0.1500 
 25 C       -7.3850     3.7860    -0.3950 C.ar  1 <1>  -0.1500 
 26 H       -3.2390     0.5160     0.7160 H     1 <1>   0.0800 
 27 H       -2.2710    -0.5410    -0.2640 H     1 <1>   0.0800 
 28 H       -0.8450     3.2900     0.5620 H     1 <1>   0.0800 
 29 H       -2.4070     2.8290     1.1730 H     1 <1>   0.0800 
 30 H        1.4070     1.0440    -0.4900 H     1 <1>   0.1500 
 31 H        0.9990     2.1100     3.6030 H     1 <1>   0.1500 
 32 H       -4.2060     0.4440    -1.4900 H     1 <1>   0.0800 
 33 H       -2.6690     0.7510    -2.2410 H     1 <1>   0.0800 
 34 H       -1.6590     3.2990    -1.7160 H     1 <1>   0.0800 
 35 H       -2.7120     4.2790    -0.7380 H     1 <1>   0.0800 
 36 H        3.1940     3.2040     3.5360 H     1 <1>   0.1500 
 37 H        4.5000     3.2190     1.4600 H     1 <1>   0.1500 
 38 H        5.4280     0.4330    -0.2470 H     1 <1>   0.0800 
 39 H        5.4240     0.3550    -1.9870 H     1 <1>   0.0800 
 40 H        4.0730    -0.2770    -1.0890 H     1 <1>   0.0800 
 41 H       -5.2150     3.6120    -2.9730 H     1 <1>   0.1500 
 42 H       -4.7360     2.2610     1.0210 H     1 <1>   0.1500 
 43 H       -7.4850     4.4170    -2.4340 H     1 <1>   0.1500 
 44 H       -6.9930     3.0540     1.5730 H     1 <1>   0.1500 
 45 H       -8.3740     4.1350    -0.1550 H     1 <1>   0.1500 
@<TRIPOS>BOND
  1   1   2  2   
  2   1   3  2   
  3   1   4  am  
  4   1   5  1   
  5   4   6  1   
  6   4   7  1   
  7   5   8  ar  
  8   5   9  ar  
  9   6  10  1   
 10   6  26  1   
 11   6  27  1   
 12   7  11  1   
 13   7  28  1   
 14   7  29  1   
 15   8  12  ar  
 16   8  30  1   
 17   9  13  ar  
 18   9  31  1   
 19  10  14  1   
 20  10  32  1   
 21  10  33  1   
 22  11  14  1   
 23  11  34  1   
 24  11  35  1   
 25  12  15  1   
 26  12  16  ar  
 27  13  16  ar  
 28  13  36  1   
 29  14  17  1   
 30  15  18  2   
 31  15  19  2   
 32  15  20  1   
 33  16  37  1   
 34  17  21  ar  
 35  17  22  ar  
 36  20  38  1   
 37  20  39  1   
 38  20  40  1   
 39  21  23  ar  
 40  21  41  1   
 41  22  24  ar  
 42  22  42  1   
 43  23  25  ar  
 44  23  43  1   
 45  24  25  ar  
 46  24  44  1   
 47  25  45  1   
@<TRIPOS>SUBSTRUCTURE
  1 ****   4 GROUP 4 **** **** 0

# MOE 2024.06 (io_trps.svl 2023.06)
