@<TRIPOS>MOLECULE
NONAME
51 53 1 0 0 
SMALL
USER_CHARGES


@<TRIPOS>ATOM
  1 S       -0.2870    -0.1960     0.2010 S.3   1 <1>  -0.0800 
  2 C        1.1600     0.8000     0.1020 C.2   1 <1>   0.1040 
  3 C       -1.3200     1.1870    -0.0570 C.2   1 <1>  -0.1400 
  4 N        2.4090     0.2090     0.2520 N.am  1 <1>  -0.4940 
  5 C        0.8360     2.1180    -0.1090 C.2   1 <1>  -0.0860 
  6 C       -0.5970     2.3040    -0.2170 C.2   1 <1>  -0.1810 
  7 C       -2.8250     1.0190    -0.0810 C.3   1 <1>   0.0200 
  8 C        2.8700    -1.0640     0.4320 C.2   1 <1>   0.5690 
  9 C        1.7970     3.1930    -0.1970 C.2   1 <1>   0.8060 
 10 C       -1.2960     3.6360    -0.4840 C.3   1 <1>   0.0210 
 11 C       -3.4860     2.4040     0.0200 C.3   1 <1>  -0.1600 
 12 O        4.0550    -1.2460     0.5670 O.2   1 <1>  -0.5700 
 13 C        1.9470    -2.2980     0.4630 C.3   1 <1>   0.4040 
 14 O        1.5080     4.3740    -0.2090 O.2   1 <1>  -0.5700 
 15 O        3.0970     2.8590    -0.2570 O.3   1 <1>  -0.4300 
 16 C       -2.7750     3.4390    -0.8740 C.3   1 <1>  -0.1600 
 17 N        2.6800    -3.6220     0.4100 N.4   1 <1>  -0.9590 
 18 C        4.1380     3.8160    -0.2960 C.3   1 <1>   0.1200 
 19 C        3.3030    -3.8450    -0.9280 C.3   1 <1>   0.3430 
 20 C        1.8230    -4.7610     0.8430 C.3   1 <1>   0.3430 
 21 C        4.4970     4.2100     1.1350 C.3   1 <1>  -0.2400 
 22 C        4.1620    -5.1100    -0.8900 C.3   1 <1>  -0.1600 
 23 C        2.6610    -6.0390     0.9090 C.3   1 <1>  -0.1600 
 24 C        3.3600    -6.3320    -0.4250 C.3   1 <1>  -0.1600 
 25 H        3.1870     0.8810     0.2230 H     1 <1>   0.3700 
 26 H       -3.1450     0.4030     0.7420 H     1 <1>   0.0800 
 27 H       -3.1090     0.5400    -1.0010 H     1 <1>   0.0800 
 28 H       -0.8020     4.1600    -1.2830 H     1 <1>   0.0800 
 29 H       -1.2330     4.2420     0.4030 H     1 <1>   0.0800 
 30 H       -3.4400     2.7390     1.0420 H     1 <1>   0.0800 
 31 H       -4.5230     2.3280    -0.2570 H     1 <1>   0.0800 
 32 H        1.2650    -2.2360    -0.3670 H     1 <1>   0.0800 
 33 H        1.3720    -2.2450     1.3710 H     1 <1>   0.0800 
 34 H       -2.8220     3.1040    -1.8960 H     1 <1>   0.0800 
 35 H       -3.2870     4.3840    -0.8150 H     1 <1>   0.0800 
 36 H        3.4710    -3.5320     1.0690 H     1 <1>   0.4500 
 37 H        3.8250     4.6690    -0.8760 H     1 <1>   0.0800 
 38 H        4.9840     3.3590    -0.7800 H     1 <1>   0.0800 
 39 H        3.9230    -3.0030    -1.1940 H     1 <1>   0.0800 
 40 H        2.5340    -3.9540    -1.6770 H     1 <1>   0.0800 
 41 H        1.0160    -4.8980     0.1410 H     1 <1>   0.0800 
 42 H        1.4000    -4.5600     1.8140 H     1 <1>   0.0800 
 43 H        3.6570     4.6780     1.6170 H     1 <1>   0.0800 
 44 H        5.3100     4.9140     1.1210 H     1 <1>   0.0800 
 45 H        4.8040     3.3470     1.6980 H     1 <1>   0.0800 
 46 H        5.0010    -4.9490    -0.2350 H     1 <1>   0.0800 
 47 H        4.5570    -5.2960    -1.8740 H     1 <1>   0.0800 
 48 H        2.0220    -6.8660     1.1650 H     1 <1>   0.0800 
 49 H        3.3930    -5.9450     1.6930 H     1 <1>   0.0800 
 50 H        4.0160    -7.1800    -0.3160 H     1 <1>   0.0800 
 51 H        2.6230    -6.5840    -1.1700 H     1 <1>   0.0800 
@<TRIPOS>BOND
  1   1   2  1   
  2   1   3  1   
  3   2   4  1   
  4   2   5  2   
  5   3   6  2   
  6   3   7  1   
  7   4   8  am  
  8   4  25  1   
  9   5   6  1   
 10   5   9  1   
 11   6  10  1   
 12   7  11  1   
 13   7  26  1   
 14   7  27  1   
 15   8  12  2   
 16   8  13  1   
 17   9  14  2   
 18   9  15  1   
 19  10  16  1   
 20  10  28  1   
 21  10  29  1   
 22  11  16  1   
 23  11  30  1   
 24  11  31  1   
 25  13  17  1   
 26  13  32  1   
 27  13  33  1   
 28  15  18  1   
 29  16  34  1   
 30  16  35  1   
 31  17  19  1   
 32  17  20  1   
 33  17  36  1   
 34  18  21  1   
 35  18  37  1   
 36  18  38  1   
 37  19  22  1   
 38  19  39  1   
 39  19  40  1   
 40  20  23  1   
 41  20  41  1   
 42  20  42  1   
 43  21  43  1   
 44  21  44  1   
 45  21  45  1   
 46  22  24  1   
 47  22  46  1   
 48  22  47  1   
 49  23  24  1   
 50  23  48  1   
 51  23  49  1   
 52  24  50  1   
 53  24  51  1   
@<TRIPOS>SUBSTRUCTURE
  1 ****   2 GROUP 4 **** **** 0

# MOE 2024.06 (io_trps.svl 2023.06)
