@<TRIPOS>MOLECULE
NONAME
51 53 1 0 0 
SMALL
USER_CHARGES


@<TRIPOS>ATOM
  1 O        0.7710     0.6140    -2.6750 O.2   1 <1>  -0.5700 
  2 C       -0.0020     1.1190    -1.8830 C.2   1 <1>   0.5440 
  3 N       -0.8530     0.3070    -1.1640 N.am  1 <1>  -0.6600 
  4 C        0.0070     2.5480    -1.6890 C.ar  1 <1>   0.0860 
  5 C       -0.7190    -1.1780    -1.1400 C.3   1 <1>   0.1400 
  6 C       -1.8680     0.8080    -0.1890 C.3   1 <1>   0.1400 
  7 C        0.6670     3.1130    -0.5870 C.ar  1 <1>   0.1170 
  8 C       -0.6720     3.3860    -2.5720 C.ar  1 <1>  -0.1500 
  9 C       -0.4990    -1.6590     0.3040 C.3   1 <1>   0.1200 
 10 C       -1.6020     0.2210     1.2060 C.3   1 <1>   0.1200 
 11 N        1.4120     2.3010     0.2790 N.am  1 <1>  -0.5470 
 12 C        0.5920     4.4880    -0.3860 C.ar  1 <1>  -0.1500 
 13 C       -0.7290     4.7500    -2.3640 C.ar  1 <1>  -0.1500 
 14 O       -1.5070    -1.1770     1.1520 O.3   1 <1>  -0.5600 
 15 C        1.6110     2.3740     1.6330 C.2   1 <1>   0.5690 
 16 C       -0.0990     5.3020    -1.2620 C.ar  1 <1>  -0.1500 
 17 O        1.0400     3.1860     2.3220 O.2   1 <1>  -0.5700 
 18 C        2.5710     1.3780     2.3130 C.3   1 <1>   0.2610 
 19 O        3.2660     0.5750     1.3650 O.3   1 <1>  -0.3630 
 20 C        1.8450     0.4060     3.2510 C.3   1 <1>  -0.2400 
 21 C        4.1410     1.1170     0.4790 C.ar  1 <1>   0.0820 
 22 C        4.2140     0.5490    -0.7900 C.ar  1 <1>  -0.1440 
 23 C        4.9320     2.2190     0.7940 C.ar  1 <1>  -0.1500 
 24 C        5.0660     1.1010    -1.7330 C.ar  1 <1>  -0.1500 
 25 C        3.3760    -0.6650    -1.1650 C.3   1 <1>  -0.0970 
 26 C        5.7780     2.7590    -0.1570 C.ar  1 <1>  -0.1500 
 27 C        5.8440     2.2020    -1.4210 C.ar  1 <1>  -0.1500 
 28 H        0.1050    -1.4980    -1.7530 H     1 <1>   0.0800 
 29 H       -1.6170    -1.6220    -1.5330 H     1 <1>   0.0800 
 30 H       -2.8480     0.5080    -0.5150 H     1 <1>   0.0800 
 31 H       -1.8570     1.8820    -0.1280 H     1 <1>   0.0800 
 32 H       -1.1610     2.9520    -3.4270 H     1 <1>   0.1500 
 33 H        0.4530    -1.3210     0.6720 H     1 <1>   0.0800 
 34 H       -0.5240    -2.7330     0.3440 H     1 <1>   0.0800 
 35 H       -2.4080     0.4700     1.8730 H     1 <1>   0.0800 
 36 H       -0.6890     0.6170     1.6110 H     1 <1>   0.0800 
 37 H        1.9440     1.5480    -0.1760 H     1 <1>   0.3700 
 38 H        1.0860     4.9260     0.4640 H     1 <1>   0.1500 
 39 H       -1.2600     5.3840    -3.0540 H     1 <1>   0.1500 
 40 H       -0.1440     6.3640    -1.0900 H     1 <1>   0.1500 
 41 H        3.2900     1.9270     2.8900 H     1 <1>   0.0800 
 42 H        1.1550    -0.2060     2.7010 H     1 <1>   0.0800 
 43 H        2.5580    -0.2230     3.7510 H     1 <1>   0.0800 
 44 H        1.2970     0.9580     3.9940 H     1 <1>   0.0800 
 45 H        4.9090     2.6650     1.7680 H     1 <1>   0.1500 
 46 H        5.1280     0.6750    -2.7200 H     1 <1>   0.1500 
 47 H        2.3770    -0.5700    -0.7830 H     1 <1>   0.0800 
 48 H        3.8210    -1.5530    -0.7550 H     1 <1>   0.0800 
 49 H        3.3110    -0.7700    -2.2340 H     1 <1>   0.0800 
 50 H        6.3880     3.6120     0.0850 H     1 <1>   0.1500 
 51 H        6.5010     2.6230    -2.1620 H     1 <1>   0.1500 
@<TRIPOS>BOND
  1   1   2  2   
  2   2   3  am  
  3   2   4  1   
  4   3   5  1   
  5   3   6  1   
  6   4   7  ar  
  7   4   8  ar  
  8   5   9  1   
  9   5  28  1   
 10   5  29  1   
 11   6  10  1   
 12   6  30  1   
 13   6  31  1   
 14   7  11  1   
 15   7  12  ar  
 16   8  13  ar  
 17   8  32  1   
 18   9  14  1   
 19   9  33  1   
 20   9  34  1   
 21  10  14  1   
 22  10  35  1   
 23  10  36  1   
 24  11  15  am  
 25  11  37  1   
 26  12  16  ar  
 27  12  38  1   
 28  13  16  ar  
 29  13  39  1   
 30  15  17  2   
 31  15  18  1   
 32  16  40  1   
 33  18  19  1   
 34  18  20  1   
 35  18  41  1   
 36  19  21  1   
 37  20  42  1   
 38  20  43  1   
 39  20  44  1   
 40  21  22  ar  
 41  21  23  ar  
 42  22  24  ar  
 43  22  25  1   
 44  23  26  ar  
 45  23  45  1   
 46  24  27  ar  
 47  24  46  1   
 48  25  47  1   
 49  25  48  1   
 50  25  49  1   
 51  26  27  ar  
 52  26  50  1   
 53  27  51  1   
@<TRIPOS>SUBSTRUCTURE
  1 ****  11 GROUP 4 **** **** 0

# MOE 2024.06 (io_trps.svl 2023.06)
