@<TRIPOS>MOLECULE
NONAME
52 55 1 0 0 
SMALL
USER_CHARGES


@<TRIPOS>ATOM
  1 O       -1.9500     2.3610    -1.7800 O.3   1 <1>  -0.5320 
  2 C       -3.2850     2.4620    -1.8730 C.ar  1 <1>   0.0830 
  3 C       -4.0450     2.4440    -0.7190 C.ar  1 <1>  -0.1500 
  4 C       -3.8870     2.5790    -3.1160 C.ar  1 <1>  -0.1500 
  5 C       -5.4280     2.5600    -0.7860 C.ar  1 <1>   0.1000 
  6 C       -5.2660     2.6740    -3.1940 C.ar  1 <1>  -0.1500 
  7 N       -6.1940     2.5400     0.3760 N.pl3 1 <1>  -0.8690 
  8 C       -6.0260     2.6590    -2.0370 C.ar  1 <1>  -0.1500 
  9 C       -6.6460     3.7750     1.0720 C.3   1 <1>   0.5490 
 10 C       -7.9650     3.4450     1.7880 C.2   1 <1>   0.0060 
 11 C       -6.8820     4.9720     0.1130 C.3   1 <1>  -0.1600 
 12 C       -5.5170     4.1180     2.0840 C.3   1 <1>  -0.1600 
 13 N       -8.1900     3.5910     3.0440 N.2   1 <1>  -0.3380 
 14 N       -9.0590     2.9700     1.1860 N.pl3 1 <1>   0.5930 
 15 C       -5.6390     5.8490    -0.1100 C.3   1 <1>  -0.1600 
 16 C       -5.4730     5.6110     2.4490 C.3   1 <1>  -0.1600 
 17 N       -9.4380     3.2020     3.2410 N.2   1 <1>   0.0000 
 18 N       -9.9720     2.8300     2.1400 N.2   1 <1>  -0.4180 
 19 C       -9.3680     2.6900    -0.1810 C.ar  1 <1>  -0.0230 
 20 C       -5.1590     6.4740     1.2130 C.3   1 <1>  -0.1600 
 21 C       -9.1550     1.4090    -0.7050 C.ar  1 <1>  -0.1430 
 22 C       -9.9140     3.6810    -1.0080 C.ar  1 <1>  -0.1430 
 23 C       -9.4300     1.1520    -2.0380 C.ar  1 <1>  -0.1500 
 24 C       -8.6280     0.2540     0.1410 C.3   1 <1>  -0.0970 
 25 C      -10.1780     3.4000    -2.3380 C.ar  1 <1>  -0.1500 
 26 C      -10.2680     5.0840    -0.5220 C.3   1 <1>  -0.0970 
 27 C       -9.9330     2.1440    -2.8550 C.ar  1 <1>  -0.1500 
 28 H       -1.5070     2.3750    -2.6460 H     1 <1>   0.4500 
 29 H       -3.5520     2.3420     0.2270 H     1 <1>   0.1500 
 30 H       -3.2970     2.5930    -4.0140 H     1 <1>   0.1500 
 31 H       -5.7500     2.7580    -4.1510 H     1 <1>   0.1500 
 32 H       -5.7820     1.9310     1.0870 H     1 <1>   0.4000 
 33 H       -7.0960     2.7200    -2.1010 H     1 <1>   0.1500 
 34 H       -7.6280     5.6100     0.5520 H     1 <1>   0.0800 
 35 H       -7.2760     4.6370    -0.8260 H     1 <1>   0.0800 
 36 H       -4.5620     3.8780     1.6560 H     1 <1>   0.0800 
 37 H       -5.6180     3.5280     2.9780 H     1 <1>   0.0800 
 38 H       -5.8590     6.6290    -0.8190 H     1 <1>   0.0800 
 39 H       -4.8520     5.2470    -0.5300 H     1 <1>   0.0800 
 40 H       -4.7290     5.7840     3.2070 H     1 <1>   0.0800 
 41 H       -6.4260     5.9000     2.8590 H     1 <1>   0.0800 
 42 H       -5.6170     7.4390     1.3440 H     1 <1>   0.0800 
 43 H       -4.0950     6.6310     1.1460 H     1 <1>   0.0800 
 44 H       -9.2540     0.1730    -2.4490 H     1 <1>   0.1500 
 45 H       -7.5540     0.2510     0.1310 H     1 <1>   0.0800 
 46 H       -8.9700    -0.6860    -0.2540 H     1 <1>   0.0800 
 47 H       -8.9700     0.3210     1.1580 H     1 <1>   0.0800 
 48 H      -10.5860     4.1600    -2.9810 H     1 <1>   0.1500 
 49 H      -10.2290     5.1780     0.5470 H     1 <1>   0.0800 
 50 H      -11.2700     5.3280    -0.8300 H     1 <1>   0.0800 
 51 H       -9.5990     5.8030    -0.9580 H     1 <1>   0.0800 
 52 H      -10.1400     1.9360    -3.8910 H     1 <1>   0.1500 
@<TRIPOS>BOND
  1   1   2  1   
  2   1  28  1   
  3   2   3  ar  
  4   2   4  ar  
  5   3   5  ar  
  6   3  29  1   
  7   4   6  ar  
  8   4  30  1   
  9   5   7  1   
 10   5   8  ar  
 11   6   8  ar  
 12   6  31  1   
 13   7   9  1   
 14   7  32  1   
 15   8  33  1   
 16   9  10  1   
 17   9  11  1   
 18   9  12  1   
 19  10  13  2   
 20  10  14  1   
 21  11  15  1   
 22  11  34  1   
 23  11  35  1   
 24  12  16  1   
 25  12  36  1   
 26  12  37  1   
 27  13  17  1   
 28  14  18  1   
 29  14  19  1   
 30  15  20  1   
 31  15  38  1   
 32  15  39  1   
 33  16  20  1   
 34  16  40  1   
 35  16  41  1   
 36  17  18  2   
 37  19  21  ar  
 38  19  22  ar  
 39  20  42  1   
 40  20  43  1   
 41  21  23  ar  
 42  21  24  1   
 43  22  25  ar  
 44  22  26  1   
 45  23  27  ar  
 46  23  44  1   
 47  24  45  1   
 48  24  46  1   
 49  24  47  1   
 50  25  27  ar  
 51  25  48  1   
 52  26  49  1   
 53  26  50  1   
 54  26  51  1   
 55  27  52  1   
@<TRIPOS>SUBSTRUCTURE
  1 ****   7 GROUP 4 **** **** 0

# MOE 2024.06 (io_trps.svl 2023.06)
