@<TRIPOS>MOLECULE
NONAME
50 52 1 0 0 
SMALL
USER_CHARGES


@<TRIPOS>ATOM
  1 S        0.6150    -0.9130    -1.9730 S.o2  1 <1>   1.4470 
  2 O        1.6970    -1.8460    -2.2070 O.2   1 <1>  -0.6500 
  3 O        0.5060     0.2650    -2.8050 O.2   1 <1>  -0.6500 
  4 N        0.7470    -0.3990    -0.3630 N.am  1 <1>  -0.8490 
  5 C       -0.9730    -1.7940    -1.9880 C.ar  1 <1>  -0.0090 
  6 C        1.7050     0.7020    -0.2240 C.3   1 <1>   0.1960 
  7 C        1.0780    -1.5030     0.5440 C.3   1 <1>   0.1960 
  8 C       -2.0980    -1.2490    -1.3850 C.ar  1 <1>  -0.1500 
  9 C       -1.1030    -3.0300    -2.6090 C.ar  1 <1>  -0.1500 
 10 C        1.6770     1.2530     1.2060 C.3   1 <1>  -0.1600 
 11 C        1.0070    -1.0290     1.9990 C.3   1 <1>  -0.1600 
 12 C       -3.3350    -1.8950    -1.3660 C.ar  1 <1>   0.0860 
 13 C       -2.3160    -3.6940    -2.6220 C.ar  1 <1>  -0.1500 
 14 C        1.9490     0.1550     2.2410 C.3   1 <1>  -0.1600 
 15 C       -4.4740    -1.2920    -0.6990 C.2   1 <1>   0.5440 
 16 C       -3.4180    -3.1310    -2.0090 C.ar  1 <1>  -0.1500 
 17 O       -4.5910    -0.0840    -0.6570 O.2   1 <1>  -0.5700 
 18 N       -5.4170    -2.0910    -0.0990 N.am  1 <1>  -0.5470 
 19 C       -6.5940    -1.7160     0.5620 C.ar  1 <1>   0.1170 
 20 C       -6.5910    -1.0120     1.7690 C.ar  1 <1>  -0.1430 
 21 C       -7.8100    -2.0910     0.0020 C.ar  1 <1>  -0.1500 
 22 C       -7.7950    -0.6980     2.3770 C.ar  1 <1>  -0.1500 
 23 C       -5.2960    -0.5770     2.4420 C.3   1 <1>  -0.0970 
 24 C       -9.0110    -1.7800     0.6140 C.ar  1 <1>  -0.1430 
 25 C       -8.9970    -1.0780     1.8070 C.ar  1 <1>  -0.1500 
 26 C      -10.3330    -2.1880    -0.0080 C.3   1 <1>  -0.0970 
 27 H        1.4480     1.4990    -0.9020 H     1 <1>   0.0800 
 28 H        2.6960     0.3570    -0.4720 H     1 <1>   0.0800 
 29 H        2.0680    -1.8720     0.3290 H     1 <1>   0.0800 
 30 H        0.3800    -2.3110     0.4050 H     1 <1>   0.0800 
 31 H       -2.0150    -0.2850    -0.9090 H     1 <1>   0.1500 
 32 H       -0.2460    -3.4750    -3.0890 H     1 <1>   0.1500 
 33 H        0.7100     1.6900     1.3860 H     1 <1>   0.0800 
 34 H        2.4110     2.0320     1.3020 H     1 <1>   0.0800 
 35 H        1.2720    -1.8410     2.6520 H     1 <1>   0.0800 
 36 H       -0.0050    -0.7420     2.2220 H     1 <1>   0.0800 
 37 H       -2.3990    -4.6490    -3.1140 H     1 <1>   0.1500 
 38 H        1.8080     0.5430     3.2360 H     1 <1>   0.0800 
 39 H        2.9700    -0.1750     2.1520 H     1 <1>   0.0800 
 40 H       -4.3570    -3.6550    -2.0430 H     1 <1>   0.1500 
 41 H       -5.2700    -3.0940    -0.1730 H     1 <1>   0.3700 
 42 H       -7.8090    -2.6260    -0.9290 H     1 <1>   0.1500 
 43 H       -7.8060    -0.1500     3.3030 H     1 <1>   0.1500 
 44 H       -4.5650    -1.3630     2.3980 H     1 <1>   0.0800 
 45 H       -5.4630    -0.3310     3.4750 H     1 <1>   0.0800 
 46 H       -4.9040     0.2910     1.9430 H     1 <1>   0.0800 
 47 H       -9.9210    -0.8230     2.2950 H     1 <1>   0.1500 
 48 H      -10.1820    -2.9000    -0.7990 H     1 <1>   0.0800 
 49 H      -10.8260    -1.3230    -0.4120 H     1 <1>   0.0800 
 50 H      -10.9680    -2.6350     0.7360 H     1 <1>   0.0800 
@<TRIPOS>BOND
  1   1   2  2   
  2   1   3  2   
  3   1   4  am  
  4   1   5  1   
  5   4   6  1   
  6   4   7  1   
  7   5   8  ar  
  8   5   9  ar  
  9   6  10  1   
 10   6  27  1   
 11   6  28  1   
 12   7  11  1   
 13   7  29  1   
 14   7  30  1   
 15   8  12  ar  
 16   8  31  1   
 17   9  13  ar  
 18   9  32  1   
 19  10  14  1   
 20  10  33  1   
 21  10  34  1   
 22  11  14  1   
 23  11  35  1   
 24  11  36  1   
 25  12  15  1   
 26  12  16  ar  
 27  13  16  ar  
 28  13  37  1   
 29  14  38  1   
 30  14  39  1   
 31  15  17  2   
 32  15  18  am  
 33  16  40  1   
 34  18  19  1   
 35  18  41  1   
 36  19  20  ar  
 37  19  21  ar  
 38  20  22  ar  
 39  20  23  1   
 40  21  24  ar  
 41  21  42  1   
 42  22  25  ar  
 43  22  43  1   
 44  23  44  1   
 45  23  45  1   
 46  23  46  1   
 47  24  25  ar  
 48  24  26  1   
 49  25  47  1   
 50  26  48  1   
 51  26  49  1   
 52  26  50  1   
@<TRIPOS>SUBSTRUCTURE
  1 ****  12 GROUP 4 **** **** 0

# MOE 2024.06 (io_trps.svl 2023.06)
