@<TRIPOS>MOLECULE
NONAME
28 28 1 0 0 
SMALL
USER_CHARGES


@<TRIPOS>ATOM
  1 I       -0.5370    -0.1670     0.0010 I     1 <1>  -0.0810 
  2 C        1.4310    -0.9810    -0.0010 C.ar  1 <1>   0.0810 
  3 C        1.5810    -2.3550    -0.0060 C.ar  1 <1>  -0.1500 
  4 C        2.5080    -0.1130     0.0030 C.ar  1 <1>  -0.1500 
  5 C        2.8640    -2.8740    -0.0070 C.ar  1 <1>  -0.1500 
  6 C        3.7870    -0.6450     0.0020 C.ar  1 <1>  -0.1500 
  7 C        3.9670    -2.0300    -0.0030 C.ar  1 <1>   0.0830 
  8 O        5.1850    -2.6310    -0.0040 O.3   1 <1>  -0.3630 
  9 C        6.3740    -1.8820    -0.0010 C.3   1 <1>   0.1200 
 10 C        7.5320    -2.8820    -0.0040 C.3   1 <1>   0.3430 
 11 N        8.8620    -2.2000     0.0000 N.4   1 <1>  -0.9060 
 12 C        9.9800    -3.1680    -0.0030 C.3   1 <1>   0.3430 
 13 C       11.2840    -2.3850     0.0010 C.3   1 <1>  -0.2400 
 14 H        0.7210    -3.0020    -0.0090 H     1 <1>   0.1500 
 15 H        2.3490     0.9510     0.0070 H     1 <1>   0.1500 
 16 H        3.0120    -3.9390    -0.0110 H     1 <1>   0.1500 
 17 H        4.6170     0.0350     0.0050 H     1 <1>   0.1500 
 18 H        6.3840    -1.2780     0.8890 H     1 <1>   0.0800 
 19 H        6.3850    -1.2710    -0.8870 H     1 <1>   0.0800 
 20 H        7.4470    -3.5040    -0.8810 H     1 <1>   0.0800 
 21 H        7.4460    -3.5100     0.8690 H     1 <1>   0.0800 
 22 H        8.9510    -1.5980     0.8290 H     1 <1>   0.4500 
 23 H        8.9520    -1.5920    -0.8250 H     1 <1>   0.4500 
 24 H        9.9320    -3.7930    -0.8820 H     1 <1>   0.0800 
 25 H        9.9310    -3.8000     0.8710 H     1 <1>   0.0800 
 26 H       11.3680    -1.7690    -0.8770 H     1 <1>   0.0800 
 27 H       12.1100    -3.0740    -0.0010 H     1 <1>   0.0800 
 28 H       11.3670    -1.7750     0.8830 H     1 <1>   0.0800 
@<TRIPOS>BOND
  1   1   2  1   
  2   2   3  ar  
  3   2   4  ar  
  4   3   5  ar  
  5   3  14  1   
  6   4   6  ar  
  7   4  15  1   
  8   5   7  ar  
  9   5  16  1   
 10   6   7  ar  
 11   6  17  1   
 12   7   8  1   
 13   8   9  1   
 14   9  10  1   
 15   9  18  1   
 16   9  19  1   
 17  10  11  1   
 18  10  20  1   
 19  10  21  1   
 20  11  12  1   
 21  11  22  1   
 22  11  23  1   
 23  12  13  1   
 24  12  24  1   
 25  12  25  1   
 26  13  26  1   
 27  13  27  1   
 28  13  28  1   
@<TRIPOS>SUBSTRUCTURE
  1 ****   8 GROUP 4 **** **** 0

# MOE 2024.06 (io_trps.svl 2023.06)
