@<TRIPOS>MOLECULE
NONAME
47 49 1 0 0 
SMALL
USER_CHARGES


@<TRIPOS>ATOM
  1 BR      -0.3710     0.1550     2.0590 Br    1 <1>  -0.1110 
  2 C       -1.8420    -0.7100     1.1720 C.ar  1 <1>   0.1110 
  3 C       -2.6590    -1.5500     1.9020 C.ar  1 <1>  -0.1500 
  4 C       -2.0420    -0.4720    -0.1730 C.ar  1 <1>  -0.1500 
  5 C       -3.7180    -2.1690     1.2600 C.ar  1 <1>  -0.1500 
  6 C       -3.1040    -1.0940    -0.8070 C.ar  1 <1>  -0.1500 
  7 C       -3.9510    -1.9360    -0.0920 C.ar  1 <1>  -0.1430 
  8 C       -5.1280    -2.5940    -0.7850 C.3   1 <1>   0.4870 
  9 N       -6.3790    -1.9050    -0.3370 N.4   1 <1>  -0.9590 
 10 C       -7.5860    -2.6480    -0.7800 C.3   1 <1>   0.3430 
 11 C       -6.3900    -0.4800    -0.7690 C.3   1 <1>   0.3430 
 12 C       -8.8440    -1.9740    -0.2280 C.3   1 <1>  -0.1600 
 13 C       -7.6280     0.2240    -0.2160 C.3   1 <1>  -0.1600 
 14 C       -8.9320    -0.4870    -0.6150 C.3   1 <1>   0.4230 
 15 N      -10.1140     0.1640     0.0490 N.4   1 <1>  -0.9590 
 16 C      -11.4220    -0.5070    -0.2710 C.3   1 <1>   0.3430 
 17 C      -10.2340     1.6330    -0.2540 C.3   1 <1>   0.3430 
 18 C      -12.5410     0.0710     0.5970 C.3   1 <1>  -0.1600 
 19 C      -11.3210     2.2670     0.6140 C.3   1 <1>  -0.1600 
 20 C      -12.6780     1.5850     0.4120 C.3   1 <1>  -0.1600 
 21 H       -2.4610    -1.7160     2.9470 H     1 <1>   0.1500 
 22 H       -1.3750     0.1830    -0.7070 H     1 <1>   0.1500 
 23 H       -4.3450    -2.8340     1.8310 H     1 <1>   0.1500 
 24 H       -3.2520    -0.9130    -1.8590 H     1 <1>   0.1500 
 25 H       -5.1570    -3.6380    -0.5160 H     1 <1>   0.0800 
 26 H       -5.0170    -2.5200    -1.8550 H     1 <1>   0.0800 
 27 H       -6.3220    -1.9190     0.6920 H     1 <1>   0.4500 
 28 H       -7.5410    -3.6680    -0.4290 H     1 <1>   0.0800 
 29 H       -7.6270    -2.6680    -1.8590 H     1 <1>   0.0800 
 30 H       -6.3860    -0.4250    -1.8470 H     1 <1>   0.0800 
 31 H       -5.5040     0.0220    -0.4070 H     1 <1>   0.0800 
 32 H       -8.8560    -2.0850     0.8420 H     1 <1>   0.0800 
 33 H       -9.6810    -2.5150    -0.6310 H     1 <1>   0.0800 
 34 H       -7.6110     1.2240    -0.6100 H     1 <1>   0.0800 
 35 H       -7.5430     0.2830     0.8550 H     1 <1>   0.0800 
 36 H       -9.0500    -0.4160    -1.6850 H     1 <1>   0.0800 
 37 H      -10.0030     0.0950     1.0700 H     1 <1>   0.4500 
 38 H      -11.3650    -1.5650    -0.0820 H     1 <1>   0.0800 
 39 H      -11.6660    -0.3610    -1.3120 H     1 <1>   0.0800 
 40 H      -10.4790     1.7740    -1.2950 H     1 <1>   0.0800 
 41 H       -9.3060     2.1410    -0.0520 H     1 <1>   0.0800 
 42 H      -12.3510    -0.1590     1.6320 H     1 <1>   0.0800 
 43 H      -13.4720    -0.4010     0.3320 H     1 <1>   0.0800 
 44 H      -11.4110     3.3100     0.3600 H     1 <1>   0.0800 
 45 H      -11.0330     2.2150     1.6500 H     1 <1>   0.0800 
 46 H      -13.3950     1.9780     1.1140 H     1 <1>   0.0800 
 47 H      -13.0440     1.7960    -0.5790 H     1 <1>   0.0800 
@<TRIPOS>BOND
  1   1   2  1   
  2   2   3  ar  
  3   2   4  ar  
  4   3   5  ar  
  5   3  21  1   
  6   4   6  ar  
  7   4  22  1   
  8   5   7  ar  
  9   5  23  1   
 10   6   7  ar  
 11   6  24  1   
 12   7   8  1   
 13   8   9  1   
 14   8  25  1   
 15   8  26  1   
 16   9  10  1   
 17   9  11  1   
 18   9  27  1   
 19  10  12  1   
 20  10  28  1   
 21  10  29  1   
 22  11  13  1   
 23  11  30  1   
 24  11  31  1   
 25  12  14  1   
 26  12  32  1   
 27  12  33  1   
 28  13  14  1   
 29  13  34  1   
 30  13  35  1   
 31  14  15  1   
 32  14  36  1   
 33  15  16  1   
 34  15  17  1   
 35  15  37  1   
 36  16  18  1   
 37  16  38  1   
 38  16  39  1   
 39  17  19  1   
 40  17  40  1   
 41  17  41  1   
 42  18  20  1   
 43  18  42  1   
 44  18  43  1   
 45  19  20  1   
 46  19  44  1   
 47  19  45  1   
 48  20  46  1   
 49  20  47  1   
@<TRIPOS>SUBSTRUCTURE
  1 ****  11 GROUP 4 **** **** 0

# MOE 2024.06 (io_trps.svl 2023.06)
