@<TRIPOS>MOLECULE
NONAME
53 54 1 0 0 
SMALL
USER_CHARGES


@<TRIPOS>ATOM
  1 O       -5.1600     6.4220     0.0480 O.3   1 <1>  -0.3630 
  2 C       -6.5130     6.4730     0.1410 C.ar  1 <1>   0.0830 
  3 C       -4.4650     5.1920     0.1410 C.3   1 <1>   0.1200 
  4 C       -7.3230     5.3560     0.3050 C.ar  1 <1>  -0.1500 
  5 C       -7.1000     7.7220     0.0650 C.ar  1 <1>  -0.1500 
  6 C       -2.9600     5.4500    -0.0070 C.3   1 <1>   0.2000 
  7 C       -8.6960     5.5040     0.3900 C.ar  1 <1>  -0.1500 
  8 C       -8.4740     7.8630     0.1510 C.ar  1 <1>  -0.1500 
  9 O       -2.7690     6.2150    -1.1540 O.3   1 <1>  -0.6800 
 10 C       -2.1570     4.1330    -0.0970 C.3   1 <1>   0.1100 
 11 C       -9.3020     6.7550     0.3150 C.ar  1 <1>  -0.1430 
 12 N       -0.6980     4.2700     0.1510 N.3   1 <1>  -0.8100 
 13 C      -10.8400     6.8610     0.4160 C.3   1 <1>   0.1440 
 14 C       -0.0490     2.9390     0.2080 C.3   1 <1>   0.1100 
 15 C       -0.0320     5.1270    -0.8700 C.3   1 <1>   0.1100 
 16 C      -11.4870     6.0600    -0.7230 C.3   1 <1>  -0.2400 
 17 C      -11.3070     6.2970     1.7660 C.3   1 <1>  -0.2400 
 18 C      -11.3560     8.3070     0.3150 C.3   1 <1>  -0.2400 
 19 C        1.4580     3.0320     0.5570 C.3   1 <1>   0.3430 
 20 C        1.5120     5.0840    -0.7990 C.3   1 <1>   0.3430 
 21 N        1.9590     4.4450     0.4800 N.4   1 <1>  -0.9590 
 22 C        3.4220     4.5730     0.7340 C.3   1 <1>   0.2630 
 23 H       -4.8120     4.5450    -0.6450 H     1 <1>   0.0800 
 24 H       -4.6780     4.7530     1.0990 H     1 <1>   0.0800 
 25 H       -6.9120     4.3670     0.3680 H     1 <1>   0.1500 
 26 H       -6.4770     8.5880    -0.0610 H     1 <1>   0.1500 
 27 H       -2.6210     6.0210     0.8400 H     1 <1>   0.0800 
 28 H       -9.2960     4.6210     0.5160 H     1 <1>   0.1500 
 29 H       -8.8730     8.8570     0.0860 H     1 <1>   0.1500 
 30 H       -3.4820     6.8910    -1.1840 H     1 <1>   0.4000 
 31 H       -2.3320     3.6790    -1.0590 H     1 <1>   0.0800 
 32 H       -2.5530     3.4670     0.6510 H     1 <1>   0.0800 
 33 H       -0.1600     2.4430    -0.7410 H     1 <1>   0.0800 
 34 H       -0.5360     2.3290     0.9500 H     1 <1>   0.0800 
 35 H       -0.3360     6.1480    -0.7200 H     1 <1>   0.0800 
 36 H       -0.3490     4.8430    -1.8600 H     1 <1>   0.0800 
 37 H      -11.1380     6.4250    -1.6730 H     1 <1>   0.0800 
 38 H      -12.5580     6.1520    -0.6930 H     1 <1>   0.0800 
 39 H      -11.2400     5.0170    -0.6530 H     1 <1>   0.0800 
 40 H      -11.0590     5.2560     1.8590 H     1 <1>   0.0800 
 41 H      -12.3720     6.3960     1.8720 H     1 <1>   0.0800 
 42 H      -10.8310     6.8300     2.5700 H     1 <1>   0.0800 
 43 H      -10.9530     8.9080     1.1110 H     1 <1>   0.0800 
 44 H      -12.4280     8.3330     0.3900 H     1 <1>   0.0800 
 45 H      -11.0780     8.7420    -0.6280 H     1 <1>   0.0800 
 46 H        2.0140     2.4020    -0.1190 H     1 <1>   0.0800 
 47 H        1.6070     2.6520     1.5540 H     1 <1>   0.0800 
 48 H        1.8950     6.0880    -0.8730 H     1 <1>   0.0800 
 49 H        1.8900     4.5240    -1.6380 H     1 <1>   0.0800 
 50 H        1.4130     4.9420     1.2040 H     1 <1>   0.4500 
 51 H        3.9810     4.0550    -0.0290 H     1 <1>   0.0800 
 52 H        3.6730     4.1510     1.6940 H     1 <1>   0.0800 
 53 H        3.7120     5.6110     0.7300 H     1 <1>   0.0800 
@<TRIPOS>BOND
  1   1   2  1   
  2   1   3  1   
  3   2   4  ar  
  4   2   5  ar  
  5   3   6  1   
  6   3  23  1   
  7   3  24  1   
  8   4   7  ar  
  9   4  25  1   
 10   5   8  ar  
 11   5  26  1   
 12   6   9  1   
 13   6  10  1   
 14   6  27  1   
 15   7  11  ar  
 16   7  28  1   
 17   8  11  ar  
 18   8  29  1   
 19   9  30  1   
 20  10  12  1   
 21  10  31  1   
 22  10  32  1   
 23  11  13  1   
 24  12  14  1   
 25  12  15  1   
 26  13  16  1   
 27  13  17  1   
 28  13  18  1   
 29  14  19  1   
 30  14  33  1   
 31  14  34  1   
 32  15  20  1   
 33  15  35  1   
 34  15  36  1   
 35  16  37  1   
 36  16  38  1   
 37  16  39  1   
 38  17  40  1   
 39  17  41  1   
 40  17  42  1   
 41  18  43  1   
 42  18  44  1   
 43  18  45  1   
 44  19  21  1   
 45  19  46  1   
 46  19  47  1   
 47  20  21  1   
 48  20  48  1   
 49  20  49  1   
 50  21  22  1   
 51  21  50  1   
 52  22  51  1   
 53  22  52  1   
 54  22  53  1   
@<TRIPOS>SUBSTRUCTURE
  1 ****   3 GROUP 4 **** **** 0

# MOE 2024.06 (io_trps.svl 2023.06)
