@<TRIPOS>MOLECULE
NONAME
36 37 1 0 0 
SMALL
USER_CHARGES


@<TRIPOS>ATOM
  1 S       -1.9680     1.4050     0.7790 S.3   1 <1>  -0.3320 
  2 C       -3.4200     2.3410     0.2710 C.ar  1 <1>   0.1020 
  3 C       -2.0620    -0.2340    -0.0680 C.3   1 <1>  -0.0100 
  4 C       -4.3790     1.8180    -0.5800 C.ar  1 <1>  -0.1500 
  5 C       -3.5430     3.6240     0.7710 C.ar  1 <1>  -0.1500 
  6 C       -5.4730     2.5920    -0.9290 C.ar  1 <1>  -0.1500 
  7 C       -4.6370     4.3960     0.4200 C.ar  1 <1>  -0.1500 
  8 C       -5.6080     3.8820    -0.4290 C.ar  1 <1>  -0.1430 
  9 C       -6.8110     4.7190    -0.7980 C.3   1 <1>   0.4860 
 10 N       -7.8880     4.3410     0.1310 N.4   1 <1>  -0.9060 
 11 C       -9.1830     5.0490    -0.0610 C.3   1 <1>   0.3430 
 12 C      -10.3260     4.1340     0.4150 C.3   1 <1>   0.2000 
 13 O       -9.9900     2.8090     0.1310 O.3   1 <1>  -0.5600 
 14 C      -11.6530     4.3480    -0.3000 C.3   1 <1>  -0.1600 
 15 C      -11.1440     2.0230     0.0840 C.3   1 <1>   0.1200 
 16 C      -12.2990     2.9730    -0.2280 C.3   1 <1>  -0.1600 
 17 H       -1.1900    -0.7950     0.2150 H     1 <1>   0.0800 
 18 H       -2.0750    -0.0610    -1.1290 H     1 <1>   0.0800 
 19 H       -2.9570    -0.7300     0.2630 H     1 <1>   0.0800 
 20 H       -4.2870     0.8240    -0.9730 H     1 <1>   0.1500 
 21 H       -2.7810     4.0090     1.4270 H     1 <1>   0.1500 
 22 H       -6.2100     2.1750    -1.5940 H     1 <1>   0.1500 
 23 H       -4.7120     5.3950     0.8170 H     1 <1>   0.1500 
 24 H       -7.1020     4.5190    -1.8170 H     1 <1>   0.0800 
 25 H       -6.5750     5.7660    -0.6990 H     1 <1>   0.0800 
 26 H       -7.5520     4.3980     1.0980 H     1 <1>   0.4500 
 27 H       -8.1180     3.3400    -0.0070 H     1 <1>   0.4500 
 28 H       -9.3310     5.2520    -1.1090 H     1 <1>   0.0800 
 29 H       -9.2010     5.9870     0.4710 H     1 <1>   0.0800 
 30 H      -10.4610     4.2140     1.4810 H     1 <1>   0.0800 
 31 H      -11.4880     4.6180    -1.3290 H     1 <1>   0.0800 
 32 H      -12.2520     5.1060     0.1750 H     1 <1>   0.0800 
 33 H      -11.2750     1.5500     1.0440 H     1 <1>   0.0800 
 34 H      -11.0200     1.2730    -0.6790 H     1 <1>   0.0800 
 35 H      -12.7820     2.7090    -1.1530 H     1 <1>   0.0800 
 36 H      -13.0260     2.9270     0.5650 H     1 <1>   0.0800 
@<TRIPOS>BOND
  1   1   2  1   
  2   1   3  1   
  3   2   4  ar  
  4   2   5  ar  
  5   3  17  1   
  6   3  18  1   
  7   3  19  1   
  8   4   6  ar  
  9   4  20  1   
 10   5   7  ar  
 11   5  21  1   
 12   6   8  ar  
 13   6  22  1   
 14   7   8  ar  
 15   7  23  1   
 16   8   9  1   
 17   9  10  1   
 18   9  24  1   
 19   9  25  1   
 20  10  11  1   
 21  10  26  1   
 22  10  27  1   
 23  11  12  1   
 24  11  28  1   
 25  11  29  1   
 26  12  13  1   
 27  12  14  1   
 28  12  30  1   
 29  13  15  1   
 30  14  16  1   
 31  14  31  1   
 32  14  32  1   
 33  15  16  1   
 34  15  33  1   
 35  15  34  1   
 36  16  35  1   
 37  16  36  1   
@<TRIPOS>SUBSTRUCTURE
  1 ****   8 GROUP 4 **** **** 0

# MOE 2024.06 (io_trps.svl 2023.06)
