@<TRIPOS>MOLECULE
NONAME
39 41 1 0 0 
SMALL
USER_CHARGES


@<TRIPOS>ATOM
  1 O        3.0940     1.7210    -0.8410 O.2   1 <1>  -0.5700 
  2 C        2.1360     1.4790    -0.1510 C.2   1 <1>   0.5690 
  3 N        1.9440     0.3040     0.5020 N.am  1 <1>  -0.4930 
  4 C        1.0620     2.5440    -0.0050 C.3   1 <1>  -0.0990 
  5 C        2.6780    -0.8740     0.5400 C.2   1 <1>   0.3520 
  6 C       -0.2450     2.1740    -0.7250 C.3   1 <1>  -0.2400 
  7 N        2.0430    -1.9530     0.8270 N.2   1 <1>  -0.7070 
  8 C        4.0710    -1.0770     0.3330 C.ar  1 <1>   0.0000 
  9 N        2.9860    -2.9370     0.7920 N.pl3 1 <1>   0.3140 
 10 C        4.2300    -2.4510     0.5010 C.ar  1 <1>   0.1050 
 11 C        5.1930    -0.3260     0.0580 C.ar  1 <1>  -0.1500 
 12 C        2.6480    -4.3510     1.0520 C.3   1 <1>   0.0960 
 13 N        5.3590    -3.1370     0.4090 N.ar  1 <1>  -0.5670 
 14 C        6.4140    -0.9870    -0.0570 C.ar  1 <1>   0.0000 
 15 C        2.2420    -5.0670    -0.2420 C.3   1 <1>  -0.2400 
 16 C        6.4450    -2.3980     0.1260 C.ar  1 <1>   0.3100 
 17 C        7.6220    -0.3090    -0.3480 C.ar  1 <1>  -0.1500 
 18 C        7.6910    -3.0480     0.0050 C.ar  1 <1>  -0.1500 
 19 C        8.8100    -0.9730    -0.4570 C.ar  1 <1>  -0.1440 
 20 C        8.8400    -2.3660    -0.2760 C.ar  1 <1>  -0.1500 
 21 C       10.1060    -0.2490    -0.7690 C.3   1 <1>  -0.0970 
 22 H        1.0320     0.1670     0.9250 H     1 <1>   0.3700 
 23 H        1.4400     3.4650    -0.4130 H     1 <1>   0.0800 
 24 H        0.8710     2.7050     1.0400 H     1 <1>   0.0800 
 25 H       -0.0560     2.0180    -1.7740 H     1 <1>   0.0800 
 26 H       -0.9610     2.9700    -0.6220 H     1 <1>   0.0800 
 27 H       -0.6690     1.2750    -0.3150 H     1 <1>   0.0800 
 28 H        5.1420     0.7390    -0.0640 H     1 <1>   0.1500 
 29 H        1.8400    -4.3790     1.7600 H     1 <1>   0.0800 
 30 H        3.5050    -4.8330     1.4890 H     1 <1>   0.0800 
 31 H        1.3840    -4.5870    -0.6780 H     1 <1>   0.0800 
 32 H        1.9920    -6.0910    -0.0300 H     1 <1>   0.0800 
 33 H        3.0560    -5.0510    -0.9450 H     1 <1>   0.0800 
 34 H        7.5720     0.7570    -0.4850 H     1 <1>   0.1500 
 35 H        7.7020    -4.1130     0.1450 H     1 <1>   0.1500 
 36 H        9.7790    -2.8840    -0.3630 H     1 <1>   0.1500 
 37 H        9.9370     0.8070    -0.8840 H     1 <1>   0.0800 
 38 H       10.5280    -0.6300    -1.6820 H     1 <1>   0.0800 
 39 H       10.8110    -0.3980     0.0290 H     1 <1>   0.0800 
@<TRIPOS>BOND
  1   1   2  2   
  2   2   3  am  
  3   2   4  1   
  4   3   5  1   
  5   3  22  1   
  6   4   6  1   
  7   4  23  1   
  8   4  24  1   
  9   5   7  2   
 10   5   8  1   
 11   6  25  1   
 12   6  26  1   
 13   6  27  1   
 14   7   9  1   
 15   8  10  ar  
 16   8  11  ar  
 17   9  10  1   
 18   9  12  1   
 19  10  13  ar  
 20  11  14  ar  
 21  11  28  1   
 22  12  15  1   
 23  12  29  1   
 24  12  30  1   
 25  13  16  ar  
 26  14  16  ar  
 27  14  17  ar  
 28  15  31  1   
 29  15  32  1   
 30  15  33  1   
 31  16  18  ar  
 32  17  19  ar  
 33  17  34  1   
 34  18  20  ar  
 35  18  35  1   
 36  19  20  ar  
 37  19  21  1   
 38  20  36  1   
 39  21  37  1   
 40  21  38  1   
 41  21  39  1   
@<TRIPOS>SUBSTRUCTURE
  1 ****   8 GROUP 4 **** **** 0

# MOE 2024.06 (io_trps.svl 2023.06)
