@<TRIPOS>MOLECULE
NONAME
41 43 1 0 0 
SMALL
USER_CHARGES


@<TRIPOS>ATOM
  1 CL       0.4980    -0.4130     1.0280 Cl    1 <1>  -0.1770 
  2 C        0.7040    -2.0550     0.4770 C.ar  1 <1>   0.1770 
  3 C       -0.1950    -3.0250     0.8780 C.ar  1 <1>  -0.1500 
  4 C        1.7650    -2.3620    -0.3530 C.ar  1 <1>  -0.1500 
  5 C       -0.0270    -4.3260     0.4380 C.ar  1 <1>  -0.1500 
  6 C        1.9290    -3.6660    -0.7900 C.ar  1 <1>  -0.1500 
  7 C        1.0350    -4.6560    -0.3970 C.ar  1 <1>  -0.1430 
  8 C        1.2240    -6.0930    -0.8730 C.3   1 <1>   0.5020 
  9 N        0.1070    -6.4230    -1.7780 N.am  1 <1>  -0.7300 
 10 C        1.3400    -7.0720     0.2960 C.2   1 <1>  -0.1240 
 11 C       -0.7580    -7.4300    -1.5670 C.2   1 <1>   0.6900 
 12 C        0.4550    -8.0950     0.4150 C.2   1 <1>  -0.0290 
 13 C        2.4130    -6.7500     1.1840 C.2   1 <1>   0.6160 
 14 O       -1.7110    -7.5860    -2.2940 O.2   1 <1>  -0.5700 
 15 N       -0.5520    -8.2600    -0.5150 N.am  1 <1>  -0.5390 
 16 C        0.4590    -9.1300     1.5280 C.3   1 <1>  -0.1020 
 17 O        2.1980    -6.6040     2.3730 O.2   1 <1>  -0.5700 
 18 N        3.6990    -6.5780     0.7260 N.am  1 <1>  -0.6600 
 19 C        4.3180    -7.3960    -0.3550 C.3   1 <1>   0.1400 
 20 C        4.6950    -5.7870     1.5030 C.3   1 <1>   0.1400 
 21 C        5.2470    -6.5240    -1.2160 C.3   1 <1>   0.1200 
 22 C        5.6110    -5.0020     0.5490 C.3   1 <1>   0.1200 
 23 O        6.1760    -5.8500    -0.4150 O.3   1 <1>  -0.5600 
 24 H       -1.0120    -2.7630     1.5260 H     1 <1>   0.1500 
 25 H        2.4490    -1.5880    -0.6500 H     1 <1>   0.1500 
 26 H       -0.7240    -5.0870     0.7510 H     1 <1>   0.1500 
 27 H        2.7580    -3.9010    -1.4350 H     1 <1>   0.1500 
 28 H        2.1260    -6.1460    -1.4550 H     1 <1>   0.0800 
 29 H       -0.1790    -5.7020    -2.4370 H     1 <1>   0.3700 
 30 H       -1.2510    -8.9970    -0.4270 H     1 <1>   0.3700 
 31 H       -0.4360    -9.0350     2.1160 H     1 <1>   0.0800 
 32 H        1.3030    -9.0080     2.1830 H     1 <1>   0.0800 
 33 H        0.5000   -10.1200     1.1120 H     1 <1>   0.0800 
 34 H        3.5640    -7.8530    -0.9710 H     1 <1>   0.0800 
 35 H        4.8980    -8.1850     0.0930 H     1 <1>   0.0800 
 36 H        5.2880    -6.4530     2.1060 H     1 <1>   0.0800 
 37 H        4.1910    -5.1000     2.1610 H     1 <1>   0.0800 
 38 H        4.6830    -5.7970    -1.7730 H     1 <1>   0.0800 
 39 H        5.7970    -7.1380    -1.9070 H     1 <1>   0.0800 
 40 H        6.4160    -4.5480     1.0990 H     1 <1>   0.0800 
 41 H        5.0570    -4.2290     0.0460 H     1 <1>   0.0800 
@<TRIPOS>BOND
  1   1   2  1   
  2   2   3  ar  
  3   2   4  ar  
  4   3   5  ar  
  5   3  24  1   
  6   4   6  ar  
  7   4  25  1   
  8   5   7  ar  
  9   5  26  1   
 10   6   7  ar  
 11   6  27  1   
 12   7   8  1   
 13   8   9  1   
 14   8  10  1   
 15   8  28  1   
 16   9  11  am  
 17   9  29  1   
 18  10  12  2   
 19  10  13  1   
 20  11  14  2   
 21  11  15  am  
 22  12  15  1   
 23  12  16  1   
 24  13  17  2   
 25  13  18  am  
 26  15  30  1   
 27  16  31  1   
 28  16  32  1   
 29  16  33  1   
 30  18  19  1   
 31  18  20  1   
 32  19  21  1   
 33  19  34  1   
 34  19  35  1   
 35  20  22  1   
 36  20  36  1   
 37  20  37  1   
 38  21  23  1   
 39  21  38  1   
 40  21  39  1   
 41  22  23  1   
 42  22  40  1   
 43  22  41  1   
@<TRIPOS>SUBSTRUCTURE
  1 ****   8 GROUP 4 **** **** 0

# MOE 2024.06 (io_trps.svl 2023.06)
