@<TRIPOS>MOLECULE
NONAME
41 42 1 0 0 
SMALL
USER_CHARGES


@<TRIPOS>ATOM
  1 S        1.7990    -1.0060    -0.8720 S.o2  1 <1>   1.4470 
  2 O        3.0940    -1.6070    -1.0970 O.2   1 <1>  -0.6500 
  3 O        0.7380    -1.2880    -1.8140 O.2   1 <1>  -0.6500 
  4 N        1.3710    -1.7210     0.5870 N.am  1 <1>  -0.9140 
  5 C        1.8790     0.7930    -0.5070 C.ar  1 <1>  -0.0090 
  6 C        0.8590    -3.0800     0.4450 C.3   1 <1>   0.1960 
  7 C        3.0100     1.5670    -0.8120 C.ar  1 <1>  -0.1430 
  8 C        0.7900     1.4540     0.0820 C.ar  1 <1>  -0.1430 
  9 C       -0.6710    -3.0800     0.3850 C.3   1 <1>  -0.0160 
 10 C        3.0550     2.9160    -0.4960 C.ar  1 <1>  -0.1500 
 11 C        4.2440     1.0000    -1.5070 C.3   1 <1>  -0.0970 
 12 C        0.8570     2.8040     0.3900 C.ar  1 <1>  -0.1500 
 13 C       -0.5240     0.7520     0.4140 C.3   1 <1>  -0.0970 
 14 C       -1.1850    -4.4990     0.2160 C.ar  1 <1>  -0.1430 
 15 C        1.9870     3.5420     0.1100 C.ar  1 <1>  -0.1430 
 16 C       -1.5740    -5.2760     1.2890 C.ar  1 <1>  -0.1500 
 17 C       -1.2830    -5.0840    -1.0300 C.ar  1 <1>  -0.1500 
 18 C        2.0500     5.0200     0.4520 C.3   1 <1>  -0.0970 
 19 C       -2.0280    -6.5660     1.0690 C.ar  1 <1>   0.1600 
 20 C       -1.7500    -6.3840    -1.1400 C.ar  1 <1>   0.1600 
 21 N       -2.1230    -7.1390    -0.1200 N.ar  1 <1>  -0.6200 
 22 H        2.2780    -1.8020     1.0460 H     1 <1>   0.4200 
 23 H        1.1620    -3.6590     1.3010 H     1 <1>   0.0800 
 24 H        1.2680    -3.5530    -0.4340 H     1 <1>   0.0800 
 25 H       -1.0150    -2.4860    -0.4420 H     1 <1>   0.0800 
 26 H       -1.0650    -2.6550     1.2900 H     1 <1>   0.0800 
 27 H        3.9320     3.4960    -0.7270 H     1 <1>   0.1500 
 28 H        3.9640     0.4660    -2.3980 H     1 <1>   0.0800 
 29 H        4.7720     0.3350    -0.8470 H     1 <1>   0.0800 
 30 H        4.9220     1.7810    -1.8010 H     1 <1>   0.0800 
 31 H        0.0180     3.2950     0.8510 H     1 <1>   0.1500 
 32 H       -0.8600     0.1530    -0.4120 H     1 <1>   0.0800 
 33 H       -1.3000     1.4650     0.6250 H     1 <1>   0.0800 
 34 H       -0.4050     0.1290     1.2810 H     1 <1>   0.0800 
 35 H       -1.5300    -4.8920     2.2920 H     1 <1>   0.1500 
 36 H       -1.0000    -4.5410    -1.9140 H     1 <1>   0.1500 
 37 H        3.0610     5.3110     0.6760 H     1 <1>   0.0800 
 38 H        1.4390     5.2340     1.3100 H     1 <1>   0.0800 
 39 H        1.6970     5.6000    -0.3810 H     1 <1>   0.0800 
 40 H       -2.3280    -7.1580     1.9170 H     1 <1>   0.1500 
 41 H       -1.8200    -6.8240    -2.1200 H     1 <1>   0.1500 
@<TRIPOS>BOND
  1   1   2  2   
  2   1   3  2   
  3   1   4  am  
  4   1   5  1   
  5   4   6  1   
  6   4  22  1   
  7   5   7  ar  
  8   5   8  ar  
  9   6   9  1   
 10   6  23  1   
 11   6  24  1   
 12   7  10  ar  
 13   7  11  1   
 14   8  12  ar  
 15   8  13  1   
 16   9  14  1   
 17   9  25  1   
 18   9  26  1   
 19  10  15  ar  
 20  10  27  1   
 21  11  28  1   
 22  11  29  1   
 23  11  30  1   
 24  12  15  ar  
 25  12  31  1   
 26  13  32  1   
 27  13  33  1   
 28  13  34  1   
 29  14  16  ar  
 30  14  17  ar  
 31  15  18  1   
 32  16  19  ar  
 33  16  35  1   
 34  17  20  ar  
 35  17  36  1   
 36  18  37  1   
 37  18  38  1   
 38  18  39  1   
 39  19  21  ar  
 40  19  40  1   
 41  20  21  ar  
 42  20  41  1   
@<TRIPOS>SUBSTRUCTURE
  1 ****   4 GROUP 4 **** **** 0

# MOE 2024.06 (io_trps.svl 2023.06)
