@<TRIPOS>MOLECULE
NONAME
47 48 1 0 0 
SMALL
USER_CHARGES


@<TRIPOS>ATOM
  1 F       -1.1170     1.0290    -0.0270 F     1 <1>  -0.1900 
  2 C       -0.6430     2.2410    -0.1580 C.ar  1 <1>   0.1900 
  3 C       -1.3450     3.1540    -0.9300 C.ar  1 <1>  -0.1440 
  4 C        0.5330     2.5620     0.4920 C.ar  1 <1>  -0.1500 
  5 C       -0.8340     4.4390    -1.0470 C.ar  1 <1>  -0.1500 
  6 C       -2.6310     2.7500    -1.6220 C.3   1 <1>   0.4870 
  7 C        1.0270     3.8480     0.3670 C.ar  1 <1>  -0.1500 
  8 C        0.3440     4.7810    -0.3990 C.ar  1 <1>  -0.1500 
  9 N       -3.6570     2.4220    -0.5960 N.4   1 <1>  -0.9590 
 10 C       -4.8680     1.8120    -1.2310 C.3   1 <1>   0.3430 
 11 C       -3.9980     3.6050     0.2480 C.3   1 <1>   0.3430 
 12 C       -5.8970     1.3780    -0.1800 C.3   1 <1>  -0.0190 
 13 C       -4.9840     3.1900     1.3420 C.3   1 <1>  -0.1600 
 14 C       -7.1320     0.8620    -0.9120 C.2   1 <1>   0.5690 
 15 C       -6.2520     2.5530     0.7530 C.3   1 <1>  -0.1600 
 16 O       -7.3630     1.3610    -1.9890 O.2   1 <1>  -0.5700 
 17 N       -7.9340    -0.1160    -0.3790 N.am  1 <1>  -0.6600 
 18 C       -7.7420    -0.7630     0.9480 C.3   1 <1>   0.1400 
 19 C       -9.1340    -0.5860    -1.1270 C.3   1 <1>   0.1400 
 20 C       -6.9290    -2.0450     0.7810 C.3   1 <1>  -0.2400 
 21 C      -10.3520     0.2320    -0.7040 C.3   1 <1>  -0.2400 
 22 H        1.0510     1.8240     1.0810 H     1 <1>   0.1500 
 23 H       -1.3360     5.1860    -1.6400 H     1 <1>   0.1500 
 24 H       -2.4400     1.8880    -2.2400 H     1 <1>   0.0800 
 25 H       -2.9790     3.5520    -2.2530 H     1 <1>   0.0800 
 26 H        1.9430     4.1250     0.8630 H     1 <1>   0.1500 
 27 H        0.7400     5.7790    -0.4930 H     1 <1>   0.1500 
 28 H       -3.2200     1.7190     0.0180 H     1 <1>   0.4500 
 29 H       -4.5880     0.9550    -1.8220 H     1 <1>   0.0800 
 30 H       -5.3290     2.5310    -1.8900 H     1 <1>   0.0800 
 31 H       -4.4430     4.3740    -0.3630 H     1 <1>   0.0800 
 32 H       -3.1060     4.0070     0.7040 H     1 <1>   0.0800 
 33 H       -5.4640     0.5770     0.3870 H     1 <1>   0.0800 
 34 H       -5.2580     4.0610     1.9130 H     1 <1>   0.0800 
 35 H       -4.5030     2.5030     2.0160 H     1 <1>   0.0800 
 36 H       -6.8940     2.2140     1.5480 H     1 <1>   0.0800 
 37 H       -6.7980     3.2970     0.1940 H     1 <1>   0.0800 
 38 H       -8.7020    -0.9970     1.3780 H     1 <1>   0.0800 
 39 H       -7.2430    -0.0950     1.6270 H     1 <1>   0.0800 
 40 H       -9.3040    -1.6310    -0.9320 H     1 <1>   0.0800 
 41 H       -8.9750    -0.4720    -2.1870 H     1 <1>   0.0800 
 42 H       -7.4520    -2.7410     0.1500 H     1 <1>   0.0800 
 43 H       -6.7830    -2.5070     1.7410 H     1 <1>   0.0800 
 44 H       -5.9660    -1.8350     0.3540 H     1 <1>   0.0800 
 45 H      -10.5510     0.1090     0.3450 H     1 <1>   0.0800 
 46 H      -11.2140    -0.0970    -1.2550 H     1 <1>   0.0800 
 47 H      -10.1890     1.2730    -0.9200 H     1 <1>   0.0800 
@<TRIPOS>BOND
  1   1   2  1   
  2   2   3  ar  
  3   2   4  ar  
  4   3   5  ar  
  5   3   6  1   
  6   4   7  ar  
  7   4  22  1   
  8   5   8  ar  
  9   5  23  1   
 10   6   9  1   
 11   6  24  1   
 12   6  25  1   
 13   7   8  ar  
 14   7  26  1   
 15   8  27  1   
 16   9  10  1   
 17   9  11  1   
 18   9  28  1   
 19  10  12  1   
 20  10  29  1   
 21  10  30  1   
 22  11  13  1   
 23  11  31  1   
 24  11  32  1   
 25  12  14  1   
 26  12  15  1   
 27  12  33  1   
 28  13  15  1   
 29  13  34  1   
 30  13  35  1   
 31  14  16  2   
 32  14  17  am  
 33  15  36  1   
 34  15  37  1   
 35  17  18  1   
 36  17  19  1   
 37  18  20  1   
 38  18  38  1   
 39  18  39  1   
 40  19  21  1   
 41  19  40  1   
 42  19  41  1   
 43  20  42  1   
 44  20  43  1   
 45  20  44  1   
 46  21  45  1   
 47  21  46  1   
 48  21  47  1   
@<TRIPOS>SUBSTRUCTURE
  1 ****   9 GROUP 4 **** **** 0

# MOE 2024.06 (io_trps.svl 2023.06)
