@<TRIPOS>MOLECULE
NONAME
41 43 1 0 0 
SMALL
USER_CHARGES


@<TRIPOS>ATOM
  1 CL       0.6480     0.5940     1.6340 Cl    1 <1>  -0.1770 
  2 C        2.2930     0.4040     1.0900 C.ar  1 <1>   0.1770 
  3 C        3.2680     1.2660     1.5540 C.ar  1 <1>  -0.1500 
  4 C        2.6040    -0.6050     0.2000 C.ar  1 <1>  -0.1500 
  5 C        4.5730     1.1110     1.1190 C.ar  1 <1>  -0.1500 
  6 C        3.9120    -0.7510    -0.2280 C.ar  1 <1>  -0.1500 
  7 C        4.9270     0.1000     0.2190 C.ar  1 <1>   0.0530 
  8 C        6.2900    -0.0650    -0.2390 C.2   1 <1>   0.4250 
  9 O        7.2380     0.7290     0.1770 O.3   1 <1>  -0.2800 
 10 N        6.7570    -0.9500    -1.0640 N.2   1 <1>  -0.3380 
 11 C        8.2800     0.2850    -0.4290 C.2   1 <1>   0.5340 
 12 N        8.0630    -0.7170    -1.1860 N.2   1 <1>  -0.3380 
 13 S        9.8510     1.0870    -0.1540 S.3   1 <1>  -0.2860 
 14 C       11.0070     0.1000    -1.2270 C.3   1 <1>   0.1310 
 15 C       12.4380     0.6120    -1.1540 C.2   1 <1>   0.5690 
 16 O       13.2740     0.0460    -1.8140 O.2   1 <1>  -0.5700 
 17 N       12.7450     1.6750    -0.3650 N.am  1 <1>  -0.7300 
 18 C       14.0810     2.2690    -0.2040 C.3   1 <1>   0.2200 
 19 C       14.4950     2.1620     1.2670 C.3   1 <1>  -0.1600 
 20 C       14.0320     3.7290    -0.6640 C.3   1 <1>  -0.1600 
 21 C       15.8380     2.8640     1.5180 C.3   1 <1>  -0.1600 
 22 C       15.3740     4.4340    -0.4170 C.3   1 <1>  -0.1600 
 23 C       15.7940     4.3270     1.0560 C.3   1 <1>  -0.1600 
 24 H        3.0030     2.0450     2.2470 H     1 <1>   0.1500 
 25 H        1.8300    -1.2650    -0.1490 H     1 <1>   0.1500 
 26 H        5.3260     1.7870     1.4860 H     1 <1>   0.1500 
 27 H        4.1500    -1.5400    -0.9220 H     1 <1>   0.1500 
 28 H       10.6430     0.1650    -2.2350 H     1 <1>   0.0800 
 29 H       10.9630    -0.9200    -0.8910 H     1 <1>   0.0800 
 30 H       12.0000     2.1210     0.1750 H     1 <1>   0.3700 
 31 H       14.7930     1.7320    -0.8100 H     1 <1>   0.0800 
 32 H       14.5820     1.1230     1.5360 H     1 <1>   0.0800 
 33 H       13.7430     2.6150     1.8890 H     1 <1>   0.0800 
 34 H       13.2590     4.2510    -0.1280 H     1 <1>   0.0800 
 35 H       13.8020     3.7620    -1.7150 H     1 <1>   0.0800 
 36 H       16.6160     2.3450     0.9840 H     1 <1>   0.0800 
 37 H       16.0770     2.8230     2.5670 H     1 <1>   0.0800 
 38 H       15.2940     5.4710    -0.6950 H     1 <1>   0.0800 
 39 H       16.1320     3.9840    -1.0360 H     1 <1>   0.0800 
 40 H       16.7640     4.7750     1.1870 H     1 <1>   0.0800 
 41 H       15.0950     4.8730     1.6660 H     1 <1>   0.0800 
@<TRIPOS>BOND
  1   1   2  1   
  2   2   3  ar  
  3   2   4  ar  
  4   3   5  ar  
  5   3  24  1   
  6   4   6  ar  
  7   4  25  1   
  8   5   7  ar  
  9   5  26  1   
 10   6   7  ar  
 11   6  27  1   
 12   7   8  1   
 13   8   9  1   
 14   8  10  2   
 15   9  11  1   
 16  10  12  1   
 17  11  12  2   
 18  11  13  1   
 19  13  14  1   
 20  14  15  1   
 21  14  28  1   
 22  14  29  1   
 23  15  16  2   
 24  15  17  am  
 25  17  18  1   
 26  17  30  1   
 27  18  19  1   
 28  18  20  1   
 29  18  31  1   
 30  19  21  1   
 31  19  32  1   
 32  19  33  1   
 33  20  22  1   
 34  20  34  1   
 35  20  35  1   
 36  21  23  1   
 37  21  36  1   
 38  21  37  1   
 39  22  23  1   
 40  22  38  1   
 41  22  39  1   
 42  23  40  1   
 43  23  41  1   
@<TRIPOS>SUBSTRUCTURE
  1 ****  13 GROUP 4 **** **** 0

# MOE 2024.06 (io_trps.svl 2023.06)
