@<TRIPOS>MOLECULE
NONAME
52 52 1 0 0 
SMALL
USER_CHARGES


@<TRIPOS>ATOM
  1 S       -0.2330    -0.2250     1.3010 S.o2  1 <1>   1.3330 
  2 O        1.1740    -0.5280     1.2110 O.2   1 <1>  -0.6500 
  3 O       -0.9010    -0.2230     2.5800 O.2   1 <1>  -0.6500 
  4 N       -1.0600    -1.3590     0.2920 N.am  1 <1>  -0.6930 
  5 C       -0.5270     1.3160     0.4600 C.3   1 <1>  -0.1350 
  6 C       -2.4300    -1.2440     0.1130 C.ar  1 <1>   0.1990 
  7 C       -0.4810    -2.7170     0.3510 C.3   1 <1>   0.3340 
  8 C       -3.3280    -1.5030     1.1420 C.ar  1 <1>  -0.1500 
  9 C       -2.9410    -0.8600    -1.1200 C.ar  1 <1>  -0.1500 
 10 C       -1.0870    -3.6030    -0.7240 C.2   1 <1>  -0.2880 
 11 C       -4.6890    -1.3730     0.9470 C.ar  1 <1>  -0.1500 
 12 C       -4.3030    -0.7290    -1.3130 C.ar  1 <1>  -0.1500 
 13 C       -1.7950    -4.7170    -0.5080 C.2   1 <1>  -0.3000 
 14 C       -5.2170    -0.9730    -0.2850 C.ar  1 <1>   0.0860 
 15 C       -6.6420    -0.8130    -0.5010 C.2   1 <1>   0.5440 
 16 O       -7.1070    -0.9490    -1.6150 O.2   1 <1>  -0.5700 
 17 N       -7.4630    -0.4820     0.5460 N.am  1 <1>  -0.7300 
 18 C       -8.9440    -0.3040     0.5830 C.3   1 <1>   0.2200 
 19 C       -9.6160    -1.7080     0.6730 C.3   1 <1>  -0.0800 
 20 C       -9.4440     0.6970    -0.5040 C.3   1 <1>  -0.0800 
 21 C       -9.9770    -2.3570    -0.6750 C.3   1 <1>  -0.2400 
 22 C      -10.8430    -1.7200     1.6010 C.3   1 <1>  -0.2400 
 23 C       -8.6360     2.0090    -0.4910 C.3   1 <1>  -0.2400 
 24 C      -10.9280     1.0700    -0.3410 C.3   1 <1>  -0.2400 
 25 H       -0.0380     2.1160     0.9800 H     1 <1>   0.0800 
 26 H       -1.5780     1.5230     0.4220 H     1 <1>   0.0800 
 27 H       -0.1440     1.2690    -0.5400 H     1 <1>   0.0800 
 28 H       -0.6600    -3.1370     1.3260 H     1 <1>   0.0800 
 29 H        0.5840    -2.6700     0.1950 H     1 <1>   0.0800 
 30 H       -2.9480    -1.8080     2.1010 H     1 <1>   0.1500 
 31 H       -2.2600    -0.6710    -1.9300 H     1 <1>   0.1500 
 32 H       -0.8860    -3.2290    -1.7120 H     1 <1>   0.1500 
 33 H       -5.3530    -1.5950     1.7630 H     1 <1>   0.1500 
 34 H       -4.6790    -0.4340    -2.2780 H     1 <1>   0.1500 
 35 H       -2.2150    -5.3220    -1.2940 H     1 <1>   0.1500 
 36 H       -2.0180    -5.1170     0.4660 H     1 <1>   0.1500 
 37 H       -7.0160    -0.2730     1.4360 H     1 <1>   0.3700 
 38 H       -9.1410     0.1800     1.5240 H     1 <1>   0.0800 
 39 H       -8.9010    -2.3630     1.1440 H     1 <1>   0.0800 
 40 H       -9.3280     0.2450    -1.4740 H     1 <1>   0.0800 
 41 H      -10.7250    -1.7920    -1.1980 H     1 <1>   0.0800 
 42 H      -10.3530    -3.3510    -0.5190 H     1 <1>   0.0800 
 43 H       -9.1070    -2.4300    -1.3010 H     1 <1>   0.0800 
 44 H      -11.6560    -1.1510     1.1950 H     1 <1>   0.0800 
 45 H      -10.5890    -1.3170     2.5650 H     1 <1>   0.0800 
 46 H      -11.1840    -2.7300     1.7440 H     1 <1>   0.0800 
 47 H       -8.6860     2.4770     0.4760 H     1 <1>   0.0800 
 48 H       -9.0190     2.6940    -1.2260 H     1 <1>   0.0800 
 49 H       -7.6050     1.8250    -0.7330 H     1 <1>   0.0800 
 50 H      -11.1220     1.4350     0.6520 H     1 <1>   0.0800 
 51 H      -11.5610     0.2260    -0.5350 H     1 <1>   0.0800 
 52 H      -11.2000     1.8360    -1.0450 H     1 <1>   0.0800 
@<TRIPOS>BOND
  1   1   2  2   
  2   1   3  2   
  3   1   4  am  
  4   1   5  1   
  5   4   6  1   
  6   4   7  1   
  7   5  25  1   
  8   5  26  1   
  9   5  27  1   
 10   6   8  ar  
 11   6   9  ar  
 12   7  10  1   
 13   7  28  1   
 14   7  29  1   
 15   8  11  ar  
 16   8  30  1   
 17   9  12  ar  
 18   9  31  1   
 19  10  13  2   
 20  10  32  1   
 21  11  14  ar  
 22  11  33  1   
 23  12  14  ar  
 24  12  34  1   
 25  13  35  1   
 26  13  36  1   
 27  14  15  1   
 28  15  16  2   
 29  15  17  am  
 30  17  18  1   
 31  17  37  1   
 32  18  19  1   
 33  18  20  1   
 34  18  38  1   
 35  19  21  1   
 36  19  22  1   
 37  19  39  1   
 38  20  23  1   
 39  20  24  1   
 40  20  40  1   
 41  21  41  1   
 42  21  42  1   
 43  21  43  1   
 44  22  44  1   
 45  22  45  1   
 46  22  46  1   
 47  23  47  1   
 48  23  48  1   
 49  23  49  1   
 50  24  50  1   
 51  24  51  1   
 52  24  52  1   
@<TRIPOS>SUBSTRUCTURE
  1 ****  14 GROUP 4 **** **** 0

# MOE 2024.06 (io_trps.svl 2023.06)
