@<TRIPOS>MOLECULE
NONAME
39 41 1 0 0 
SMALL
USER_CHARGES


@<TRIPOS>ATOM
  1 BR       0.7950     0.2270     2.4010 Br    1 <1>  -0.1110 
  2 C        0.4650     1.8700     1.4480 C.ar  1 <1>   0.1110 
  3 C        1.5310     2.5580     0.8910 C.ar  1 <1>   0.1170 
  4 C       -0.8310     2.3330     1.3330 C.ar  1 <1>  -0.1500 
  5 N        2.8740     2.2170     0.8860 N.am  1 <1>  -0.5470 
  6 C        1.3080     3.7430     0.2070 C.ar  1 <1>  -0.1430 
  7 C       -1.0610     3.5110     0.6360 C.ar  1 <1>  -0.1430 
  8 C        3.5860     3.1220     0.1760 C.2   1 <1>   0.5690 
  9 C        0.0050     4.2070     0.0760 C.ar  1 <1>  -0.1500 
 10 C        2.6550     4.3030    -0.2890 C.3   1 <1>   0.7550 
 11 C       -2.4720     4.0500     0.4800 C.3   1 <1>  -0.0960 
 12 O        4.7650     2.9870    -0.0790 O.2   1 <1>  -0.5700 
 13 O        2.6960     4.3520    -1.6690 O.3   1 <1>  -0.6800 
 14 N        2.9460     5.6920     0.2550 N.3   1 <1>  -0.8100 
 15 C        2.8070     6.8740    -0.6580 C.3   1 <1>   0.1900 
 16 C        4.2310     5.7090     1.0000 C.3   1 <1>   0.1100 
 17 C        3.1130     8.1970     0.0720 C.3   1 <1>  -0.1600 
 18 C        1.3940     7.0370    -1.2310 C.3   1 <1>  -0.2400 
 19 C        4.4690     7.0140     1.7550 C.3   1 <1>  -0.1600 
 20 C        4.4560     8.1930     0.7930 C.3   1 <1>  -0.1600 
 21 H       -1.6390     1.7800     1.7770 H     1 <1>   0.1500 
 22 H        3.2700     1.3410     1.2290 H     1 <1>   0.3700 
 23 H       -0.1960     5.1090    -0.4640 H     1 <1>   0.1500 
 24 H       -3.1990     3.3120     0.7670 H     1 <1>   0.0800 
 25 H       -2.6510     4.3240    -0.5450 H     1 <1>   0.0800 
 26 H       -2.5990     4.9200     1.0990 H     1 <1>   0.0800 
 27 H        3.6250     4.5220    -1.9010 H     1 <1>   0.4000 
 28 H        3.5080     6.7720    -1.4700 H     1 <1>   0.0800 
 29 H        5.0480     5.5430     0.3170 H     1 <1>   0.0800 
 30 H        4.2370     4.9260     1.7400 H     1 <1>   0.0800 
 31 H        2.3340     8.3900     0.7900 H     1 <1>   0.0800 
 32 H        3.1050     9.0060    -0.6380 H     1 <1>   0.0800 
 33 H        0.6820     7.1310    -0.4320 H     1 <1>   0.0800 
 34 H        1.1220     6.2250    -1.8760 H     1 <1>   0.0800 
 35 H        1.3450     7.9300    -1.8260 H     1 <1>   0.0800 
 36 H        5.4190     6.9670     2.2560 H     1 <1>   0.0800 
 37 H        3.7050     7.1340     2.5040 H     1 <1>   0.0800 
 38 H        4.5880     9.1140     1.3340 H     1 <1>   0.0800 
 39 H        5.2570     8.0970     0.0800 H     1 <1>   0.0800 
@<TRIPOS>BOND
  1   1   2  1   
  2   2   3  ar  
  3   2   4  ar  
  4   3   5  1   
  5   3   6  ar  
  6   4   7  ar  
  7   4  21  1   
  8   5   8  am  
  9   5  22  1   
 10   6   9  ar  
 11   6  10  1   
 12   7   9  ar  
 13   7  11  1   
 14   8  10  1   
 15   8  12  2   
 16   9  23  1   
 17  10  13  1   
 18  10  14  1   
 19  11  24  1   
 20  11  25  1   
 21  11  26  1   
 22  13  27  1   
 23  14  15  1   
 24  14  16  1   
 25  15  17  1   
 26  15  18  1   
 27  15  28  1   
 28  16  19  1   
 29  16  29  1   
 30  16  30  1   
 31  17  20  1   
 32  17  31  1   
 33  17  32  1   
 34  18  33  1   
 35  18  34  1   
 36  18  35  1   
 37  19  20  1   
 38  19  36  1   
 39  19  37  1   
 40  20  38  1   
 41  20  39  1   
@<TRIPOS>SUBSTRUCTURE
  1 ****   6 GROUP 4 **** **** 0

# MOE 2024.06 (io_trps.svl 2023.06)
