@<TRIPOS>MOLECULE
NONAME
41 42 1 0 0 
SMALL
USER_CHARGES


@<TRIPOS>ATOM
  1 O        0.8120    -1.5300     1.9350 O.2   1 <1>  -0.5700 
  2 C        0.8320    -1.7390     0.7410 C.2   1 <1>   0.6900 
  3 N        1.6830    -1.0920    -0.0840 N.am  1 <1>  -0.7300 
  4 N       -0.0180    -2.6430     0.2290 N.am  1 <1>  -0.7300 
  5 C        2.6380    -0.0570     0.3350 C.3   1 <1>   0.2200 
  6 C        0.3500    -3.6210    -0.8040 C.3   1 <1>   0.2840 
  7 C        2.1250     1.3100    -0.1300 C.3   1 <1>  -0.1600 
  8 C        4.0080    -0.3730    -0.2740 C.3   1 <1>  -0.1600 
  9 C       -0.2800    -4.9540    -0.4430 C.ar  1 <1>  -0.1430 
 10 C        3.1390     2.4200     0.1870 C.3   1 <1>  -0.1600 
 11 C        5.0250     0.7340     0.0430 C.3   1 <1>  -0.1600 
 12 C        0.2480    -5.7120     0.5910 C.ar  1 <1>  -0.1500 
 13 C       -1.3850    -5.4250    -1.1350 C.ar  1 <1>  -0.1500 
 14 C        4.5140     2.1050    -0.4180 C.3   1 <1>  -0.1600 
 15 C       -0.3200    -6.9290     0.9230 C.ar  1 <1>  -0.1500 
 16 C       -1.9550    -6.6430    -0.8050 C.ar  1 <1>  -0.1500 
 17 C       -1.4210    -7.4050     0.2300 C.ar  1 <1>   0.0830 
 18 O       -1.9150    -8.6070     0.6170 O.3   1 <1>  -0.3630 
 19 C       -3.0350    -9.1800    -0.0200 C.3   1 <1>   0.0400 
 20 H        1.4880    -1.1340    -1.0790 H     1 <1>   0.3700 
 21 H       -0.6360    -3.0430     0.9350 H     1 <1>   0.3700 
 22 H        2.7240    -0.0550     1.4100 H     1 <1>   0.0800 
 23 H        1.4210    -3.7250    -0.8500 H     1 <1>   0.0800 
 24 H       -0.0070    -3.2820    -1.7600 H     1 <1>   0.0800 
 25 H        1.1960     1.5260     0.3680 H     1 <1>   0.0800 
 26 H        1.9490     1.2900    -1.1900 H     1 <1>   0.0800 
 27 H        3.9160    -0.4680    -1.3410 H     1 <1>   0.0800 
 28 H        4.3650    -1.3070     0.1240 H     1 <1>   0.0800 
 29 H        3.2340     2.5190     1.2550 H     1 <1>   0.0800 
 30 H        2.7800     3.3580    -0.2000 H     1 <1>   0.0800 
 31 H        5.9610     0.5150    -0.4430 H     1 <1>   0.0800 
 32 H        5.2040     0.7590     1.1050 H     1 <1>   0.0800 
 33 H        1.1010    -5.3560     1.1440 H     1 <1>   0.1500 
 34 H       -1.8110    -4.8440    -1.9360 H     1 <1>   0.1500 
 35 H        5.2170     2.8680    -0.1280 H     1 <1>   0.0800 
 36 H        4.4420     2.1170    -1.4920 H     1 <1>   0.0800 
 37 H        0.0880    -7.5190     1.7240 H     1 <1>   0.1500 
 38 H       -2.8090    -6.9800    -1.3600 H     1 <1>   0.1500 
 39 H       -3.2430   -10.1220     0.4540 H     1 <1>   0.0800 
 40 H       -2.8040    -9.3360    -1.0590 H     1 <1>   0.0800 
 41 H       -3.8770    -8.5200     0.0940 H     1 <1>   0.0800 
@<TRIPOS>BOND
  1   1   2  2   
  2   2   3  am  
  3   2   4  am  
  4   3   5  1   
  5   3  20  1   
  6   4   6  1   
  7   4  21  1   
  8   5   7  1   
  9   5   8  1   
 10   5  22  1   
 11   6   9  1   
 12   6  23  1   
 13   6  24  1   
 14   7  10  1   
 15   7  25  1   
 16   7  26  1   
 17   8  11  1   
 18   8  27  1   
 19   8  28  1   
 20   9  12  ar  
 21   9  13  ar  
 22  10  14  1   
 23  10  29  1   
 24  10  30  1   
 25  11  14  1   
 26  11  31  1   
 27  11  32  1   
 28  12  15  ar  
 29  12  33  1   
 30  13  16  ar  
 31  13  34  1   
 32  14  35  1   
 33  14  36  1   
 34  15  17  ar  
 35  15  37  1   
 36  16  17  ar  
 37  16  38  1   
 38  17  18  1   
 39  18  19  1   
 40  19  39  1   
 41  19  40  1   
 42  19  41  1   
@<TRIPOS>SUBSTRUCTURE
  1 ****   4 GROUP 4 **** **** 0

# MOE 2024.06 (io_trps.svl 2023.06)
