@<TRIPOS>MOLECULE
NONAME
25 25 1 0 0 
SMALL
USER_CHARGES


@<TRIPOS>ATOM
  1 I       -0.3150     0.2140     0.2450 I     1 <1>  -0.0810 
  2 C        1.5180    -0.8450     0.0730 C.ar  1 <1>   0.0810 
  3 C        2.7010    -0.1320     0.0600 C.ar  1 <1>  -0.1500 
  4 C        1.4860    -2.2230    -0.0250 C.ar  1 <1>  -0.1500 
  5 C        3.8900    -0.8310    -0.0520 C.ar  1 <1>  -0.1500 
  6 C        2.6870    -2.9010    -0.1340 C.ar  1 <1>  -0.1500 
  7 C        3.9130    -2.2290    -0.1440 C.ar  1 <1>   0.0860 
  8 C        5.1600    -2.9670    -0.2480 C.2   1 <1>   0.5440 
  9 O        5.2010    -4.0370    -0.8220 O.2   1 <1>  -0.5700 
 10 N        6.3080    -2.4810     0.3160 N.am  1 <1>  -0.7300 
 11 C        7.6340    -3.1300     0.2500 C.3   1 <1>   0.1400 
 12 C        8.6970    -2.0650    -0.0190 C.3   1 <1>  -0.1600 
 13 C       10.0970    -2.6840    -0.0970 C.3   1 <1>  -0.2400 
 14 H        2.6930     0.9410     0.1310 H     1 <1>   0.1500 
 15 H        0.5500    -2.7530    -0.0170 H     1 <1>   0.1500 
 16 H        4.8160    -0.2830    -0.0780 H     1 <1>   0.1500 
 17 H        2.6850    -3.9760    -0.2150 H     1 <1>   0.1500 
 18 H        6.2540    -1.6590     0.9170 H     1 <1>   0.3700 
 19 H        7.6440    -3.8660    -0.5380 H     1 <1>   0.0800 
 20 H        7.8310    -3.6290     1.1830 H     1 <1>   0.0800 
 21 H        8.6810    -1.3320     0.7680 H     1 <1>   0.0800 
 22 H        8.4780    -1.5760    -0.9530 H     1 <1>   0.0800 
 23 H       10.3480    -3.1690     0.8300 H     1 <1>   0.0800 
 24 H       10.8280    -1.9190    -0.2920 H     1 <1>   0.0800 
 25 H       10.1430    -3.4090    -0.8910 H     1 <1>   0.0800 
@<TRIPOS>BOND
  1   1   2  1   
  2   2   3  ar  
  3   2   4  ar  
  4   3   5  ar  
  5   3  14  1   
  6   4   6  ar  
  7   4  15  1   
  8   5   7  ar  
  9   5  16  1   
 10   6   7  ar  
 11   6  17  1   
 12   7   8  1   
 13   8   9  2   
 14   8  10  am  
 15  10  11  1   
 16  10  18  1   
 17  11  12  1   
 18  11  19  1   
 19  11  20  1   
 20  12  13  1   
 21  12  21  1   
 22  12  22  1   
 23  13  23  1   
 24  13  24  1   
 25  13  25  1   
@<TRIPOS>SUBSTRUCTURE
  1 ****   7 GROUP 4 **** **** 0

# MOE 2024.06 (io_trps.svl 2023.06)
