@<TRIPOS>MOLECULE
NONAME
40 42 1 0 0 
SMALL
USER_CHARGES


@<TRIPOS>ATOM
  1 O       -0.2820    -0.3810    -0.1550 O.2   1 <1>  -0.5700 
  2 C       -0.2660    -1.6080    -0.2110 C.2   1 <1>   0.4690 
  3 C       -1.4960    -2.3490    -0.3340 C.ar  1 <1>   0.0860 
  4 C        0.9660    -2.3300    -0.1530 C.2   1 <1>  -0.1240 
  5 C       -1.4390    -3.7510    -0.3800 C.ar  1 <1>   0.1000 
  6 C       -2.7530    -1.7370    -0.4100 C.ar  1 <1>  -0.1500 
  7 C        0.9690    -3.6890    -0.1880 C.2   1 <1>  -0.0380 
  8 C        2.2620    -1.5250    -0.0430 C.3   1 <1>  -0.0220 
  9 N       -0.2070    -4.3840    -0.3050 N.pl3 1 <1>  -0.6000 
 10 C       -2.6130    -4.4940    -0.5000 C.ar  1 <1>  -0.1500 
 11 C       -3.9070    -2.4810    -0.5280 C.ar  1 <1>  -0.1500 
 12 C        2.2370    -4.5210    -0.1070 C.3   1 <1>  -0.0220 
 13 C        3.5390    -2.3510    -0.3310 C.3   1 <1>  -0.0800 
 14 C       -3.8370    -3.8670    -0.5730 C.ar  1 <1>  -0.1500 
 15 C        3.4300    -3.7050     0.4050 C.3   1 <1>  -0.1600 
 16 C        4.8710    -1.5770    -0.0520 C.3   1 <1>   0.0000 
 17 C        6.0740    -2.3640    -0.6060 C.3   1 <1>  -0.2400 
 18 C        4.8680    -0.2110    -0.7620 C.3   1 <1>  -0.2400 
 19 C        5.1150    -1.3330     1.4480 C.3   1 <1>  -0.2400 
 20 H       -2.8060    -0.6620    -0.3750 H     1 <1>   0.1500 
 21 H        2.3000    -1.1050     0.9450 H     1 <1>   0.0800 
 22 H        2.2070    -0.7110    -0.7430 H     1 <1>   0.0800 
 23 H       -0.1890    -5.4080    -0.3370 H     1 <1>   0.4000 
 24 H       -2.5570    -5.5660    -0.5350 H     1 <1>   0.1500 
 25 H       -4.8650    -1.9920    -0.5860 H     1 <1>   0.1500 
 26 H        2.4580    -4.9050    -1.0880 H     1 <1>   0.0800 
 27 H        2.0820    -5.3570     0.5520 H     1 <1>   0.0800 
 28 H        3.5230    -2.5680    -1.3860 H     1 <1>   0.0800 
 29 H       -4.7410    -4.4440    -0.6660 H     1 <1>   0.1500 
 30 H        4.3170    -4.2950     0.2740 H     1 <1>   0.0800 
 31 H        3.2990    -3.5300     1.4590 H     1 <1>   0.0800 
 32 H        6.9780    -1.7870    -0.5160 H     1 <1>   0.0800 
 33 H        5.9280    -2.5940    -1.6470 H     1 <1>   0.0800 
 34 H        6.2280    -3.2820    -0.0700 H     1 <1>   0.0800 
 35 H        4.6490    -0.3290    -1.8090 H     1 <1>   0.0800 
 36 H        5.8280     0.2680    -0.6720 H     1 <1>   0.0800 
 37 H        4.1390     0.4520    -0.3320 H     1 <1>   0.0800 
 38 H        5.2010    -2.2610     1.9840 H     1 <1>   0.0800 
 39 H        4.3190    -0.7590     1.8850 H     1 <1>   0.0800 
 40 H        6.0310    -0.7860     1.5930 H     1 <1>   0.0800 
@<TRIPOS>BOND
  1   1   2  2   
  2   2   3  1   
  3   2   4  1   
  4   3   5  ar  
  5   3   6  ar  
  6   4   7  2   
  7   4   8  1   
  8   5   9  1   
  9   5  10  ar  
 10   6  11  ar  
 11   6  20  1   
 12   7   9  1   
 13   7  12  1   
 14   8  13  1   
 15   8  21  1   
 16   8  22  1   
 17   9  23  1   
 18  10  14  ar  
 19  10  24  1   
 20  11  14  ar  
 21  11  25  1   
 22  12  15  1   
 23  12  26  1   
 24  12  27  1   
 25  13  15  1   
 26  13  16  1   
 27  13  28  1   
 28  14  29  1   
 29  15  30  1   
 30  15  31  1   
 31  16  17  1   
 32  16  18  1   
 33  16  19  1   
 34  17  32  1   
 35  17  33  1   
 36  17  34  1   
 37  18  35  1   
 38  18  36  1   
 39  18  37  1   
 40  19  38  1   
 41  19  39  1   
 42  19  40  1   
@<TRIPOS>SUBSTRUCTURE
  1 ****   4 GROUP 4 **** **** 0

# MOE 2024.06 (io_trps.svl 2023.06)
