@<TRIPOS>MOLECULE
NONAME
54 56 1 0 0 
SMALL
USER_CHARGES


@<TRIPOS>ATOM
  1 O        0.2260    -1.2580     0.9960 O.3   1 <1>  -0.3630 
  2 C       -0.8020    -1.2550     0.0890 C.ar  1 <1>   0.0830 
  3 C        0.3250    -0.2560     1.9840 C.3   1 <1>   0.1200 
  4 C       -0.8210    -2.2480    -0.9080 C.ar  1 <1>   0.1000 
  5 C       -1.8190    -0.3040     0.1280 C.ar  1 <1>  -0.1500 
  6 C        1.5890    -0.5170     2.8000 C.3   1 <1>  -0.2400 
  7 N        0.1490    -3.2540    -1.0370 N.pl3 1 <1>  -0.8380 
  8 C       -1.8570    -2.2500    -1.8300 C.ar  1 <1>  -0.1500 
  9 C       -2.8420    -0.3280    -0.8040 C.ar  1 <1>  -0.1500 
 10 C        1.4930    -2.8350    -1.5360 C.3   1 <1>   0.2090 
 11 C        0.1220    -4.3470    -0.0200 C.3   1 <1>   0.2090 
 12 C       -2.8610    -1.3020    -1.7840 C.ar  1 <1>  -0.1500 
 13 C        2.5290    -2.6940    -0.4020 C.3   1 <1>   0.3430 
 14 C        1.1910    -4.1600     1.0760 C.3   1 <1>   0.3430 
 15 N        2.5630    -3.8910     0.5170 N.4   1 <1>  -0.9590 
 16 C        3.5680    -3.7180     1.5960 C.3   1 <1>   0.4860 
 17 C        4.9410    -3.6130     0.9640 C.ar  1 <1>  -0.1430 
 18 C        5.5460    -4.7340     0.4160 C.ar  1 <1>  -0.1500 
 19 C        5.6000    -2.3930     0.9210 C.ar  1 <1>  -0.1500 
 20 C        6.7910    -4.6440    -0.1840 C.ar  1 <1>  -0.1430 
 21 C        6.8440    -2.2940     0.3260 C.ar  1 <1>  -0.1500 
 22 C        7.4470    -3.4170    -0.2330 C.ar  1 <1>   0.0830 
 23 C        7.4400    -5.8860    -0.7820 C.3   1 <1>  -0.0970 
 24 O        8.6660    -3.3780    -0.8330 O.3   1 <1>  -0.3630 
 25 C        9.4570    -2.2110    -0.8450 C.3   1 <1>   0.0400 
 26 H       -0.5490    -0.3060     2.6120 H     1 <1>   0.0800 
 27 H        0.3790     0.7030     1.4970 H     1 <1>   0.0800 
 28 H       -1.8460     0.4690     0.8710 H     1 <1>   0.1500 
 29 H        1.5310    -1.4770     3.2800 H     1 <1>   0.0800 
 30 H        1.6810     0.2360     3.5620 H     1 <1>   0.0800 
 31 H        2.4570    -0.4660     2.1680 H     1 <1>   0.0800 
 32 H       -1.8700    -3.0080    -2.5920 H     1 <1>   0.1500 
 33 H       -3.6250     0.4110    -0.7670 H     1 <1>   0.1500 
 34 H        1.4040    -1.8910    -2.0490 H     1 <1>   0.0800 
 35 H        1.8400    -3.5580    -2.2530 H     1 <1>   0.0800 
 36 H        0.2740    -5.2880    -0.5180 H     1 <1>   0.0800 
 37 H       -0.8520    -4.3790     0.4390 H     1 <1>   0.0800 
 38 H       -3.6550    -1.3230    -2.5110 H     1 <1>   0.1500 
 39 H        2.2870    -1.8110     0.1640 H     1 <1>   0.0800 
 40 H        3.5010    -2.5410    -0.8410 H     1 <1>   0.0800 
 41 H        1.2110    -5.0420     1.6930 H     1 <1>   0.0800 
 42 H        0.8880    -3.3340     1.6980 H     1 <1>   0.0800 
 43 H        2.8530    -4.6920    -0.0540 H     1 <1>   0.4500 
 44 H        3.5490    -4.5650     2.2620 H     1 <1>   0.0800 
 45 H        3.3540    -2.8290     2.1650 H     1 <1>   0.0800 
 46 H        5.0570    -5.6920     0.4540 H     1 <1>   0.1500 
 47 H        5.1580    -1.5090     1.3490 H     1 <1>   0.1500 
 48 H        7.3320    -1.3380     0.3070 H     1 <1>   0.1500 
 49 H        6.8160    -6.7530    -0.6660 H     1 <1>   0.0800 
 50 H        8.3800    -6.0730    -0.2950 H     1 <1>   0.0800 
 51 H        7.6240    -5.7320    -1.8300 H     1 <1>   0.0800 
 52 H       10.3830    -2.4410    -1.3400 H     1 <1>   0.0800 
 53 H        9.6510    -1.9090     0.1690 H     1 <1>   0.0800 
 54 H        8.9370    -1.4410    -1.3860 H     1 <1>   0.0800 
@<TRIPOS>BOND
  1   1   2  1   
  2   1   3  1   
  3   2   4  ar  
  4   2   5  ar  
  5   3   6  1   
  6   3  26  1   
  7   3  27  1   
  8   4   7  1   
  9   4   8  ar  
 10   5   9  ar  
 11   5  28  1   
 12   6  29  1   
 13   6  30  1   
 14   6  31  1   
 15   7  10  1   
 16   7  11  1   
 17   8  12  ar  
 18   8  32  1   
 19   9  12  ar  
 20   9  33  1   
 21  10  13  1   
 22  10  34  1   
 23  10  35  1   
 24  11  14  1   
 25  11  36  1   
 26  11  37  1   
 27  12  38  1   
 28  13  15  1   
 29  13  39  1   
 30  13  40  1   
 31  14  15  1   
 32  14  41  1   
 33  14  42  1   
 34  15  16  1   
 35  15  43  1   
 36  16  17  1   
 37  16  44  1   
 38  16  45  1   
 39  17  18  ar  
 40  17  19  ar  
 41  18  20  ar  
 42  18  46  1   
 43  19  21  ar  
 44  19  47  1   
 45  20  22  ar  
 46  20  23  1   
 47  21  22  ar  
 48  21  48  1   
 49  22  24  1   
 50  23  49  1   
 51  23  50  1   
 52  23  51  1   
 53  24  25  1   
 54  25  52  1   
 55  25  53  1   
 56  25  54  1   
@<TRIPOS>SUBSTRUCTURE
  1 ****  13 GROUP 4 **** **** 0

# MOE 2024.06 (io_trps.svl 2023.06)
