@<TRIPOS>MOLECULE
NONAME
33 33 1 0 0 
SMALL
USER_CHARGES


@<TRIPOS>ATOM
  1 O       -3.8270    -1.5410    -2.2340 O.2   1 <1>  -0.5700 
  2 C       -4.1600    -2.0040    -1.1730 C.2   1 <1>   0.4230 
  3 C       -5.4830    -2.5400    -0.9230 C.ar  1 <1>   0.0860 
  4 C       -3.1030    -2.0020    -0.0770 C.3   1 <1>  -0.0990 
  5 C       -6.4640    -2.4730    -1.9170 C.ar  1 <1>  -0.1500 
  6 C       -5.8560    -3.1400     0.2870 C.ar  1 <1>  -0.1500 
  7 C       -1.8450    -1.2720    -0.5610 C.3   1 <1>   0.3430 
  8 C       -7.7370    -2.9690    -1.7190 C.ar  1 <1>  -0.1500 
  9 C       -7.1290    -3.6380     0.4930 C.ar  1 <1>  -0.1500 
 10 N       -0.7920    -1.1920     0.5010 N.4   1 <1>  -0.9590 
 11 C       -8.0850    -3.5560    -0.5140 C.ar  1 <1>   0.0830 
 12 C        0.2580    -0.2090     0.0890 C.3   1 <1>   0.2630 
 13 C       -0.1650    -2.5230     0.7810 C.3   1 <1>   0.2630 
 14 O       -9.3480    -4.0160    -0.3970 O.3   1 <1>  -0.3620 
 15 C       -9.8150    -4.6360     0.7820 C.3   1 <1>   0.0400 
 16 H       -2.8720    -3.0210     0.1670 H     1 <1>   0.0800 
 17 H       -3.5020    -1.4980     0.7840 H     1 <1>   0.0800 
 18 H       -6.2230    -2.0220    -2.8650 H     1 <1>   0.1500 
 19 H       -5.1520    -3.2290     1.0930 H     1 <1>   0.1500 
 20 H       -2.1300    -0.2760    -0.8630 H     1 <1>   0.0800 
 21 H       -1.4550    -1.7720    -1.4330 H     1 <1>   0.0800 
 22 H       -8.4760    -2.9050    -2.4990 H     1 <1>   0.1500 
 23 H       -7.3670    -4.0890     1.4380 H     1 <1>   0.1500 
 24 H       -1.2310    -0.8400     1.3660 H     1 <1>   0.4500 
 25 H        0.7390    -0.5330    -0.8200 H     1 <1>   0.0800 
 26 H        1.0060    -0.1140     0.8590 H     1 <1>   0.0800 
 27 H       -0.1830     0.7600    -0.0820 H     1 <1>   0.0800 
 28 H        0.2860    -2.9200    -0.1150 H     1 <1>   0.0800 
 29 H       -0.9030    -3.2230     1.1350 H     1 <1>   0.0800 
 30 H        0.6000    -2.4250     1.5350 H     1 <1>   0.0800 
 31 H      -10.8420    -4.9130     0.6280 H     1 <1>   0.0800 
 32 H       -9.7430    -3.9370     1.5960 H     1 <1>   0.0800 
 33 H       -9.2240    -5.5140     0.9720 H     1 <1>   0.0800 
@<TRIPOS>BOND
  1   1   2  2   
  2   2   3  1   
  3   2   4  1   
  4   3   5  ar  
  5   3   6  ar  
  6   4   7  1   
  7   4  16  1   
  8   4  17  1   
  9   5   8  ar  
 10   5  18  1   
 11   6   9  ar  
 12   6  19  1   
 13   7  10  1   
 14   7  20  1   
 15   7  21  1   
 16   8  11  ar  
 17   8  22  1   
 18   9  11  ar  
 19   9  23  1   
 20  10  12  1   
 21  10  13  1   
 22  10  24  1   
 23  11  14  1   
 24  12  25  1   
 25  12  26  1   
 26  12  27  1   
 27  13  28  1   
 28  13  29  1   
 29  13  30  1   
 30  14  15  1   
 31  15  31  1   
 32  15  32  1   
 33  15  33  1   
@<TRIPOS>SUBSTRUCTURE
  1 ****   3 GROUP 4 **** **** 0

# MOE 2024.06 (io_trps.svl 2023.06)
