@<TRIPOS>MOLECULE
NONAME
50 51 1 0 0 
SMALL
USER_CHARGES


@<TRIPOS>ATOM
  1 O        0.4450    -1.3420    -2.4960 O.2   1 <1>  -0.5700 
  2 C        1.2970    -1.8840    -1.8160 C.2   1 <1>   0.5440 
  3 N        2.2690    -1.0670    -1.3320 N.am  1 <1>  -0.7300 
  4 C        1.2390    -3.3030    -1.5200 C.ar  1 <1>   0.0860 
  5 C        3.0100    -1.2300    -0.0720 C.3   1 <1>   0.2200 
  6 C        0.0320    -3.9170    -1.1410 C.ar  1 <1>   0.1170 
  7 C        2.3890    -4.0910    -1.5990 C.ar  1 <1>  -0.1500 
  8 C        2.3880    -0.3300     1.0080 C.3   1 <1>  -0.1600 
  9 C        4.4780    -0.9090    -0.3440 C.3   1 <1>  -0.2400 
 10 N       -1.1400    -3.1500    -1.1080 N.am  1 <1>  -0.5470 
 11 C        0.0250    -5.2750    -0.8330 C.ar  1 <1>  -0.1500 
 12 C        2.3660    -5.4370    -1.2920 C.ar  1 <1>  -0.1500 
 13 C        2.3080     1.1680     0.6620 C.3   1 <1>  -0.2400 
 14 C       -2.2900    -3.2250    -0.3590 C.2   1 <1>   0.5440 
 15 C        1.1780    -6.0300    -0.9030 C.ar  1 <1>  -0.1500 
 16 O       -2.4260    -4.1280     0.4430 O.2   1 <1>  -0.5700 
 17 C       -3.3280    -2.2200    -0.5260 C.ar  1 <1>   0.0860 
 18 C       -4.6280    -2.4610    -0.0800 C.ar  1 <1>  -0.1500 
 19 C       -3.0840    -0.9840    -1.1280 C.ar  1 <1>  -0.1500 
 20 C       -5.6560    -1.5330    -0.2210 C.ar  1 <1>   0.0820 
 21 C       -4.0910    -0.0520    -1.2830 C.ar  1 <1>  -0.1500 
 22 O       -6.9130    -1.8080     0.2380 O.3   1 <1>  -0.3630 
 23 C       -5.3810    -0.3020    -0.8440 C.ar  1 <1>   0.0820 
 24 C       -7.2130    -2.9710     0.9800 C.3   1 <1>   0.0400 
 25 O       -6.2530     0.7170    -1.0780 O.3   1 <1>  -0.3630 
 26 C       -7.6300     0.6620    -0.7830 C.3   1 <1>   0.0400 
 27 H        2.2030    -0.0990    -1.6460 H     1 <1>   0.3700 
 28 H        2.9410    -2.2510     0.2650 H     1 <1>   0.0800 
 29 H        3.3130    -3.6350    -1.9070 H     1 <1>   0.1500 
 30 H        2.9570    -0.4440     1.9140 H     1 <1>   0.0800 
 31 H        1.3960    -0.6910     1.2160 H     1 <1>   0.0800 
 32 H        4.5920     0.0830    -0.7410 H     1 <1>   0.0800 
 33 H        4.8810    -1.6130    -1.0490 H     1 <1>   0.0800 
 34 H        5.0440    -0.9820     0.5660 H     1 <1>   0.0800 
 35 H       -1.0740    -2.3180    -1.7090 H     1 <1>   0.3700 
 36 H       -0.8950    -5.7490    -0.5420 H     1 <1>   0.1500 
 37 H        3.2650    -6.0260    -1.3540 H     1 <1>   0.1500 
 38 H        3.2860     1.5780     0.4860 H     1 <1>   0.0800 
 39 H        1.8650     1.7040     1.4830 H     1 <1>   0.0800 
 40 H        1.6970     1.3310    -0.2080 H     1 <1>   0.0800 
 41 H        1.1510    -7.0790    -0.6600 H     1 <1>   0.1500 
 42 H       -4.8080    -3.4110     0.3850 H     1 <1>   0.1500 
 43 H       -2.1000    -0.7290    -1.4810 H     1 <1>   0.1500 
 44 H       -3.8810     0.8920    -1.7530 H     1 <1>   0.1500 
 45 H       -8.2460    -2.9240     1.2730 H     1 <1>   0.0800 
 46 H       -6.5880    -3.0000     1.8550 H     1 <1>   0.0800 
 47 H       -7.0500    -3.8350     0.3600 H     1 <1>   0.0800 
 48 H       -8.0800     1.5810    -1.1120 H     1 <1>   0.0800 
 49 H       -7.7530     0.5540     0.2800 H     1 <1>   0.0800 
 50 H       -8.0660    -0.1690    -1.3080 H     1 <1>   0.0800 
@<TRIPOS>BOND
  1   1   2  2   
  2   2   3  am  
  3   2   4  1   
  4   3   5  1   
  5   3  27  1   
  6   4   6  ar  
  7   4   7  ar  
  8   5   8  1   
  9   5   9  1   
 10   5  28  1   
 11   6  10  1   
 12   6  11  ar  
 13   7  12  ar  
 14   7  29  1   
 15   8  13  1   
 16   8  30  1   
 17   8  31  1   
 18   9  32  1   
 19   9  33  1   
 20   9  34  1   
 21  10  14  am  
 22  10  35  1   
 23  11  15  ar  
 24  11  36  1   
 25  12  15  ar  
 26  12  37  1   
 27  13  38  1   
 28  13  39  1   
 29  13  40  1   
 30  14  16  2   
 31  14  17  1   
 32  15  41  1   
 33  17  18  ar  
 34  17  19  ar  
 35  18  20  ar  
 36  18  42  1   
 37  19  21  ar  
 38  19  43  1   
 39  20  22  1   
 40  20  23  ar  
 41  21  23  ar  
 42  21  44  1   
 43  22  24  1   
 44  23  25  1   
 45  24  45  1   
 46  24  46  1   
 47  24  47  1   
 48  25  26  1   
 49  26  48  1   
 50  26  49  1   
 51  26  50  1   
@<TRIPOS>SUBSTRUCTURE
  1 ****  10 GROUP 4 **** **** 0

# MOE 2024.06 (io_trps.svl 2023.06)
