@<TRIPOS>MOLECULE
NONAME
51 54 1 0 0 
SMALL
USER_CHARGES


@<TRIPOS>ATOM
  1 O       -1.0120    -0.3930    -1.7460 O.3   1 <1>  -0.6800 
  2 C       -1.3250    -0.7430    -0.4250 C.3   1 <1>   0.2800 
  3 C       -0.7510    -2.1450    -0.0840 C.3   1 <1>   0.1440 
  4 C       -2.8630    -0.8170    -0.3430 C.3   1 <1>  -0.0800 
  5 C       -0.7200     0.3600     0.5010 C.3   1 <1>   0.3430 
  6 C        0.7930    -2.1320    -0.2210 C.ar  1 <1>  -0.1440 
  7 C       -1.3360    -3.2150    -1.0460 C.3   1 <1>   0.3430 
  8 C       -1.2020    -2.4980     1.3560 C.3   1 <1>   0.1100 
  9 C       -3.4040    -1.8130    -1.3820 C.3   1 <1>   0.3430 
 10 C       -3.3210    -1.1900     1.0750 C.3   1 <1>   0.1100 
 11 N       -0.8340     1.7440    -0.0820 N.4   1 <1>  -0.9590 
 12 C        1.6420    -2.0900     0.8860 C.ar  1 <1>  -0.1500 
 13 C        1.3860    -2.1460    -1.4850 C.ar  1 <1>  -0.1500 
 14 N       -2.8330    -3.1940    -1.2440 N.4   1 <1>  -0.9590 
 15 N       -2.6600    -2.4140     1.5400 N.3   1 <1>  -0.8100 
 16 C        0.4660     2.4800     0.0210 C.3   1 <1>   0.2630 
 17 C       -1.9330     2.5520     0.5360 C.3   1 <1>   0.2630 
 18 C        3.0160    -2.0470     0.7340 C.ar  1 <1>  -0.1500 
 19 C        2.7600    -2.1030    -1.6360 C.ar  1 <1>  -0.1500 
 20 C       -3.5830    -4.0270    -0.2360 C.3   1 <1>   0.3430 
 21 C       -3.3870    -3.6660     1.2530 C.3   1 <1>   0.1100 
 22 C        3.5790    -2.0510    -0.5260 C.ar  1 <1>  -0.1500 
 23 H       -0.0420    -0.4640    -1.8990 H     1 <1>   0.4000 
 24 H       -3.2790     0.1450    -0.5770 H     1 <1>   0.0800 
 25 H        0.3240     0.1340     0.6450 H     1 <1>   0.0800 
 26 H       -1.1800     0.3230     1.4740 H     1 <1>   0.0800 
 27 H       -1.0300    -4.1910    -0.7070 H     1 <1>   0.0800 
 28 H       -0.8880    -3.0650    -2.0120 H     1 <1>   0.0800 
 29 H       -0.7670    -1.8150     2.0630 H     1 <1>   0.0800 
 30 H       -0.8550    -3.4830     1.6230 H     1 <1>   0.0800 
 31 H       -3.1570    -1.4340    -2.3610 H     1 <1>   0.0800 
 32 H       -4.4790    -1.8550    -1.3140 H     1 <1>   0.0800 
 33 H       -3.0830    -0.3960     1.7620 H     1 <1>   0.0800 
 34 H       -4.3910    -1.3150     1.1080 H     1 <1>   0.0800 
 35 H       -1.0420     1.6060    -1.0900 H     1 <1>   0.4500 
 36 H        1.2860    -2.0940     1.9000 H     1 <1>   0.1500 
 37 H        0.8120    -2.1940    -2.3930 H     1 <1>   0.1500 
 38 H       -3.0050    -3.6560    -2.1490 H     1 <1>   0.4500 
 39 H        0.7320     2.6340     1.0550 H     1 <1>   0.0800 
 40 H        0.3910     3.4420    -0.4600 H     1 <1>   0.0800 
 41 H        1.2540     1.9210    -0.4570 H     1 <1>   0.0800 
 42 H       -1.7410     2.7050     1.5860 H     1 <1>   0.0800 
 43 H       -2.8800     2.0510     0.4270 H     1 <1>   0.0800 
 44 H       -2.0010     3.5150     0.0570 H     1 <1>   0.0800 
 45 H        3.6570    -2.0180     1.6000 H     1 <1>   0.1500 
 46 H        3.2020    -2.1170    -2.6190 H     1 <1>   0.1500 
 47 H       -3.3080    -5.0620    -0.3590 H     1 <1>   0.0800 
 48 H       -4.6370    -3.9680    -0.4520 H     1 <1>   0.0800 
 49 H       -4.3580    -3.6140     1.7170 H     1 <1>   0.0800 
 50 H       -2.8780    -4.4820     1.7380 H     1 <1>   0.0800 
 51 H        4.6500    -2.0210    -0.6420 H     1 <1>   0.1500 
@<TRIPOS>BOND
  1   1   2  1   
  2   1  23  1   
  3   2   3  1   
  4   2   4  1   
  5   2   5  1   
  6   3   6  1   
  7   3   7  1   
  8   3   8  1   
  9   4   9  1   
 10   4  10  1   
 11   4  24  1   
 12   5  11  1   
 13   5  25  1   
 14   5  26  1   
 15   6  12  ar  
 16   6  13  ar  
 17   7  14  1   
 18   7  27  1   
 19   7  28  1   
 20   8  15  1   
 21   8  29  1   
 22   8  30  1   
 23   9  14  1   
 24   9  31  1   
 25   9  32  1   
 26  10  15  1   
 27  10  33  1   
 28  10  34  1   
 29  11  16  1   
 30  11  17  1   
 31  11  35  1   
 32  12  18  ar  
 33  12  36  1   
 34  13  19  ar  
 35  13  37  1   
 36  14  20  1   
 37  14  38  1   
 38  15  21  1   
 39  16  39  1   
 40  16  40  1   
 41  16  41  1   
 42  17  42  1   
 43  17  43  1   
 44  17  44  1   
 45  18  22  ar  
 46  18  45  1   
 47  19  22  ar  
 48  19  46  1   
 49  20  21  1   
 50  20  47  1   
 51  20  48  1   
 52  21  49  1   
 53  21  50  1   
 54  22  51  1   
@<TRIPOS>SUBSTRUCTURE
  1 ****   3 GROUP 4 **** **** 0

# MOE 2024.06 (io_trps.svl 2023.06)
