@<TRIPOS>MOLECULE
NONAME
33 34 1 0 0 
SMALL
USER_CHARGES


@<TRIPOS>ATOM
  1 O       -7.5590     8.4120     0.1850 O.3   1 <1>  -0.4300 
  2 C       -8.7790     8.8350     0.4060 C.2   1 <1>   0.6360 
  3 C       -6.4920     9.3490     0.2500 C.3   1 <1>   0.1200 
  4 N       -9.0620    10.0890     0.7120 N.2   1 <1>  -0.2000 
  5 C       -9.8110     7.8660     0.3380 C.2   1 <1>  -0.0860 
  6 C       -5.1990     8.5970    -0.0610 C.3   1 <1>  -0.1600 
  7 C      -11.1860     8.0960     0.0220 C.ar  1 <1>   0.0000 
  8 C       -9.7120     6.5180     0.5930 C.2   1 <1>  -0.3020 
  9 C       -3.9860     9.5340    -0.0140 C.3   1 <1>  -0.1600 
 10 C      -11.8380     6.8760     0.1620 C.ar  1 <1>  -0.1520 
 11 C      -11.9320     9.2090    -0.3940 C.ar  1 <1>  -0.1500 
 12 N      -10.9120     5.9210     0.4980 N.pl3 1 <1>   0.0330 
 13 C       -2.6960     8.7720    -0.3260 C.3   1 <1>  -0.2400 
 14 C      -13.2110     6.7490    -0.0410 C.ar  1 <1>  -0.1500 
 15 C      -13.2880     9.0870    -0.5990 C.ar  1 <1>  -0.1500 
 16 C      -13.9300     7.8600    -0.4160 C.ar  1 <1>  -0.1500 
 17 H       -6.4390     9.7620     1.2440 H     1 <1>   0.0800 
 18 H       -6.6460    10.1200    -0.4870 H     1 <1>   0.0800 
 19 H      -10.0200    10.3710     0.9310 H     1 <1>   0.4000 
 20 H       -8.3700    10.8320     0.7870 H     1 <1>   0.4000 
 21 H       -5.2700     8.1570    -1.0410 H     1 <1>   0.0800 
 22 H       -5.0650     7.8070     0.6590 H     1 <1>   0.0800 
 23 H       -8.8200     5.9680     0.8460 H     1 <1>   0.1500 
 24 H       -3.9000     9.9770     0.9650 H     1 <1>   0.0800 
 25 H       -4.1050    10.3270    -0.7330 H     1 <1>   0.0800 
 26 H      -11.4700    10.1580    -0.5780 H     1 <1>   0.1500 
 27 H      -11.1290     4.9270     0.6360 H     1 <1>   0.2700 
 28 H       -2.5350     7.9870     0.3920 H     1 <1>   0.0800 
 29 H       -1.8540     9.4410    -0.2900 H     1 <1>   0.0800 
 30 H       -2.7410     8.3370    -1.3100 H     1 <1>   0.0800 
 31 H      -13.6960     5.7970     0.0890 H     1 <1>   0.1500 
 32 H      -13.8750     9.9340    -0.9130 H     1 <1>   0.1500 
 33 H      -14.9920     7.7890    -0.5800 H     1 <1>   0.1500 
@<TRIPOS>BOND
  1   1   2  1   
  2   1   3  1   
  3   2   4  2   
  4   2   5  1   
  5   3   6  1   
  6   3  17  1   
  7   3  18  1   
  8   4  19  1   
  9   4  20  1   
 10   5   7  1   
 11   5   8  2   
 12   6   9  1   
 13   6  21  1   
 14   6  22  1   
 15   7  10  ar  
 16   7  11  ar  
 17   8  12  1   
 18   8  23  1   
 19   9  13  1   
 20   9  24  1   
 21   9  25  1   
 22  10  12  1   
 23  10  14  ar  
 24  11  15  ar  
 25  11  26  1   
 26  12  27  1   
 27  13  28  1   
 28  13  29  1   
 29  13  30  1   
 30  14  16  ar  
 31  14  31  1   
 32  15  16  ar  
 33  15  32  1   
 34  16  33  1   
@<TRIPOS>SUBSTRUCTURE
  1 ****   5 GROUP 4 **** **** 0

# MOE 2024.06 (io_trps.svl 2023.06)
