@<TRIPOS>MOLECULE
NONAME
51 53 1 0 0 
SMALL
USER_CHARGES


@<TRIPOS>ATOM
  1 S        0.7100     0.0370    -2.0880 S.3   1 <1>  -0.0800 
  2 C       -0.4280    -0.9210    -1.1530 C.2   1 <1>   0.1040 
  3 C        1.6690     0.4090    -0.6650 C.2   1 <1>  -0.1400 
  4 N       -1.4930    -1.5470    -1.7780 N.am  1 <1>  -0.4940 
  5 C       -0.0750    -0.9310     0.1680 C.2   1 <1>  -0.0860 
  6 C        1.1240    -0.1720     0.4180 C.2   1 <1>  -0.1500 
  7 C        2.8920     1.2800    -0.8920 C.3   1 <1>   0.0200 
  8 C       -2.0690    -1.4410    -3.0150 C.2   1 <1>   0.5690 
  9 C       -0.8070    -1.6040     1.2030 C.2   1 <1>   0.8060 
 10 C        3.6610     1.5470     0.4040 C.3   1 <1>  -0.2400 
 11 O       -1.7010    -0.6870    -3.8820 O.2   1 <1>  -0.5700 
 12 C       -3.2730    -2.3480    -3.2800 C.3   1 <1>   0.1710 
 13 O       -1.8540    -2.1940     1.0060 O.2   1 <1>  -0.5700 
 14 O       -0.3150    -1.5750     2.4490 O.3   1 <1>  -0.4300 
 15 N       -3.8120    -3.0170    -2.0570 N.3   1 <1>  -0.8100 
 16 C       -0.9780    -2.2150     3.5240 C.3   1 <1>   0.0400 
 17 C       -4.6420    -4.1910    -2.4070 C.3   1 <1>   0.1100 
 18 C       -4.6080    -2.0820    -1.2160 C.3   1 <1>   0.1100 
 19 C       -5.1970    -4.9060    -1.1580 C.3   1 <1>   0.2090 
 20 C       -5.1550    -2.7650     0.0520 C.3   1 <1>   0.2090 
 21 N       -5.9720    -3.9640    -0.3040 N.pl3 1 <1>  -0.8380 
 22 C       -6.7660    -4.5270     0.6770 C.ar  1 <1>   0.4100 
 23 N       -6.3560    -4.4240     1.9370 N.ar  1 <1>  -0.6200 
 24 C       -7.9410    -5.1780     0.3100 C.ar  1 <1>  -0.1500 
 25 C       -7.1340    -4.9870     2.8460 C.ar  1 <1>   0.1600 
 26 C       -8.7410    -5.7600     1.2650 C.ar  1 <1>  -0.1500 
 27 C       -8.3140    -5.6560     2.5730 C.ar  1 <1>  -0.1500 
 28 H       -2.0310    -2.2010    -1.1890 H     1 <1>   0.3700 
 29 H        1.5210    -0.0970     1.4160 H     1 <1>   0.1500 
 30 H        2.5770     2.2160    -1.3210 H     1 <1>   0.0800 
 31 H        3.5400     0.7920    -1.5990 H     1 <1>   0.0800 
 32 H        3.0300     2.0530     1.1130 H     1 <1>   0.0800 
 33 H        4.5170     2.1660     0.2030 H     1 <1>   0.0800 
 34 H        3.9990     0.6210     0.8340 H     1 <1>   0.0800 
 35 H       -2.9460    -3.0980    -3.9770 H     1 <1>   0.0800 
 36 H       -4.0470    -1.7720    -3.7560 H     1 <1>   0.0800 
 37 H       -0.4020    -2.0620     4.4190 H     1 <1>   0.0800 
 38 H       -1.0560    -3.2670     3.3090 H     1 <1>   0.0800 
 39 H       -1.9580    -1.7850     3.6350 H     1 <1>   0.0800 
 40 H       -4.0490    -4.8930    -2.9670 H     1 <1>   0.0800 
 41 H       -5.4700    -3.8830    -3.0230 H     1 <1>   0.0800 
 42 H       -5.4390    -1.6980    -1.7810 H     1 <1>   0.0800 
 43 H       -4.0000    -1.2470    -0.9130 H     1 <1>   0.0800 
 44 H       -4.3790    -5.3100    -0.5870 H     1 <1>   0.0800 
 45 H       -5.8270    -5.7230    -1.4630 H     1 <1>   0.0800 
 46 H       -5.7640    -2.0700     0.6030 H     1 <1>   0.0800 
 47 H       -4.3350    -3.0620     0.6830 H     1 <1>   0.0800 
 48 H       -8.2100    -5.2090    -0.7280 H     1 <1>   0.1500 
 49 H       -6.8110    -4.9100     3.8690 H     1 <1>   0.1500 
 50 H       -9.6530    -6.2690     1.0080 H     1 <1>   0.1500 
 51 H       -8.8890    -6.0880     3.3720 H     1 <1>   0.1500 
@<TRIPOS>BOND
  1   1   2  1   
  2   1   3  1   
  3   2   4  1   
  4   2   5  2   
  5   3   6  2   
  6   3   7  1   
  7   4   8  am  
  8   4  28  1   
  9   5   6  1   
 10   5   9  1   
 11   6  29  1   
 12   7  10  1   
 13   7  30  1   
 14   7  31  1   
 15   8  11  2   
 16   8  12  1   
 17   9  13  2   
 18   9  14  1   
 19  10  32  1   
 20  10  33  1   
 21  10  34  1   
 22  12  15  1   
 23  12  35  1   
 24  12  36  1   
 25  14  16  1   
 26  15  17  1   
 27  15  18  1   
 28  16  37  1   
 29  16  38  1   
 30  16  39  1   
 31  17  19  1   
 32  17  40  1   
 33  17  41  1   
 34  18  20  1   
 35  18  42  1   
 36  18  43  1   
 37  19  21  1   
 38  19  44  1   
 39  19  45  1   
 40  20  21  1   
 41  20  46  1   
 42  20  47  1   
 43  21  22  1   
 44  22  23  ar  
 45  22  24  ar  
 46  23  25  ar  
 47  24  26  ar  
 48  24  48  1   
 49  25  27  ar  
 50  25  49  1   
 51  26  27  ar  
 52  26  50  1   
 53  27  51  1   
@<TRIPOS>SUBSTRUCTURE
  1 ****  13 GROUP 4 **** **** 0

# MOE 2024.06 (io_trps.svl 2023.06)
