@<TRIPOS>MOLECULE
NONAME
34 35 1 0 0 
SMALL
USER_CHARGES


@<TRIPOS>ATOM
  1 CL       1.6580     1.7600     2.8720 Cl    1 <1>  -0.1770 
  2 C        0.8600     2.5650     1.5380 C.ar  1 <1>   0.1770 
  3 C        1.5100     2.7160     0.3190 C.ar  1 <1>   0.0830 
  4 C       -0.4230     3.0370     1.7370 C.ar  1 <1>  -0.1500 
  5 O        2.7720     2.2260     0.1920 O.3   1 <1>  -0.3630 
  6 C        0.8330     3.3610    -0.7110 C.ar  1 <1>  -0.1500 
  7 C       -1.1070     3.6810     0.7130 C.ar  1 <1>  -0.0090 
  8 C        3.5080     2.3630    -1.0000 C.3   1 <1>   0.1200 
  9 C       -0.4540     3.8320    -0.5070 C.ar  1 <1>  -0.1500 
 10 S       -2.7960     4.2980     0.9480 S.o2  1 <1>   1.4470 
 11 C        4.8750     1.7190    -0.7860 C.3   1 <1>  -0.2400 
 12 O       -2.8460     5.6980     0.5890 O.2   1 <1>  -0.6500 
 13 O       -3.3100     3.8740     2.2330 O.2   1 <1>  -0.6500 
 14 N       -3.6690     3.4620    -0.2380 N.am  1 <1>  -0.8490 
 15 C       -3.8780     2.0500     0.0390 C.3   1 <1>   0.1960 
 16 C       -4.9930     4.0130    -0.4570 C.3   1 <1>   0.1960 
 17 C       -4.9750     1.6380    -0.9340 C.3   1 <1>  -0.1600 
 18 C       -5.7390     2.9300    -1.2280 C.3   1 <1>  -0.1600 
 19 H       -0.8890     2.9000     2.6980 H     1 <1>   0.1500 
 20 H        1.2860     3.5070    -1.6740 H     1 <1>   0.1500 
 21 H        3.6130     3.4120    -1.2190 H     1 <1>   0.0800 
 22 H        2.9740     1.8660    -1.7920 H     1 <1>   0.0800 
 23 H       -0.9720     4.3310    -1.3110 H     1 <1>   0.1500 
 24 H        5.3930     2.2110     0.0170 H     1 <1>   0.0800 
 25 H        5.4650     1.8070    -1.6800 H     1 <1>   0.0800 
 26 H        4.7590     0.6760    -0.5510 H     1 <1>   0.0800 
 27 H       -4.2290     1.9130     1.0500 H     1 <1>   0.0800 
 28 H       -2.9740     1.4840    -0.1100 H     1 <1>   0.0800 
 29 H       -4.9400     4.9390    -1.0070 H     1 <1>   0.0800 
 30 H       -5.4790     4.1890     0.4910 H     1 <1>   0.0800 
 31 H       -5.6060     0.8800    -0.5050 H     1 <1>   0.0800 
 32 H       -4.5300     1.2570    -1.8360 H     1 <1>   0.0800 
 33 H       -5.7130     3.1490    -2.2810 H     1 <1>   0.0800 
 34 H       -6.7640     2.8750    -0.9060 H     1 <1>   0.0800 
@<TRIPOS>BOND
  1   1   2  1   
  2   2   3  ar  
  3   2   4  ar  
  4   3   5  1   
  5   3   6  ar  
  6   4   7  ar  
  7   4  19  1   
  8   5   8  1   
  9   6   9  ar  
 10   6  20  1   
 11   7   9  ar  
 12   7  10  1   
 13   8  11  1   
 14   8  21  1   
 15   8  22  1   
 16   9  23  1   
 17  10  12  2   
 18  10  13  2   
 19  10  14  am  
 20  11  24  1   
 21  11  25  1   
 22  11  26  1   
 23  14  15  1   
 24  14  16  1   
 25  15  17  1   
 26  15  27  1   
 27  15  28  1   
 28  16  18  1   
 29  16  29  1   
 30  16  30  1   
 31  17  18  1   
 32  17  31  1   
 33  17  32  1   
 34  18  33  1   
 35  18  34  1   
@<TRIPOS>SUBSTRUCTURE
  1 ****   7 GROUP 4 **** **** 0

# MOE 2024.06 (io_trps.svl 2023.06)
