@<TRIPOS>MOLECULE
NONAME
56 58 1 0 0 
SMALL
USER_CHARGES


@<TRIPOS>ATOM
  1 N       -3.4750    -6.5250     0.2700 N.4   1 <1>  -0.9590 
  2 C       -2.3060    -7.4050     0.5710 C.3   1 <1>   0.4230 
  3 C       -4.7810    -7.2440     0.3630 C.3   1 <1>   0.3430 
  4 C       -3.3940    -5.7200    -1.0060 C.3   1 <1>   0.3430 
  5 C       -1.0470    -6.5630     0.7890 C.3   1 <1>  -0.1600 
  6 C       -2.0640    -8.4580    -0.5190 C.3   1 <1>  -0.1600 
  7 C       -5.9160    -6.2240     0.5640 C.3   1 <1>  -0.0800 
  8 C       -4.7320    -5.0420    -1.3780 C.3   1 <1>  -0.0800 
  9 C        0.1450    -7.4550     1.1360 C.3   1 <1>   0.3430 
 10 C       -0.8640    -9.3380    -0.1630 C.3   1 <1>   0.3430 
 11 C       -5.6530    -4.8810    -0.1550 C.3   1 <1>  -0.1600 
 12 C       -6.1800    -5.9790     2.0570 C.3   1 <1>  -0.2400 
 13 C       -5.4430    -5.7870    -2.5210 C.3   1 <1>  -0.2400 
 14 N        0.3340    -8.4870     0.0740 N.4   1 <1>  -0.9590 
 15 C        1.5450    -9.3190     0.3490 C.3   1 <1>   0.4860 
 16 C        2.7550    -8.4130     0.2430 C.ar  1 <1>  -0.1440 
 17 C        3.2500    -7.9890    -0.9890 C.ar  1 <1>  -0.1440 
 18 C        3.3690    -7.9880     1.4150 C.ar  1 <1>  -0.1500 
 19 C        4.3310    -7.1220    -1.0200 C.ar  1 <1>  -0.1500 
 20 C        2.6680    -8.4460    -2.3230 C.3   1 <1>  -0.0970 
 21 C        4.4480    -7.1270     1.3690 C.ar  1 <1>  -0.1500 
 22 C        4.9260    -6.6890     0.1500 C.ar  1 <1>  -0.1500 
 23 H       -3.5390    -5.8240     1.0220 H     1 <1>   0.4500 
 24 H       -2.5130    -7.9260     1.4940 H     1 <1>   0.0800 
 25 H       -4.7800    -7.9390     1.1870 H     1 <1>   0.0800 
 26 H       -4.9520    -7.7980    -0.5460 H     1 <1>   0.0800 
 27 H       -3.0960    -6.3490    -1.8270 H     1 <1>   0.0800 
 28 H       -2.6450    -4.9530    -0.8910 H     1 <1>   0.0800 
 29 H       -1.2030    -5.8790     1.6040 H     1 <1>   0.0800 
 30 H       -0.8000    -5.9930    -0.0890 H     1 <1>   0.0800 
 31 H       -1.8760    -7.9990    -1.4720 H     1 <1>   0.0800 
 32 H       -2.9260    -9.0940    -0.6160 H     1 <1>   0.0800 
 33 H       -6.8090    -6.6620     0.1480 H     1 <1>   0.0800 
 34 H       -4.5010    -4.0580    -1.7530 H     1 <1>   0.0800 
 35 H       -0.0200    -7.9350     2.0880 H     1 <1>   0.0800 
 36 H        1.0330    -6.8450     1.2200 H     1 <1>   0.0800 
 37 H       -0.6720   -10.0300    -0.9690 H     1 <1>   0.0800 
 38 H       -1.0830    -9.9120     0.7240 H     1 <1>   0.0800 
 39 H       -5.1860    -4.1880     0.5250 H     1 <1>   0.0800 
 40 H       -6.5910    -4.4380    -0.4500 H     1 <1>   0.0800 
 41 H       -5.3210    -5.5560     2.5490 H     1 <1>   0.0800 
 42 H       -6.4410    -6.8990     2.5520 H     1 <1>   0.0800 
 43 H       -7.0060    -5.2980     2.1780 H     1 <1>   0.0800 
 44 H       -5.7080    -6.7940    -2.2540 H     1 <1>   0.0800 
 45 H       -4.8160    -5.8220    -3.3950 H     1 <1>   0.0800 
 46 H       -6.3470    -5.2670    -2.7910 H     1 <1>   0.0800 
 47 H        0.5880    -7.9880    -0.7920 H     1 <1>   0.4500 
 48 H        1.6320   -10.1130    -0.3740 H     1 <1>   0.0800 
 49 H        1.4930    -9.7560     1.3330 H     1 <1>   0.0800 
 50 H        3.0220    -8.3200     2.3790 H     1 <1>   0.1500 
 51 H        4.7290    -6.7760    -1.9600 H     1 <1>   0.1500 
 52 H        1.7970    -7.8700    -2.5740 H     1 <1>   0.0800 
 53 H        2.4210    -9.4910    -2.3030 H     1 <1>   0.0800 
 54 H        3.3910    -8.3080    -3.1090 H     1 <1>   0.0800 
 55 H        4.9230    -6.7970     2.2790 H     1 <1>   0.1500 
 56 H        5.7680    -6.0180     0.1100 H     1 <1>   0.1500 
@<TRIPOS>BOND
  1   1   2  1   
  2   1   3  1   
  3   1   4  1   
  4   1  23  1   
  5   2   5  1   
  6   2   6  1   
  7   2  24  1   
  8   3   7  1   
  9   3  25  1   
 10   3  26  1   
 11   4   8  1   
 12   4  27  1   
 13   4  28  1   
 14   5   9  1   
 15   5  29  1   
 16   5  30  1   
 17   6  10  1   
 18   6  31  1   
 19   6  32  1   
 20   7  11  1   
 21   7  12  1   
 22   7  33  1   
 23   8  11  1   
 24   8  13  1   
 25   8  34  1   
 26   9  14  1   
 27   9  35  1   
 28   9  36  1   
 29  10  14  1   
 30  10  37  1   
 31  10  38  1   
 32  11  39  1   
 33  11  40  1   
 34  12  41  1   
 35  12  42  1   
 36  12  43  1   
 37  13  44  1   
 38  13  45  1   
 39  13  46  1   
 40  14  15  1   
 41  14  47  1   
 42  15  16  1   
 43  15  48  1   
 44  15  49  1   
 45  16  17  ar  
 46  16  18  ar  
 47  17  19  ar  
 48  17  20  1   
 49  18  21  ar  
 50  18  50  1   
 51  19  22  ar  
 52  19  51  1   
 53  20  52  1   
 54  20  53  1   
 55  20  54  1   
 56  21  22  ar  
 57  21  55  1   
 58  22  56  1   
@<TRIPOS>SUBSTRUCTURE
  1 ****   5 GROUP 4 **** **** 0

# MOE 2024.06 (io_trps.svl 2023.06)
