@<TRIPOS>MOLECULE
NONAME
40 41 1 0 0 
SMALL
USER_CHARGES


@<TRIPOS>ATOM
  1 F       -1.7130     1.0670     1.3270 F     1 <1>  -0.1900 
  2 C       -0.9750     2.0020     0.7880 C.ar  1 <1>   0.1900 
  3 C       -1.4090     2.5950    -0.3910 C.ar  1 <1>  -0.1440 
  4 C        0.1950     2.3650     1.4250 C.ar  1 <1>  -0.1500 
  5 C       -0.6280     3.5990    -0.9560 C.ar  1 <1>  -0.1500 
  6 C       -2.7020     2.1410    -1.0430 C.3   1 <1>   0.4870 
  7 C        0.9410     3.3660     0.8360 C.ar  1 <1>   0.1900 
  8 C        0.5530     3.9880    -0.3390 C.ar  1 <1>  -0.1500 
  9 N       -3.8480     2.4420    -0.1230 N.4   1 <1>  -0.9590 
 10 F        2.0520     3.7410     1.4070 F     1 <1>  -0.1900 
 11 C       -5.1060     1.6850    -0.4400 C.3   1 <1>   0.4230 
 12 C       -4.0210     3.9360    -0.0440 C.3   1 <1>   0.2630 
 13 C       -6.2320     2.0810     0.5300 C.3   1 <1>  -0.1600 
 14 C       -4.8570     0.1700    -0.3430 C.3   1 <1>  -0.1600 
 15 C       -7.4940     1.2430     0.3270 C.3   1 <1>   0.3430 
 16 C       -6.1390    -0.6430    -0.5300 C.3   1 <1>   0.3430 
 17 N       -7.1690    -0.2040     0.4510 N.4   1 <1>  -0.9590 
 18 C       -8.4130    -1.0300     0.3000 C.3   1 <1>   0.2630 
 19 H        0.5170     1.8950     2.3370 H     1 <1>   0.1500 
 20 H       -0.9170     4.0840    -1.8750 H     1 <1>   0.1500 
 21 H       -2.6240     1.0840    -1.2270 H     1 <1>   0.0800 
 22 H       -2.8370     2.6410    -1.9890 H     1 <1>   0.0800 
 23 H        1.1730     4.7610    -0.7590 H     1 <1>   0.1500 
 24 H       -3.5140     2.1280     0.8040 H     1 <1>   0.4500 
 25 H       -5.4190     1.9240    -1.4460 H     1 <1>   0.0800 
 26 H       -4.3800     4.3260    -0.9830 H     1 <1>   0.0800 
 27 H       -3.0800     4.4120     0.1840 H     1 <1>   0.0800 
 28 H       -4.7190     4.2000     0.7320 H     1 <1>   0.0800 
 29 H       -6.5130     3.1070     0.3740 H     1 <1>   0.0800 
 30 H       -5.9050     1.9730     1.5500 H     1 <1>   0.0800 
 31 H       -4.4260    -0.0800     0.6110 H     1 <1>   0.0800 
 32 H       -4.1770    -0.1500    -1.1110 H     1 <1>   0.0800 
 33 H       -7.9120     1.4400    -0.6480 H     1 <1>   0.0800 
 34 H       -8.2320     1.5170     1.0660 H     1 <1>   0.0800 
 35 H       -5.9240    -1.6920    -0.3910 H     1 <1>   0.0800 
 36 H       -6.5130    -0.5110    -1.5330 H     1 <1>   0.0800 
 37 H       -6.8120    -0.3810     1.4040 H     1 <1>   0.4500 
 38 H       -8.8440    -0.8940    -0.6790 H     1 <1>   0.0800 
 39 H       -9.1460    -0.7450     1.0390 H     1 <1>   0.0800 
 40 H       -8.1890    -2.0770     0.4330 H     1 <1>   0.0800 
@<TRIPOS>BOND
  1   1   2  1   
  2   2   3  ar  
  3   2   4  ar  
  4   3   5  ar  
  5   3   6  1   
  6   4   7  ar  
  7   4  19  1   
  8   5   8  ar  
  9   5  20  1   
 10   6   9  1   
 11   6  21  1   
 12   6  22  1   
 13   7   8  ar  
 14   7  10  1   
 15   8  23  1   
 16   9  11  1   
 17   9  12  1   
 18   9  24  1   
 19  11  13  1   
 20  11  14  1   
 21  11  25  1   
 22  12  26  1   
 23  12  27  1   
 24  12  28  1   
 25  13  15  1   
 26  13  29  1   
 27  13  30  1   
 28  14  16  1   
 29  14  31  1   
 30  14  32  1   
 31  15  17  1   
 32  15  33  1   
 33  15  34  1   
 34  16  17  1   
 35  16  35  1   
 36  16  36  1   
 37  17  18  1   
 38  17  37  1   
 39  18  38  1   
 40  18  39  1   
 41  18  40  1   
@<TRIPOS>SUBSTRUCTURE
  1 ****   9 GROUP 4 **** **** 0

# MOE 2024.06 (io_trps.svl 2023.06)
