@<TRIPOS>MOLECULE
NONAME
43 44 1 0 0 
SMALL
USER_CHARGES


@<TRIPOS>ATOM
  1 O        0.5170    -0.7630     0.3150 O.2   1 <1>  -0.5700 
  2 C        0.3590    -1.9550     0.5050 C.2   1 <1>   0.5440 
  3 N        1.4420    -2.7230     0.8810 N.am  1 <1>  -0.6600 
  4 C       -0.9600    -2.5280     0.3140 C.ar  1 <1>   0.0860 
  5 C        2.7510    -2.0870     1.2060 C.3   1 <1>   0.2840 
  6 C        1.4180    -4.2110     0.9130 C.3   1 <1>   0.1400 
  7 C       -1.6830    -3.0690     1.3760 C.ar  1 <1>  -0.1500 
  8 C       -1.5520    -2.5520    -0.9460 C.ar  1 <1>  -0.1500 
  9 C        3.7290    -2.2680     0.0560 C.ar  1 <1>  -0.1430 
 10 C        1.5100    -4.7770    -0.5030 C.3   1 <1>  -0.2400 
 11 C       -2.9330    -3.6290     1.1840 C.ar  1 <1>  -0.1500 
 12 C       -2.8020    -3.1100    -1.1440 C.ar  1 <1>  -0.1500 
 13 C        3.5370    -1.6290    -1.1510 C.ar  1 <1>  -0.1500 
 14 C        4.8470    -3.0740     0.1490 C.ar  1 <1>  -0.1500 
 15 C       -3.5000    -3.6580    -0.0800 C.ar  1 <1>  -0.1430 
 16 C        4.4420    -1.8210    -2.1810 C.ar  1 <1>   0.1600 
 17 C        5.6910    -3.1980    -0.9420 C.ar  1 <1>   0.1600 
 18 C       -4.8730    -4.2740    -0.2950 C.3   1 <1>  -0.0170 
 19 N        5.5160    -2.5920    -2.1050 N.ar  1 <1>  -0.6200 
 20 C       -5.9710    -3.2180    -0.1200 C.3   1 <1>  -0.1600 
 21 C       -7.3670    -3.8150    -0.3330 C.3   1 <1>  -0.2400 
 22 H        3.1460    -2.5270     2.1040 H     1 <1>   0.0800 
 23 H        2.6220    -1.0350     1.3970 H     1 <1>   0.0800 
 24 H        0.5130    -4.5550     1.3810 H     1 <1>   0.0800 
 25 H        2.2450    -4.5750     1.4980 H     1 <1>   0.0800 
 26 H       -1.2550    -3.0440     2.3630 H     1 <1>   0.1500 
 27 H       -1.0180    -2.1220    -1.7760 H     1 <1>   0.1500 
 28 H        0.6740    -4.4540    -1.0970 H     1 <1>   0.0800 
 29 H        1.4980    -5.8510    -0.4630 H     1 <1>   0.0800 
 30 H        2.4220    -4.4680    -0.9790 H     1 <1>   0.0800 
 31 H       -3.4680    -4.0400     2.0230 H     1 <1>   0.1500 
 32 H       -3.2320    -3.1150    -2.1310 H     1 <1>   0.1500 
 33 H        2.6850    -0.9860    -1.2940 H     1 <1>   0.1500 
 34 H        5.0690    -3.6060     1.0550 H     1 <1>   0.1500 
 35 H        4.2720    -1.3140    -3.1150 H     1 <1>   0.1500 
 36 H        6.5580    -3.8300    -0.8530 H     1 <1>   0.1500 
 37 H       -5.0230    -5.0740     0.4090 H     1 <1>   0.0800 
 38 H       -4.9280    -4.6950    -1.2840 H     1 <1>   0.0800 
 39 H       -5.8130    -2.4200    -0.8250 H     1 <1>   0.0800 
 40 H       -5.9090    -2.8000     0.8700 H     1 <1>   0.0800 
 41 H       -7.4580    -4.2180    -1.3260 H     1 <1>   0.0800 
 42 H       -8.1150    -3.0530    -0.2040 H     1 <1>   0.0800 
 43 H       -7.5540    -4.6000     0.3790 H     1 <1>   0.0800 
@<TRIPOS>BOND
  1   1   2  2   
  2   2   3  am  
  3   2   4  1   
  4   3   5  1   
  5   3   6  1   
  6   4   7  ar  
  7   4   8  ar  
  8   5   9  1   
  9   5  22  1   
 10   5  23  1   
 11   6  10  1   
 12   6  24  1   
 13   6  25  1   
 14   7  11  ar  
 15   7  26  1   
 16   8  12  ar  
 17   8  27  1   
 18   9  13  ar  
 19   9  14  ar  
 20  10  28  1   
 21  10  29  1   
 22  10  30  1   
 23  11  15  ar  
 24  11  31  1   
 25  12  15  ar  
 26  12  32  1   
 27  13  16  ar  
 28  13  33  1   
 29  14  17  ar  
 30  14  34  1   
 31  15  18  1   
 32  16  19  ar  
 33  16  35  1   
 34  17  19  ar  
 35  17  36  1   
 36  18  20  1   
 37  18  37  1   
 38  18  38  1   
 39  20  21  1   
 40  20  39  1   
 41  20  40  1   
 42  21  41  1   
 43  21  42  1   
 44  21  43  1   
@<TRIPOS>SUBSTRUCTURE
  1 ****   2 GROUP 4 **** **** 0

# MOE 2024.06 (io_trps.svl 2023.06)
