@<TRIPOS>MOLECULE
NONAME
51 53 1 0 0 
SMALL
USER_CHARGES


@<TRIPOS>ATOM
  1 O        1.8160     2.8260     1.3700 O.2   1 <1>  -0.5700 
  2 C        1.0150     2.4600     0.5450 C.2   1 <1>   0.6590 
  3 O       -0.2700     2.7650     0.6020 O.3   1 <1>  -0.4300 
  4 C        1.4570     1.6110    -0.6340 C.3   1 <1>  -0.0190 
  5 C       -0.7980     3.5670     1.6350 C.3   1 <1>   0.1200 
  6 C        2.4940     0.5980    -0.1270 C.3   1 <1>   0.3430 
  7 C        2.0070     2.4980    -1.7820 C.3   1 <1>  -0.1600 
  8 C       -2.2960     3.7170     1.3960 C.3   1 <1>  -0.2400 
  9 N        3.8060     1.2880     0.0210 N.4   1 <1>  -0.9590 
 10 C        3.3250     1.9510    -2.3580 C.3   1 <1>  -0.1600 
 11 C        4.4020     1.7280    -1.2830 C.3   1 <1>   0.3430 
 12 C        4.7690     0.5510     0.8750 C.3   1 <1>   0.4860 
 13 C        5.9090     1.4910     1.2080 C.ar  1 <1>  -0.1440 
 14 C        7.1390     1.3400     0.5860 C.ar  1 <1>  -0.1500 
 15 C        5.7270     2.5190     2.1240 C.ar  1 <1>  -0.1500 
 16 C        8.1810     2.2150     0.8730 C.ar  1 <1>   0.0820 
 17 C        6.7630     3.3920     2.4070 C.ar  1 <1>  -0.1500 
 18 O        9.3950     2.1090     0.2750 O.3   1 <1>  -0.1650 
 19 C        7.9870     3.2430     1.7800 C.ar  1 <1>  -0.1500 
 20 C        9.8800     0.9060    -0.1150 C.ar  1 <1>   0.0820 
 21 C        9.8720    -0.1870     0.7430 C.ar  1 <1>  -0.1500 
 22 C       10.3970     0.7800    -1.3950 C.ar  1 <1>  -0.1500 
 23 C       10.3600    -1.4070     0.3100 C.ar  1 <1>  -0.1500 
 24 C       10.8830    -0.4420    -1.8260 C.ar  1 <1>  -0.1500 
 25 C       10.8610    -1.5350    -0.9750 C.ar  1 <1>  -0.1500 
 26 H        0.6020     1.0600    -0.9850 H     1 <1>   0.0800 
 27 H       -0.3060     4.5250     1.6110 H     1 <1>   0.0800 
 28 H       -0.6050     3.0850     2.5790 H     1 <1>   0.0800 
 29 H        2.5880    -0.2140    -0.8300 H     1 <1>   0.0800 
 30 H        2.1700     0.1970     0.8200 H     1 <1>   0.0800 
 31 H        2.1880     3.4960    -1.4170 H     1 <1>   0.0800 
 32 H        1.2690     2.5780    -2.5640 H     1 <1>   0.0800 
 33 H       -2.4770     4.1930     0.4480 H     1 <1>   0.0800 
 34 H       -2.7270     4.3270     2.1700 H     1 <1>   0.0800 
 35 H       -2.7760     2.7550     1.4140 H     1 <1>   0.0800 
 36 H        3.5910     2.1530     0.5520 H     1 <1>   0.4500 
 37 H        3.7080     2.6300    -3.1000 H     1 <1>   0.0800 
 38 H        3.1360     1.0170    -2.8610 H     1 <1>   0.0800 
 39 H        5.1030     0.9910    -1.6390 H     1 <1>   0.0800 
 40 H        4.9460     2.6470    -1.1230 H     1 <1>   0.0800 
 41 H        5.1400    -0.3200     0.3600 H     1 <1>   0.0800 
 42 H        4.2910     0.2360     1.7890 H     1 <1>   0.0800 
 43 H        7.2980     0.5510    -0.1280 H     1 <1>   0.1500 
 44 H        4.7820     2.6550     2.6260 H     1 <1>   0.1500 
 45 H        6.6190     4.1910     3.1160 H     1 <1>   0.1500 
 46 H        8.7960     3.9200     1.9940 H     1 <1>   0.1500 
 47 H        9.4930    -0.0810     1.7440 H     1 <1>   0.1500 
 48 H       10.4150     1.6350    -2.0470 H     1 <1>   0.1500 
 49 H       10.3560    -2.2570     0.9710 H     1 <1>   0.1500 
 50 H       11.2820    -0.5430    -2.8210 H     1 <1>   0.1500 
 51 H       11.2410    -2.4850    -1.3120 H     1 <1>   0.1500 
@<TRIPOS>BOND
  1   1   2  2   
  2   2   3  1   
  3   2   4  1   
  4   3   5  1   
  5   4   6  1   
  6   4   7  1   
  7   4  26  1   
  8   5   8  1   
  9   5  27  1   
 10   5  28  1   
 11   6   9  1   
 12   6  29  1   
 13   6  30  1   
 14   7  10  1   
 15   7  31  1   
 16   7  32  1   
 17   8  33  1   
 18   8  34  1   
 19   8  35  1   
 20   9  11  1   
 21   9  12  1   
 22   9  36  1   
 23  10  11  1   
 24  10  37  1   
 25  10  38  1   
 26  11  39  1   
 27  11  40  1   
 28  12  13  1   
 29  12  41  1   
 30  12  42  1   
 31  13  14  ar  
 32  13  15  ar  
 33  14  16  ar  
 34  14  43  1   
 35  15  17  ar  
 36  15  44  1   
 37  16  18  1   
 38  16  19  ar  
 39  17  19  ar  
 40  17  45  1   
 41  18  20  1   
 42  19  46  1   
 43  20  21  ar  
 44  20  22  ar  
 45  21  23  ar  
 46  21  47  1   
 47  22  24  ar  
 48  22  48  1   
 49  23  25  ar  
 50  23  49  1   
 51  24  25  ar  
 52  24  50  1   
 53  25  51  1   
@<TRIPOS>SUBSTRUCTURE
  1 ****  13 GROUP 4 **** **** 0

# MOE 2024.06 (io_trps.svl 2023.06)
