@<TRIPOS>MOLECULE
NONAME
47 50 1 0 0 
SMALL
USER_CHARGES


@<TRIPOS>ATOM
  1 O        0.1010    -0.0850     1.0560 O.2   1 <1>  -0.5700 
  2 C       -0.7960     0.6810     0.8070 C.2   1 <1>   0.5690 
  3 N       -0.6220     2.0040     0.5130 N.am  1 <1>  -0.5470 
  4 C       -2.2200     0.1540     0.8320 C.3   1 <1>  -0.0990 
  5 C        0.5390     2.7920     0.3940 C.ar  1 <1>   0.1170 
  6 C       -2.8720     0.1230    -0.5600 C.3   1 <1>  -0.2400 
  7 C        1.8120     2.2660     0.2610 C.ar  1 <1>  -0.1500 
  8 C        0.3750     4.1890     0.3950 C.ar  1 <1>  -0.1500 
  9 C        2.9060     3.1190     0.1310 C.ar  1 <1>   0.2270 
 10 C        1.4480     5.0420     0.2670 C.ar  1 <1>  -0.1500 
 11 N        4.2280     2.8160    -0.0150 N.2   1 <1>  -0.5650 
 12 C        2.7210     4.4890     0.1320 C.ar  1 <1>  -0.1520 
 13 C        4.8100     3.9640    -0.0900 C.2   1 <1>   0.0060 
 14 N        3.9640     5.0200    -0.0130 N.pl3 1 <1>   0.0480 
 15 C        6.3060     4.1860    -0.2720 C.3   1 <1>   0.2900 
 16 C        4.3760     6.4340    -0.0500 C.3   1 <1>   0.0960 
 17 N        6.7030     5.5890     0.0150 N.3   1 <1>  -0.8100 
 18 C        5.7920     6.5550    -0.6320 C.3   1 <1>   0.1100 
 19 C        8.1130     5.8100    -0.3500 C.3   1 <1>   0.2530 
 20 C        8.5960     7.1820     0.1020 C.ar  1 <1>  -0.1430 
 21 C        9.1590     8.0680    -0.8060 C.ar  1 <1>  -0.1500 
 22 C        8.4790     7.5590     1.4320 C.ar  1 <1>  -0.1500 
 23 C        9.5980     9.3130    -0.3890 C.ar  1 <1>  -0.1500 
 24 C        8.9180     8.8030     1.8500 C.ar  1 <1>  -0.1500 
 25 C        9.4790     9.6810     0.9400 C.ar  1 <1>  -0.1500 
 26 H       -1.4880     2.5130     0.3590 H     1 <1>   0.3700 
 27 H       -2.8040     0.7620     1.4970 H     1 <1>   0.0800 
 28 H       -2.2040    -0.8440     1.2330 H     1 <1>   0.0800 
 29 H       -2.9380     1.1130    -0.9760 H     1 <1>   0.0800 
 30 H       -3.8630    -0.2900    -0.4950 H     1 <1>   0.0800 
 31 H       -2.2880    -0.4910    -1.2250 H     1 <1>   0.0800 
 32 H        1.9970     1.2100     0.2510 H     1 <1>   0.1500 
 33 H       -0.6130     4.5970     0.5020 H     1 <1>   0.1500 
 34 H        1.3180     6.1100     0.2720 H     1 <1>   0.1500 
 35 H        6.5600     3.9340    -1.2870 H     1 <1>   0.0800 
 36 H        6.8370     3.5200     0.3850 H     1 <1>   0.0800 
 37 H        4.3670     6.8190     0.9530 H     1 <1>   0.0800 
 38 H        3.6800     6.9940    -0.6460 H     1 <1>   0.0800 
 39 H        6.1370     7.5610    -0.4680 H     1 <1>   0.0800 
 40 H        5.7660     6.3810    -1.6950 H     1 <1>   0.0800 
 41 H        8.2330     5.7080    -1.4150 H     1 <1>   0.0800 
 42 H        8.7240     5.0640     0.1290 H     1 <1>   0.0800 
 43 H        9.2590     7.7940    -1.8410 H     1 <1>   0.1500 
 44 H        8.0380     6.8790     2.1400 H     1 <1>   0.1500 
 45 H       10.0350     9.9950    -1.0970 H     1 <1>   0.1500 
 46 H        8.8230     9.0860     2.8840 H     1 <1>   0.1500 
 47 H        9.8210    10.6480     1.2640 H     1 <1>   0.1500 
@<TRIPOS>BOND
  1   1   2  2   
  2   2   3  am  
  3   2   4  1   
  4   3   5  1   
  5   3  26  1   
  6   4   6  1   
  7   4  27  1   
  8   4  28  1   
  9   5   7  ar  
 10   5   8  ar  
 11   6  29  1   
 12   6  30  1   
 13   6  31  1   
 14   7   9  ar  
 15   7  32  1   
 16   8  10  ar  
 17   8  33  1   
 18   9  11  1   
 19   9  12  ar  
 20  10  12  ar  
 21  10  34  1   
 22  11  13  2   
 23  12  14  1   
 24  13  14  1   
 25  13  15  1   
 26  14  16  1   
 27  15  17  1   
 28  15  35  1   
 29  15  36  1   
 30  16  18  1   
 31  16  37  1   
 32  16  38  1   
 33  17  18  1   
 34  17  19  1   
 35  18  39  1   
 36  18  40  1   
 37  19  20  1   
 38  19  41  1   
 39  19  42  1   
 40  20  21  ar  
 41  20  22  ar  
 42  21  23  ar  
 43  21  43  1   
 44  22  24  ar  
 45  22  44  1   
 46  23  25  ar  
 47  23  45  1   
 48  24  25  ar  
 49  24  46  1   
 50  25  47  1   
@<TRIPOS>SUBSTRUCTURE
  1 ****  14 GROUP 4 **** **** 0

# MOE 2024.06 (io_trps.svl 2023.06)
