@<TRIPOS>MOLECULE
NONAME
62 65 1 0 0 
SMALL
USER_CHARGES


@<TRIPOS>ATOM
  1 O        0.4960    -2.4010    -1.8920 O.3   1 <1>  -0.3630 
  2 C       -0.2530    -2.9150    -0.8990 C.ar  1 <1>   0.0820 
  3 C        1.2850    -3.4650    -2.4180 C.3   1 <1>   0.4000 
  4 C       -1.1820    -2.3060    -0.0540 C.ar  1 <1>   0.0820 
  5 C        0.0120    -4.2500    -0.7840 C.ar  1 <1>   0.0820 
  6 O        0.9250    -4.6290    -1.6820 O.3   1 <1>  -0.3630 
  7 O       -1.5400    -0.9940    -0.0690 O.3   1 <1>  -0.3630 
  8 C       -1.8130    -3.1010     0.8950 C.ar  1 <1>  -0.1500 
  9 C       -0.6130    -5.0520     0.1510 C.ar  1 <1>  -0.1500 
 10 C       -0.9190    -0.0810    -0.9470 C.3   1 <1>   0.0400 
 11 C       -1.5440    -4.4640     1.0000 C.ar  1 <1>  -0.1430 
 12 C       -2.2790    -5.3030     2.0270 C.3   1 <1>   0.4870 
 13 N       -3.3370    -6.0790     1.3360 N.4   1 <1>  -0.9590 
 14 C       -4.3250    -5.2410     0.5750 C.3   1 <1>   0.3430 
 15 C       -4.0400    -7.0760     2.2050 C.3   1 <1>   0.3430 
 16 C       -5.3370    -6.1260    -0.1940 C.3   1 <1>   0.1100 
 17 C       -4.9890    -7.9650     1.3680 C.3   1 <1>   0.1100 
 18 N       -5.0310    -7.5690    -0.0640 N.3   1 <1>  -0.8100 
 19 C       -6.0030    -8.3860    -0.8200 C.3   1 <1>   0.2530 
 20 C       -5.6150    -9.8590    -0.7890 C.ar  1 <1>  -0.1430 
 21 C       -6.2790   -10.7700     0.0300 C.ar  1 <1>   0.0820 
 22 C       -4.5790   -10.2960    -1.6010 C.ar  1 <1>  -0.1500 
 23 O       -7.2730   -10.2970     0.8330 O.3   1 <1>  -0.3620 
 24 C       -5.9100   -12.1130     0.0090 C.ar  1 <1>  -0.1500 
 25 C       -4.2000   -11.6270    -1.6130 C.ar  1 <1>   0.0820 
 26 C       -8.1500   -11.1810     1.4990 C.3   1 <1>   0.0400 
 27 C       -4.8910   -12.5480    -0.8190 C.ar  1 <1>   0.0820 
 28 O       -3.1580   -11.9720    -2.4130 O.3   1 <1>  -0.3620 
 29 O       -4.6120   -13.8750    -0.8180 O.3   1 <1>  -0.3620 
 30 C       -2.0000   -12.4480    -1.7630 C.3   1 <1>   0.0400 
 31 C       -4.8800   -14.5700    -2.0160 C.3   1 <1>   0.0400 
 32 H        2.3280    -3.2490    -2.2660 H     1 <1>   0.0800 
 33 H        1.0550    -3.6070    -3.4590 H     1 <1>   0.0800 
 34 H       -2.5220    -2.6240     1.5490 H     1 <1>   0.1500 
 35 H       -0.3630    -6.0970     0.1940 H     1 <1>   0.1500 
 36 H       -1.3330     0.8940    -0.7660 H     1 <1>   0.0800 
 37 H       -1.1180    -0.3810    -1.9610 H     1 <1>   0.0800 
 38 H        0.1390    -0.0730    -0.7520 H     1 <1>   0.0800 
 39 H       -2.7150    -4.6640     2.7780 H     1 <1>   0.0800 
 40 H       -1.5820    -5.9700     2.5070 H     1 <1>   0.0800 
 41 H       -2.9040    -6.6520     0.5960 H     1 <1>   0.4500 
 42 H       -3.8040    -4.6190    -0.1360 H     1 <1>   0.0800 
 43 H       -4.8590    -4.5910     1.2470 H     1 <1>   0.0800 
 44 H       -4.6110    -6.5670     2.9640 H     1 <1>   0.0800 
 45 H       -3.3210    -7.7080     2.7010 H     1 <1>   0.0800 
 46 H       -5.3170    -5.8470    -1.2340 H     1 <1>   0.0800 
 47 H       -6.3290    -5.9280     0.1760 H     1 <1>   0.0800 
 48 H       -5.9790    -7.9270     1.7900 H     1 <1>   0.0800 
 49 H       -4.6490    -8.9840     1.4470 H     1 <1>   0.0800 
 50 H       -6.0160    -8.0620    -1.8470 H     1 <1>   0.0800 
 51 H       -6.9950    -8.2460    -0.4240 H     1 <1>   0.0800 
 52 H       -4.0520    -9.6020    -2.2300 H     1 <1>   0.1500 
 53 H       -6.3980   -12.8450     0.6210 H     1 <1>   0.1500 
 54 H       -8.9110   -10.5970     1.9860 H     1 <1>   0.0800 
 55 H       -7.5960   -11.7410     2.2320 H     1 <1>   0.0800 
 56 H       -8.6030   -11.8370     0.7760 H     1 <1>   0.0800 
 57 H       -1.2240   -12.5580    -2.4980 H     1 <1>   0.0800 
 58 H       -2.2100   -13.3990    -1.3080 H     1 <1>   0.0800 
 59 H       -1.7020   -11.7340    -1.0160 H     1 <1>   0.0800 
 60 H       -4.7050   -15.6170    -1.8430 H     1 <1>   0.0800 
 61 H       -4.2270   -14.2130    -2.7910 H     1 <1>   0.0800 
 62 H       -5.9070   -14.4080    -2.2890 H     1 <1>   0.0800 
@<TRIPOS>BOND
  1   1   2  1   
  2   1   3  1   
  3   2   4  ar  
  4   2   5  ar  
  5   3   6  1   
  6   3  32  1   
  7   3  33  1   
  8   4   7  1   
  9   4   8  ar  
 10   5   6  1   
 11   5   9  ar  
 12   7  10  1   
 13   8  11  ar  
 14   8  34  1   
 15   9  11  ar  
 16   9  35  1   
 17  10  36  1   
 18  10  37  1   
 19  10  38  1   
 20  11  12  1   
 21  12  13  1   
 22  12  39  1   
 23  12  40  1   
 24  13  14  1   
 25  13  15  1   
 26  13  41  1   
 27  14  16  1   
 28  14  42  1   
 29  14  43  1   
 30  15  17  1   
 31  15  44  1   
 32  15  45  1   
 33  16  18  1   
 34  16  46  1   
 35  16  47  1   
 36  17  18  1   
 37  17  48  1   
 38  17  49  1   
 39  18  19  1   
 40  19  20  1   
 41  19  50  1   
 42  19  51  1   
 43  20  21  ar  
 44  20  22  ar  
 45  21  23  1   
 46  21  24  ar  
 47  22  25  ar  
 48  22  52  1   
 49  23  26  1   
 50  24  27  ar  
 51  24  53  1   
 52  25  27  ar  
 53  25  28  1   
 54  26  54  1   
 55  26  55  1   
 56  26  56  1   
 57  27  29  1   
 58  28  30  1   
 59  29  31  1   
 60  30  57  1   
 61  30  58  1   
 62  30  59  1   
 63  31  60  1   
 64  31  61  1   
 65  31  62  1   
@<TRIPOS>SUBSTRUCTURE
  1 ****  18 GROUP 4 **** **** 0

# MOE 2024.06 (io_trps.svl 2023.06)
