@<TRIPOS>MOLECULE
NONAME
43 44 1 0 0 
SMALL
USER_CHARGES


@<TRIPOS>ATOM
  1 O        0.5140     0.3820     0.5060 O.2   1 <1>  -0.5700 
  2 C        0.2860     1.5240     0.2060 C.2   1 <1>   0.6590 
  3 O       -0.9300     2.0450     0.2450 O.3   1 <1>  -0.4300 
  4 C        1.3920     2.4590    -0.2500 C.3   1 <1>  -0.0190 
  5 C       -2.0470     1.2880     0.6540 C.3   1 <1>   0.1200 
  6 C        2.6500     1.6360    -0.5890 C.3   1 <1>   0.3430 
  7 C        1.6920     3.5560     0.7910 C.3   1 <1>  -0.1600 
  8 C       -3.2760     2.1880     0.5890 C.3   1 <1>  -0.2400 
  9 N        3.9270     2.3930    -0.3580 N.4   1 <1>  -0.9590 
 10 C        2.8120     4.4960     0.3000 C.3   1 <1>  -0.1600 
 11 C        3.8080     3.8450    -0.6710 C.3   1 <1>   0.3430 
 12 C        5.0780     1.7510    -1.0490 C.3   1 <1>   0.4860 
 13 C        6.3550     2.4030    -0.5610 C.ar  1 <1>  -0.1430 
 14 C        7.0460     3.2870    -1.3780 C.ar  1 <1>  -0.1500 
 15 C        6.8410     2.1300     0.7100 C.ar  1 <1>  -0.1500 
 16 C        8.1990     3.8990    -0.9230 C.ar  1 <1>  -0.1500 
 17 C        7.9950     2.7450     1.1610 C.ar  1 <1>  -0.1500 
 18 C        8.6790     3.6330     0.3480 C.ar  1 <1>  -0.1430 
 19 C        9.9450     4.3070     0.8460 C.3   1 <1>  -0.0970 
 20 H        1.0470     2.9290    -1.1530 H     1 <1>   0.0800 
 21 H       -1.8760     0.9400     1.6590 H     1 <1>   0.0800 
 22 H       -2.1510     0.4440    -0.0080 H     1 <1>   0.0800 
 23 H        2.5840     1.3230    -1.6190 H     1 <1>   0.0800 
 24 H        2.6690     0.7450     0.0180 H     1 <1>   0.0800 
 25 H        1.9940     3.0890     1.7140 H     1 <1>   0.0800 
 26 H        0.8030     4.1290     0.9970 H     1 <1>   0.0800 
 27 H       -3.1570     3.0300     1.2480 H     1 <1>   0.0800 
 28 H       -4.1450     1.6350     0.8970 H     1 <1>   0.0800 
 29 H       -3.4320     2.5360    -0.4160 H     1 <1>   0.0800 
 30 H        4.1450     2.3490     0.6460 H     1 <1>   0.4500 
 31 H        3.3480     4.8830     1.1500 H     1 <1>   0.0800 
 32 H        2.3750     5.3440    -0.1990 H     1 <1>   0.0800 
 33 H        3.4580     3.9660    -1.6840 H     1 <1>   0.0800 
 34 H        4.7650     4.3370    -0.5820 H     1 <1>   0.0800 
 35 H        4.9880     1.8680    -2.1170 H     1 <1>   0.0800 
 36 H        5.1100     0.6980    -0.8210 H     1 <1>   0.0800 
 37 H        6.7010     3.5090    -2.3740 H     1 <1>   0.1500 
 38 H        6.3380     1.4370     1.3620 H     1 <1>   0.1500 
 39 H        8.7290     4.5850    -1.5620 H     1 <1>   0.1500 
 40 H        8.3650     2.5290     2.1490 H     1 <1>   0.1500 
 41 H        9.6990     5.2300     1.3390 H     1 <1>   0.0800 
 42 H       10.6080     4.5180     0.0260 H     1 <1>   0.0800 
 43 H       10.4630     3.6710     1.5410 H     1 <1>   0.0800 
@<TRIPOS>BOND
  1   1   2  2   
  2   2   3  1   
  3   2   4  1   
  4   3   5  1   
  5   4   6  1   
  6   4   7  1   
  7   4  20  1   
  8   5   8  1   
  9   5  21  1   
 10   5  22  1   
 11   6   9  1   
 12   6  23  1   
 13   6  24  1   
 14   7  10  1   
 15   7  25  1   
 16   7  26  1   
 17   8  27  1   
 18   8  28  1   
 19   8  29  1   
 20   9  11  1   
 21   9  12  1   
 22   9  30  1   
 23  10  11  1   
 24  10  31  1   
 25  10  32  1   
 26  11  33  1   
 27  11  34  1   
 28  12  13  1   
 29  12  35  1   
 30  12  36  1   
 31  13  14  ar  
 32  13  15  ar  
 33  14  16  ar  
 34  14  37  1   
 35  15  17  ar  
 36  15  38  1   
 37  16  18  ar  
 38  16  39  1   
 39  17  18  ar  
 40  17  40  1   
 41  18  19  1   
 42  19  41  1   
 43  19  42  1   
 44  19  43  1   
@<TRIPOS>SUBSTRUCTURE
  1 ****   9 GROUP 4 **** **** 0

# MOE 2024.06 (io_trps.svl 2023.06)
