@<TRIPOS>MOLECULE
NONAME
37 38 1 0 0 
SMALL
USER_CHARGES


@<TRIPOS>ATOM
  1 S        0.1300    -0.1530     0.6900 S.o2  1 <1>   1.4470 
  2 O        0.4120    -0.3730     2.0930 O.2   1 <1>  -0.6500 
  3 O        0.1240     1.1970     0.1720 O.2   1 <1>  -0.6500 
  4 N        1.2790    -1.0440    -0.1860 N.am  1 <1>  -0.8490 
  5 C       -1.4380    -0.9500     0.2430 C.ar  1 <1>  -0.0090 
  6 C        1.4630    -2.3860     0.3820 C.3   1 <1>   0.1960 
  7 C        2.5340    -0.2930    -0.3070 C.3   1 <1>   0.1960 
  8 C       -1.7200    -1.2770    -1.0780 C.ar  1 <1>  -0.1500 
  9 C       -2.4000    -1.2460     1.2070 C.ar  1 <1>  -0.1500 
 10 C        1.9250    -3.3650    -0.7000 C.3   1 <1>  -0.1600 
 11 C        3.5450    -0.9350    -1.2650 C.3   1 <1>  -0.1600 
 12 C       -2.9190    -1.8830    -1.3980 C.ar  1 <1>   0.1900 
 13 C       -3.6030    -1.8540     0.8800 C.ar  1 <1>  -0.1500 
 14 C        3.4490    -3.4780    -0.8660 C.3   1 <1>  -0.1600 
 15 C        4.2390    -2.1750    -0.6830 C.3   1 <1>  -0.1600 
 16 F       -3.1360    -2.1770    -2.6550 F     1 <1>  -0.1900 
 17 C       -3.8820    -2.1860    -0.4430 C.ar  1 <1>   0.0830 
 18 O       -5.0380    -2.7850    -0.8370 O.3   1 <1>  -0.3630 
 19 C       -6.0660    -3.0900     0.0790 C.3   1 <1>   0.0400 
 20 H        0.5160    -2.7460     0.7500 H     1 <1>   0.0800 
 21 H        2.1440    -2.3650     1.2180 H     1 <1>   0.0800 
 22 H        2.9760    -0.1580     0.6670 H     1 <1>   0.0800 
 23 H        2.3140     0.6870    -0.6980 H     1 <1>   0.0800 
 24 H       -1.0070    -1.0600    -1.8550 H     1 <1>   0.1500 
 25 H       -2.2000    -0.9950     2.2360 H     1 <1>   0.1500 
 26 H        1.4730    -3.0870    -1.6360 H     1 <1>   0.0800 
 27 H        1.5510    -4.3430    -0.4540 H     1 <1>   0.0800 
 28 H        4.3060    -0.1990    -1.4550 H     1 <1>   0.0800 
 29 H        3.0780    -1.1550    -2.2090 H     1 <1>   0.0800 
 30 H       -4.3060    -2.0590     1.6660 H     1 <1>   0.1500 
 31 H        3.6460    -3.8700    -1.8500 H     1 <1>   0.0800 
 32 H        3.8270    -4.1980    -0.1600 H     1 <1>   0.0800 
 33 H        4.4360    -2.0150     0.3630 H     1 <1>   0.0800 
 34 H        5.1940    -2.2980    -1.1640 H     1 <1>   0.0800 
 35 H       -6.8740    -3.5430    -0.4660 H     1 <1>   0.0800 
 36 H       -6.4040    -2.1800     0.5420 H     1 <1>   0.0800 
 37 H       -5.6880    -3.7810     0.8120 H     1 <1>   0.0800 
@<TRIPOS>BOND
  1   1   2  2   
  2   1   3  2   
  3   1   4  am  
  4   1   5  1   
  5   4   6  1   
  6   4   7  1   
  7   5   8  ar  
  8   5   9  ar  
  9   6  10  1   
 10   6  20  1   
 11   6  21  1   
 12   7  11  1   
 13   7  22  1   
 14   7  23  1   
 15   8  12  ar  
 16   8  24  1   
 17   9  13  ar  
 18   9  25  1   
 19  10  14  1   
 20  10  26  1   
 21  10  27  1   
 22  11  15  1   
 23  11  28  1   
 24  11  29  1   
 25  12  16  1   
 26  12  17  ar  
 27  13  17  ar  
 28  13  30  1   
 29  14  15  1   
 30  14  31  1   
 31  14  32  1   
 32  15  33  1   
 33  15  34  1   
 34  17  18  1   
 35  18  19  1   
 36  19  35  1   
 37  19  36  1   
 38  19  37  1   
@<TRIPOS>SUBSTRUCTURE
  1 ****   5 GROUP 4 **** **** 0

# MOE 2024.06 (io_trps.svl 2023.06)
