@<TRIPOS>MOLECULE
NONAME
48 51 1 0 0 
SMALL
USER_CHARGES


@<TRIPOS>ATOM
  1 S        1.2540    -2.9370    -1.8170 S.3   1 <1>  -0.3610 
  2 C        0.6370    -2.3500    -0.3060 C.cat 1 <1>   0.8400 
  3 C        2.6590    -3.8810    -1.1050 C.3   1 <1>   0.0700 
  4 N        1.3670    -2.7810     0.6870 N.pl3 1 <1>  -0.7940 
  5 N       -0.4240    -1.5750    -0.1870 N.pl3 1 <1>  -0.6850 
  6 C        2.5480    -3.6570     0.4130 C.3   1 <1>   0.3300 
  7 C       -1.2770    -1.0520    -1.1350 C.2   1 <1>   0.8900 
  8 O       -1.1330    -1.2650    -2.3040 O.2   1 <1>  -0.5700 
  9 C       -2.4400    -0.1680    -0.6280 C.3   1 <1>   0.0610 
 10 C       -1.8910     1.0660     0.1370 C.3   1 <1>  -0.1600 
 11 C       -3.3580    -0.9750     0.3300 C.3   1 <1>  -0.1600 
 12 C       -3.3170     0.3510    -1.8000 C.3   1 <1>  -0.1600 
 13 C       -3.0360     1.9500     0.6660 C.3   1 <1>   0.0000 
 14 C       -4.5130    -0.1050     0.8610 C.3   1 <1>   0.0000 
 15 C       -4.4740     1.2310    -1.2940 C.3   1 <1>   0.0000 
 16 C       -3.9240     1.1100     1.6050 C.3   1 <1>  -0.1600 
 17 C       -3.8870     2.4300    -0.5250 C.3   1 <1>  -0.1600 
 18 C       -2.4650     3.1570     1.4220 C.3   1 <1>  -0.2400 
 19 C       -5.3460     0.4000    -0.3330 C.3   1 <1>  -0.1600 
 20 C       -5.3980    -0.9250     1.8080 C.3   1 <1>  -0.2400 
 21 C       -5.3170     1.7250    -2.4760 C.3   1 <1>  -0.2400 
 22 H        3.5720    -3.4820    -1.5130 H     1 <1>   0.0800 
 23 H        2.5410    -4.9150    -1.3770 H     1 <1>   0.0800 
 24 H        1.1950    -2.5640     1.6710 H     1 <1>   0.4500 
 25 H       -0.6870    -1.2980     0.7480 H     1 <1>   0.4500 
 26 H        3.4470    -3.1870     0.7790 H     1 <1>   0.0800 
 27 H        2.4280    -4.6040     0.9130 H     1 <1>   0.0800 
 28 H       -1.2700     1.6500    -0.5240 H     1 <1>   0.0800 
 29 H       -1.2820     0.7610     0.9680 H     1 <1>   0.0800 
 30 H       -2.7990    -1.3500     1.1680 H     1 <1>   0.0800 
 31 H       -3.7660    -1.8220    -0.1950 H     1 <1>   0.0800 
 32 H       -3.7180    -0.4830    -2.3510 H     1 <1>   0.0800 
 33 H       -2.7090     0.9210    -2.4840 H     1 <1>   0.0800 
 34 H       -3.3510     0.7780     2.4530 H     1 <1>   0.0800 
 35 H       -4.7260     1.7220     1.9810 H     1 <1>   0.0800 
 36 H       -3.2840     3.0270    -1.1880 H     1 <1>   0.0800 
 37 H       -4.6880     3.0550    -0.1680 H     1 <1>   0.0800 
 38 H       -1.8450     3.7510     0.7740 H     1 <1>   0.0800 
 39 H       -1.8730     2.8370     2.2610 H     1 <1>   0.0800 
 40 H       -3.2610     3.7800     1.7890 H     1 <1>   0.0800 
 41 H       -6.1620     1.0050     0.0260 H     1 <1>   0.0800 
 42 H       -5.7730    -0.4350    -0.8610 H     1 <1>   0.0800 
 43 H       -4.8320    -1.2790     2.6510 H     1 <1>   0.0800 
 44 H       -5.8160    -1.7730     1.2960 H     1 <1>   0.0800 
 45 H       -6.2100    -0.3220     2.1770 H     1 <1>   0.0800 
 46 H       -4.7160     2.3070    -3.1530 H     1 <1>   0.0800 
 47 H       -6.1290     2.3410    -2.1300 H     1 <1>   0.0800 
 48 H       -5.7310     0.8940    -3.0190 H     1 <1>   0.0800 
@<TRIPOS>BOND
  1   1   2  1   
  2   1   3  1   
  3   2   4  ar  
  4   2   5  ar  
  5   3   6  1   
  6   3  22  1   
  7   3  23  1   
  8   4   6  1   
  9   4  24  1   
 10   5   7  1   
 11   5  25  1   
 12   6  26  1   
 13   6  27  1   
 14   7   8  2   
 15   7   9  1   
 16   9  10  1   
 17   9  11  1   
 18   9  12  1   
 19  10  13  1   
 20  10  28  1   
 21  10  29  1   
 22  11  14  1   
 23  11  30  1   
 24  11  31  1   
 25  12  15  1   
 26  12  32  1   
 27  12  33  1   
 28  13  16  1   
 29  13  17  1   
 30  13  18  1   
 31  14  16  1   
 32  14  19  1   
 33  14  20  1   
 34  15  17  1   
 35  15  19  1   
 36  15  21  1   
 37  16  34  1   
 38  16  35  1   
 39  17  36  1   
 40  17  37  1   
 41  18  38  1   
 42  18  39  1   
 43  18  40  1   
 44  19  41  1   
 45  19  42  1   
 46  20  43  1   
 47  20  44  1   
 48  20  45  1   
 49  21  46  1   
 50  21  47  1   
 51  21  48  1   
@<TRIPOS>SUBSTRUCTURE
  1 ****   9 GROUP 4 **** **** 0

# MOE 2024.06 (io_trps.svl 2023.06)
