@<TRIPOS>MOLECULE
NONAME
48 49 1 0 0 
SMALL
USER_CHARGES


@<TRIPOS>ATOM
  1 O       -0.2020    -6.4640    -0.4930 O.2   1 <1>  -0.5700 
  2 C       -0.4340    -5.3050    -0.2550 C.2   1 <1>   0.5690 
  3 N       -1.6830    -4.7820    -0.1020 N.am  1 <1>  -0.5470 
  4 C        0.7400    -4.3610    -0.1180 C.3   1 <1>  -0.0990 
  5 C       -2.9740    -5.3400    -0.1490 C.ar  1 <1>   0.1170 
  6 C        2.0320    -5.1710     0.0010 C.3   1 <1>   0.3430 
  7 C       -4.0570    -4.4860     0.0930 C.ar  1 <1>   0.0820 
  8 C       -3.2260    -6.6800    -0.4230 C.ar  1 <1>  -0.1500 
  9 N        3.2250    -4.2930     0.1950 N.4   1 <1>  -0.9590 
 10 O       -3.7660    -3.1750     0.3580 O.3   1 <1>  -0.3630 
 11 C       -5.3570    -4.9810     0.0600 C.ar  1 <1>  -0.1500 
 12 C       -4.5210    -7.1660    -0.4550 C.ar  1 <1>  -0.1500 
 13 C        3.5880    -3.5190    -1.0270 C.3   1 <1>   0.3430 
 14 C        4.3920    -5.1050     0.6800 C.3   1 <1>   0.3430 
 15 C       -4.7920    -2.2400     0.6190 C.3   1 <1>   0.0400 
 16 C       -5.5860    -6.3180    -0.2140 C.ar  1 <1>  -0.1500 
 17 C        4.5970    -2.4160    -0.6570 C.3   1 <1>  -0.0800 
 18 C        5.7360    -4.3480     0.5830 C.3   1 <1>  -0.0800 
 19 C        5.5340    -2.8230     0.5030 C.3   1 <1>  -0.1600 
 20 C        3.8770    -1.1030    -0.3160 C.3   1 <1>  -0.2400 
 21 C        6.5840    -4.8600    -0.5950 C.3   1 <1>  -0.2400 
 22 H       -1.7460    -3.7800     0.0950 H     1 <1>   0.3700 
 23 H        0.5990    -3.7610     0.7620 H     1 <1>   0.0800 
 24 H        0.7610    -3.7330    -0.9880 H     1 <1>   0.0800 
 25 H        2.1590    -5.7780    -0.8820 H     1 <1>   0.0800 
 26 H        1.9350    -5.8400     0.8420 H     1 <1>   0.0800 
 27 H       -2.4180    -7.3600    -0.6150 H     1 <1>   0.1500 
 28 H        3.0220    -3.6010     0.9270 H     1 <1>   0.4500 
 29 H       -6.2050    -4.3490     0.2420 H     1 <1>   0.1500 
 30 H       -4.6970    -8.2060    -0.6680 H     1 <1>   0.1500 
 31 H        2.7170    -3.0700    -1.4730 H     1 <1>   0.0800 
 32 H        4.0290    -4.1840    -1.7510 H     1 <1>   0.0800 
 33 H        4.4670    -6.0150     0.1070 H     1 <1>   0.0800 
 34 H        4.2220    -5.3820     1.7080 H     1 <1>   0.0800 
 35 H       -4.3370    -1.2830     0.7990 H     1 <1>   0.0800 
 36 H       -5.3380    -2.5540     1.4910 H     1 <1>   0.0800 
 37 H       -5.4380    -2.1800    -0.2390 H     1 <1>   0.0800 
 38 H       -6.5920    -6.7000    -0.2400 H     1 <1>   0.1500 
 39 H        5.1980    -2.2350    -1.5320 H     1 <1>   0.0800 
 40 H        6.2940    -4.5660     1.4790 H     1 <1>   0.0800 
 41 H        5.1160    -2.4960     1.4410 H     1 <1>   0.0800 
 42 H        6.4840    -2.3250     0.3970 H     1 <1>   0.0800 
 43 H        3.2360    -1.2160     0.5410 H     1 <1>   0.0800 
 44 H        3.2800    -0.7710    -1.1480 H     1 <1>   0.0800 
 45 H        4.5970    -0.3320    -0.1000 H     1 <1>   0.0800 
 46 H        6.1020    -4.7050    -1.5420 H     1 <1>   0.0800 
 47 H        6.7810    -5.9130    -0.4840 H     1 <1>   0.0800 
 48 H        7.5340    -4.3520    -0.6150 H     1 <1>   0.0800 
@<TRIPOS>BOND
  1   1   2  2   
  2   2   3  am  
  3   2   4  1   
  4   3   5  1   
  5   3  22  1   
  6   4   6  1   
  7   4  23  1   
  8   4  24  1   
  9   5   7  ar  
 10   5   8  ar  
 11   6   9  1   
 12   6  25  1   
 13   6  26  1   
 14   7  10  1   
 15   7  11  ar  
 16   8  12  ar  
 17   8  27  1   
 18   9  13  1   
 19   9  14  1   
 20   9  28  1   
 21  10  15  1   
 22  11  16  ar  
 23  11  29  1   
 24  12  16  ar  
 25  12  30  1   
 26  13  17  1   
 27  13  31  1   
 28  13  32  1   
 29  14  18  1   
 30  14  33  1   
 31  14  34  1   
 32  15  35  1   
 33  15  36  1   
 34  15  37  1   
 35  16  38  1   
 36  17  19  1   
 37  17  20  1   
 38  17  39  1   
 39  18  19  1   
 40  18  21  1   
 41  18  40  1   
 42  19  41  1   
 43  19  42  1   
 44  20  43  1   
 45  20  44  1   
 46  20  45  1   
 47  21  46  1   
 48  21  47  1   
 49  21  48  1   
@<TRIPOS>SUBSTRUCTURE
  1 ****   4 GROUP 4 **** **** 0

# MOE 2024.06 (io_trps.svl 2023.06)
