@<TRIPOS>MOLECULE
NONAME
50 52 1 0 0 
SMALL
USER_CHARGES


@<TRIPOS>ATOM
  1 O        0.5140     1.2370    -1.5100 O.2   1 <1>  -0.5700 
  2 C        0.9270     2.0090    -0.6800 C.2   1 <1>   0.5690 
  3 N        0.1960     2.8070     0.1340 N.am  1 <1>  -0.6600 
  4 C        2.3960     2.1960    -0.4300 C.3   1 <1>  -0.0990 
  5 C       -1.2750     2.9910     0.1560 C.3   1 <1>   0.2200 
  6 C        1.0470     3.6220     1.0200 C.3   1 <1>   0.1400 
  7 C        2.4310     2.9630     0.9070 C.3   1 <1>  -0.0190 
  8 C       -1.9780     1.6800     0.5300 C.3   1 <1>  -0.1600 
  9 C       -1.7740     3.5330    -1.1890 C.3   1 <1>  -0.1600 
 10 C        3.5850     3.9450     1.0520 C.2   1 <1>   0.5690 
 11 C       -3.5040     1.8580     0.5440 C.3   1 <1>  -0.1600 
 12 C       -3.3000     3.7140    -1.1770 C.3   1 <1>  -0.1600 
 13 O        3.3760     5.0120     1.5750 O.2   1 <1>  -0.5700 
 14 N        4.8120     3.5490     0.5990 N.am  1 <1>  -0.5470 
 15 C       -4.0090     2.4050    -0.7990 C.3   1 <1>  -0.1600 
 16 C        6.0780     4.1610     0.5530 C.ar  1 <1>   0.1170 
 17 C        7.1140     3.4610    -0.0750 C.ar  1 <1>   0.0820 
 18 C        6.3480     5.4110     1.0980 C.ar  1 <1>  -0.1500 
 19 O        6.8100     2.2340    -0.5980 O.3   1 <1>  -0.3620 
 20 C        8.3870     4.0190    -0.1460 C.ar  1 <1>  -0.1500 
 21 C        7.6140     5.9670     1.0240 C.ar  1 <1>  -0.1440 
 22 C        7.7800     1.4710    -1.2820 C.3   1 <1>   0.0400 
 23 C        8.6320     5.2660     0.4020 C.ar  1 <1>  -0.1500 
 24 C        7.8880     7.3340     1.6260 C.3   1 <1>  -0.0970 
 25 H        2.8010     2.7830    -1.2360 H     1 <1>   0.0800 
 26 H        2.8970     1.2480    -0.3690 H     1 <1>   0.0800 
 27 H       -1.5130     3.7190     0.9130 H     1 <1>   0.0800 
 28 H        0.6870     3.6030     2.0340 H     1 <1>   0.0800 
 29 H        1.0620     4.6360     0.6560 H     1 <1>   0.0800 
 30 H        2.5090     2.2500     1.7070 H     1 <1>   0.0800 
 31 H       -1.6450     1.3570     1.5000 H     1 <1>   0.0800 
 32 H       -1.7260     0.9190    -0.1870 H     1 <1>   0.0800 
 33 H       -1.5140     2.8440    -1.9730 H     1 <1>   0.0800 
 34 H       -1.3010     4.4760    -1.3940 H     1 <1>   0.0800 
 35 H       -3.7780     2.5390     1.3320 H     1 <1>   0.0800 
 36 H       -3.9740     0.9110     0.7460 H     1 <1>   0.0800 
 37 H       -3.6310     4.0340    -2.1500 H     1 <1>   0.0800 
 38 H       -3.5640     4.4810    -0.4690 H     1 <1>   0.0800 
 39 H        4.8500     2.6210     0.1730 H     1 <1>   0.3700 
 40 H       -5.0710     2.5720    -0.7450 H     1 <1>   0.0800 
 41 H       -3.8300     1.6720    -1.5680 H     1 <1>   0.0800 
 42 H        5.5670     5.9610     1.5870 H     1 <1>   0.1500 
 43 H        9.2010     3.5050    -0.6200 H     1 <1>   0.1500 
 44 H        7.3170     0.5600    -1.6160 H     1 <1>   0.0800 
 45 H        8.5860     1.2440    -0.6070 H     1 <1>   0.0800 
 46 H        8.1330     2.0330    -2.1300 H     1 <1>   0.0800 
 47 H        9.6200     5.6880     0.3420 H     1 <1>   0.1500 
 48 H        6.9790     7.9040     1.6980 H     1 <1>   0.0800 
 49 H        8.5820     7.8800     1.0140 H     1 <1>   0.0800 
 50 H        8.3040     7.2210     2.6110 H     1 <1>   0.0800 
@<TRIPOS>BOND
  1   1   2  2   
  2   2   3  am  
  3   2   4  1   
  4   3   5  1   
  5   3   6  1   
  6   4   7  1   
  7   4  25  1   
  8   4  26  1   
  9   5   8  1   
 10   5   9  1   
 11   5  27  1   
 12   6   7  1   
 13   6  28  1   
 14   6  29  1   
 15   7  10  1   
 16   7  30  1   
 17   8  11  1   
 18   8  31  1   
 19   8  32  1   
 20   9  12  1   
 21   9  33  1   
 22   9  34  1   
 23  10  13  2   
 24  10  14  am  
 25  11  15  1   
 26  11  35  1   
 27  11  36  1   
 28  12  15  1   
 29  12  37  1   
 30  12  38  1   
 31  14  16  1   
 32  14  39  1   
 33  15  40  1   
 34  15  41  1   
 35  16  17  ar  
 36  16  18  ar  
 37  17  19  1   
 38  17  20  ar  
 39  18  21  ar  
 40  18  42  1   
 41  19  22  1   
 42  20  23  ar  
 43  20  43  1   
 44  21  23  ar  
 45  21  24  1   
 46  22  44  1   
 47  22  45  1   
 48  22  46  1   
 49  23  47  1   
 50  24  48  1   
 51  24  49  1   
 52  24  50  1   
@<TRIPOS>SUBSTRUCTURE
  1 ****   7 GROUP 4 **** **** 0

# MOE 2024.06 (io_trps.svl 2023.06)
