@<TRIPOS>MOLECULE
NONAME
46 47 1 0 0 
SMALL
USER_CHARGES


@<TRIPOS>ATOM
  1 S       -0.3230    -0.4840     1.0250 S.3   1 <1>  -0.0800 
  2 C        0.8530     0.3660     0.0430 C.2   1 <1>   0.1040 
  3 C       -1.6180     0.5830     0.5160 C.2   1 <1>  -0.1400 
  4 N        2.1730    -0.0630     0.0170 N.am  1 <1>  -0.4940 
  5 C        0.2640     1.4120    -0.6140 C.2   1 <1>  -0.0860 
  6 C       -1.1490     1.5320    -0.3180 C.2   1 <1>  -0.1810 
  7 C       -2.9980     0.2620     1.0590 C.3   1 <1>   0.0200 
  8 C        2.8320    -1.1440     0.5360 C.2   1 <1>   0.5690 
  9 C        0.9750     2.2720    -1.5210 C.2   1 <1>   0.8060 
 10 C       -1.9980     2.6570    -0.9120 C.3   1 <1>   0.0210 
 11 C       -4.0920     0.6640     0.0620 C.3   1 <1>  -0.1600 
 12 O        2.3150    -2.0350     1.1630 O.2   1 <1>  -0.5700 
 13 C        4.3410    -1.1870     0.2840 C.3   1 <1>   0.1710 
 14 O        0.5350     2.6330    -2.5930 O.2   1 <1>  -0.5700 
 15 O        2.2000     2.7040    -1.2080 O.3   1 <1>  -0.4300 
 16 C       -3.1410     3.0900     0.0180 C.3   1 <1>  -0.1600 
 17 C       -4.3770     2.1740     0.0020 C.3   1 <1>  -0.1600 
 18 N        4.8100    -0.2050    -0.7450 N.3   1 <1>  -0.8100 
 19 C        2.4880     3.2310     0.0680 C.3   1 <1>   0.1200 
 20 C        6.2460     0.0580    -0.5970 C.3   1 <1>   0.0300 
 21 C        4.5290    -0.6810    -2.1100 C.3   1 <1>   0.0300 
 22 C        3.9880     3.4980     0.1330 C.3   1 <1>  -0.2400 
 23 H        2.8380     0.5130    -0.5200 H     1 <1>   0.3700 
 24 H       -3.1450     0.7410     2.0100 H     1 <1>   0.0800 
 25 H       -3.0600    -0.8020     1.2120 H     1 <1>   0.0800 
 26 H       -2.3770     2.3630    -1.8750 H     1 <1>   0.0800 
 27 H       -1.3760     3.5210    -1.0600 H     1 <1>   0.0800 
 28 H       -5.0050     0.1570     0.3230 H     1 <1>   0.0800 
 29 H       -3.8060     0.3150    -0.9160 H     1 <1>   0.0800 
 30 H        4.6200    -2.1860    -0.0020 H     1 <1>   0.0800 
 31 H        4.8160    -0.9710     1.2240 H     1 <1>   0.0800 
 32 H       -3.4590     4.0770    -0.2680 H     1 <1>   0.0800 
 33 H       -2.7600     3.1640     1.0220 H     1 <1>   0.0800 
 34 H       -5.0010     2.4420     0.8370 H     1 <1>   0.0800 
 35 H       -4.9450     2.3710    -0.8910 H     1 <1>   0.0800 
 36 H        2.2000     2.5290     0.8310 H     1 <1>   0.0800 
 37 H        1.9310     4.1450     0.1900 H     1 <1>   0.0800 
 38 H        6.4480     0.4570     0.3830 H     1 <1>   0.0800 
 39 H        6.5630     0.7840    -1.3270 H     1 <1>   0.0800 
 40 H        6.8140    -0.8470    -0.7320 H     1 <1>   0.0800 
 41 H        3.4770    -0.8720    -2.2370 H     1 <1>   0.0800 
 42 H        5.0730    -1.5880    -2.3150 H     1 <1>   0.0800 
 43 H        4.8210     0.0700    -2.8250 H     1 <1>   0.0800 
 44 H        4.5340     2.5810     0.0000 H     1 <1>   0.0800 
 45 H        4.2440     3.9120     1.0910 H     1 <1>   0.0800 
 46 H        4.2730     4.1990    -0.6320 H     1 <1>   0.0800 
@<TRIPOS>BOND
  1   1   2  1   
  2   1   3  1   
  3   2   4  1   
  4   2   5  2   
  5   3   6  2   
  6   3   7  1   
  7   4   8  am  
  8   4  23  1   
  9   5   6  1   
 10   5   9  1   
 11   6  10  1   
 12   7  11  1   
 13   7  24  1   
 14   7  25  1   
 15   8  12  2   
 16   8  13  1   
 17   9  14  2   
 18   9  15  1   
 19  10  16  1   
 20  10  26  1   
 21  10  27  1   
 22  11  17  1   
 23  11  28  1   
 24  11  29  1   
 25  13  18  1   
 26  13  30  1   
 27  13  31  1   
 28  15  19  1   
 29  16  17  1   
 30  16  32  1   
 31  16  33  1   
 32  17  34  1   
 33  17  35  1   
 34  18  20  1   
 35  18  21  1   
 36  19  22  1   
 37  19  36  1   
 38  19  37  1   
 39  20  38  1   
 40  20  39  1   
 41  20  40  1   
 42  21  41  1   
 43  21  42  1   
 44  21  43  1   
 45  22  44  1   
 46  22  45  1   
 47  22  46  1   
@<TRIPOS>SUBSTRUCTURE
  1 ****   2 GROUP 4 **** **** 0

# MOE 2024.06 (io_trps.svl 2023.06)
