@<TRIPOS>MOLECULE
NONAME
34 34 1 0 0 
SMALL
USER_CHARGES


@<TRIPOS>ATOM
  1 O       -8.2030     1.7290    -1.5270 O.2   1 <1>  -0.5700 
  2 C       -7.3480     1.8650    -0.6730 C.2   1 <1>   0.5440 
  3 N       -7.6710     1.4880     0.6020 N.am  1 <1>  -0.7300 
  4 C       -6.0530     2.4480    -0.9830 C.ar  1 <1>   0.0860 
  5 C       -8.7930     0.5840     1.0010 C.3   1 <1>   0.1400 
  6 C       -4.9160     2.1740    -0.2180 C.ar  1 <1>  -0.1500 
  7 C       -5.9000     3.3130    -2.0670 C.ar  1 <1>  -0.1500 
  8 C      -10.1330     1.3350     1.1500 C.3   1 <1>   0.3430 
  9 C       -3.6890     2.7470    -0.5050 C.ar  1 <1>  -0.1440 
 10 C       -4.6810     3.8910    -2.3630 C.ar  1 <1>  -0.1500 
 11 N      -10.5740     1.9290    -0.1480 N.4   1 <1>  -0.9590 
 12 C       -3.5760     3.6120    -1.5800 C.ar  1 <1>  -0.1500 
 13 C       -2.4700     2.4370     0.3460 C.3   1 <1>  -0.0970 
 14 C      -11.3340     3.1990     0.0270 C.3   1 <1>   0.2630 
 15 C      -11.3030     0.9550    -1.0120 C.3   1 <1>   0.2630 
 16 H       -6.9720     1.6680     1.3300 H     1 <1>   0.3700 
 17 H       -8.5450     0.1210     1.9410 H     1 <1>   0.0800 
 18 H       -8.8970    -0.2000     0.2700 H     1 <1>   0.0800 
 19 H       -4.9860     1.4950     0.6110 H     1 <1>   0.1500 
 20 H       -6.7510     3.5350    -2.6880 H     1 <1>   0.1500 
 21 H       -9.9990     2.1150     1.8810 H     1 <1>   0.0800 
 22 H      -10.8890     0.6620     1.5180 H     1 <1>   0.0800 
 23 H       -4.5870     4.5580    -3.2030 H     1 <1>   0.1500 
 24 H       -9.6850     2.1400    -0.6600 H     1 <1>   0.4500 
 25 H       -2.6290     4.0670    -1.8140 H     1 <1>   0.1500 
 26 H       -2.5800     1.4890     0.8400 H     1 <1>   0.0800 
 27 H       -2.3390     3.2030     1.0880 H     1 <1>   0.0800 
 28 H       -1.5880     2.3950    -0.2680 H     1 <1>   0.0800 
 29 H      -12.2560     3.0160     0.5530 H     1 <1>   0.0800 
 30 H      -11.5620     3.6300    -0.9350 H     1 <1>   0.0800 
 31 H      -10.7470     3.9090     0.5870 H     1 <1>   0.0800 
 32 H      -12.2200     0.6420    -0.5400 H     1 <1>   0.0800 
 33 H      -10.6870     0.0880    -1.1940 H     1 <1>   0.0800 
 34 H      -11.5360     1.4060    -1.9620 H     1 <1>   0.0800 
@<TRIPOS>BOND
  1   1   2  2   
  2   2   3  am  
  3   2   4  1   
  4   3   5  1   
  5   3  16  1   
  6   4   6  ar  
  7   4   7  ar  
  8   5   8  1   
  9   5  17  1   
 10   5  18  1   
 11   6   9  ar  
 12   6  19  1   
 13   7  10  ar  
 14   7  20  1   
 15   8  11  1   
 16   8  21  1   
 17   8  22  1   
 18   9  12  ar  
 19   9  13  1   
 20  10  12  ar  
 21  10  23  1   
 22  11  14  1   
 23  11  15  1   
 24  11  24  1   
 25  12  25  1   
 26  13  26  1   
 27  13  27  1   
 28  13  28  1   
 29  14  29  1   
 30  14  30  1   
 31  14  31  1   
 32  15  32  1   
 33  15  33  1   
 34  15  34  1   
@<TRIPOS>SUBSTRUCTURE
  1 ****   2 GROUP 4 **** **** 0

# MOE 2024.06 (io_trps.svl 2023.06)
