@<TRIPOS>MOLECULE
NONAME
39 41 1 0 0 
SMALL
USER_CHARGES


@<TRIPOS>ATOM
  1 O        0.1760    -0.2990    -0.8890 O.2   1 <1>  -0.5700 
  2 C        0.7860    -1.1370    -0.2690 C.2   1 <1>   0.5690 
  3 N        0.3120    -2.4260    -0.0590 N.am  1 <1>  -0.2980 
  4 C        2.1240    -0.7120     0.3030 C.3   1 <1>  -0.1790 
  5 N       -0.9410    -2.8870    -0.3900 N.2   1 <1>  -0.5120 
  6 C        1.1010    -3.4880     0.6010 C.3   1 <1>   0.4000 
  7 C       -1.1160    -4.0800     0.0170 C.2   1 <1>   0.3030 
  8 C        2.2830    -3.9300    -0.2520 C.2   1 <1>  -0.0400 
  9 C        0.0910    -4.6200     0.7520 C.3   1 <1>  -0.0990 
 10 C       -2.3090    -4.8800    -0.1580 C.ar  1 <1>   0.0860 
 11 O        3.2380    -4.6410     0.3180 O.3   1 <1>  -0.2800 
 12 C        2.5630    -3.7310    -1.5600 C.2   1 <1>  -0.1500 
 13 C       -2.4300    -6.1840     0.3350 C.ar  1 <1>  -0.1500 
 14 C       -3.4110    -4.3650    -0.8430 C.ar  1 <1>  -0.1500 
 15 C        4.1430    -4.9070    -0.6040 C.2   1 <1>  -0.0100 
 16 C        3.7860    -4.3720    -1.7900 C.2   1 <1>  -0.1500 
 17 C       -3.5830    -6.9240     0.1520 C.ar  1 <1>  -0.1500 
 18 C       -4.5660    -5.1010    -1.0280 C.ar  1 <1>  -0.1500 
 19 C       -4.6610    -6.3900    -0.5320 C.ar  1 <1>  -0.1430 
 20 C       -5.9300    -7.2020    -0.7330 C.3   1 <1>  -0.0170 
 21 C       -6.8990    -6.9820     0.4300 C.3   1 <1>  -0.2400 
 22 H        2.1640    -0.9160     1.3560 H     1 <1>   0.0800 
 23 H        2.2550     0.3450     0.1580 H     1 <1>   0.0800 
 24 H        2.9230    -1.2230    -0.2000 H     1 <1>   0.0800 
 25 H        1.4360    -3.1470     1.5640 H     1 <1>   0.0800 
 26 H       -0.1360    -4.7840     1.7880 H     1 <1>   0.0800 
 27 H        0.4490    -5.5270     0.3020 H     1 <1>   0.0800 
 28 H        1.9830    -3.1990    -2.2970 H     1 <1>   0.1500 
 29 H       -1.6190    -6.6380     0.8710 H     1 <1>   0.1500 
 30 H       -3.3590    -3.3640    -1.2380 H     1 <1>   0.1500 
 31 H        5.0100    -5.4830    -0.3310 H     1 <1>   0.1500 
 32 H        4.3040    -4.4100    -2.7320 H     1 <1>   0.1500 
 33 H       -3.6430    -7.9240     0.5460 H     1 <1>   0.1500 
 34 H       -5.3940    -4.6650    -1.5600 H     1 <1>   0.1500 
 35 H       -5.6850    -8.2480    -0.8060 H     1 <1>   0.0800 
 36 H       -6.4030    -6.9140    -1.6560 H     1 <1>   0.0800 
 37 H       -6.4430    -7.2840     1.3560 H     1 <1>   0.0800 
 38 H       -7.7950    -7.5580     0.2810 H     1 <1>   0.0800 
 39 H       -7.1640    -5.9420     0.5010 H     1 <1>   0.0800 
@<TRIPOS>BOND
  1   1   2  2   
  2   2   3  am  
  3   2   4  1   
  4   3   5  1   
  5   3   6  1   
  6   4  22  1   
  7   4  23  1   
  8   4  24  1   
  9   5   7  2   
 10   6   8  1   
 11   6   9  1   
 12   6  25  1   
 13   7   9  1   
 14   7  10  1   
 15   8  11  1   
 16   8  12  2   
 17   9  26  1   
 18   9  27  1   
 19  10  13  ar  
 20  10  14  ar  
 21  11  15  1   
 22  12  16  1   
 23  12  28  1   
 24  13  17  ar  
 25  13  29  1   
 26  14  18  ar  
 27  14  30  1   
 28  15  16  2   
 29  15  31  1   
 30  16  32  1   
 31  17  19  ar  
 32  17  33  1   
 33  18  19  ar  
 34  18  34  1   
 35  19  20  1   
 36  20  21  1   
 37  20  35  1   
 38  20  36  1   
 39  21  37  1   
 40  21  38  1   
 41  21  39  1   
@<TRIPOS>SUBSTRUCTURE
  1 ****   7 GROUP 4 **** **** 0

# MOE 2024.06 (io_trps.svl 2023.06)
