@<TRIPOS>MOLECULE
NONAME
36 37 1 0 0 
SMALL
USER_CHARGES


@<TRIPOS>ATOM
  1 F        5.7060    -2.7420    -1.2060 F     1 <1>  -0.1900 
  2 C        5.4540    -1.5920    -0.6430 C.ar  1 <1>   0.1900 
  3 C        5.4470    -1.5110     0.7360 C.ar  1 <1>  -0.1500 
  4 C        5.2090    -0.4960    -1.4480 C.ar  1 <1>  -0.1500 
  5 C        5.1870    -0.2860     1.3270 C.ar  1 <1>  -0.1500 
  6 C        4.9510     0.7230    -0.8450 C.ar  1 <1>  -0.1500 
  7 C        4.9390     0.8330     0.5410 C.ar  1 <1>  -0.1430 
  8 C        4.6790     2.1930     1.1900 C.3   1 <1>   0.0440 
  9 C        5.8700     3.1340     1.0980 C.2   1 <1>   0.5690 
 10 O        5.7080     4.3040     1.3460 O.2   1 <1>  -0.5700 
 11 N        7.0720     2.6310     0.7250 N.am  1 <1>  -0.7300 
 12 C        8.2440     3.4080     0.2830 C.3   1 <1>   0.2200 
 13 C        9.1470     2.5220    -0.6120 C.3   1 <1>   0.2000 
 14 C        8.9720     3.9530     1.5150 C.3   1 <1>  -0.2400 
 15 O        8.3760     1.8750    -1.5870 O.3   1 <1>  -0.5600 
 16 C        9.8870     1.3960     0.1060 C.3   1 <1>  -0.1600 
 17 C        8.8700     0.6070    -1.8930 C.3   1 <1>   0.1200 
 18 C       10.0790     0.3750    -0.9960 C.3   1 <1>  -0.1600 
 19 H        5.6410    -2.3870     1.3280 H     1 <1>   0.1500 
 20 H        5.2220    -0.5960    -2.5180 H     1 <1>   0.1500 
 21 H        5.1830    -0.2080     2.4010 H     1 <1>   0.1500 
 22 H        4.7670     1.5890    -1.4600 H     1 <1>   0.1500 
 23 H        4.4300     2.0710     2.2270 H     1 <1>   0.0800 
 24 H        3.8410     2.6630     0.7090 H     1 <1>   0.0800 
 25 H        7.0730     1.6870     0.3250 H     1 <1>   0.3700 
 26 H        7.8990     4.2410    -0.3080 H     1 <1>   0.0800 
 27 H        9.8580     3.1410    -1.1310 H     1 <1>   0.0800 
 28 H        9.2520     3.1580     2.1820 H     1 <1>   0.0800 
 29 H        8.3310     4.6380     2.0410 H     1 <1>   0.0800 
 30 H        9.8560     4.4850     1.2140 H     1 <1>   0.0800 
 31 H        9.2720     0.9840     0.8870 H     1 <1>   0.0800 
 32 H       10.8190     1.7290     0.5270 H     1 <1>   0.0800 
 33 H        9.1280     0.5750    -2.9380 H     1 <1>   0.0800 
 34 H        8.0910    -0.1060    -1.6860 H     1 <1>   0.0800 
 35 H       10.1170    -0.6340    -0.6260 H     1 <1>   0.0800 
 36 H       10.9770     0.5840    -1.5510 H     1 <1>   0.0800 
@<TRIPOS>BOND
  1   1   2  1   
  2   2   3  ar  
  3   2   4  ar  
  4   3   5  ar  
  5   3  19  1   
  6   4   6  ar  
  7   4  20  1   
  8   5   7  ar  
  9   5  21  1   
 10   6   7  ar  
 11   6  22  1   
 12   7   8  1   
 13   8   9  1   
 14   8  23  1   
 15   8  24  1   
 16   9  10  2   
 17   9  11  am  
 18  11  12  1   
 19  11  25  1   
 20  12  13  1   
 21  12  14  1   
 22  12  26  1   
 23  13  15  1   
 24  13  16  1   
 25  13  27  1   
 26  14  28  1   
 27  14  29  1   
 28  14  30  1   
 29  15  17  1   
 30  16  18  1   
 31  16  31  1   
 32  16  32  1   
 33  17  18  1   
 34  17  33  1   
 35  17  34  1   
 36  18  35  1   
 37  18  36  1   
@<TRIPOS>SUBSTRUCTURE
  1 ****  11 GROUP 4 **** **** 0

# MOE 2024.06 (io_trps.svl 2023.06)
