@<TRIPOS>MOLECULE
NONAME
50 51 1 0 0 
SMALL
USER_CHARGES


@<TRIPOS>ATOM
  1 S       -0.1470    -0.8700     0.0440 S.o2  1 <1>   1.3330 
  2 O       -1.5550    -1.1580     0.1510 O.2   1 <1>  -0.6500 
  3 O        0.7560    -1.8430    -0.5190 O.2   1 <1>  -0.6500 
  4 N        0.0550     0.5850    -0.8800 N.am  1 <1>  -0.6930 
  5 C        0.4840    -0.3930     1.6390 C.3   1 <1>  -0.1350 
  6 C       -0.6380     1.7690    -0.6220 C.ar  1 <1>   0.1990 
  7 C        0.8580     0.4620    -2.1440 C.3   1 <1>   0.2570 
  8 C       -2.0250     1.7970    -0.5260 C.ar  1 <1>  -0.1500 
  9 C        0.0500     2.9650    -0.4570 C.ar  1 <1>  -0.1500 
 10 C        2.3730     0.5290    -1.9290 C.2   1 <1>   0.5690 
 11 C       -2.7120     2.9680    -0.2520 C.ar  1 <1>  -0.1440 
 12 C       -0.6240     4.1400    -0.1860 C.ar  1 <1>  -0.1500 
 13 O        3.1040     0.2520    -2.8490 O.2   1 <1>  -0.5700 
 14 N        2.8150     0.9480    -0.7060 N.am  1 <1>  -0.5470 
 15 C       -2.0060     4.1530    -0.0790 C.ar  1 <1>  -0.1430 
 16 C       -4.2310     2.9250    -0.1520 C.3   1 <1>  -0.0970 
 17 C        4.0740     1.1890    -0.1350 C.ar  1 <1>   0.1170 
 18 C       -2.7150     5.4660     0.2220 C.3   1 <1>  -0.0970 
 19 C        4.1130     1.8140     1.1150 C.ar  1 <1>   0.0830 
 20 C        5.2680     0.8350    -0.7510 C.ar  1 <1>  -0.1500 
 21 O        2.9130     2.1430     1.6860 O.3   1 <1>  -0.3630 
 22 C        5.3370     2.0770     1.7200 C.ar  1 <1>  -0.1500 
 23 C        6.4870     1.0970    -0.1480 C.ar  1 <1>  -0.1430 
 24 C        2.8560     2.9250     2.8600 C.3   1 <1>   0.0400 
 25 C        6.5160     1.7200     1.0890 C.ar  1 <1>  -0.1500 
 26 C        7.7810     0.7060    -0.8380 C.3   1 <1>  -0.0970 
 27 H        0.3780    -1.2060     2.3300 H     1 <1>   0.0800 
 28 H       -0.0580     0.4520     2.0150 H     1 <1>   0.0800 
 29 H        1.5230    -0.1400     1.5700 H     1 <1>   0.0800 
 30 H        0.5840     1.2550    -2.8160 H     1 <1>   0.0800 
 31 H        0.6230    -0.4680    -2.6310 H     1 <1>   0.0800 
 32 H       -2.5750     0.8870    -0.6760 H     1 <1>   0.1500 
 33 H        1.1200     2.9930    -0.5360 H     1 <1>   0.1500 
 34 H       -0.0640     5.0500    -0.0610 H     1 <1>   0.1500 
 35 H        2.0580     1.2040    -0.0690 H     1 <1>   0.3700 
 36 H       -4.6000     1.9250    -0.2960 H     1 <1>   0.0800 
 37 H       -4.6670     3.5570    -0.9040 H     1 <1>   0.0800 
 38 H       -4.5470     3.2630     0.8180 H     1 <1>   0.0800 
 39 H       -3.2620     5.3870     1.1440 H     1 <1>   0.0800 
 40 H       -3.3980     5.7060    -0.5720 H     1 <1>   0.0800 
 41 H       -2.0110     6.2730     0.3160 H     1 <1>   0.0800 
 42 H        5.2470     0.3510    -1.7100 H     1 <1>   0.1500 
 43 H        5.4000     2.5540     2.6790 H     1 <1>   0.1500 
 44 H        1.8230     3.1190     3.0840 H     1 <1>   0.0800 
 45 H        3.3730     3.8530     2.6880 H     1 <1>   0.0800 
 46 H        3.3080     2.3770     3.6680 H     1 <1>   0.0800 
 47 H        7.4600     1.9290     1.5630 H     1 <1>   0.1500 
 48 H        7.6150    -0.1090    -1.5190 H     1 <1>   0.0800 
 49 H        8.5150     0.3980    -0.1140 H     1 <1>   0.0800 
 50 H        8.1660     1.5450    -1.3900 H     1 <1>   0.0800 
@<TRIPOS>BOND
  1   1   2  2   
  2   1   3  2   
  3   1   4  am  
  4   1   5  1   
  5   4   6  1   
  6   4   7  1   
  7   5  27  1   
  8   5  28  1   
  9   5  29  1   
 10   6   8  ar  
 11   6   9  ar  
 12   7  10  1   
 13   7  30  1   
 14   7  31  1   
 15   8  11  ar  
 16   8  32  1   
 17   9  12  ar  
 18   9  33  1   
 19  10  13  2   
 20  10  14  am  
 21  11  15  ar  
 22  11  16  1   
 23  12  15  ar  
 24  12  34  1   
 25  14  17  1   
 26  14  35  1   
 27  15  18  1   
 28  16  36  1   
 29  16  37  1   
 30  16  38  1   
 31  17  19  ar  
 32  17  20  ar  
 33  18  39  1   
 34  18  40  1   
 35  18  41  1   
 36  19  21  1   
 37  19  22  ar  
 38  20  23  ar  
 39  20  42  1   
 40  21  24  1   
 41  22  25  ar  
 42  22  43  1   
 43  23  25  ar  
 44  23  26  1   
 45  24  44  1   
 46  24  45  1   
 47  24  46  1   
 48  25  47  1   
 49  26  48  1   
 50  26  49  1   
 51  26  50  1   
@<TRIPOS>SUBSTRUCTURE
  1 ****  14 GROUP 4 **** **** 0

# MOE 2024.06 (io_trps.svl 2023.06)
