@<TRIPOS>MOLECULE
NONAME
49 50 1 0 0 
SMALL
USER_CHARGES


@<TRIPOS>ATOM
  1 S        1.5090     1.9590     1.6910 S.o2  1 <1>   1.3330 
  2 O        2.3350     0.9200     1.1300 O.2   1 <1>  -0.6500 
  3 O        2.0780     2.9910     2.5250 O.2   1 <1>  -0.6500 
  4 N        0.7100     2.7720     0.3950 N.am  1 <1>  -0.6930 
  5 C        0.1520     1.2240     2.5790 C.3   1 <1>  -0.1350 
  6 C       -0.2040     2.0980    -0.4090 C.ar  1 <1>   0.1990 
  7 C        1.4500     3.9200    -0.2150 C.3   1 <1>   0.2570 
  8 C       -1.5700     2.4010    -0.3740 C.ar  1 <1>  -0.1440 
  9 C        0.2400     1.0890    -1.2570 C.ar  1 <1>  -0.1500 
 10 C        2.6270     3.5310    -1.1270 C.2   1 <1>   0.5690 
 11 C       -2.4490     1.6840    -1.1720 C.ar  1 <1>  -0.1500 
 12 C       -2.1440     3.5010     0.5160 C.3   1 <1>  -0.0170 
 13 C       -0.6430     0.3810    -2.0490 C.ar  1 <1>  -0.1500 
 14 O        2.3650     3.3420    -2.2940 O.2   1 <1>  -0.5700 
 15 N        3.9250     3.4360    -0.6780 N.am  1 <1>  -0.6600 
 16 C       -1.9920     0.6780    -2.0050 C.ar  1 <1>  -0.1500 
 17 C       -2.4150     4.7720    -0.2930 C.3   1 <1>  -0.2400 
 18 C        4.9870     2.9110    -1.5920 C.3   1 <1>   0.2840 
 19 C        4.4010     3.8000     0.6910 C.3   1 <1>   0.0600 
 20 C        5.9040     1.9190    -0.8860 C.ar  1 <1>  -0.1430 
 21 C        7.2590     2.1820    -0.7470 C.ar  1 <1>  -0.1500 
 22 C        5.3870     0.7380    -0.3750 C.ar  1 <1>  -0.1500 
 23 C        8.0850     1.2760    -0.1030 C.ar  1 <1>  -0.1500 
 24 C        6.2100    -0.1680     0.2700 C.ar  1 <1>  -0.1500 
 25 C        7.5610     0.1000     0.4060 C.ar  1 <1>  -0.1500 
 26 H        0.5190     0.7000     3.4390 H     1 <1>   0.0800 
 27 H       -0.3690     0.5300     1.9490 H     1 <1>   0.0800 
 28 H       -0.5320     1.9820     2.9020 H     1 <1>   0.0800 
 29 H        1.7790     4.5850     0.5590 H     1 <1>   0.0800 
 30 H        0.7580     4.4750    -0.8210 H     1 <1>   0.0800 
 31 H        1.2910     0.8610    -1.2980 H     1 <1>   0.1500 
 32 H       -3.5010     1.9090    -1.1520 H     1 <1>   0.1500 
 33 H       -1.4760     3.7320     1.3270 H     1 <1>   0.0800 
 34 H       -3.0650     3.1580     0.9540 H     1 <1>   0.0800 
 35 H       -0.2790    -0.3950    -2.6990 H     1 <1>   0.1500 
 36 H       -2.6850     0.1300    -2.6210 H     1 <1>   0.1500 
 37 H       -1.5050     5.1340    -0.7360 H     1 <1>   0.0800 
 38 H       -2.8170     5.5390     0.3450 H     1 <1>   0.0800 
 39 H       -3.1210     4.5720    -1.0790 H     1 <1>   0.0800 
 40 H        5.5600     3.7410    -1.9660 H     1 <1>   0.0800 
 41 H        4.5440     2.4140    -2.4380 H     1 <1>   0.0800 
 42 H        3.7470     4.5050     1.1660 H     1 <1>   0.0800 
 43 H        5.3810     4.2420     0.6320 H     1 <1>   0.0800 
 44 H        4.4620     2.9130     1.3000 H     1 <1>   0.0800 
 45 H        7.6790     3.0920    -1.1370 H     1 <1>   0.1500 
 46 H        4.3350     0.5270    -0.4720 H     1 <1>   0.1500 
 47 H        9.1350     1.4850     0.0030 H     1 <1>   0.1500 
 48 H        5.7940    -1.0770     0.6670 H     1 <1>   0.1500 
 49 H        8.2000    -0.6040     0.9080 H     1 <1>   0.1500 
@<TRIPOS>BOND
  1   1   2  2   
  2   1   3  2   
  3   1   4  am  
  4   1   5  1   
  5   4   6  1   
  6   4   7  1   
  7   5  26  1   
  8   5  27  1   
  9   5  28  1   
 10   6   8  ar  
 11   6   9  ar  
 12   7  10  1   
 13   7  29  1   
 14   7  30  1   
 15   8  11  ar  
 16   8  12  1   
 17   9  13  ar  
 18   9  31  1   
 19  10  14  2   
 20  10  15  am  
 21  11  16  ar  
 22  11  32  1   
 23  12  17  1   
 24  12  33  1   
 25  12  34  1   
 26  13  16  ar  
 27  13  35  1   
 28  15  18  1   
 29  15  19  1   
 30  16  36  1   
 31  17  37  1   
 32  17  38  1   
 33  17  39  1   
 34  18  20  1   
 35  18  40  1   
 36  18  41  1   
 37  19  42  1   
 38  19  43  1   
 39  19  44  1   
 40  20  21  ar  
 41  20  22  ar  
 42  21  23  ar  
 43  21  45  1   
 44  22  24  ar  
 45  22  46  1   
 46  23  25  ar  
 47  23  47  1   
 48  24  25  ar  
 49  24  48  1   
 50  25  49  1   
@<TRIPOS>SUBSTRUCTURE
  1 ****  10 GROUP 4 **** **** 0

# MOE 2024.06 (io_trps.svl 2023.06)
