@<TRIPOS>MOLECULE
NONAME
44 45 1 0 0 
SMALL
USER_CHARGES


@<TRIPOS>ATOM
  1 S       -0.0220     0.2890     0.4240 S.o2  1 <1>   1.4470 
  2 O       -0.3340     0.4010     1.8330 O.2   1 <1>  -0.6500 
  3 O       -0.3850    -0.9180    -0.2870 O.2   1 <1>  -0.6500 
  4 N       -0.8130     1.5740    -0.3510 N.am  1 <1>  -0.8490 
  5 C        1.7330     0.6480     0.1350 C.ar  1 <1>  -0.0090 
  6 C       -0.5620     2.8600     0.3200 C.3   1 <1>   0.1960 
  7 C       -2.2530     1.3180    -0.4490 C.3   1 <1>   0.1960 
  8 C        2.2710     0.5830    -1.1450 C.ar  1 <1>  -0.1500 
  9 C        2.5780     1.0190     1.1760 C.ar  1 <1>  -0.1500 
 10 C       -1.1500     4.0160    -0.5010 C.3   1 <1>  -0.0190 
 11 C       -2.9340     2.4150    -1.2760 C.3   1 <1>  -0.1600 
 12 C        3.6030     0.8790    -1.3790 C.ar  1 <1>  -0.1500 
 13 C        3.9120     1.3180     0.9530 C.ar  1 <1>  -0.1500 
 14 C       -0.8490     5.3510     0.1630 C.2   1 <1>   0.5690 
 15 C       -2.6620     3.8120    -0.7010 C.3   1 <1>  -0.1600 
 16 C        4.4330     1.2500    -0.3350 C.ar  1 <1>   0.0830 
 17 O       -0.8130     5.4220     1.3670 O.2   1 <1>  -0.5700 
 18 N       -0.6330     6.4350    -0.6300 N.am  1 <1>  -0.7300 
 19 O        5.7220     1.5270    -0.6460 O.3   1 <1>  -0.3630 
 20 C       -0.3320     7.8040    -0.1400 C.3   1 <1>   0.0600 
 21 C        6.6510     1.9110     0.3400 C.3   1 <1>   0.1200 
 22 C        7.9960     2.1440    -0.3430 C.3   1 <1>  -0.2400 
 23 H        0.4980     3.0200     0.4260 H     1 <1>   0.0800 
 24 H       -0.9970     2.8520     1.3070 H     1 <1>   0.0800 
 25 H       -2.6840     1.2760     0.5380 H     1 <1>   0.0800 
 26 H       -2.4220     0.3680    -0.9300 H     1 <1>   0.0800 
 27 H        1.6360     0.2970    -1.9680 H     1 <1>   0.1500 
 28 H        2.1850     1.0760     2.1780 H     1 <1>   0.1500 
 29 H       -0.6650     4.0070    -1.4610 H     1 <1>   0.0800 
 30 H       -3.9940     2.2340    -1.3010 H     1 <1>   0.0800 
 31 H       -2.5680     2.3590    -2.2870 H     1 <1>   0.0800 
 32 H        4.0070     0.8240    -2.3740 H     1 <1>   0.1500 
 33 H        4.5240     1.6000     1.7880 H     1 <1>   0.1500 
 34 H       -3.0550     4.5660    -1.3610 H     1 <1>   0.0800 
 35 H       -3.1600     3.9100     0.2500 H     1 <1>   0.0800 
 36 H       -0.6860     6.3300    -1.6450 H     1 <1>   0.3700 
 37 H       -0.2980     7.8190     0.9370 H     1 <1>   0.0800 
 38 H       -1.0950     8.4870    -0.4720 H     1 <1>   0.0800 
 39 H        0.6220     8.1260    -0.5200 H     1 <1>   0.0800 
 40 H        6.7250     1.1190     1.0650 H     1 <1>   0.0800 
 41 H        6.3000     2.8150     0.8060 H     1 <1>   0.0800 
 42 H        8.3300     1.2400    -0.8190 H     1 <1>   0.0800 
 43 H        8.7290     2.4390     0.3860 H     1 <1>   0.0800 
 44 H        7.9080     2.9250    -1.0770 H     1 <1>   0.0800 
@<TRIPOS>BOND
  1   1   2  2   
  2   1   3  2   
  3   1   4  am  
  4   1   5  1   
  5   4   6  1   
  6   4   7  1   
  7   5   8  ar  
  8   5   9  ar  
  9   6  10  1   
 10   6  23  1   
 11   6  24  1   
 12   7  11  1   
 13   7  25  1   
 14   7  26  1   
 15   8  12  ar  
 16   8  27  1   
 17   9  13  ar  
 18   9  28  1   
 19  10  14  1   
 20  10  15  1   
 21  10  29  1   
 22  11  15  1   
 23  11  30  1   
 24  11  31  1   
 25  12  16  ar  
 26  12  32  1   
 27  13  16  ar  
 28  13  33  1   
 29  14  17  2   
 30  14  18  am  
 31  15  34  1   
 32  15  35  1   
 33  16  19  1   
 34  18  20  1   
 35  18  36  1   
 36  19  21  1   
 37  20  37  1   
 38  20  38  1   
 39  20  39  1   
 40  21  22  1   
 41  21  40  1   
 42  21  41  1   
 43  22  42  1   
 44  22  43  1   
 45  22  44  1   
@<TRIPOS>SUBSTRUCTURE
  1 ****   6 GROUP 4 **** **** 0

# MOE 2024.06 (io_trps.svl 2023.06)
