@<TRIPOS>MOLECULE
NONAME
38 39 1 0 0 
SMALL
USER_CHARGES


@<TRIPOS>ATOM
  1 CL       0.4280    -0.6710    -0.9450 Cl    1 <1>  -0.1770 
  2 C       -0.7060     0.4580    -0.2250 C.ar  1 <1>   0.1770 
  3 C       -0.3440     1.7040     0.3150 C.ar  1 <1>   0.0830 
  4 C       -2.0270     0.0370    -0.2200 C.ar  1 <1>  -0.1500 
  5 O        0.9020     2.2540     0.3860 O.3   1 <1>  -0.3630 
  6 C       -1.3450     2.5020     0.8510 C.ar  1 <1>  -0.1500 
  7 C       -3.0130     0.8450     0.3200 C.ar  1 <1>  -0.1500 
  8 C        2.0750     1.6170    -0.0460 C.3   1 <1>   0.1200 
  9 C       -2.6570     2.0700     0.8490 C.ar  1 <1>   0.1770 
 10 C        3.2430     2.5530     0.2550 C.3   1 <1>  -0.1600 
 11 CL      -3.8940     3.0950     1.5310 Cl    1 <1>  -0.1770 
 12 C        4.5580     1.9210    -0.1960 C.3   1 <1>   0.3430 
 13 N        5.7110     2.7790     0.1950 N.4   1 <1>  -0.9590 
 14 C        5.7860     4.0390    -0.6070 C.3   1 <1>   0.3430 
 15 C        6.9870     2.0070     0.1120 C.3   1 <1>   0.3430 
 16 C        6.9130     4.9250    -0.0740 C.3   1 <1>  -0.1600 
 17 C        8.1380     2.8500     0.6630 C.3   1 <1>  -0.1600 
 18 C        8.2600     4.1930    -0.0680 C.3   1 <1>  -0.1600 
 19 H       -2.2800    -0.9210    -0.6390 H     1 <1>   0.1500 
 20 H       -1.1030     3.4600     1.2710 H     1 <1>   0.1500 
 21 H       -4.0430     0.5330     0.3310 H     1 <1>   0.1500 
 22 H        1.9910     1.4360    -1.1040 H     1 <1>   0.0800 
 23 H        2.1750     0.6910     0.4960 H     1 <1>   0.0800 
 24 H        3.2710     2.7330     1.3150 H     1 <1>   0.0800 
 25 H        3.0730     3.4790    -0.2650 H     1 <1>   0.0800 
 26 H        4.5510     1.7760    -1.2650 H     1 <1>   0.0800 
 27 H        4.6550     0.9550     0.2730 H     1 <1>   0.0800 
 28 H        5.5910     3.0520     1.1790 H     1 <1>   0.4500 
 29 H        4.8550     4.5770    -0.5470 H     1 <1>   0.0800 
 30 H        5.9750     3.8020    -1.6420 H     1 <1>   0.0800 
 31 H        7.1910     1.7490    -0.9150 H     1 <1>   0.0800 
 32 H        6.9070     1.0950     0.6820 H     1 <1>   0.0800 
 33 H        6.6680     5.2530     0.9220 H     1 <1>   0.0800 
 34 H        6.9890     5.8050    -0.6890 H     1 <1>   0.0800 
 35 H        9.0590     2.3020     0.5540 H     1 <1>   0.0800 
 36 H        7.9880     3.0170     1.7160 H     1 <1>   0.0800 
 37 H        9.0080     4.8040     0.4100 H     1 <1>   0.0800 
 38 H        8.5800     4.0210    -1.0830 H     1 <1>   0.0800 
@<TRIPOS>BOND
  1   1   2  1   
  2   2   3  ar  
  3   2   4  ar  
  4   3   5  1   
  5   3   6  ar  
  6   4   7  ar  
  7   4  19  1   
  8   5   8  1   
  9   6   9  ar  
 10   6  20  1   
 11   7   9  ar  
 12   7  21  1   
 13   8  10  1   
 14   8  22  1   
 15   8  23  1   
 16   9  11  1   
 17  10  12  1   
 18  10  24  1   
 19  10  25  1   
 20  12  13  1   
 21  12  26  1   
 22  12  27  1   
 23  13  14  1   
 24  13  15  1   
 25  13  28  1   
 26  14  16  1   
 27  14  29  1   
 28  14  30  1   
 29  15  17  1   
 30  15  31  1   
 31  15  32  1   
 32  16  18  1   
 33  16  33  1   
 34  16  34  1   
 35  17  18  1   
 36  17  35  1   
 37  17  36  1   
 38  18  37  1   
 39  18  38  1   
@<TRIPOS>SUBSTRUCTURE
  1 ****   8 GROUP 4 **** **** 0

# MOE 2024.06 (io_trps.svl 2023.06)
