@<TRIPOS>MOLECULE
NONAME
51 53 1 0 0 
SMALL
USER_CHARGES


@<TRIPOS>ATOM
  1 S       -0.1170     0.2820     0.6810 S.o2  1 <1>   1.4470 
  2 O       -0.3770     0.2640     2.1060 O.2   1 <1>  -0.6500 
  3 O       -0.3940    -0.9220    -0.0740 O.2   1 <1>  -0.6500 
  4 N       -1.0320     1.5530     0.0080 N.am  1 <1>  -0.8490 
  5 C        1.6110     0.7310     0.3530 C.ar  1 <1>  -0.0090 
  6 C       -1.2270     2.7190     0.9090 C.3   1 <1>   0.2760 
  7 C       -2.3140     1.0220    -0.4880 C.3   1 <1>   0.1960 
  8 C        2.6010     0.5320     1.3080 C.ar  1 <1>  -0.1500 
  9 C        1.9960     1.2720    -0.8680 C.ar  1 <1>  -0.1500 
 10 C       -2.0690     3.8040     0.2010 C.3   1 <1>  -0.1600 
 11 C        0.1240     3.3330     1.3560 C.3   1 <1>  -0.1600 
 12 C       -3.1160     2.0790    -1.2430 C.3   1 <1>  -0.1600 
 13 C        3.9180     0.8710     1.0580 C.ar  1 <1>  -0.1500 
 14 C        3.3120     1.6140    -1.1220 C.ar  1 <1>  -0.1500 
 15 C       -3.3950     3.2790    -0.3460 C.3   1 <1>  -0.1600 
 16 C        0.0160     4.6040     2.2150 C.3   1 <1>  -0.2400 
 17 C        4.2960     1.4220    -0.1600 C.ar  1 <1>   0.1170 
 18 N        5.6450     1.7450    -0.3570 N.am  1 <1>  -0.5470 
 19 C        6.3090     2.4460    -1.3260 C.2   1 <1>   0.5690 
 20 O        5.7730     2.9630    -2.2780 O.2   1 <1>  -0.5700 
 21 C        7.8300     2.5750    -1.1640 C.3   1 <1>   0.2610 
 22 O        8.2970     1.8780    -0.0350 O.3   1 <1>  -0.5600 
 23 C        8.3160     4.0020    -0.9350 C.3   1 <1>  -0.1600 
 24 C        9.5480     2.3630     0.3330 C.3   1 <1>   0.1200 
 25 C        9.5930     3.8190    -0.1280 C.3   1 <1>  -0.1600 
 26 H       -1.7640     2.3940     1.7860 H     1 <1>   0.0800 
 27 H       -2.8920     0.6410     0.3390 H     1 <1>   0.0800 
 28 H       -2.1380     0.2100    -1.1730 H     1 <1>   0.0800 
 29 H        2.3330     0.1060     2.2610 H     1 <1>   0.1500 
 30 H        1.2510     1.4300    -1.6310 H     1 <1>   0.1500 
 31 H       -1.4910     4.2220    -0.6050 H     1 <1>   0.0800 
 32 H       -2.2960     4.5980     0.8880 H     1 <1>   0.0800 
 33 H        0.7190     3.5560     0.4870 H     1 <1>   0.0800 
 34 H        0.6570     2.6260     1.9610 H     1 <1>   0.0800 
 35 H       -4.0450     1.6510    -1.5760 H     1 <1>   0.0800 
 36 H       -2.5610     2.3860    -2.1120 H     1 <1>   0.0800 
 37 H        4.6590     0.7070     1.8190 H     1 <1>   0.1500 
 38 H        3.5660     2.0290    -2.0800 H     1 <1>   0.1500 
 39 H       -3.8970     4.0500    -0.9050 H     1 <1>   0.0800 
 40 H       -4.0330     2.9830     0.4700 H     1 <1>   0.0800 
 41 H       -0.3290     5.4410     1.6340 H     1 <1>   0.0800 
 42 H        0.9850     4.8570     2.6070 H     1 <1>   0.0800 
 43 H       -0.6540     4.4450     3.0420 H     1 <1>   0.0800 
 44 H        6.2950     1.4050     0.3570 H     1 <1>   0.3700 
 45 H        8.3140     2.1530    -2.0270 H     1 <1>   0.0800 
 46 H        7.5840     4.5430    -0.3590 H     1 <1>   0.0800 
 47 H        8.4780     4.5150    -1.8660 H     1 <1>   0.0800 
 48 H       10.2970     1.7730    -0.1670 H     1 <1>   0.0800 
 49 H        9.6560     2.2690     1.4000 H     1 <1>   0.0800 
 50 H        9.6240     4.4880     0.7130 H     1 <1>   0.0800 
 51 H       10.4670     3.9820    -0.7360 H     1 <1>   0.0800 
@<TRIPOS>BOND
  1   1   2  2   
  2   1   3  2   
  3   1   4  am  
  4   1   5  1   
  5   4   6  1   
  6   4   7  1   
  7   5   8  ar  
  8   5   9  ar  
  9   6  10  1   
 10   6  11  1   
 11   6  26  1   
 12   7  12  1   
 13   7  27  1   
 14   7  28  1   
 15   8  13  ar  
 16   8  29  1   
 17   9  14  ar  
 18   9  30  1   
 19  10  15  1   
 20  10  31  1   
 21  10  32  1   
 22  11  16  1   
 23  11  33  1   
 24  11  34  1   
 25  12  15  1   
 26  12  35  1   
 27  12  36  1   
 28  13  17  ar  
 29  13  37  1   
 30  14  17  ar  
 31  14  38  1   
 32  15  39  1   
 33  15  40  1   
 34  16  41  1   
 35  16  42  1   
 36  16  43  1   
 37  17  18  1   
 38  18  19  am  
 39  18  44  1   
 40  19  20  2   
 41  19  21  1   
 42  21  22  1   
 43  21  23  1   
 44  21  45  1   
 45  22  24  1   
 46  23  25  1   
 47  23  46  1   
 48  23  47  1   
 49  24  25  1   
 50  24  48  1   
 51  24  49  1   
 52  25  50  1   
 53  25  51  1   
@<TRIPOS>SUBSTRUCTURE
  1 ****   9 GROUP 4 **** **** 0

# MOE 2024.06 (io_trps.svl 2023.06)
