@<TRIPOS>MOLECULE
NONAME
31 31 1 0 0 
SMALL
USER_CHARGES


@<TRIPOS>ATOM
  1 O       -2.8970    -1.6820     0.8830 O.co2 1 <1>  -0.9000 
  2 C       -1.7860    -1.4680     0.3800 C.2   1 <1>   0.9060 
  3 O       -1.5920    -0.5470    -0.4210 O.co2 1 <1>  -0.9000 
  4 C       -0.6090    -2.3240     0.8090 C.3   1 <1>  -0.1230 
  5 C       -0.5340    -3.7030     0.1500 C.ar  1 <1>  -0.1440 
  6 C       -1.6490    -4.5260     0.1390 C.ar  1 <1>  -0.1500 
  7 C        0.6420    -4.1450    -0.4330 C.ar  1 <1>  -0.1500 
  8 C       -1.6080    -5.7870    -0.4490 C.ar  1 <1>   0.0820 
  9 C        0.7060    -5.4030    -1.0080 C.ar  1 <1>  -0.1500 
 10 O       -2.7100    -6.5910    -0.5150 O.3   1 <1>  -0.3630 
 11 C       -0.4030    -6.2310    -1.0060 C.ar  1 <1>   0.0820 
 12 C       -3.9960    -6.0370    -0.3420 C.3   1 <1>   0.0400 
 13 O       -0.2680    -7.4570    -1.5750 O.3   1 <1>  -0.3630 
 14 C       -0.3840    -8.5850    -0.7340 C.3   1 <1>   0.1200 
 15 C        0.9500    -8.8220    -0.0180 C.3   1 <1>  -0.1600 
 16 C        0.8960   -10.0770     0.8600 C.3   1 <1>  -0.2400 
 17 H       -0.6780    -2.4490     1.8720 H     1 <1>   0.0800 
 18 H        0.2830    -1.7660     0.6010 H     1 <1>   0.0800 
 19 H       -2.5480    -4.1550     0.5970 H     1 <1>   0.1500 
 20 H        1.5090    -3.5090    -0.4420 H     1 <1>   0.1500 
 21 H        1.6170    -5.7470    -1.4600 H     1 <1>   0.1500 
 22 H       -4.7220    -6.7840    -0.6030 H     1 <1>   0.0800 
 23 H       -4.0990    -5.1820    -0.9880 H     1 <1>   0.0800 
 24 H       -4.1180    -5.7500     0.6870 H     1 <1>   0.0800 
 25 H       -0.6320    -9.4250    -1.3580 H     1 <1>   0.0800 
 26 H       -1.1790    -8.4280    -0.0270 H     1 <1>   0.0800 
 27 H        1.1760    -7.9700     0.6000 H     1 <1>   0.0800 
 28 H        1.7280    -8.9330    -0.7520 H     1 <1>   0.0800 
 29 H        0.1300    -9.9770     1.6100 H     1 <1>   0.0800 
 30 H        1.8410   -10.2200     1.3530 H     1 <1>   0.0800 
 31 H        0.6860   -10.9460     0.2610 H     1 <1>   0.0800 
@<TRIPOS>BOND
  1   1   2  ar  
  2   2   3  ar  
  3   2   4  1   
  4   4   5  1   
  5   4  17  1   
  6   4  18  1   
  7   5   6  ar  
  8   5   7  ar  
  9   6   8  ar  
 10   6  19  1   
 11   7   9  ar  
 12   7  20  1   
 13   8  10  1   
 14   8  11  ar  
 15   9  11  ar  
 16   9  21  1   
 17  10  12  1   
 18  11  13  1   
 19  12  22  1   
 20  12  23  1   
 21  12  24  1   
 22  13  14  1   
 23  14  15  1   
 24  14  25  1   
 25  14  26  1   
 26  15  16  1   
 27  15  27  1   
 28  15  28  1   
 29  16  29  1   
 30  16  30  1   
 31  16  31  1   
@<TRIPOS>SUBSTRUCTURE
  1 ****   8 GROUP 4 **** **** 0

# MOE 2024.06 (io_trps.svl 2023.06)
