@<TRIPOS>MOLECULE
NONAME
53 55 1 0 0 
SMALL
USER_CHARGES


@<TRIPOS>ATOM
  1 O        0.2670     0.5910     1.1080 O.2   1 <1>  -0.5700 
  2 C        0.1680     1.6500     0.5210 C.2   1 <1>   0.5440 
  3 N       -1.0560     2.0760     0.0560 N.am  1 <1>  -0.5470 
  4 C        1.3470     2.4670     0.2980 C.ar  1 <1>   0.0860 
  5 C       -2.3390     1.5060     0.1310 C.ar  1 <1>   0.1170 
  6 C        2.6040     1.8780     0.1690 C.ar  1 <1>  -0.1500 
  7 C        1.2780     3.8570     0.2000 C.ar  1 <1>  -0.1500 
  8 C       -3.4400     2.3470     0.0180 C.ar  1 <1>  -0.1500 
  9 C       -2.5610     0.1400     0.2940 C.ar  1 <1>  -0.1500 
 10 C        3.7500     2.6320    -0.0540 C.ar  1 <1>   0.0830 
 11 C        2.3970     4.6330    -0.0370 C.ar  1 <1>   0.0830 
 12 C       -4.7260     1.8430     0.0710 C.ar  1 <1>   0.0830 
 13 C       -3.8450    -0.3750     0.3440 C.ar  1 <1>  -0.1500 
 14 O        4.9830     2.0620    -0.1870 O.3   1 <1>  -0.3630 
 15 C        3.6530     4.0230    -0.1490 C.ar  1 <1>   0.0830 
 16 O        2.1630     5.9710    -0.1340 O.3   1 <1>  -0.3630 
 17 O       -5.7720     2.7030    -0.0280 O.3   1 <1>  -0.3630 
 18 C       -4.9320     0.4710     0.2270 C.ar  1 <1>   0.0830 
 19 C        5.1710     0.6670    -0.1200 C.3   1 <1>   0.1200 
 20 O        4.7740     4.7650    -0.3430 O.3   1 <1>  -0.3620 
 21 C        2.9010     6.7640    -1.0360 C.3   1 <1>   0.1200 
 22 C       -7.0440     2.2070     0.3470 C.3   1 <1>   0.1200 
 23 O       -6.1860    -0.0560     0.2610 O.3   1 <1>  -0.3630 
 24 C        6.6590     0.3860    -0.3060 C.3   1 <1>  -0.2400 
 25 C        5.6040     4.9460     0.7790 C.3   1 <1>   0.1200 
 26 C        2.0760     8.0080    -1.3540 C.3   1 <1>  -0.2400 
 27 C       -7.2360     0.7800    -0.1860 C.3   1 <1>   0.1200 
 28 C        6.7420     5.8800     0.3800 C.3   1 <1>  -0.2400 
 29 H       -1.0340     2.9780    -0.4150 H     1 <1>   0.3700 
 30 H        2.6530     0.8090     0.2500 H     1 <1>   0.1500 
 31 H        0.3370     4.3620     0.3150 H     1 <1>   0.1500 
 32 H       -3.3070     3.4050    -0.1050 H     1 <1>   0.1500 
 33 H       -1.7290    -0.5350     0.3790 H     1 <1>   0.1500 
 34 H       -4.0080    -1.4310     0.4700 H     1 <1>   0.1500 
 35 H        4.5960     0.2060    -0.9050 H     1 <1>   0.0800 
 36 H        4.8360     0.3210     0.8430 H     1 <1>   0.0800 
 37 H        3.0910     6.1920    -1.9280 H     1 <1>   0.0800 
 38 H        3.8300     7.0370    -0.5680 H     1 <1>   0.0800 
 39 H       -7.7890     2.8690    -0.0550 H     1 <1>   0.0800 
 40 H       -7.1030     2.2160     1.4210 H     1 <1>   0.0800 
 41 H        6.9860     0.7520    -1.2620 H     1 <1>   0.0800 
 42 H        6.8380    -0.6730    -0.2630 H     1 <1>   0.0800 
 43 H        7.2250     0.8630     0.4750 H     1 <1>   0.0800 
 44 H        5.9860     3.9880     1.0860 H     1 <1>   0.0800 
 45 H        5.0140     5.3730     1.5720 H     1 <1>   0.0800 
 46 H        1.1440     7.7270    -1.8090 H     1 <1>   0.0800 
 47 H        2.6180     8.6360    -2.0370 H     1 <1>   0.0800 
 48 H        1.8860     8.5650    -0.4540 H     1 <1>   0.0800 
 49 H       -7.2320     0.7780    -1.2610 H     1 <1>   0.0800 
 50 H       -8.1630     0.3630     0.1650 H     1 <1>   0.0800 
 51 H        7.3090     5.4450    -0.4230 H     1 <1>   0.0800 
 52 H        7.3960     6.0340     1.2190 H     1 <1>   0.0800 
 53 H        6.3500     6.8320     0.0710 H     1 <1>   0.0800 
@<TRIPOS>BOND
  1   1   2  2   
  2   2   3  am  
  3   2   4  1   
  4   3   5  1   
  5   3  29  1   
  6   4   6  ar  
  7   4   7  ar  
  8   5   8  ar  
  9   5   9  ar  
 10   6  10  ar  
 11   6  30  1   
 12   7  11  ar  
 13   7  31  1   
 14   8  12  ar  
 15   8  32  1   
 16   9  13  ar  
 17   9  33  1   
 18  10  14  1   
 19  10  15  ar  
 20  11  15  ar  
 21  11  16  1   
 22  12  17  1   
 23  12  18  ar  
 24  13  18  ar  
 25  13  34  1   
 26  14  19  1   
 27  15  20  1   
 28  16  21  1   
 29  17  22  1   
 30  18  23  1   
 31  19  24  1   
 32  19  35  1   
 33  19  36  1   
 34  20  25  1   
 35  21  26  1   
 36  21  37  1   
 37  21  38  1   
 38  22  27  1   
 39  22  39  1   
 40  22  40  1   
 41  23  27  1   
 42  24  41  1   
 43  24  42  1   
 44  24  43  1   
 45  25  28  1   
 46  25  44  1   
 47  25  45  1   
 48  26  46  1   
 49  26  47  1   
 50  26  48  1   
 51  27  49  1   
 52  27  50  1   
 53  28  51  1   
 54  28  52  1   
 55  28  53  1   
@<TRIPOS>SUBSTRUCTURE
  1 ****   4 GROUP 4 **** **** 0

# MOE 2024.06 (io_trps.svl 2023.06)
