@<TRIPOS>MOLECULE
NONAME
45 46 1 0 0 
SMALL
USER_CHARGES


@<TRIPOS>ATOM
  1 BR       0.0080     0.1540     0.4060 Br    1 <1>  -0.1110 
  2 C        1.7430     0.9610     0.1890 C.ar  1 <1>   0.1110 
  3 C        2.8620     0.2450     0.5700 C.ar  1 <1>  -0.1500 
  4 C        1.8230     2.2350    -0.3420 C.ar  1 <1>  -0.1500 
  5 C        4.1100     0.8270     0.4130 C.ar  1 <1>  -0.1500 
  6 C        3.0750     2.8070    -0.4940 C.ar  1 <1>  -0.1500 
  7 C        4.2180     2.1120    -0.1210 C.ar  1 <1>   0.0830 
  8 O        5.4010     2.7520    -0.3070 O.3   1 <1>  -0.3630 
  9 C        6.6250     2.1410     0.0370 C.3   1 <1>   0.1200 
 10 C        7.7490     3.1180    -0.2950 C.3   1 <1>   0.1200 
 11 O        8.9700     2.5290     0.0410 O.3   1 <1>  -0.5600 
 12 C       10.0780     3.3260    -0.2170 C.3   1 <1>   0.1200 
 13 C       11.3220     2.5250     0.1880 C.3   1 <1>   0.3430 
 14 N       12.6020     3.2510    -0.0940 N.4   1 <1>  -0.9590 
 15 C       13.7680     2.3160     0.0350 C.3   1 <1>   0.3430 
 16 C       12.7940     4.4570     0.7620 C.3   1 <1>   0.3430 
 17 C       15.1250     3.0530     0.0070 C.3   1 <1>  -0.0800 
 18 C       13.9550     5.2940     0.2110 C.3   1 <1>  -0.1600 
 19 C       15.0090     4.4780    -0.5610 C.3   1 <1>  -0.1600 
 20 C       16.1590     2.2460    -0.7890 C.3   1 <1>  -0.2400 
 21 H        2.7570    -0.7440     0.9790 H     1 <1>   0.1500 
 22 H        0.9310     2.7620    -0.6270 H     1 <1>   0.1500 
 23 H        4.9760     0.2670     0.7100 H     1 <1>   0.1500 
 24 H        3.1720     3.7960    -0.9040 H     1 <1>   0.1500 
 25 H        6.7280     1.2390    -0.5400 H     1 <1>   0.0800 
 26 H        6.6120     1.9260     1.0910 H     1 <1>   0.0800 
 27 H        7.6290     4.0220     0.2770 H     1 <1>   0.0800 
 28 H        7.7450     3.3350    -1.3500 H     1 <1>   0.0800 
 29 H        9.9870     4.2260     0.3660 H     1 <1>   0.0800 
 30 H       10.0950     3.5520    -1.2690 H     1 <1>   0.0800 
 31 H       11.3100     1.5980    -0.3630 H     1 <1>   0.0800 
 32 H       11.2600     2.2920     1.2380 H     1 <1>   0.0800 
 33 H       12.5970     3.5760    -1.0700 H     1 <1>   0.4500 
 34 H       13.7380     1.6060    -0.7750 H     1 <1>   0.0800 
 35 H       13.6960     1.7620     0.9580 H     1 <1>   0.0800 
 36 H       13.0220     4.1450     1.7690 H     1 <1>   0.0800 
 37 H       11.9000     5.0580     0.7890 H     1 <1>   0.0800 
 38 H       15.4800     3.1230     1.0210 H     1 <1>   0.0800 
 39 H       14.4270     5.7900     1.0420 H     1 <1>   0.0800 
 40 H       13.5680     6.0680    -0.4300 H     1 <1>   0.0800 
 41 H       14.7310     4.4260    -1.6000 H     1 <1>   0.0800 
 42 H       15.9620     4.9800    -0.5100 H     1 <1>   0.0800 
 43 H       15.8620     2.1450    -1.8190 H     1 <1>   0.0800 
 44 H       16.2800     1.2630    -0.3680 H     1 <1>   0.0800 
 45 H       17.1170     2.7380    -0.7620 H     1 <1>   0.0800 
@<TRIPOS>BOND
  1   1   2  1   
  2   2   3  ar  
  3   2   4  ar  
  4   3   5  ar  
  5   3  21  1   
  6   4   6  ar  
  7   4  22  1   
  8   5   7  ar  
  9   5  23  1   
 10   6   7  ar  
 11   6  24  1   
 12   7   8  1   
 13   8   9  1   
 14   9  10  1   
 15   9  25  1   
 16   9  26  1   
 17  10  11  1   
 18  10  27  1   
 19  10  28  1   
 20  11  12  1   
 21  12  13  1   
 22  12  29  1   
 23  12  30  1   
 24  13  14  1   
 25  13  31  1   
 26  13  32  1   
 27  14  15  1   
 28  14  16  1   
 29  14  33  1   
 30  15  17  1   
 31  15  34  1   
 32  15  35  1   
 33  16  18  1   
 34  16  36  1   
 35  16  37  1   
 36  17  19  1   
 37  17  20  1   
 38  17  38  1   
 39  18  19  1   
 40  18  39  1   
 41  18  40  1   
 42  19  41  1   
 43  19  42  1   
 44  20  43  1   
 45  20  44  1   
 46  20  45  1   
@<TRIPOS>SUBSTRUCTURE
  1 ****  11 GROUP 4 **** **** 0

# MOE 2024.06 (io_trps.svl 2023.06)
