@<TRIPOS>MOLECULE
NONAME
53 55 1 0 0 
SMALL
USER_CHARGES


@<TRIPOS>ATOM
  1 O        0.8170     1.5930    -0.9410 O.2   1 <1>  -0.5700 
  2 C       -0.0140     2.3190    -1.4360 C.2   1 <1>   0.5690 
  3 N       -1.2560     1.8060    -1.7650 N.am  1 <1>  -0.6600 
  4 C        0.3850     3.8020    -1.6010 C.3   1 <1>   0.2610 
  5 C       -1.6160     0.4170    -1.3600 C.3   1 <1>   0.1400 
  6 C       -2.4690     2.6150    -2.0780 C.3   1 <1>   0.1400 
  7 O       -0.5830     4.6980    -1.0640 O.3   1 <1>  -0.3630 
  8 C        0.6120     4.1950    -3.0660 C.3   1 <1>  -0.2400 
  9 C       -2.4440     0.4830    -0.0630 C.3   1 <1>   0.3430 
 10 C       -3.3530     2.7100    -0.8180 C.3   1 <1>   0.3430 
 11 C       -0.9280     4.7160     0.2490 C.ar  1 <1>   0.0820 
 12 N       -3.6650     1.3620    -0.1990 N.4   1 <1>  -0.9590 
 13 C       -1.9750     5.5550     0.5970 C.ar  1 <1>  -0.1500 
 14 C       -0.3200     3.9370     1.2310 C.ar  1 <1>  -0.1500 
 15 C       -4.3070     1.5500     1.1240 C.3   1 <1>   0.4810 
 16 C       -2.4360     5.6000     1.9000 C.ar  1 <1>  -0.1500 
 17 C       -0.7850     3.9810     2.5340 C.ar  1 <1>  -0.1500 
 18 C       -5.5860     2.3250     0.9180 C.2   1 <1>  -0.2880 
 19 C       -1.8450     4.8070     2.8690 C.ar  1 <1>  -0.1500 
 20 C       -5.7750     3.5940     1.3180 C.2   1 <1>  -0.1780 
 21 C       -6.9560     4.4120     1.1480 C.ar  1 <1>   0.0280 
 22 C       -8.1990     3.8730     0.8210 C.ar  1 <1>  -0.1500 
 23 C       -6.8730     5.7920     1.3110 C.ar  1 <1>  -0.1500 
 24 C       -9.3100     4.6800     0.6550 C.ar  1 <1>  -0.1500 
 25 C       -7.9800     6.6050     1.1470 C.ar  1 <1>  -0.1500 
 26 C       -9.2030     6.0490     0.8170 C.ar  1 <1>  -0.1500 
 27 H        1.3020     3.9710    -1.0630 H     1 <1>   0.0800 
 28 H       -2.1810    -0.0570    -2.1430 H     1 <1>   0.0800 
 29 H       -0.7330    -0.1770    -1.1950 H     1 <1>   0.0800 
 30 H       -2.2090     3.6000    -2.4180 H     1 <1>   0.0800 
 31 H       -3.0180     2.1420    -2.8730 H     1 <1>   0.0800 
 32 H       -0.2820     4.0590    -3.6450 H     1 <1>   0.0800 
 33 H        0.9260     5.2220    -3.1270 H     1 <1>   0.0800 
 34 H        1.3860     3.5790    -3.4870 H     1 <1>   0.0800 
 35 H       -1.8040     0.8730     0.7120 H     1 <1>   0.0800 
 36 H       -2.7370    -0.5140     0.2200 H     1 <1>   0.0800 
 37 H       -4.2690     3.2210    -1.0680 H     1 <1>   0.0800 
 38 H       -2.8390     3.3140    -0.0920 H     1 <1>   0.0800 
 39 H       -4.3420     0.8920    -0.8100 H     1 <1>   0.4500 
 40 H       -2.4240     6.1790    -0.1570 H     1 <1>   0.1500 
 41 H        0.5180     3.3000     1.0110 H     1 <1>   0.1500 
 42 H       -4.5250     0.5980     1.5820 H     1 <1>   0.0800 
 43 H       -3.6460     2.1020     1.7750 H     1 <1>   0.0800 
 44 H       -3.2440     6.2610     2.1660 H     1 <1>   0.1500 
 45 H       -0.3120     3.3810     3.2930 H     1 <1>   0.1500 
 46 H       -6.3420     1.7560     0.4070 H     1 <1>   0.1500 
 47 H       -2.1960     4.8460     3.8860 H     1 <1>   0.1500 
 48 H       -4.9800     4.1140     1.8280 H     1 <1>   0.1500 
 49 H       -8.3140     2.8130     0.7000 H     1 <1>   0.1500 
 50 H       -5.9330     6.2450     1.5680 H     1 <1>   0.1500 
 51 H      -10.2620     4.2450     0.4030 H     1 <1>   0.1500 
 52 H       -7.8940     7.6700     1.2760 H     1 <1>   0.1500 
 53 H      -10.0670     6.6780     0.6880 H     1 <1>   0.1500 
@<TRIPOS>BOND
  1   1   2  2   
  2   2   3  am  
  3   2   4  1   
  4   3   5  1   
  5   3   6  1   
  6   4   7  1   
  7   4   8  1   
  8   4  27  1   
  9   5   9  1   
 10   5  28  1   
 11   5  29  1   
 12   6  10  1   
 13   6  30  1   
 14   6  31  1   
 15   7  11  1   
 16   8  32  1   
 17   8  33  1   
 18   8  34  1   
 19   9  12  1   
 20   9  35  1   
 21   9  36  1   
 22  10  12  1   
 23  10  37  1   
 24  10  38  1   
 25  11  13  ar  
 26  11  14  ar  
 27  12  15  1   
 28  12  39  1   
 29  13  16  ar  
 30  13  40  1   
 31  14  17  ar  
 32  14  41  1   
 33  15  18  1   
 34  15  42  1   
 35  15  43  1   
 36  16  19  ar  
 37  16  44  1   
 38  17  19  ar  
 39  17  45  1   
 40  18  20  2   
 41  18  46  1   
 42  19  47  1   
 43  20  21  1   
 44  20  48  1   
 45  21  22  ar  
 46  21  23  ar  
 47  22  24  ar  
 48  22  49  1   
 49  23  25  ar  
 50  23  50  1   
 51  24  26  ar  
 52  24  51  1   
 53  25  26  ar  
 54  25  52  1   
 55  26  53  1   
@<TRIPOS>SUBSTRUCTURE
  1 ****  10 GROUP 4 **** **** 0

# MOE 2024.06 (io_trps.svl 2023.06)
