@<TRIPOS>MOLECULE
NONAME
33 33 1 0 0 
SMALL
USER_CHARGES


@<TRIPOS>ATOM
  1 S        0.1020     0.4220     0.7480 S.3   1 <1>  -0.3710 
  2 C       -1.5320     0.9910     0.2550 C.2   1 <1>   0.6510 
  3 C        1.0940     1.9790     0.8670 C.3   1 <1>  -0.0100 
  4 N       -1.6340     2.2560     0.1060 N.2   1 <1>  -0.6210 
  5 N       -2.5330     0.0510     0.0720 N.am  1 <1>  -0.4200 
  6 C       -2.8350     2.7690    -0.2780 C.2   1 <1>   0.0210 
  7 C       -3.7650     0.5580    -0.3520 C.2   1 <1>   0.6160 
  8 C       -2.3250    -1.4150     0.3210 C.3   1 <1>   0.2200 
  9 O       -2.8840     3.9980    -0.3960 O.3   1 <1>  -0.8500 
 10 C       -3.9170     1.9320    -0.5180 C.2   1 <1>  -0.1240 
 11 O       -4.7010    -0.2350    -0.5740 O.2   1 <1>  -0.5700 
 12 C       -2.4510    -2.2240    -0.9850 C.3   1 <1>  -0.1600 
 13 C       -3.2340    -1.9200     1.4500 C.3   1 <1>  -0.2400 
 14 C       -5.2520     2.5270    -0.9590 C.3   1 <1>  -0.0220 
 15 C       -1.9060    -3.6550    -0.8620 C.3   1 <1>  -0.2400 
 16 C       -6.1690     2.7550     0.2450 C.3   1 <1>  -0.2400 
 17 H        2.0930     1.7190     1.1610 H     1 <1>   0.0800 
 18 H        0.6220     2.6130     1.5970 H     1 <1>   0.0800 
 19 H        1.0790     2.4500    -0.1000 H     1 <1>   0.0800 
 20 H       -1.3270    -1.5820     0.6700 H     1 <1>   0.0800 
 21 H       -1.8970    -1.7160    -1.7560 H     1 <1>   0.0800 
 22 H       -3.4800    -2.2740    -1.2940 H     1 <1>   0.0800 
 23 H       -4.2580    -1.9840     1.1300 H     1 <1>   0.0800 
 24 H       -3.1690    -1.2580     2.2950 H     1 <1>   0.0800 
 25 H       -2.9220    -2.8980     1.7650 H     1 <1>   0.0800 
 26 H       -5.7290     1.8730    -1.6660 H     1 <1>   0.0800 
 27 H       -5.0750     3.4660    -1.4540 H     1 <1>   0.0800 
 28 H       -0.8780    -3.6410    -0.5460 H     1 <1>   0.0800 
 29 H       -1.9620    -4.1480    -1.8160 H     1 <1>   0.0800 
 30 H       -2.4830    -4.2240    -0.1550 H     1 <1>   0.0800 
 31 H       -6.3700     1.8220     0.7390 H     1 <1>   0.0800 
 32 H       -7.0950     3.1970    -0.0720 H     1 <1>   0.0800 
 33 H       -5.6810     3.4200     0.9370 H     1 <1>   0.0800 
@<TRIPOS>BOND
  1   1   2  1   
  2   1   3  1   
  3   2   4  2   
  4   2   5  1   
  5   3  17  1   
  6   3  18  1   
  7   3  19  1   
  8   4   6  1   
  9   5   7  am  
 10   5   8  1   
 11   6   9  1   
 12   6  10  2   
 13   7  10  1   
 14   7  11  2   
 15   8  12  1   
 16   8  13  1   
 17   8  20  1   
 18  10  14  1   
 19  12  15  1   
 20  12  21  1   
 21  12  22  1   
 22  13  23  1   
 23  13  24  1   
 24  13  25  1   
 25  14  16  1   
 26  14  26  1   
 27  14  27  1   
 28  15  28  1   
 29  15  29  1   
 30  15  30  1   
 31  16  31  1   
 32  16  32  1   
 33  16  33  1   
@<TRIPOS>SUBSTRUCTURE
  1 ****   5 GROUP 4 **** **** 0

# MOE 2024.06 (io_trps.svl 2023.06)
