@<TRIPOS>MOLECULE
NONAME
44 45 1 0 0 
SMALL
USER_CHARGES


@<TRIPOS>ATOM
  1 S        0.0610     0.0210     0.4580 S.o2  1 <1>   1.4470 
  2 O        0.1420    -0.1010     1.8990 O.2   1 <1>  -0.6500 
  3 O        0.4480     1.2640    -0.1740 O.2   1 <1>  -0.6500 
  4 N        1.0270    -1.2140    -0.1910 N.am  1 <1>  -0.8490 
  5 C       -1.6010    -0.4250    -0.1130 C.ar  1 <1>  -0.0090 
  6 C        0.8120    -2.4860     0.5110 C.3   1 <1>   0.1960 
  7 C        2.4360    -0.8080    -0.2240 C.3   1 <1>   0.1960 
  8 C       -2.6760    -0.4990     0.7650 C.ar  1 <1>  -0.1500 
  9 C       -1.8440    -0.7020    -1.4530 C.ar  1 <1>  -0.1500 
 10 C        1.1090    -3.6660    -0.4180 C.3   1 <1>  -0.1600 
 11 C        3.3400    -1.7810    -0.9940 C.3   1 <1>  -0.1600 
 12 C       -3.9410    -0.8450     0.3250 C.ar  1 <1>  -0.1500 
 13 C       -3.1080    -1.0480    -1.8970 C.ar  1 <1>  -0.1500 
 14 C        2.5630    -4.1620    -0.3930 C.3   1 <1>  -0.1600 
 15 C        3.6370    -3.0780    -0.2290 C.3   1 <1>  -0.1600 
 16 C       -4.1780    -1.1300    -1.0160 C.ar  1 <1>   0.1990 
 17 N       -5.4200    -1.4980    -1.5100 N.am  1 <1>  -0.7570 
 18 S       -6.9140    -1.7320    -0.7010 S.o2  1 <1>   1.3330 
 19 O       -7.0740    -0.6680     0.2580 O.2   1 <1>  -0.6500 
 20 O       -7.8510    -1.9180    -1.7800 O.2   1 <1>  -0.6500 
 21 C       -6.6540    -3.3030     0.1340 C.3   1 <1>  -0.0550 
 22 C       -7.8710    -3.8090     0.9280 C.3   1 <1>  -0.2400 
 23 H       -0.2250    -2.5620     0.7950 H     1 <1>   0.0800 
 24 H        1.3960    -2.5340     1.4160 H     1 <1>   0.0800 
 25 H        2.8030    -0.6740     0.7810 H     1 <1>   0.0800 
 26 H        2.5110     0.1450    -0.7220 H     1 <1>   0.0800 
 27 H       -2.5190    -0.2790     1.8090 H     1 <1>   0.1500 
 28 H       -1.0270    -0.6450    -2.1540 H     1 <1>   0.1500 
 29 H        0.8310    -3.3950    -1.4220 H     1 <1>   0.0800 
 30 H        0.4790    -4.4890    -0.1330 H     1 <1>   0.0800 
 31 H        4.2770    -1.2770    -1.1530 H     1 <1>   0.0800 
 32 H        2.9240    -1.9860    -1.9650 H     1 <1>   0.0800 
 33 H       -4.7420    -0.8790     1.0400 H     1 <1>   0.1500 
 34 H       -3.2630    -1.2570    -2.9400 H     1 <1>   0.1500 
 35 H        2.7460    -4.6980    -1.3090 H     1 <1>   0.0800 
 36 H        2.6790    -4.8690     0.4110 H     1 <1>   0.0800 
 37 H        3.7670    -2.8530     0.8160 H     1 <1>   0.0800 
 38 H        4.5710    -3.4820    -0.5790 H     1 <1>   0.0800 
 39 H       -5.5760    -1.4840    -2.5140 H     1 <1>   0.4200 
 40 H       -5.8250    -3.2060     0.8070 H     1 <1>   0.0800 
 41 H       -6.3920    -4.0440    -0.5970 H     1 <1>   0.0800 
 42 H       -8.1410    -3.0960     1.6880 H     1 <1>   0.0800 
 43 H       -7.6450    -4.7490     1.3990 H     1 <1>   0.0800 
 44 H       -8.7120    -3.9450     0.2710 H     1 <1>   0.0800 
@<TRIPOS>BOND
  1   1   2  2   
  2   1   3  2   
  3   1   4  am  
  4   1   5  1   
  5   4   6  1   
  6   4   7  1   
  7   5   8  ar  
  8   5   9  ar  
  9   6  10  1   
 10   6  23  1   
 11   6  24  1   
 12   7  11  1   
 13   7  25  1   
 14   7  26  1   
 15   8  12  ar  
 16   8  27  1   
 17   9  13  ar  
 18   9  28  1   
 19  10  14  1   
 20  10  29  1   
 21  10  30  1   
 22  11  15  1   
 23  11  31  1   
 24  11  32  1   
 25  12  16  ar  
 26  12  33  1   
 27  13  16  ar  
 28  13  34  1   
 29  14  15  1   
 30  14  35  1   
 31  14  36  1   
 32  15  37  1   
 33  15  38  1   
 34  16  17  1   
 35  17  18  am  
 36  17  39  1   
 37  18  19  2   
 38  18  20  2   
 39  18  21  1   
 40  21  22  1   
 41  21  40  1   
 42  21  41  1   
 43  22  42  1   
 44  22  43  1   
 45  22  44  1   
@<TRIPOS>SUBSTRUCTURE
  1 ****   5 GROUP 4 **** **** 0

# MOE 2024.06 (io_trps.svl 2023.06)
