@<TRIPOS>MOLECULE
NONAME
54 56 1 0 0 
SMALL
USER_CHARGES


@<TRIPOS>ATOM
  1 O       -1.6740    -3.9310    -0.1590 O.3   1 <1>  -0.3630 
  2 C       -3.0330    -3.8440    -0.0710 C.ar  1 <1>   0.0820 
  3 C       -0.9770    -5.0800     0.2690 C.3   1 <1>   0.1200 
  4 C       -3.9330    -4.9240    -0.0500 C.ar  1 <1>   0.0820 
  5 C       -3.5230    -2.5500    -0.0020 C.ar  1 <1>  -0.1500 
  6 C        0.4990    -4.7170     0.4530 C.3   1 <1>   0.2000 
  7 O       -3.4730    -6.2060    -0.1620 O.3   1 <1>  -0.3630 
  8 C       -5.2970    -4.6620     0.0720 C.ar  1 <1>  -0.1500 
  9 C       -4.8790    -2.3080     0.1080 C.ar  1 <1>  -0.1500 
 10 O        0.9560    -4.0690    -0.6960 O.3   1 <1>  -0.6800 
 11 C        1.3770    -5.9590     0.7140 C.3   1 <1>   0.3430 
 12 C       -4.3340    -7.2710    -0.5100 C.3   1 <1>   0.0400 
 13 C       -5.7740    -3.3620     0.1510 C.ar  1 <1>  -0.1430 
 14 N        2.7940    -5.6900     0.3220 N.4   1 <1>  -0.9590 
 15 C       -7.2640    -3.0820     0.2810 C.3   1 <1>   0.1220 
 16 C        3.5460    -6.9160    -0.0590 C.3   1 <1>   0.4860 
 17 C        3.5480    -4.8710     1.3130 C.3   1 <1>   0.3430 
 18 C       -7.7970    -2.4620    -0.9990 C.2   1 <1>  -0.2880 
 19 C        4.9670    -6.5730    -0.4800 C.ar  1 <1>  -0.1430 
 20 C        4.8140    -4.3110     0.6630 C.3   1 <1>  -0.0170 
 21 C       -8.4120    -1.2790    -1.0870 C.2   1 <1>  -0.3000 
 22 C        5.5670    -5.3660    -0.1340 C.ar  1 <1>  -0.1430 
 23 C        5.6820    -7.5030    -1.2210 C.ar  1 <1>  -0.1500 
 24 C        6.8690    -5.1060    -0.5320 C.ar  1 <1>  -0.1500 
 25 C        6.9810    -7.2380    -1.6130 C.ar  1 <1>  -0.1500 
 26 C        7.5750    -6.0390    -1.2680 C.ar  1 <1>  -0.1500 
 27 H       -1.0870    -5.8400    -0.4850 H     1 <1>   0.0800 
 28 H       -1.4070    -5.4170     1.1960 H     1 <1>   0.0800 
 29 H       -2.8370    -1.7240    -0.0330 H     1 <1>   0.1500 
 30 H        0.5880    -4.0280     1.2750 H     1 <1>   0.0800 
 31 H       -6.0080    -5.4630     0.1060 H     1 <1>   0.1500 
 32 H       -5.2390    -1.2940     0.1570 H     1 <1>   0.1500 
 33 H        0.2380    -3.4710    -1.0150 H     1 <1>   0.4000 
 34 H        0.9910    -6.7660     0.1130 H     1 <1>   0.0800 
 35 H        1.3110    -6.2550     1.7480 H     1 <1>   0.0800 
 36 H       -3.7330    -8.1420    -0.6970 H     1 <1>   0.0800 
 37 H       -4.8770    -7.0050    -1.4010 H     1 <1>   0.0800 
 38 H       -5.0050    -7.4620     0.3080 H     1 <1>   0.0800 
 39 H        2.7080    -5.1040    -0.5310 H     1 <1>   0.4500 
 40 H       -7.4290    -2.4160     1.1100 H     1 <1>   0.0800 
 41 H       -7.8000    -3.9920     0.4830 H     1 <1>   0.0800 
 42 H        3.0460    -7.4100    -0.8760 H     1 <1>   0.0800 
 43 H        3.5850    -7.5950     0.7770 H     1 <1>   0.0800 
 44 H        3.8200    -5.4830     2.1570 H     1 <1>   0.0800 
 45 H        2.9400    -4.0520     1.6620 H     1 <1>   0.0800 
 46 H       -7.6220    -3.0880    -1.8580 H     1 <1>   0.1500 
 47 H        5.4520    -3.9100     1.4300 H     1 <1>   0.0800 
 48 H        4.5460    -3.5020     0.0070 H     1 <1>   0.0800 
 49 H       -8.7780    -0.8620    -2.0100 H     1 <1>   0.1500 
 50 H       -8.6010    -0.6270    -0.2520 H     1 <1>   0.1500 
 51 H        5.2420    -8.4450    -1.5010 H     1 <1>   0.1500 
 52 H        7.3450    -4.1750    -0.2740 H     1 <1>   0.1500 
 53 H        7.5330    -7.9630    -2.1880 H     1 <1>   0.1500 
 54 H        8.5870    -5.8310    -1.5740 H     1 <1>   0.1500 
@<TRIPOS>BOND
  1   1   2  1   
  2   1   3  1   
  3   2   4  ar  
  4   2   5  ar  
  5   3   6  1   
  6   3  27  1   
  7   3  28  1   
  8   4   7  1   
  9   4   8  ar  
 10   5   9  ar  
 11   5  29  1   
 12   6  10  1   
 13   6  11  1   
 14   6  30  1   
 15   7  12  1   
 16   8  13  ar  
 17   8  31  1   
 18   9  13  ar  
 19   9  32  1   
 20  10  33  1   
 21  11  14  1   
 22  11  34  1   
 23  11  35  1   
 24  12  36  1   
 25  12  37  1   
 26  12  38  1   
 27  13  15  1   
 28  14  16  1   
 29  14  17  1   
 30  14  39  1   
 31  15  18  1   
 32  15  40  1   
 33  15  41  1   
 34  16  19  1   
 35  16  42  1   
 36  16  43  1   
 37  17  20  1   
 38  17  44  1   
 39  17  45  1   
 40  18  21  2   
 41  18  46  1   
 42  19  22  ar  
 43  19  23  ar  
 44  20  22  1   
 45  20  47  1   
 46  20  48  1   
 47  21  49  1   
 48  21  50  1   
 49  22  24  ar  
 50  23  25  ar  
 51  23  51  1   
 52  24  26  ar  
 53  24  52  1   
 54  25  26  ar  
 55  25  53  1   
 56  26  54  1   
@<TRIPOS>SUBSTRUCTURE
  1 ****   3 GROUP 4 **** **** 0

# MOE 2024.06 (io_trps.svl 2023.06)
