@<TRIPOS>MOLECULE
NONAME
32 32 1 0 0 
SMALL
USER_CHARGES


@<TRIPOS>ATOM
  1 CL       0.6180     0.7510    -0.3350 Cl    1 <1>  -0.1770 
  2 C        1.9080    -0.4200    -0.2350 C.ar  1 <1>   0.1770 
  3 C        3.2150     0.0170    -0.1560 C.ar  1 <1>  -0.1500 
  4 C        1.5980    -1.7680    -0.2370 C.ar  1 <1>  -0.1500 
  5 C        4.2420    -0.9100    -0.0770 C.ar  1 <1>   0.0830 
  6 C        2.6230    -2.6960    -0.1580 C.ar  1 <1>  -0.1500 
  7 O        5.5020    -0.4150    -0.0020 O.3   1 <1>  -0.3630 
  8 C        3.9400    -2.2720    -0.0780 C.ar  1 <1>  -0.1500 
  9 C        6.6210    -1.2610     0.0830 C.3   1 <1>   0.1200 
 10 C        7.8570    -0.3640     0.1500 C.3   1 <1>  -0.1600 
 11 C        9.1320    -1.1930     0.2460 C.3   1 <1>   0.3430 
 12 N       10.2940    -0.2770     0.3040 N.4   1 <1>  -0.9060 
 13 C       11.5870    -0.9700     0.3840 C.3   1 <1>   0.4810 
 14 C       12.6330     0.1130     0.3100 C.2   1 <1>  -0.2880 
 15 C       13.4290     0.3450    -0.7390 C.2   1 <1>  -0.3000 
 16 H        3.4320     1.0680    -0.1570 H     1 <1>   0.1500 
 17 H        0.5710    -2.0800    -0.2990 H     1 <1>   0.1500 
 18 H        2.3930    -3.7490    -0.1580 H     1 <1>   0.1500 
 19 H        4.7090    -3.0170    -0.0170 H     1 <1>   0.1500 
 20 H        6.6360    -1.8860    -0.7950 H     1 <1>   0.0800 
 21 H        6.5210    -1.8610     0.9720 H     1 <1>   0.0800 
 22 H        7.7680     0.2710     1.0150 H     1 <1>   0.0800 
 23 H        7.8830     0.2430    -0.7390 H     1 <1>   0.0800 
 24 H        9.2110    -1.8370    -0.6160 H     1 <1>   0.0800 
 25 H        9.0990    -1.8070     1.1330 H     1 <1>   0.0800 
 26 H       10.2130     0.3600     1.1040 H     1 <1>   0.4500 
 27 H       10.3240     0.3210    -0.5320 H     1 <1>   0.4500 
 28 H       11.7010    -1.6450    -0.4500 H     1 <1>   0.0800 
 29 H       11.6790    -1.5260     1.3050 H     1 <1>   0.0800 
 30 H       12.6930     0.7040     1.2100 H     1 <1>   0.1500 
 31 H       14.1740     1.1260    -0.7630 H     1 <1>   0.1500 
 32 H       13.4240    -0.2130    -1.6620 H     1 <1>   0.1500 
@<TRIPOS>BOND
  1   1   2  1   
  2   2   3  ar  
  3   2   4  ar  
  4   3   5  ar  
  5   3  16  1   
  6   4   6  ar  
  7   4  17  1   
  8   5   7  1   
  9   5   8  ar  
 10   6   8  ar  
 11   6  18  1   
 12   7   9  1   
 13   8  19  1   
 14   9  10  1   
 15   9  20  1   
 16   9  21  1   
 17  10  11  1   
 18  10  22  1   
 19  10  23  1   
 20  11  12  1   
 21  11  24  1   
 22  11  25  1   
 23  12  13  1   
 24  12  26  1   
 25  12  27  1   
 26  13  14  1   
 27  13  28  1   
 28  13  29  1   
 29  14  15  2   
 30  14  30  1   
 31  15  31  1   
 32  15  32  1   
@<TRIPOS>SUBSTRUCTURE
  1 ****   9 GROUP 4 **** **** 0

# MOE 2024.06 (io_trps.svl 2023.06)
