@<TRIPOS>MOLECULE
NONAME
42 43 1 0 0 
SMALL
USER_CHARGES


@<TRIPOS>ATOM
  1 O       -0.4580    -0.7250    -0.2170 O.2   1 <1>  -0.5700 
  2 C       -0.1290    -1.4990     0.6600 C.2   1 <1>   0.6900 
  3 N        1.1680    -1.8520     0.8700 N.am  1 <1>  -0.5470 
  4 N       -1.0550    -2.0610     1.4780 N.am  1 <1>  -0.7300 
  5 C        2.3850    -1.4520     0.2870 C.ar  1 <1>   0.1170 
  6 C       -2.5260    -1.8410     1.4610 C.3   1 <1>   0.2200 
  7 C        3.5210    -2.2320     0.5350 C.ar  1 <1>   0.0830 
  8 C        2.5130    -0.3180    -0.5060 C.ar  1 <1>  -0.1500 
  9 C       -3.1520    -1.9450     0.0490 C.3   1 <1>   0.2000 
 10 C       -2.8180    -0.4980     2.1310 C.3   1 <1>  -0.2400 
 11 O        3.3620    -3.3340     1.3310 O.3   1 <1>  -0.3630 
 12 C        4.7450    -1.8720    -0.0190 C.ar  1 <1>  -0.1500 
 13 C        3.7310     0.0390    -1.0590 C.ar  1 <1>  -0.1430 
 14 O       -4.5420    -1.9860     0.1460 O.3   1 <1>  -0.5600 
 15 C       -2.8050    -3.2170    -0.7190 C.3   1 <1>  -0.1600 
 16 C        4.4430    -4.2020     1.5980 C.3   1 <1>   0.0400 
 17 C        4.8460    -0.7420    -0.8120 C.ar  1 <1>  -0.1500 
 18 C        3.8430     1.2810    -1.9260 C.3   1 <1>  -0.0970 
 19 C       -5.0750    -2.4870    -1.0350 C.3   1 <1>   0.1200 
 20 C       -4.0290    -3.4480    -1.5930 C.3   1 <1>  -0.1600 
 21 H        1.2950    -2.6560     1.4780 H     1 <1>   0.3700 
 22 H       -0.7170    -2.5320     2.3120 H     1 <1>   0.3700 
 23 H       -2.9720    -2.6210     2.0550 H     1 <1>   0.0800 
 24 H        1.6540     0.2980    -0.6950 H     1 <1>   0.1500 
 25 H       -2.9020    -1.0760    -0.5360 H     1 <1>   0.0800 
 26 H       -2.3960     0.3050     1.5530 H     1 <1>   0.0800 
 27 H       -2.4120    -0.4760     3.1250 H     1 <1>   0.0800 
 28 H       -3.8810    -0.3470     2.1930 H     1 <1>   0.0800 
 29 H        5.6320    -2.4500     0.1520 H     1 <1>   0.1500 
 30 H       -2.6750    -4.0350    -0.0330 H     1 <1>   0.0800 
 31 H       -1.9040    -3.0880    -1.2930 H     1 <1>   0.0800 
 32 H        4.0850    -5.0010     2.2230 H     1 <1>   0.0800 
 33 H        5.2130    -3.6540     2.1120 H     1 <1>   0.0800 
 34 H        4.8080    -4.6020     0.6680 H     1 <1>   0.0800 
 35 H        5.7980    -0.4720    -1.2350 H     1 <1>   0.1500 
 36 H        2.8950     1.5080    -2.3810 H     1 <1>   0.0800 
 37 H        4.5660     1.1290    -2.7070 H     1 <1>   0.0800 
 38 H        4.1480     2.1180    -1.3240 H     1 <1>   0.0800 
 39 H       -5.2390    -1.6590    -1.7040 H     1 <1>   0.0800 
 40 H       -6.0080    -2.9760    -0.8150 H     1 <1>   0.0800 
 41 H       -4.3700    -4.4660    -1.5250 H     1 <1>   0.0800 
 42 H       -3.8260    -3.2120    -2.6230 H     1 <1>   0.0800 
@<TRIPOS>BOND
  1   1   2  2   
  2   2   3  am  
  3   2   4  am  
  4   3   5  1   
  5   3  21  1   
  6   4   6  1   
  7   4  22  1   
  8   5   7  ar  
  9   5   8  ar  
 10   6   9  1   
 11   6  10  1   
 12   6  23  1   
 13   7  11  1   
 14   7  12  ar  
 15   8  13  ar  
 16   8  24  1   
 17   9  14  1   
 18   9  15  1   
 19   9  25  1   
 20  10  26  1   
 21  10  27  1   
 22  10  28  1   
 23  11  16  1   
 24  12  17  ar  
 25  12  29  1   
 26  13  17  ar  
 27  13  18  1   
 28  14  19  1   
 29  15  20  1   
 30  15  30  1   
 31  15  31  1   
 32  16  32  1   
 33  16  33  1   
 34  16  34  1   
 35  17  35  1   
 36  18  36  1   
 37  18  37  1   
 38  18  38  1   
 39  19  20  1   
 40  19  39  1   
 41  19  40  1   
 42  20  41  1   
 43  20  42  1   
@<TRIPOS>SUBSTRUCTURE
  1 ****   2 GROUP 4 **** **** 0

# MOE 2024.06 (io_trps.svl 2023.06)
