@<TRIPOS>MOLECULE
NONAME
35 37 1 0 0 
SMALL
USER_CHARGES


@<TRIPOS>ATOM
  1 S       -0.3280    -0.4890    -0.3300 S.3   1 <1>  -0.0800 
  2 C        0.7140     0.9160    -0.2480 C.2   1 <1>   0.1040 
  3 C       -1.7590     0.5240    -0.4230 C.2   1 <1>  -0.1400 
  4 N        2.0840     0.7930    -0.1220 N.am  1 <1>  -0.4940 
  5 C        0.0060     2.0790    -0.3240 C.2   1 <1>  -0.2330 
  6 C       -1.4260     1.8300    -0.3800 C.2   1 <1>  -0.1810 
  7 C       -3.0770    -0.2140    -0.5450 C.3   1 <1>   0.0200 
  8 C        3.0020    -0.2200    -0.0450 C.2   1 <1>   0.7150 
  9 C        0.6980     3.3600    -0.3740 C.2   1 <1>   1.0330 
 10 C       -2.4530     2.9600    -0.4040 C.3   1 <1>   0.0210 
 11 C       -4.1240     0.2580     0.4680 C.3   1 <1>  -0.1600 
 12 O        2.6560    -1.3850    -0.1350 O.2   1 <1>  -0.5700 
 13 C        4.3860     0.1570     0.1440 C.2   1 <1>   0.0550 
 14 O        0.1860     4.3850    -0.8550 O.co2 1 <1>  -0.9000 
 15 O        1.8840     3.4470     0.0250 O.co2 1 <1>  -0.9000 
 16 C       -3.6100     2.7730     0.5890 C.3   1 <1>  -0.1600 
 17 C       -4.6270     1.6850     0.2140 C.3   1 <1>  -0.1600 
 18 O        5.3600    -0.7480     0.2240 O.3   1 <1>  -0.2800 
 19 C        4.9470     1.3960     0.2690 C.2   1 <1>  -0.1500 
 20 C        6.5060    -0.1300     0.3940 C.2   1 <1>  -0.0100 
 21 C        6.3200     1.2060     0.4310 C.2   1 <1>  -0.1500 
 22 H        2.4910     1.7390    -0.0300 H     1 <1>   0.3700 
 23 H       -2.9020    -1.2630    -0.3870 H     1 <1>   0.0800 
 24 H       -3.4500    -0.0950    -1.5470 H     1 <1>   0.0800 
 25 H       -2.8240     3.0820    -1.4060 H     1 <1>   0.0800 
 26 H       -1.9840     3.8830    -0.1270 H     1 <1>   0.0800 
 27 H       -3.7160     0.1840     1.4610 H     1 <1>   0.0800 
 28 H       -4.9640    -0.4110     0.4110 H     1 <1>   0.0800 
 29 H       -4.1360     3.7090     0.6450 H     1 <1>   0.0800 
 30 H       -3.2040     2.5780     1.5660 H     1 <1>   0.0800 
 31 H       -5.5030     1.8360     0.8200 H     1 <1>   0.0800 
 32 H       -4.9260     1.7990    -0.8140 H     1 <1>   0.0800 
 33 H        4.4500     2.3540     0.2500 H     1 <1>   0.1500 
 34 H        7.4050    -0.7140     0.4800 H     1 <1>   0.1500 
 35 H        7.0490     1.9870     0.5560 H     1 <1>   0.1500 
@<TRIPOS>BOND
  1   1   2  1   
  2   1   3  1   
  3   2   4  1   
  4   2   5  2   
  5   3   6  2   
  6   3   7  1   
  7   4   8  am  
  8   4  22  1   
  9   5   6  1   
 10   5   9  1   
 11   6  10  1   
 12   7  11  1   
 13   7  23  1   
 14   7  24  1   
 15   8  12  2   
 16   8  13  1   
 17   9  14  ar  
 18   9  15  ar  
 19  10  16  1   
 20  10  25  1   
 21  10  26  1   
 22  11  17  1   
 23  11  27  1   
 24  11  28  1   
 25  13  18  1   
 26  13  19  2   
 27  16  17  1   
 28  16  29  1   
 29  16  30  1   
 30  17  31  1   
 31  17  32  1   
 32  18  20  1   
 33  19  21  1   
 34  19  33  1   
 35  20  21  2   
 36  20  34  1   
 37  21  35  1   
@<TRIPOS>SUBSTRUCTURE
  1 ****   2 GROUP 4 **** **** 0

# MOE 2024.06 (io_trps.svl 2023.06)
