@<TRIPOS>MOLECULE
NONAME
33 33 1 0 0 
SMALL
USER_CHARGES


@<TRIPOS>ATOM
  1 O       -0.4540    -0.2650     0.1080 O.2   1 <1>  -0.5700 
  2 C       -0.3810    -1.4660    -0.0560 C.2   1 <1>   0.6900 
  3 N       -1.4780    -2.1870    -0.4530 N.am  1 <1>  -0.4200 
  4 N        0.8150    -2.1130     0.1450 N.am  1 <1>  -0.4200 
  5 C       -1.3690    -3.5230    -0.7490 C.2   1 <1>   0.6900 
  6 C       -2.8090    -1.5320    -0.4830 C.3   1 <1>   0.2780 
  7 C        0.9450    -3.4440    -0.1720 C.2   1 <1>   0.6900 
  8 C        1.9700    -1.3680     0.7320 C.3   1 <1>   0.1400 
  9 O       -2.3380    -4.1680    -1.0970 O.2   1 <1>  -0.5700 
 10 N       -0.1420    -4.1370    -0.6510 N.am  1 <1>  -0.4200 
 11 C       -3.3920    -1.5350     0.9180 C.2   1 <1>  -0.2880 
 12 O        2.0140    -4.0030    -0.0330 O.2   1 <1>  -0.5700 
 13 C        2.8060    -0.7120    -0.3690 C.3   1 <1>   0.0400 
 14 C        0.0080    -5.5660    -1.0680 C.3   1 <1>   0.1400 
 15 C       -4.4490    -2.2540     1.3100 C.2   1 <1>  -0.3000 
 16 C        3.9440     0.0290     0.2340 C.1   1 <1>   0.3570 
 17 C       -0.3040    -6.5040     0.1010 C.3   1 <1>   0.0400 
 18 N        4.8090     0.5890     0.7120 N.1   1 <1>  -0.5570 
 19 C       -0.1450    -7.9170    -0.3290 C.1   1 <1>   0.3570 
 20 N       -0.0150    -8.9920    -0.6740 N.1   1 <1>  -0.5570 
 21 H       -3.4680    -2.0530    -1.1570 H     1 <1>   0.0800 
 22 H       -2.7180    -0.5200    -0.8400 H     1 <1>   0.0800 
 23 H        2.5870    -2.0410     1.3050 H     1 <1>   0.0800 
 24 H        1.6060    -0.6130     1.4100 H     1 <1>   0.0800 
 25 H       -2.8550    -0.8820     1.5860 H     1 <1>   0.1500 
 26 H        2.2040    -0.0180    -0.9270 H     1 <1>   0.0800 
 27 H        3.1980    -1.4610    -1.0320 H     1 <1>   0.0800 
 28 H        1.0110    -5.7420    -1.4180 H     1 <1>   0.0800 
 29 H       -0.6580    -5.7750    -1.8890 H     1 <1>   0.0800 
 30 H       -4.8490    -2.2390     2.3100 H     1 <1>   0.1500 
 31 H       -5.0030    -2.9180     0.6680 H     1 <1>   0.1500 
 32 H       -1.3160    -6.3590     0.4320 H     1 <1>   0.0800 
 33 H        0.3710    -6.3160     0.9160 H     1 <1>   0.0800 
@<TRIPOS>BOND
  1   1   2  2   
  2   2   3  am  
  3   2   4  am  
  4   3   5  am  
  5   3   6  1   
  6   4   7  am  
  7   4   8  1   
  8   5   9  2   
  9   5  10  am  
 10   6  11  1   
 11   6  21  1   
 12   6  22  1   
 13   7  10  am  
 14   7  12  2   
 15   8  13  1   
 16   8  23  1   
 17   8  24  1   
 18  10  14  1   
 19  11  15  2   
 20  11  25  1   
 21  13  16  1   
 22  13  26  1   
 23  13  27  1   
 24  14  17  1   
 25  14  28  1   
 26  14  29  1   
 27  15  30  1   
 28  15  31  1   
 29  16  18  3   
 30  17  19  1   
 31  17  32  1   
 32  17  33  1   
 33  19  20  3   
@<TRIPOS>SUBSTRUCTURE
  1 ****   7 GROUP 4 **** **** 0

# MOE 2024.06 (io_trps.svl 2023.06)
