@<TRIPOS>MOLECULE
NONAME
40 41 1 0 0 
SMALL
USER_CHARGES


@<TRIPOS>ATOM
  1 O       -1.0350     0.7280     0.9300 O.2   1 <1>  -0.5700 
  2 C       -1.1940     1.9320     0.8800 C.2   1 <1>   0.6900 
  3 N       -2.4530     2.4350     1.0240 N.am  1 <1>  -0.6600 
  4 N       -0.1780     2.8040     0.6480 N.am  1 <1>  -0.5470 
  5 C       -3.1650     2.8220    -0.2240 C.3   1 <1>   0.1400 
  6 C       -3.3420     1.7720     2.0220 C.3   1 <1>   0.1400 
  7 C        1.1870     2.5330     0.4960 C.ar  1 <1>   0.1170 
  8 C       -3.8460     1.5840    -0.8480 C.3   1 <1>   0.3430 
  9 C       -4.0270     0.5390     1.3990 C.3   1 <1>   0.3430 
 10 C        1.7020     1.7740    -0.5600 C.ar  1 <1>  -0.1440 
 11 C        2.0660     3.0690     1.4300 C.ar  1 <1>  -0.1500 
 12 N       -4.7600     0.8770     0.1210 N.4   1 <1>  -0.9590 
 13 C        3.0680     1.5580    -0.6450 C.ar  1 <1>  -0.1500 
 14 C        0.8080     1.1730    -1.6360 C.3   1 <1>  -0.0970 
 15 C        3.4280     2.8530     1.3350 C.ar  1 <1>  -0.1500 
 16 C       -5.3380    -0.3360    -0.5130 C.3   1 <1>   0.3430 
 17 C        3.9310     2.0940     0.2950 C.ar  1 <1>  -0.1500 
 18 C       -6.5330    -0.8220     0.2990 C.3   1 <1>  -0.2400 
 19 H       -0.4060     3.7630     0.8940 H     1 <1>   0.3700 
 20 H       -2.4620     3.2340    -0.9300 H     1 <1>   0.0800 
 21 H       -3.8960     3.5800    -0.0050 H     1 <1>   0.0800 
 22 H       -4.0800     2.4720     2.3730 H     1 <1>   0.0800 
 23 H       -2.7550     1.4580     2.8690 H     1 <1>   0.0800 
 24 H       -3.0720     0.9050    -1.1700 H     1 <1>   0.0800 
 25 H       -4.4000     1.8890    -1.7200 H     1 <1>   0.0800 
 26 H       -4.7080     0.1160     2.1170 H     1 <1>   0.0800 
 27 H       -3.2660    -0.1980     1.1940 H     1 <1>   0.0800 
 28 H        1.6830     3.6550     2.2450 H     1 <1>   0.1500 
 29 H       -5.5320     1.5140     0.3560 H     1 <1>   0.4500 
 30 H        3.4740     0.9690    -1.4490 H     1 <1>   0.1500 
 31 H        1.3770     0.9400    -2.5180 H     1 <1>   0.0800 
 32 H        0.3600     0.2670    -1.2690 H     1 <1>   0.0800 
 33 H        0.0340     1.8650    -1.9110 H     1 <1>   0.0800 
 34 H        4.0960     3.2710     2.0670 H     1 <1>   0.1500 
 35 H       -4.5920    -1.1130    -0.5800 H     1 <1>   0.0800 
 36 H       -5.6710    -0.1020    -1.5120 H     1 <1>   0.0800 
 37 H        4.9900     1.9190     0.2160 H     1 <1>   0.1500 
 38 H       -6.2370    -1.1600     1.2750 H     1 <1>   0.0800 
 39 H       -6.9850    -1.6560    -0.2090 H     1 <1>   0.0800 
 40 H       -7.2770    -0.0500     0.3900 H     1 <1>   0.0800 
@<TRIPOS>BOND
  1   1   2  2   
  2   2   3  am  
  3   2   4  am  
  4   3   5  1   
  5   3   6  1   
  6   4   7  1   
  7   4  19  1   
  8   5   8  1   
  9   5  20  1   
 10   5  21  1   
 11   6   9  1   
 12   6  22  1   
 13   6  23  1   
 14   7  10  ar  
 15   7  11  ar  
 16   8  12  1   
 17   8  24  1   
 18   8  25  1   
 19   9  12  1   
 20   9  26  1   
 21   9  27  1   
 22  10  13  ar  
 23  10  14  1   
 24  11  15  ar  
 25  11  28  1   
 26  12  16  1   
 27  12  29  1   
 28  13  17  ar  
 29  13  30  1   
 30  14  31  1   
 31  14  32  1   
 32  14  33  1   
 33  15  17  ar  
 34  15  34  1   
 35  16  18  1   
 36  16  35  1   
 37  16  36  1   
 38  17  37  1   
 39  18  38  1   
 40  18  39  1   
 41  18  40  1   
@<TRIPOS>SUBSTRUCTURE
  1 ****   2 GROUP 4 **** **** 0

# MOE 2024.06 (io_trps.svl 2023.06)
