@<TRIPOS>MOLECULE
NONAME
41 43 1 0 0 
SMALL
USER_CHARGES


@<TRIPOS>ATOM
  1 S        0.4700     0.5910    -1.2920 S.3   1 <1>  -0.3320 
  2 C       -1.0910     1.3630    -0.8460 C.ar  1 <1>   0.4120 
  3 C        1.7640     1.3390    -0.1830 C.3   1 <1>   0.1310 
  4 N       -2.0340     0.4770    -0.5980 N.ar  1 <1>  -0.6200 
  5 C       -1.2390     2.7440    -0.7980 C.ar  1 <1>   0.0730 
  6 C        2.6810     0.2640     0.3680 C.2   1 <1>   0.6590 
  7 C       -3.2110     0.9690    -0.2580 C.ar  1 <1>   0.1660 
  8 C       -0.1580     3.6160    -1.1300 C.1   1 <1>   0.4840 
  9 C       -2.4830     3.2540    -0.4320 C.ar  1 <1>   0.0000 
 10 O        2.7060     0.0050     1.5440 O.2   1 <1>  -0.5700 
 11 O        3.4680    -0.3510    -0.5090 O.3   1 <1>  -0.4300 
 12 C       -3.4860     2.3280    -0.1510 C.ar  1 <1>  -0.1440 
 13 C       -4.2680    -0.0910     0.0270 C.3   1 <1>  -0.0170 
 14 N        0.7310     4.2930    -1.3580 N.1   1 <1>  -0.5570 
 15 C       -2.7190     4.6780    -0.3610 C.ar  1 <1>   0.0000 
 16 C        4.3560    -1.3770    -0.1170 C.3   1 <1>   0.0400 
 17 C       -4.8780     2.8270     0.2520 C.3   1 <1>  -0.0160 
 18 C       -5.6980     0.4600     0.0580 C.3   1 <1>  -0.1600 
 19 C       -3.2380     5.3950    -1.4260 C.ar  1 <1>  -0.1500 
 20 C       -2.4470     5.4200     0.7770 C.ar  1 <1>  -0.1500 
 21 C       -5.7500     1.7410     0.8900 C.3   1 <1>  -0.1600 
 22 C       -3.4550     6.7550    -1.3070 C.ar  1 <1>   0.1600 
 23 C       -2.7010     6.7790     0.7950 C.ar  1 <1>   0.1600 
 24 N       -3.2020     7.4630    -0.2190 N.ar  1 <1>  -0.6200 
 25 H        1.2580     1.8330     0.6240 H     1 <1>   0.0800 
 26 H        2.3230     2.0450    -0.7670 H     1 <1>   0.0800 
 27 H       -4.0380    -0.5380     0.9780 H     1 <1>   0.0800 
 28 H       -4.2060    -0.8640    -0.7180 H     1 <1>   0.0800 
 29 H        4.8800    -1.7250    -0.9890 H     1 <1>   0.0800 
 30 H        3.7870    -2.1800     0.3200 H     1 <1>   0.0800 
 31 H        5.0520    -0.9800     0.6020 H     1 <1>   0.0800 
 32 H       -5.3730     3.1990    -0.6280 H     1 <1>   0.0800 
 33 H       -4.7960     3.6430     0.9490 H     1 <1>   0.0800 
 34 H       -6.3600    -0.2790     0.4740 H     1 <1>   0.0800 
 35 H       -6.0230     0.6700    -0.9470 H     1 <1>   0.0800 
 36 H       -3.4730     4.8950    -2.3480 H     1 <1>   0.1500 
 37 H       -2.0400     4.9410     1.6480 H     1 <1>   0.1500 
 38 H       -6.7650     2.0910     0.9630 H     1 <1>   0.0800 
 39 H       -5.3970     1.5360     1.8870 H     1 <1>   0.0800 
 40 H       -3.8580     7.2910    -2.1500 H     1 <1>   0.1500 
 41 H       -2.4810     7.3350     1.6910 H     1 <1>   0.1500 
@<TRIPOS>BOND
  1   1   2  1   
  2   1   3  1   
  3   2   4  ar  
  4   2   5  ar  
  5   3   6  1   
  6   3  25  1   
  7   3  26  1   
  8   4   7  ar  
  9   5   8  1   
 10   5   9  ar  
 11   6  10  2   
 12   6  11  1   
 13   7  12  ar  
 14   7  13  1   
 15   8  14  3   
 16   9  12  ar  
 17   9  15  1   
 18  11  16  1   
 19  12  17  1   
 20  13  18  1   
 21  13  27  1   
 22  13  28  1   
 23  15  19  ar  
 24  15  20  ar  
 25  16  29  1   
 26  16  30  1   
 27  16  31  1   
 28  17  21  1   
 29  17  32  1   
 30  17  33  1   
 31  18  21  1   
 32  18  34  1   
 33  18  35  1   
 34  19  22  ar  
 35  19  36  1   
 36  20  23  ar  
 37  20  37  1   
 38  21  38  1   
 39  21  39  1   
 40  22  24  ar  
 41  22  40  1   
 42  23  24  ar  
 43  23  41  1   
@<TRIPOS>SUBSTRUCTURE
  1 ****   5 GROUP 4 **** **** 0

# MOE 2024.06 (io_trps.svl 2023.06)
