@<TRIPOS>MOLECULE
NONAME
45 46 1 0 0 
SMALL
USER_CHARGES


@<TRIPOS>ATOM
  1 CL       0.8330     0.4650     0.1470 Cl    1 <1>  -0.1770 
  2 C        2.3540     1.3300     0.1470 C.ar  1 <1>   0.1770 
  3 C        2.3910     2.7010    -0.0810 C.ar  1 <1>   0.0820 
  4 C        3.5060     0.6010     0.3820 C.ar  1 <1>  -0.1500 
  5 O        1.2290     3.3710    -0.2860 O.3   1 <1>  -0.3630 
  6 C        3.6360     3.3450    -0.0930 C.ar  1 <1>   0.0830 
  7 C        4.7350     1.2440     0.3880 C.ar  1 <1>  -0.1440 
  8 C        0.5610     3.8110     0.8760 C.3   1 <1>   0.0400 
  9 O        3.8400     4.6680    -0.3330 O.3   1 <1>  -0.3630 
 10 C        4.7850     2.6110     0.1570 C.ar  1 <1>  -0.1500 
 11 C        6.0160     0.4770     0.6270 C.3   1 <1>   0.4860 
 12 C        3.0050     5.3870    -1.2140 C.3   1 <1>   0.1200 
 13 N        6.5500     0.1300    -0.7070 N.4   1 <1>  -0.9060 
 14 C        3.7640     6.6250    -1.6780 C.3   1 <1>  -0.2400 
 15 C        7.9100    -0.4190    -0.6710 C.3   1 <1>   0.5660 
 16 C        8.8280     0.6180    -0.0410 C.ar  1 <1>  -0.1430 
 17 C        8.3270    -0.7700    -2.0930 C.3   1 <1>  -0.2400 
 18 C        9.4730     0.3110     1.1500 C.ar  1 <1>  -0.1500 
 19 C        9.0200     1.8730    -0.6110 C.ar  1 <1>  -0.1500 
 20 C       10.2860     1.2450     1.7670 C.ar  1 <1>  -0.1500 
 21 C        9.8340     2.8040     0.0090 C.ar  1 <1>  -0.1500 
 22 C       10.4650     2.4920     1.1990 C.ar  1 <1>  -0.1500 
 23 H        3.4150    -0.4570     0.5590 H     1 <1>   0.1500 
 24 H       -0.3200     4.3480     0.5740 H     1 <1>   0.0800 
 25 H        1.2160     4.4580     1.4320 H     1 <1>   0.0800 
 26 H        0.2830     2.9570     1.4680 H     1 <1>   0.0800 
 27 H        5.7230     3.1430     0.1660 H     1 <1>   0.1500 
 28 H        5.8230    -0.4120     1.2060 H     1 <1>   0.0800 
 29 H        6.7130     1.1010     1.1660 H     1 <1>   0.0800 
 30 H        2.1130     5.6700    -0.6840 H     1 <1>   0.0800 
 31 H        2.7540     4.7560    -2.0490 H     1 <1>   0.0800 
 32 H        6.5740     0.9950    -1.2540 H     1 <1>   0.4500 
 33 H        5.9100    -0.5090    -1.1840 H     1 <1>   0.4500 
 34 H        4.0170     7.2430    -0.8340 H     1 <1>   0.0800 
 35 H        3.1490     7.1970    -2.3490 H     1 <1>   0.0800 
 36 H        4.6610     6.3390    -2.1960 H     1 <1>   0.0800 
 37 H        7.9260    -1.3150    -0.0710 H     1 <1>   0.0800 
 38 H        8.2890     0.0860    -2.7420 H     1 <1>   0.0800 
 39 H        7.7020    -1.5500    -2.4900 H     1 <1>   0.0800 
 40 H        9.3400    -1.1330    -2.0830 H     1 <1>   0.0800 
 41 H        9.3580    -0.6540     1.6150 H     1 <1>   0.1500 
 42 H        8.5530     2.1490    -1.5400 H     1 <1>   0.1500 
 43 H       10.7860     1.0040     2.6910 H     1 <1>   0.1500 
 44 H        9.9830     3.7760    -0.4330 H     1 <1>   0.1500 
 45 H       11.0990     3.2180     1.6800 H     1 <1>   0.1500 
@<TRIPOS>BOND
  1   1   2  1   
  2   2   3  ar  
  3   2   4  ar  
  4   3   5  1   
  5   3   6  ar  
  6   4   7  ar  
  7   4  23  1   
  8   5   8  1   
  9   6   9  1   
 10   6  10  ar  
 11   7  10  ar  
 12   7  11  1   
 13   8  24  1   
 14   8  25  1   
 15   8  26  1   
 16   9  12  1   
 17  10  27  1   
 18  11  13  1   
 19  11  28  1   
 20  11  29  1   
 21  12  14  1   
 22  12  30  1   
 23  12  31  1   
 24  13  15  1   
 25  13  32  1   
 26  13  33  1   
 27  14  34  1   
 28  14  35  1   
 29  14  36  1   
 30  15  16  1   
 31  15  17  1   
 32  15  37  1   
 33  16  18  ar  
 34  16  19  ar  
 35  17  38  1   
 36  17  39  1   
 37  17  40  1   
 38  18  20  ar  
 39  18  41  1   
 40  19  21  ar  
 41  19  42  1   
 42  20  22  ar  
 43  20  43  1   
 44  21  22  ar  
 45  21  44  1   
 46  22  45  1   
@<TRIPOS>SUBSTRUCTURE
  1 ****  10 GROUP 4 **** **** 0

# MOE 2024.06 (io_trps.svl 2023.06)
