@<TRIPOS>MOLECULE
NONAME
39 40 1 0 0 
SMALL
USER_CHARGES


@<TRIPOS>ATOM
  1 O       -0.8470     1.7570     0.6610 O.3   1 <1>  -0.5600 
  2 C       -1.1460     1.7190    -0.7040 C.3   1 <1>   0.1200 
  3 C       -1.8390     2.3180     1.4690 C.3   1 <1>   0.1200 
  4 C       -2.4260     0.8960    -0.9450 C.3   1 <1>   0.3430 
  5 C       -3.1520     1.5240     1.3290 C.3   1 <1>   0.3430 
  6 N       -3.5760     1.4010    -0.1140 N.4   1 <1>  -0.9590 
  7 C       -4.7700     0.5080    -0.2870 C.3   1 <1>   0.3430 
  8 C       -6.0440     1.0850     0.3370 C.3   1 <1>   0.1200 
  9 O       -7.0770     0.1710     0.0720 O.3   1 <1>  -0.3630 
 10 C       -8.3620     0.4110     0.4450 C.ar  1 <1>   0.0820 
 11 C       -9.3300    -0.5200     0.0730 C.ar  1 <1>  -0.1430 
 12 C       -8.7360     1.5400     1.1730 C.ar  1 <1>  -0.1500 
 13 C      -10.6530    -0.3060     0.4270 C.ar  1 <1>  -0.1500 
 14 C       -8.9770    -1.7740    -0.7210 C.3   1 <1>  -0.0170 
 15 C      -10.0590     1.7390     1.5210 C.ar  1 <1>  -0.1500 
 16 C      -11.0180     0.8160     1.1480 C.ar  1 <1>  -0.1500 
 17 C       -8.9530    -1.4750    -2.2220 C.3   1 <1>  -0.2400 
 18 H       -0.3110     1.2620    -1.2080 H     1 <1>   0.0800 
 19 H       -1.2530     2.7270    -1.0660 H     1 <1>   0.0800 
 20 H       -1.9720     3.3490     1.1900 H     1 <1>   0.0800 
 21 H       -1.4900     2.2810     2.4860 H     1 <1>   0.0800 
 22 H       -2.2180    -0.1310    -0.6930 H     1 <1>   0.0800 
 23 H       -2.6810     0.9330    -1.9920 H     1 <1>   0.0800 
 24 H       -3.9220     2.0110     1.9030 H     1 <1>   0.0800 
 25 H       -2.9980     0.5430     1.7480 H     1 <1>   0.0800 
 26 H       -3.8090     2.3420    -0.4600 H     1 <1>   0.4500 
 27 H       -4.5700    -0.4530     0.1590 H     1 <1>   0.0800 
 28 H       -4.9550     0.3600    -1.3390 H     1 <1>   0.0800 
 29 H       -6.3060     2.0240    -0.1190 H     1 <1>   0.0800 
 30 H       -5.9540     1.1790     1.4040 H     1 <1>   0.0800 
 31 H       -8.0230     2.2780     1.4810 H     1 <1>   0.1500 
 32 H      -11.4100    -1.0160     0.1410 H     1 <1>   0.1500 
 33 H       -9.7020    -2.5440    -0.5240 H     1 <1>   0.0800 
 34 H       -8.0200    -2.1520    -0.4080 H     1 <1>   0.0800 
 35 H      -10.3490     2.6110     2.0820 H     1 <1>   0.1500 
 36 H      -12.0490     0.9700     1.4170 H     1 <1>   0.1500 
 37 H       -9.9170    -1.1190    -2.5420 H     1 <1>   0.0800 
 38 H       -8.7120    -2.3660    -2.7740 H     1 <1>   0.0800 
 39 H       -8.2190    -0.7200    -2.4390 H     1 <1>   0.0800 
@<TRIPOS>BOND
  1   1   2  1   
  2   1   3  1   
  3   2   4  1   
  4   2  18  1   
  5   2  19  1   
  6   3   5  1   
  7   3  20  1   
  8   3  21  1   
  9   4   6  1   
 10   4  22  1   
 11   4  23  1   
 12   5   6  1   
 13   5  24  1   
 14   5  25  1   
 15   6   7  1   
 16   6  26  1   
 17   7   8  1   
 18   7  27  1   
 19   7  28  1   
 20   8   9  1   
 21   8  29  1   
 22   8  30  1   
 23   9  10  1   
 24  10  11  ar  
 25  10  12  ar  
 26  11  13  ar  
 27  11  14  1   
 28  12  15  ar  
 29  12  31  1   
 30  13  16  ar  
 31  13  32  1   
 32  14  17  1   
 33  14  33  1   
 34  14  34  1   
 35  15  16  ar  
 36  15  35  1   
 37  16  36  1   
 38  17  37  1   
 39  17  38  1   
 40  17  39  1   
@<TRIPOS>SUBSTRUCTURE
  1 ****   8 GROUP 4 **** **** 0

# MOE 2024.06 (io_trps.svl 2023.06)
