@<TRIPOS>MOLECULE
NONAME
46 47 1 0 0 
SMALL
USER_CHARGES


@<TRIPOS>ATOM
  1 O        0.1350    -5.4440    -0.6870 O.3   1 <1>  -0.3630 
  2 C       -1.1670    -5.4330    -0.2760 C.ar  1 <1>   0.0830 
  3 C        0.9940    -6.5180    -0.4020 C.3   1 <1>   0.1200 
  4 C       -1.9410    -6.5550     0.0740 C.ar  1 <1>   0.0820 
  5 C       -1.7360    -4.1710    -0.2140 C.ar  1 <1>  -0.1500 
  6 C        2.4220    -6.0400    -0.6490 C.3   1 <1>   0.3430 
  7 O       -1.4120    -7.8130    -0.0210 O.3   1 <1>  -0.3630 
  8 C       -3.2530    -6.3610     0.5020 C.ar  1 <1>  -0.1500 
  9 C       -3.0420    -3.9980     0.2050 C.ar  1 <1>  -0.1500 
 10 N        3.4110    -7.1230    -0.3640 N.4   1 <1>  -0.9060 
 11 C       -2.2310    -8.9640     0.0130 C.3   1 <1>   0.0400 
 12 C       -3.8060    -5.0910     0.5720 C.ar  1 <1>  -0.1430 
 13 C        4.8130    -6.7110    -0.5650 C.3   1 <1>   0.4230 
 14 C       -5.2400    -4.8860     1.0410 C.3   1 <1>   0.1220 
 15 C        5.6860    -7.9520    -0.4410 C.3   1 <1>  -0.1600 
 16 C        5.2670    -5.8610     0.6180 C.3   1 <1>  -0.1600 
 17 C       -6.1200    -4.4550    -0.1200 C.2   1 <1>  -0.2880 
 18 C        5.8550    -8.1980     1.0640 C.3   1 <1>  -0.1600 
 19 C        5.5870    -6.8510     1.7460 C.3   1 <1>  -0.1600 
 20 C       -6.8390    -3.3290    -0.1680 C.2   1 <1>  -0.3000 
 21 H        0.7400    -7.3280    -1.0630 H     1 <1>   0.0800 
 22 H        0.8510    -6.7960     0.6270 H     1 <1>   0.0800 
 23 H       -1.1520    -3.3150    -0.4960 H     1 <1>   0.1500 
 24 H        2.6140    -5.1910    -0.0140 H     1 <1>   0.0800 
 25 H        2.5100    -5.7280    -1.6780 H     1 <1>   0.0800 
 26 H       -3.8670    -7.1910     0.7900 H     1 <1>   0.1500 
 27 H       -3.4650    -3.0080     0.2420 H     1 <1>   0.1500 
 28 H        3.2210    -7.9360    -0.9600 H     1 <1>   0.4500 
 29 H        3.3310    -7.4360     0.6100 H     1 <1>   0.4500 
 30 H       -1.6220    -9.8180    -0.2200 H     1 <1>   0.0800 
 31 H       -3.0110    -8.8620    -0.7220 H     1 <1>   0.0800 
 32 H       -2.6440    -9.0720     1.0000 H     1 <1>   0.0800 
 33 H        4.9450    -6.2130    -1.5140 H     1 <1>   0.0800 
 34 H       -5.2570    -4.1380     1.8140 H     1 <1>   0.0800 
 35 H       -5.6300    -5.7960     1.4600 H     1 <1>   0.0800 
 36 H        6.6530    -7.7250    -0.8580 H     1 <1>   0.0800 
 37 H        5.2930    -8.8070    -0.9620 H     1 <1>   0.0800 
 38 H        4.5580    -5.1100     0.9170 H     1 <1>   0.0800 
 39 H        6.1790    -5.3610     0.3390 H     1 <1>   0.0800 
 40 H       -6.1050    -5.1660    -0.9290 H     1 <1>   0.1500 
 41 H        6.8480    -8.5550     1.2830 H     1 <1>   0.0800 
 42 H        5.1480    -8.9350     1.4100 H     1 <1>   0.0800 
 43 H        4.7540    -6.9380     2.4240 H     1 <1>   0.0800 
 44 H        6.4460    -6.5230     2.3090 H     1 <1>   0.0800 
 45 H       -7.4530    -3.0480    -1.0070 H     1 <1>   0.1500 
 46 H       -6.8760    -2.5960     0.6190 H     1 <1>   0.1500 
@<TRIPOS>BOND
  1   1   2  1   
  2   1   3  1   
  3   2   4  ar  
  4   2   5  ar  
  5   3   6  1   
  6   3  21  1   
  7   3  22  1   
  8   4   7  1   
  9   4   8  ar  
 10   5   9  ar  
 11   5  23  1   
 12   6  10  1   
 13   6  24  1   
 14   6  25  1   
 15   7  11  1   
 16   8  12  ar  
 17   8  26  1   
 18   9  12  ar  
 19   9  27  1   
 20  10  13  1   
 21  10  28  1   
 22  10  29  1   
 23  11  30  1   
 24  11  31  1   
 25  11  32  1   
 26  12  14  1   
 27  13  15  1   
 28  13  16  1   
 29  13  33  1   
 30  14  17  1   
 31  14  34  1   
 32  14  35  1   
 33  15  18  1   
 34  15  36  1   
 35  15  37  1   
 36  16  19  1   
 37  16  38  1   
 38  16  39  1   
 39  17  20  2   
 40  17  40  1   
 41  18  19  1   
 42  18  41  1   
 43  18  42  1   
 44  19  43  1   
 45  19  44  1   
 46  20  45  1   
 47  20  46  1   
@<TRIPOS>SUBSTRUCTURE
  1 ****   1 GROUP 4 **** **** 0

# MOE 2024.06 (io_trps.svl 2023.06)
