@<TRIPOS>MOLECULE
NONAME
39 40 1 0 0 
SMALL
USER_CHARGES


@<TRIPOS>ATOM
  1 BR      -0.0900     0.1480    -0.5640 Br    1 <1>  -0.1110 
  2 C        1.6330     0.9710    -0.3190 C.ar  1 <1>   0.1110 
  3 C        1.6900     2.2640     0.1620 C.ar  1 <1>  -0.1500 
  4 C        2.7680     0.2440    -0.6320 C.ar  1 <1>  -0.1500 
  5 C        2.9370     2.8340     0.3300 C.ar  1 <1>   0.1770 
  6 C        4.0120     0.8310    -0.4580 C.ar  1 <1>  -0.1500 
  7 CL       3.0210     4.4730     0.9400 Cl    1 <1>  -0.1770 
  8 C        4.1070     2.1380     0.0270 C.ar  1 <1>   0.0830 
  9 O        5.2940     2.7730     0.2210 O.3   1 <1>  -0.3630 
 10 C        6.5270     2.1480    -0.0580 C.3   1 <1>   0.1200 
 11 C        7.6390     3.1380     0.2730 C.3   1 <1>   0.1200 
 12 O        8.8710     2.5390     0.0010 O.3   1 <1>  -0.5600 
 13 C        9.9680     3.3470     0.2680 C.3   1 <1>   0.1200 
 14 C       11.2270     2.5370    -0.0650 C.3   1 <1>   0.3430 
 15 N       12.4920     3.2950     0.2020 N.4   1 <1>  -0.9590 
 16 C       12.6950     4.4730    -0.6800 C.3   1 <1>   0.3430 
 17 C       13.6970     2.4500     0.0240 C.3   1 <1>   0.3430 
 18 C       14.1890     4.7530    -0.6000 C.3   1 <1>  -0.1600 
 19 C       14.8370     3.4460    -0.1350 C.3   1 <1>  -0.1600 
 20 H        0.7960     2.8100     0.3990 H     1 <1>   0.1500 
 21 H        2.6770    -0.7610    -1.0050 H     1 <1>   0.1500 
 22 H        4.8870     0.2590    -0.7040 H     1 <1>   0.1500 
 23 H        6.5500     1.8930    -1.1030 H     1 <1>   0.0800 
 24 H        6.6100     1.2700     0.5570 H     1 <1>   0.0800 
 25 H        7.6000     3.3960     1.3180 H     1 <1>   0.0800 
 26 H        7.5380     4.0200    -0.3360 H     1 <1>   0.0800 
 27 H        9.9490     3.6110     1.3110 H     1 <1>   0.0800 
 28 H        9.8970     4.2260    -0.3490 H     1 <1>   0.0800 
 29 H       11.1890     2.2510    -1.1030 H     1 <1>   0.0800 
 30 H       11.2150     1.6400     0.5330 H     1 <1>   0.0800 
 31 H       12.4980     3.6250     1.1770 H     1 <1>   0.4500 
 32 H       12.1120     5.3220    -0.3600 H     1 <1>   0.0800 
 33 H       12.4320     4.2180    -1.6950 H     1 <1>   0.0800 
 34 H       13.6030     1.8650    -0.8780 H     1 <1>   0.0800 
 35 H       13.8550     1.7910     0.8640 H     1 <1>   0.0800 
 36 H       14.3770     5.5390     0.1110 H     1 <1>   0.0800 
 37 H       14.5640     5.0660    -1.5590 H     1 <1>   0.0800 
 38 H       15.5580     3.0810    -0.8470 H     1 <1>   0.0800 
 39 H       15.3330     3.5870     0.8100 H     1 <1>   0.0800 
@<TRIPOS>BOND
  1   1   2  1   
  2   2   3  ar  
  3   2   4  ar  
  4   3   5  ar  
  5   3  20  1   
  6   4   6  ar  
  7   4  21  1   
  8   5   7  1   
  9   5   8  ar  
 10   6   8  ar  
 11   6  22  1   
 12   8   9  1   
 13   9  10  1   
 14  10  11  1   
 15  10  23  1   
 16  10  24  1   
 17  11  12  1   
 18  11  25  1   
 19  11  26  1   
 20  12  13  1   
 21  13  14  1   
 22  13  27  1   
 23  13  28  1   
 24  14  15  1   
 25  14  29  1   
 26  14  30  1   
 27  15  16  1   
 28  15  17  1   
 29  15  31  1   
 30  16  18  1   
 31  16  32  1   
 32  16  33  1   
 33  17  19  1   
 34  17  34  1   
 35  17  35  1   
 36  18  19  1   
 37  18  36  1   
 38  18  37  1   
 39  19  38  1   
 40  19  39  1   
@<TRIPOS>SUBSTRUCTURE
  1 ****  11 GROUP 4 **** **** 0

# MOE 2024.06 (io_trps.svl 2023.06)
