@<TRIPOS>MOLECULE
NONAME
36 39 1 0 0 
SMALL
USER_CHARGES


@<TRIPOS>ATOM
  1 S       -0.1470    -0.1420     1.2000 S.3   1 <1>  -0.0800 
  2 C       -1.6660     0.4290     0.4950 C.ar  1 <1>   0.2970 
  3 C        0.7160     1.2970     0.6370 C.2   1 <1>  -0.0450 
  4 N       -2.7850    -0.2670     0.5880 N.ar  1 <1>  -0.5670 
  5 C       -1.4730     1.6560    -0.1260 C.ar  1 <1>   0.0000 
  6 C        2.0800     1.6010     0.8250 C.2   1 <1>   0.7150 
  7 C       -0.1190     2.1270    -0.0330 C.2   1 <1>   0.1250 
  8 C       -3.8180     0.3180     0.0020 C.ar  1 <1>   0.1660 
  9 C       -2.5750     2.2380    -0.7280 C.ar  1 <1>  -0.1500 
 10 O        2.8690     0.8810     1.4230 O.2   1 <1>  -0.5700 
 11 N        2.4960     2.7990     0.2790 N.am  1 <1>  -0.4200 
 12 N        0.3380     3.3110    -0.5600 N.2   1 <1>  -0.5750 
 13 C       -3.7690     1.5480    -0.6570 C.ar  1 <1>  -0.1430 
 14 C       -5.1290    -0.4390     0.0590 C.3   1 <1>  -0.0170 
 15 C        1.5840     3.5900    -0.3890 C.2   1 <1>   0.4500 
 16 C        3.9140     3.2230     0.4160 C.3   1 <1>   0.0600 
 17 C       -5.0210     2.1500    -1.2840 C.3   1 <1>   0.2640 
 18 C       -6.3400     0.4690    -0.2040 C.3   1 <1>   0.2800 
 19 O       -6.0830     1.2390    -1.3360 O.3   1 <1>  -0.5600 
 20 C       -7.5720    -0.3690    -0.5480 C.3   1 <1>  -0.2400 
 21 C       -6.6690     1.3810     0.9900 C.3   1 <1>  -0.2400 
 22 H       -2.4800     3.1900    -1.2220 H     1 <1>   0.1500 
 23 H       -5.2340    -0.9080     1.0200 H     1 <1>   0.0800 
 24 H       -5.0940    -1.2190    -0.6800 H     1 <1>   0.0800 
 25 H        1.9640     4.5120    -0.7930 H     1 <1>   0.0600 
 26 H        4.5550     2.4860    -0.0380 H     1 <1>   0.0800 
 27 H        4.1660     3.3040     1.4590 H     1 <1>   0.0800 
 28 H        4.0760     4.1730    -0.0610 H     1 <1>   0.0800 
 29 H       -4.8150     2.4560    -2.2950 H     1 <1>   0.0800 
 30 H       -5.3420     3.0110    -0.7260 H     1 <1>   0.0800 
 31 H       -7.3820    -0.9730    -1.4170 H     1 <1>   0.0800 
 32 H       -8.4130     0.2720    -0.7480 H     1 <1>   0.0800 
 33 H       -7.8250    -1.0180     0.2710 H     1 <1>   0.0800 
 34 H       -5.8040     1.9240     1.3240 H     1 <1>   0.0800 
 35 H       -7.0130     0.7870     1.8180 H     1 <1>   0.0800 
 36 H       -7.4470     2.0730     0.7260 H     1 <1>   0.0800 
@<TRIPOS>BOND
  1   1   2  1   
  2   1   3  1   
  3   2   4  ar  
  4   2   5  ar  
  5   3   6  1   
  6   3   7  2   
  7   4   8  ar  
  8   5   7  1   
  9   5   9  ar  
 10   6  10  2   
 11   6  11  am  
 12   7  12  1   
 13   8  13  ar  
 14   8  14  1   
 15   9  13  ar  
 16   9  22  1   
 17  11  15  1   
 18  11  16  1   
 19  12  15  2   
 20  13  17  1   
 21  14  18  1   
 22  14  23  1   
 23  14  24  1   
 24  15  25  1   
 25  16  26  1   
 26  16  27  1   
 27  16  28  1   
 28  17  19  1   
 29  17  29  1   
 30  17  30  1   
 31  18  19  1   
 32  18  20  1   
 33  18  21  1   
 34  20  31  1   
 35  20  32  1   
 36  20  33  1   
 37  21  34  1   
 38  21  35  1   
 39  21  36  1   
@<TRIPOS>SUBSTRUCTURE
  1 ****   5 GROUP 4 **** **** 0

# MOE 2024.06 (io_trps.svl 2023.06)
