@<TRIPOS>MOLECULE
NONAME
57 60 1 0 0 
SMALL
USER_CHARGES


@<TRIPOS>ATOM
  1 O       -1.1160     0.0520    -0.0570 O.2   1 <1>  -0.5740 
  2 C       -2.0930    -0.6660    -0.1060 C.2   1 <1>   0.6870 
  3 N       -1.9550    -2.0430     0.0130 N.am  1 <1>  -0.4250 
  4 N       -3.3520    -0.1060    -0.2710 N.am  1 <1>  -0.4410 
  5 C       -3.0640    -2.8770     0.0440 C.2   1 <1>   0.7000 
  6 C       -0.5830    -2.6230     0.1630 C.3   1 <1>   0.0530 
  7 C       -4.4450    -0.9500    -0.2450 C.2   1 <1>   0.4210 
  8 C       -3.4990     1.3710    -0.4430 C.3   1 <1>   0.0530 
  9 O       -2.9310    -4.0770     0.2110 O.2   1 <1>  -0.5740 
 10 C       -4.3660    -2.2880    -0.1050 C.2   1 <1>   0.2710 
 11 N       -5.7550    -0.6000    -0.3370 N.pl3 1 <1>  -0.7030 
 12 N       -5.6980    -2.7690    -0.1350 N.pl3 1 <1>  -0.7670 
 13 C       -6.5040    -1.7010    -0.2470 C.cat 1 <1>   1.0690 
 14 C       -5.9910    -4.2170    -0.3240 C.3   1 <1>   0.4880 
 15 N       -7.8650    -1.6480    -0.2440 N.pl3 1 <1>  -0.5960 
 16 C       -6.7510    -4.4000    -1.6240 C.2   1 <1>  -0.2940 
 17 C       -8.7450    -2.6860     0.3970 C.3   1 <1>   0.1610 
 18 C       -8.6420    -0.5710    -0.9570 C.3   1 <1>   0.1610 
 19 C       -7.8920    -5.0790    -1.7850 C.2   1 <1>  -0.3060 
 20 C       -9.8730    -2.0670     1.2570 C.3   1 <1>   0.3380 
 21 C       -9.7680     0.0310    -0.0880 C.3   1 <1>   0.3380 
 22 N      -10.6500    -1.0300     0.5070 N.4   1 <1>  -0.9610 
 23 C      -11.7240    -0.4280     1.3520 C.3   1 <1>   0.4820 
 24 C      -12.5620     0.4720     0.4690 C.ar  1 <1>  -0.1500 
 25 C      -13.4360    -0.0750    -0.4610 C.ar  1 <1>  -0.1570 
 26 C      -12.4490     1.8510     0.5730 C.ar  1 <1>  -0.1570 
 27 C      -14.1750     0.7500    -1.2890 C.ar  1 <1>  -0.1570 
 28 C      -13.1890     2.6740    -0.2570 C.ar  1 <1>  -0.1570 
 29 C      -14.0480     2.1240    -1.1900 C.ar  1 <1>  -0.1570 
 30 H        0.1250    -2.0640    -0.4250 H     1 <1>   0.0730 
 31 H       -0.5580    -3.6470    -0.1680 H     1 <1>   0.0730 
 32 H       -0.2850    -2.5810     1.1960 H     1 <1>   0.0730 
 33 H       -2.6110     1.7860    -0.8920 H     1 <1>   0.0730 
 34 H       -3.6440     1.8370     0.5170 H     1 <1>   0.0730 
 35 H       -4.3300     1.6000    -1.0860 H     1 <1>   0.0730 
 36 H       -6.0870     0.3550    -0.4090 H     1 <1>   0.4450 
 37 H       -6.5470    -4.6060     0.5100 H     1 <1>   0.0730 
 38 H       -5.0830    -4.7880    -0.3940 H     1 <1>   0.0730 
 39 H       -6.2500    -3.9350    -2.4570 H     1 <1>   0.1430 
 40 H       -8.1650    -3.3280     1.0340 H     1 <1>   0.0730 
 41 H       -9.1950    -3.2920    -0.3700 H     1 <1>   0.0730 
 42 H       -9.0850    -0.9960    -1.8430 H     1 <1>   0.0730 
 43 H       -7.9940     0.2230    -1.2840 H     1 <1>   0.0730 
 44 H       -8.3860    -5.1970    -2.7370 H     1 <1>   0.1430 
 45 H       -8.4260    -5.5950    -1.0030 H     1 <1>   0.1430 
 46 H       -9.4350    -1.6230     2.1360 H     1 <1>   0.0730 
 47 H      -10.5370    -2.8520     1.5840 H     1 <1>   0.0730 
 48 H      -10.3620     0.6950    -0.6970 H     1 <1>   0.0730 
 49 H       -9.3300     0.6180     0.7020 H     1 <1>   0.0730 
 50 H      -11.1580    -1.4750    -0.2710 H     1 <1>   0.4450 
 51 H      -11.2950     0.1430     2.1600 H     1 <1>   0.0730 
 52 H      -12.3510    -1.1990     1.7700 H     1 <1>   0.0730 
 53 H      -13.5620    -1.1410    -0.5520 H     1 <1>   0.1430 
 54 H      -11.7940     2.3050     1.2980 H     1 <1>   0.1430 
 55 H      -14.8550     0.3290    -2.0110 H     1 <1>   0.1430 
 56 H      -13.1050     3.7450    -0.1770 H     1 <1>   0.1430 
 57 H      -14.6260     2.7650    -1.8350 H     1 <1>   0.1430 
@<TRIPOS>BOND
  1   1   2  2   
  2   2   3  am  
  3   2   4  am  
  4   3   5  am  
  5   3   6  1   
  6   4   7  1   
  7   4   8  1   
  8   5   9  2   
  9   5  10  1   
 10   6  30  1   
 11   6  31  1   
 12   6  32  1   
 13   7  10  2   
 14   7  11  1   
 15   8  33  1   
 16   8  34  1   
 17   8  35  1   
 18  10  12  1   
 19  11  13  ar  
 20  11  36  1   
 21  12  13  ar  
 22  12  14  1   
 23  13  15  ar  
 24  14  16  1   
 25  14  37  1   
 26  14  38  1   
 27  15  17  1   
 28  15  18  1   
 29  16  19  2   
 30  16  39  1   
 31  17  20  1   
 32  17  40  1   
 33  17  41  1   
 34  18  21  1   
 35  18  42  1   
 36  18  43  1   
 37  19  44  1   
 38  19  45  1   
 39  20  22  1   
 40  20  46  1   
 41  20  47  1   
 42  21  22  1   
 43  21  48  1   
 44  21  49  1   
 45  22  23  1   
 46  22  50  1   
 47  23  24  1   
 48  23  51  1   
 49  23  52  1   
 50  24  25  ar  
 51  24  26  ar  
 52  25  27  ar  
 53  25  53  1   
 54  26  28  ar  
 55  26  54  1   
 56  27  29  ar  
 57  27  55  1   
 58  28  29  ar  
 59  28  56  1   
 60  29  57  1   
@<TRIPOS>SUBSTRUCTURE
  1 ****  15 GROUP 4 **** **** 0

# MOE 2024.06 (io_trps.svl 2023.06)
