@<TRIPOS>MOLECULE
NONAME
50 52 1 0 0 
SMALL
USER_CHARGES


@<TRIPOS>ATOM
  1 O        0.3500    -1.2040    -0.6310 O.3   1 <1>  -0.3630 
  2 C       -0.9220    -1.5930    -0.8900 C.ar  1 <1>   0.0830 
  3 C        0.6580    -0.7670     0.6790 C.3   1 <1>   0.2640 
  4 C       -1.6050    -2.5620    -0.1470 C.ar  1 <1>   0.0830 
  5 C       -1.5600    -0.9810    -1.9540 C.ar  1 <1>  -0.1500 
  6 C        1.9100     0.0980     0.6360 C.ar  1 <1>  -0.1440 
  7 O       -1.0330    -3.2440     0.8720 O.3   1 <1>  -0.3630 
  8 C       -2.9220    -2.8620    -0.4510 C.ar  1 <1>  -0.1500 
  9 C       -2.8730    -1.2930    -2.2620 C.ar  1 <1>  -0.1500 
 10 C        1.9080     1.3640     1.2020 C.ar  1 <1>  -0.1500 
 11 C        3.0680    -0.3750     0.0370 C.ar  1 <1>  -0.1500 
 12 C       -0.0490    -4.1900     0.5110 C.3   1 <1>   0.0400 
 13 C       -3.5670    -2.2260    -1.5030 C.ar  1 <1>  -0.1430 
 14 C        3.0500     2.1470     1.1710 C.ar  1 <1>  -0.1500 
 15 C        4.2110     0.4060     0.0060 C.ar  1 <1>  -0.1500 
 16 C       -5.0150    -2.5480    -1.8190 C.3   1 <1>   0.4860 
 17 C        4.2020     1.6680     0.5740 C.ar  1 <1>  -0.1500 
 18 N       -5.8780    -1.9370    -0.7720 N.4   1 <1>  -0.9590 
 19 C       -7.3020    -2.4000    -0.9150 C.3   1 <1>   0.3430 
 20 C       -5.7700    -0.4470    -0.7710 C.3   1 <1>   0.3430 
 21 C       -8.2220    -1.8040     0.1680 C.3   1 <1>   0.2000 
 22 C       -6.6180     0.1360     0.3640 C.3   1 <1>  -0.1600 
 23 O       -9.5230    -2.1040    -0.1750 O.3   1 <1>  -0.6800 
 24 C       -8.0940    -0.2800     0.2540 C.3   1 <1>  -0.1600 
 25 H        0.8280    -1.6260     1.3010 H     1 <1>   0.0800 
 26 H       -0.1790    -0.2080     1.0580 H     1 <1>   0.0800 
 27 H       -1.0180    -0.2550    -2.5360 H     1 <1>   0.1500 
 28 H       -3.4190    -3.6060     0.1470 H     1 <1>   0.1500 
 29 H       -3.3380    -0.7970    -3.0980 H     1 <1>   0.1500 
 30 H        1.0190     1.7500     1.6700 H     1 <1>   0.1500 
 31 H        3.0810    -1.3530    -0.4100 H     1 <1>   0.1500 
 32 H        0.3170    -4.6570     1.4080 H     1 <1>   0.0800 
 33 H        0.7580    -3.6920     0.0020 H     1 <1>   0.0800 
 34 H       -0.4950    -4.9270    -0.1330 H     1 <1>   0.0800 
 35 H        3.0410     3.1280     1.6120 H     1 <1>   0.1500 
 36 H        5.1040     0.0320    -0.4620 H     1 <1>   0.1500 
 37 H       -5.1450    -3.6180    -1.8310 H     1 <1>   0.0800 
 38 H       -5.2760    -2.1620    -2.7910 H     1 <1>   0.0800 
 39 H        5.0900     2.2750     0.5490 H     1 <1>   0.1500 
 40 H       -5.5120    -2.2630     0.1310 H     1 <1>   0.4500 
 41 H       -7.3490    -3.4740    -0.8540 H     1 <1>   0.0800 
 42 H       -7.6800    -2.0950    -1.8760 H     1 <1>   0.0800 
 43 H       -6.1150    -0.0540    -1.7140 H     1 <1>   0.0800 
 44 H       -4.7420    -0.1490    -0.6360 H     1 <1>   0.0800 
 45 H       -8.0160    -2.2620     1.1210 H     1 <1>   0.0800 
 46 H       -6.5510     1.2100     0.3290 H     1 <1>   0.0800 
 47 H       -6.2130    -0.1780     1.3110 H     1 <1>   0.0800 
 48 H      -10.1550    -1.7550     0.4880 H     1 <1>   0.4000 
 49 H       -8.6340     0.0860     1.1100 H     1 <1>   0.0800 
 50 H       -8.5160     0.1670    -0.6320 H     1 <1>   0.0800 
@<TRIPOS>BOND
  1   1   2  1   
  2   1   3  1   
  3   2   4  ar  
  4   2   5  ar  
  5   3   6  1   
  6   3  25  1   
  7   3  26  1   
  8   4   7  1   
  9   4   8  ar  
 10   5   9  ar  
 11   5  27  1   
 12   6  10  ar  
 13   6  11  ar  
 14   7  12  1   
 15   8  13  ar  
 16   8  28  1   
 17   9  13  ar  
 18   9  29  1   
 19  10  14  ar  
 20  10  30  1   
 21  11  15  ar  
 22  11  31  1   
 23  12  32  1   
 24  12  33  1   
 25  12  34  1   
 26  13  16  1   
 27  14  17  ar  
 28  14  35  1   
 29  15  17  ar  
 30  15  36  1   
 31  16  18  1   
 32  16  37  1   
 33  16  38  1   
 34  17  39  1   
 35  18  19  1   
 36  18  20  1   
 37  18  40  1   
 38  19  21  1   
 39  19  41  1   
 40  19  42  1   
 41  20  22  1   
 42  20  43  1   
 43  20  44  1   
 44  21  23  1   
 45  21  24  1   
 46  21  45  1   
 47  22  24  1   
 48  22  46  1   
 49  22  47  1   
 50  23  48  1   
 51  24  49  1   
 52  24  50  1   
@<TRIPOS>SUBSTRUCTURE
  1 ****   2 GROUP 4 **** **** 0

# MOE 2024.06 (io_trps.svl 2023.06)
