@<TRIPOS>MOLECULE
NONAME
28 30 1 0 0 
SMALL
USER_CHARGES


@<TRIPOS>ATOM
  1 O       -0.6230     0.1350     1.1850 O.3   1 <1>  -0.2170 
  2 N        0.0140     1.2540     1.5080 N.2   1 <1>  -0.5130 
  3 C       -1.5270     0.3450     0.1170 C.3   1 <1>   0.5600 
  4 C       -0.4560     2.2290     0.8700 C.2   1 <1>   0.3280 
  5 O       -0.9820    -0.2860    -0.9800 O.3   1 <1>  -0.6800 
  6 C       -1.5780     1.8630    -0.0630 C.3   1 <1>   0.0760 
  7 C       -2.9610    -0.1190     0.4140 C.3   1 <1>  -0.0650 
  8 C       -0.0020     3.6670     0.9750 C.3   1 <1>  -0.1790 
  9 C       -2.9790     2.2210     0.4520 C.3   1 <1>  -0.1950 
 10 C       -3.7870     1.0480    -0.1280 C.3   1 <1>  -0.1950 
 11 C       -4.4080     2.3680     0.1190 C.3   1 <1>  -0.1900 
 12 C       -4.7810     3.2540    -1.0720 C.3   1 <1>  -0.1450 
 13 C       -5.4310     2.4730     1.2540 C.3   1 <1>  -0.1450 
 14 H       -0.0140    -0.2250    -0.8730 H     1 <1>   0.4000 
 15 H       -1.4200     2.1630    -1.0820 H     1 <1>   0.0800 
 16 H       -3.1200    -0.2260     1.4720 H     1 <1>   0.0800 
 17 H       -3.1880    -1.0400    -0.0930 H     1 <1>   0.0800 
 18 H       -0.8190     4.2860     1.2970 H     1 <1>   0.0800 
 19 H        0.3510     4.0120     0.0210 H     1 <1>   0.0800 
 20 H        0.7970     3.7450     1.6910 H     1 <1>   0.0800 
 21 H       -2.8730     2.3370     1.5200 H     1 <1>   0.1000 
 22 H       -3.8520     0.8590    -1.1890 H     1 <1>   0.1000 
 23 H       -4.0440     3.1790    -1.8520 H     1 <1>   0.0800 
 24 H       -4.8440     4.2820    -0.7640 H     1 <1>   0.0800 
 25 H       -5.7330     2.9550    -1.4730 H     1 <1>   0.0800 
 26 H       -5.1650     1.8260     2.0710 H     1 <1>   0.0800 
 27 H       -6.4050     2.1850     0.9000 H     1 <1>   0.0800 
 28 H       -5.4790     3.4840     1.6190 H     1 <1>   0.0800 
@<TRIPOS>BOND
  1   1   2  1   
  2   1   3  1   
  3   2   4  2   
  4   3   5  1   
  5   3   6  1   
  6   3   7  1   
  7   4   6  1   
  8   4   8  1   
  9   5  14  1   
 10   6   9  1   
 11   6  15  1   
 12   7  10  1   
 13   7  16  1   
 14   7  17  1   
 15   8  18  1   
 16   8  19  1   
 17   8  20  1   
 18   9  10  1   
 19   9  11  1   
 20   9  21  1   
 21  10  11  1   
 22  10  22  1   
 23  11  12  1   
 24  11  13  1   
 25  12  23  1   
 26  12  24  1   
 27  12  25  1   
 28  13  26  1   
 29  13  27  1   
 30  13  28  1   
@<TRIPOS>SUBSTRUCTURE
  1 ****   6 GROUP 4 **** **** 0

# MOE 2024.06 (io_trps.svl 2023.06)
