@<TRIPOS>MOLECULE
NONAME
33 34 1 0 0 
SMALL
USER_CHARGES


@<TRIPOS>ATOM
  1 O        0.1250     0.1010     0.4960 O.3   1 <1>  -0.3630 
  2 C       -1.1300    -0.4040     0.3650 C.ar  1 <1>   0.0830 
  3 C        0.4220     1.4180     0.0920 C.3   1 <1>   0.1200 
  4 C       -1.3250    -1.7050     0.7990 C.ar  1 <1>  -0.1500 
  5 C       -2.2020     0.3070    -0.1700 C.ar  1 <1>  -0.1500 
  6 C        1.8990     1.6760     0.3720 C.3   1 <1>   0.0960 
  7 C       -2.5720    -2.2950     0.7030 C.ar  1 <1>  -0.1500 
  8 C       -3.4500    -0.2840    -0.2670 C.ar  1 <1>  -0.1500 
  9 N        2.2480     3.0420    -0.0510 N.pl3 1 <1>   0.0480 
 10 C       -3.6410    -1.5920     0.1710 C.ar  1 <1>   0.0830 
 11 C        2.7600     3.4370    -1.2390 C.2   1 <1>   0.0360 
 12 C        2.0980     4.1800     0.6500 C.2   1 <1>  -0.3020 
 13 O       -4.8310    -2.2460     0.1130 O.3   1 <1>  -0.3630 
 14 N        2.9380     4.7140    -1.3370 N.2   1 <1>  -0.5650 
 15 C        2.5230     5.1850    -0.1460 C.2   1 <1>   0.0770 
 16 C       -5.9800    -1.6230    -0.4100 C.3   1 <1>   0.1200 
 17 C       -7.1330    -2.6180    -0.3320 C.3   1 <1>  -0.2400 
 18 H       -0.1950     2.0930     0.6600 H     1 <1>   0.0800 
 19 H        0.2150     1.5030    -0.9610 H     1 <1>   0.0800 
 20 H       -0.4970    -2.2530     1.2120 H     1 <1>   0.1500 
 21 H       -2.0870     1.3170    -0.5160 H     1 <1>   0.1500 
 22 H        2.5050     0.9760    -0.1740 H     1 <1>   0.0800 
 23 H        2.0980     1.5770     1.4240 H     1 <1>   0.0800 
 24 H       -2.7250    -3.3050     1.0390 H     1 <1>   0.1500 
 25 H       -4.2580     0.2860    -0.6830 H     1 <1>   0.1500 
 26 H        2.9900     2.7370    -2.0240 H     1 <1>   0.1500 
 27 H        1.7100     4.2170     1.6520 H     1 <1>   0.1500 
 28 H        2.5540     6.2380     0.0780 H     1 <1>   0.1500 
 29 H       -5.7840    -1.3480    -1.4320 H     1 <1>   0.0800 
 30 H       -6.1930    -0.7480     0.1810 H     1 <1>   0.0800 
 31 H       -6.9030    -3.4950    -0.9110 H     1 <1>   0.0800 
 32 H       -8.0280    -2.1720    -0.7240 H     1 <1>   0.0800 
 33 H       -7.3090    -2.9000     0.6910 H     1 <1>   0.0800 
@<TRIPOS>BOND
  1   1   2  1   
  2   1   3  1   
  3   2   4  ar  
  4   2   5  ar  
  5   3   6  1   
  6   3  18  1   
  7   3  19  1   
  8   4   7  ar  
  9   4  20  1   
 10   5   8  ar  
 11   5  21  1   
 12   6   9  1   
 13   6  22  1   
 14   6  23  1   
 15   7  10  ar  
 16   7  24  1   
 17   8  10  ar  
 18   8  25  1   
 19   9  11  1   
 20   9  12  1   
 21  10  13  1   
 22  11  14  2   
 23  11  26  1   
 24  12  15  2   
 25  12  27  1   
 26  13  16  1   
 27  14  15  1   
 28  15  28  1   
 29  16  17  1   
 30  16  29  1   
 31  16  30  1   
 32  17  31  1   
 33  17  32  1   
 34  17  33  1   
@<TRIPOS>SUBSTRUCTURE
  1 ****   2 GROUP 4 **** **** 0

# MOE 2024.06 (io_trps.svl 2023.06)
