@<TRIPOS>MOLECULE
NONAME
54 57 1 0 0 
SMALL
USER_CHARGES


@<TRIPOS>ATOM
  1 O        4.7050    -1.4240     3.3380 O.3   1 <1>  -0.3630 
  2 C        4.3690    -1.2600     2.0540 C.ar  1 <1>   0.0820 
  3 C        3.5690    -1.9950     3.9860 C.3   1 <1>   0.4000 
  4 C        3.0990    -1.7080     1.8390 C.ar  1 <1>   0.0820 
  5 C        5.1280    -0.7280     1.0320 C.ar  1 <1>  -0.1500 
  6 O        2.5750    -2.1720     2.9780 O.3   1 <1>  -0.3630 
  7 C        2.5170    -1.6490     0.5890 C.ar  1 <1>  -0.1500 
  8 C        4.5680    -0.6610    -0.2410 C.ar  1 <1>  -0.1440 
  9 C        3.2670    -1.1190    -0.4540 C.ar  1 <1>  -0.1500 
 10 C        5.3830    -0.0920    -1.3930 C.3   1 <1>   0.2540 
 11 N        6.6190    -0.8760    -1.5880 N.3   1 <1>  -0.8100 
 12 C        6.3410    -2.3000    -1.9110 C.3   1 <1>   0.1100 
 13 C        7.5050    -0.2700    -2.6050 C.3   1 <1>   0.1100 
 14 C        7.6320    -3.1210    -2.1420 C.3   1 <1>   0.3430 
 15 C        8.8350    -1.0500    -2.7630 C.3   1 <1>   0.3430 
 16 N        8.8560    -2.2880    -1.9130 N.4   1 <1>  -0.9590 
 17 C       10.1130    -3.0600    -1.9740 C.3   1 <1>   0.4810 
 18 C       11.1870    -2.2440    -1.2980 C.2   1 <1>  -0.2880 
 19 C       11.7130    -2.5390    -0.0970 C.2   1 <1>  -0.1780 
 20 C       12.7480    -1.8240     0.6230 C.ar  1 <1>   0.0280 
 21 C       13.5390    -2.4610     1.5920 C.ar  1 <1>   0.0820 
 22 C       12.9850    -0.4730     0.3730 C.ar  1 <1>  -0.1500 
 23 O       13.3100    -3.7820     1.8290 O.3   1 <1>  -0.3630 
 24 C       14.5250    -1.7500     2.2720 C.ar  1 <1>  -0.1500 
 25 C       13.9660     0.2270     1.0490 C.ar  1 <1>  -0.1500 
 26 C       14.0820    -4.5280     2.7460 C.3   1 <1>   0.0400 
 27 C       14.7370    -0.4120     2.0010 C.ar  1 <1>  -0.1500 
 28 H        3.8340    -2.9500     4.4040 H     1 <1>   0.0800 
 29 H        3.2040    -1.3180     4.7370 H     1 <1>   0.0800 
 30 H        6.1270    -0.3820     1.2260 H     1 <1>   0.1500 
 31 H        1.5130    -2.0050     0.4420 H     1 <1>   0.1500 
 32 H        2.8270    -1.0650    -1.4340 H     1 <1>   0.1500 
 33 H        5.6380     0.9280    -1.1580 H     1 <1>   0.0800 
 34 H        4.7990    -0.0910    -2.2980 H     1 <1>   0.0800 
 35 H        5.7970    -2.7530    -1.0990 H     1 <1>   0.0800 
 36 H        5.7180    -2.3640    -2.7870 H     1 <1>   0.0800 
 37 H        7.0000    -0.2360    -3.5560 H     1 <1>   0.0800 
 38 H        7.7330     0.7440    -2.3230 H     1 <1>   0.0800 
 39 H        7.6300    -3.5040    -3.1490 H     1 <1>   0.0800 
 40 H        7.6300    -3.9630    -1.4700 H     1 <1>   0.0800 
 41 H        9.6470    -0.4010    -2.4790 H     1 <1>   0.0800 
 42 H        8.9710    -1.3100    -3.7990 H     1 <1>   0.0800 
 43 H        8.7470    -1.9330    -0.9500 H     1 <1>   0.4500 
 44 H        9.9930    -3.9890    -1.4410 H     1 <1>   0.0800 
 45 H       10.3840    -3.2790    -2.9940 H     1 <1>   0.0800 
 46 H       11.5120    -1.4010    -1.8800 H     1 <1>   0.1500 
 47 H       11.3610    -3.4080     0.4330 H     1 <1>   0.1500 
 48 H       12.3930     0.0480    -0.3540 H     1 <1>   0.1500 
 49 H       15.1400    -2.2170     3.0170 H     1 <1>   0.1500 
 50 H       14.1300     1.2700     0.8390 H     1 <1>   0.1500 
 51 H       13.7220    -5.5410     2.7400 H     1 <1>   0.0800 
 52 H       13.9640    -4.1050     3.7280 H     1 <1>   0.0800 
 53 H       15.1120    -4.5050     2.4360 H     1 <1>   0.0800 
 54 H       15.5010     0.1330     2.5290 H     1 <1>   0.1500 
@<TRIPOS>BOND
  1   1   2  1   
  2   1   3  1   
  3   2   4  ar  
  4   2   5  ar  
  5   3   6  1   
  6   3  28  1   
  7   3  29  1   
  8   4   6  1   
  9   4   7  ar  
 10   5   8  ar  
 11   5  30  1   
 12   7   9  ar  
 13   7  31  1   
 14   8   9  ar  
 15   8  10  1   
 16   9  32  1   
 17  10  11  1   
 18  10  33  1   
 19  10  34  1   
 20  11  12  1   
 21  11  13  1   
 22  12  14  1   
 23  12  35  1   
 24  12  36  1   
 25  13  15  1   
 26  13  37  1   
 27  13  38  1   
 28  14  16  1   
 29  14  39  1   
 30  14  40  1   
 31  15  16  1   
 32  15  41  1   
 33  15  42  1   
 34  16  17  1   
 35  16  43  1   
 36  17  18  1   
 37  17  44  1   
 38  17  45  1   
 39  18  19  2   
 40  18  46  1   
 41  19  20  1   
 42  19  47  1   
 43  20  21  ar  
 44  20  22  ar  
 45  21  23  1   
 46  21  24  ar  
 47  22  25  ar  
 48  22  48  1   
 49  23  26  1   
 50  24  27  ar  
 51  24  49  1   
 52  25  27  ar  
 53  25  50  1   
 54  26  51  1   
 55  26  52  1   
 56  26  53  1   
 57  27  54  1   
@<TRIPOS>SUBSTRUCTURE
  1 ****  16 GROUP 4 **** **** 0

# MOE 2024.06 (io_trps.svl 2023.06)
