@<TRIPOS>MOLECULE
NONAME
47 49 1 0 0 
SMALL
USER_CHARGES


@<TRIPOS>ATOM
  1 O        1.4150    -3.2750    -1.1120 O.2   1 <1>  -0.5700 
  2 C        0.9130    -2.7850    -0.1130 C.2   1 <1>   0.5440 
  3 N        1.6950    -1.9770     0.6800 N.am  1 <1>  -0.6600 
  4 C       -0.4560    -3.0850     0.2680 C.ar  1 <1>   0.0860 
  5 C        2.6490    -0.9620     0.1190 C.3   1 <1>   0.2200 
  6 C        2.0590    -2.5380     2.0110 C.3   1 <1>   0.1400 
  7 C       -1.0580    -4.3320     0.0080 C.ar  1 <1>   0.1170 
  8 C       -1.2130    -2.1130     0.9290 C.ar  1 <1>  -0.1500 
  9 C        2.9470     0.1180     1.1840 C.3   1 <1>  -0.1600 
 10 C        2.0850    -0.2970    -1.1570 C.3   1 <1>  -0.1600 
 11 C        2.2700    -1.4260     3.0340 C.3   1 <1>  -0.1600 
 12 N       -0.3310    -5.3310    -0.6580 N.am  1 <1>  -0.5470 
 13 C       -2.3760    -4.5470     0.4080 C.ar  1 <1>  -0.1500 
 14 C       -2.5150    -2.3460     1.3240 C.ar  1 <1>  -0.1500 
 15 C        3.3450    -0.4550     2.5480 C.3   1 <1>  -0.1600 
 16 C        3.0380     0.7260    -1.7800 C.3   1 <1>   0.1200 
 17 C       -0.4300    -6.6990    -0.7270 C.2   1 <1>   0.7150 
 18 C       -3.0980    -3.5700     1.0620 C.ar  1 <1>  -0.1500 
 19 O        2.4810     1.1720    -2.9620 O.3   1 <1>  -0.6800 
 20 O       -1.2910    -7.2910    -0.1020 O.2   1 <1>  -0.5700 
 21 C        0.5180    -7.4240    -1.5390 C.2   1 <1>   0.0550 
 22 O        1.4780    -6.7850    -2.2050 O.3   1 <1>  -0.2800 
 23 C        0.6420    -8.7580    -1.7840 C.2   1 <1>  -0.1500 
 24 C        2.2000    -7.6660    -2.8580 C.2   1 <1>  -0.0100 
 25 C        1.7340    -8.9140    -2.6390 C.2   1 <1>  -0.1500 
 26 H        3.5650    -1.4730    -0.1280 H     1 <1>   0.0800 
 27 H        2.9650    -3.1120     1.9070 H     1 <1>   0.0800 
 28 H        1.2850    -3.2020     2.3580 H     1 <1>   0.0800 
 29 H       -0.7690    -1.1540     1.1330 H     1 <1>   0.1500 
 30 H        2.0740     0.7360     1.3070 H     1 <1>   0.0800 
 31 H        3.7470     0.7510     0.8470 H     1 <1>   0.0800 
 32 H        1.1550     0.1890    -0.9220 H     1 <1>   0.0800 
 33 H        1.9070    -1.0470    -1.9030 H     1 <1>   0.0800 
 34 H        2.5700    -1.8590     3.9720 H     1 <1>   0.0800 
 35 H        1.3410    -0.9060     3.1920 H     1 <1>   0.0800 
 36 H        0.5010    -4.9730    -1.1510 H     1 <1>   0.3700 
 37 H       -2.8530    -5.4890     0.2060 H     1 <1>   0.1500 
 38 H       -3.0760    -1.5800     1.8320 H     1 <1>   0.1500 
 39 H        3.4640     0.3440     3.2590 H     1 <1>   0.0800 
 40 H        4.2870    -0.9710     2.4630 H     1 <1>   0.0800 
 41 H        3.9940     0.2840    -2.0030 H     1 <1>   0.0800 
 42 H        3.1740     1.5840    -1.1440 H     1 <1>   0.0800 
 43 H       -4.1140    -3.7620     1.3640 H     1 <1>   0.1500 
 44 H        2.2990     0.4200    -3.5580 H     1 <1>   0.4000 
 45 H        0.0240    -9.5500    -1.3970 H     1 <1>   0.1500 
 46 H        3.0280    -7.3230    -3.4540 H     1 <1>   0.1500 
 47 H        2.1030    -9.8470    -3.0260 H     1 <1>   0.1500 
@<TRIPOS>BOND
  1   1   2  2   
  2   2   3  am  
  3   2   4  1   
  4   3   5  1   
  5   3   6  1   
  6   4   7  ar  
  7   4   8  ar  
  8   5   9  1   
  9   5  10  1   
 10   5  26  1   
 11   6  11  1   
 12   6  27  1   
 13   6  28  1   
 14   7  12  1   
 15   7  13  ar  
 16   8  14  ar  
 17   8  29  1   
 18   9  15  1   
 19   9  30  1   
 20   9  31  1   
 21  10  16  1   
 22  10  32  1   
 23  10  33  1   
 24  11  15  1   
 25  11  34  1   
 26  11  35  1   
 27  12  17  am  
 28  12  36  1   
 29  13  18  ar  
 30  13  37  1   
 31  14  18  ar  
 32  14  38  1   
 33  15  39  1   
 34  15  40  1   
 35  16  19  1   
 36  16  41  1   
 37  16  42  1   
 38  17  20  2   
 39  17  21  1   
 40  18  43  1   
 41  19  44  1   
 42  21  22  1   
 43  21  23  2   
 44  22  24  1   
 45  23  25  1   
 46  23  45  1   
 47  24  25  2   
 48  24  46  1   
 49  25  47  1   
@<TRIPOS>SUBSTRUCTURE
  1 ****   2 GROUP 4 **** **** 0

# MOE 2024.06 (io_trps.svl 2023.06)
