@<TRIPOS>MOLECULE
NONAME
46 48 1 0 0 
SMALL
USER_CHARGES


@<TRIPOS>ATOM
  1 O       -7.9280     4.6180     0.4460 O.3   1 <1>  -0.3630 
  2 C       -7.4300     5.7380    -0.1420 C.ar  1 <1>   0.0830 
  3 C       -9.2740     4.2570     0.2090 C.3   1 <1>   0.2640 
  4 C       -8.0510     6.9860    -0.0170 C.ar  1 <1>   0.0830 
  5 C       -6.2460     5.6050    -0.8600 C.ar  1 <1>  -0.1440 
  6 C       -9.2910     2.7490     0.0420 C.ar  1 <1>  -0.1440 
  7 O       -9.1920     7.0730     0.7230 O.3   1 <1>  -0.3630 
  8 C       -7.4740     8.0910    -0.6350 C.ar  1 <1>  -0.1500 
  9 C       -5.6850     6.7200    -1.4660 C.ar  1 <1>  -0.1500 
 10 C       -5.5740     4.2520    -0.9970 C.3   1 <1>   0.4870 
 11 C       -9.3020     2.1830    -1.2240 C.ar  1 <1>  -0.1500 
 12 C       -9.2870     1.9250     1.1580 C.ar  1 <1>  -0.1500 
 13 C       -9.8330     8.3050     0.9630 C.3   1 <1>   0.1200 
 14 C       -6.2990     7.9550    -1.3540 C.ar  1 <1>  -0.1500 
 15 N       -5.3290     3.7200     0.3550 N.4   1 <1>  -0.7990 
 16 C       -9.3030     0.8070    -1.3730 C.ar  1 <1>  -0.1500 
 17 C       -9.2880     0.5490     1.0090 C.ar  1 <1>  -0.1500 
 18 C      -11.0480     8.0370     1.8450 C.3   1 <1>  -0.2400 
 19 C       -4.7330     2.3840     0.3700 C.3   1 <1>   0.2960 
 20 C       -9.2950    -0.0110    -0.2570 C.ar  1 <1>  -0.1500 
 21 C       -5.6170     1.2130     0.1180 C.3   1 <1>  -0.2000 
 22 C       -5.0990     1.4870     1.5000 C.3   1 <1>  -0.2000 
 23 H       -9.6280     4.7500    -0.6790 H     1 <1>   0.0800 
 24 H       -9.8640     4.5670     1.0540 H     1 <1>   0.0800 
 25 H       -7.9180     9.0670    -0.5710 H     1 <1>   0.1500 
 26 H       -4.7720     6.6460    -2.0340 H     1 <1>   0.1500 
 27 H       -4.6460     4.3490    -1.5350 H     1 <1>   0.0800 
 28 H       -6.2240     3.5830    -1.5400 H     1 <1>   0.0800 
 29 H       -9.3150     2.8080    -2.1000 H     1 <1>   0.1500 
 30 H       -9.2860     2.3500     2.1470 H     1 <1>   0.1500 
 31 H      -10.1360     8.7250     0.0190 H     1 <1>   0.0800 
 32 H       -9.1400     8.9620     1.4600 H     1 <1>   0.0800 
 33 H       -5.8620     8.8180    -1.8290 H     1 <1>   0.1500 
 34 H       -6.2620     3.6920     0.7980 H     1 <1>   0.4500 
 35 H       -4.7800     4.3930     0.8960 H     1 <1>   0.4500 
 36 H       -9.3180     0.3700    -2.3570 H     1 <1>   0.1500 
 37 H       -9.2900    -0.0880     1.8770 H     1 <1>   0.1500 
 38 H      -11.7300     7.3730     1.3460 H     1 <1>   0.0800 
 39 H      -11.5580     8.9600     2.0510 H     1 <1>   0.0800 
 40 H      -10.7390     7.6020     2.7790 H     1 <1>   0.0800 
 41 H       -3.7200     2.3510    -0.0050 H     1 <1>   0.1000 
 42 H       -9.3020    -1.0810    -0.3720 H     1 <1>   0.1500 
 43 H       -5.2240     0.3540    -0.3980 H     1 <1>   0.1000 
 44 H       -6.6650     1.3600    -0.0730 H     1 <1>   0.1000 
 45 H       -5.8040     1.8080     2.2470 H     1 <1>   0.1000 
 46 H       -4.3590     0.8140     1.8980 H     1 <1>   0.1000 
@<TRIPOS>BOND
  1   1   2  1   
  2   1   3  1   
  3   2   4  ar  
  4   2   5  ar  
  5   3   6  1   
  6   3  23  1   
  7   3  24  1   
  8   4   7  1   
  9   4   8  ar  
 10   5   9  ar  
 11   5  10  1   
 12   6  11  ar  
 13   6  12  ar  
 14   7  13  1   
 15   8  14  ar  
 16   8  25  1   
 17   9  14  ar  
 18   9  26  1   
 19  10  15  1   
 20  10  27  1   
 21  10  28  1   
 22  11  16  ar  
 23  11  29  1   
 24  12  17  ar  
 25  12  30  1   
 26  13  18  1   
 27  13  31  1   
 28  13  32  1   
 29  14  33  1   
 30  15  19  1   
 31  15  34  1   
 32  15  35  1   
 33  16  20  ar  
 34  16  36  1   
 35  17  20  ar  
 36  17  37  1   
 37  18  38  1   
 38  18  39  1   
 39  18  40  1   
 40  19  21  1   
 41  19  22  1   
 42  19  41  1   
 43  20  42  1   
 44  21  22  1   
 45  21  43  1   
 46  21  44  1   
 47  22  45  1   
 48  22  46  1   
@<TRIPOS>SUBSTRUCTURE
  1 ****   1 GROUP 4 **** **** 0

# MOE 2024.06 (io_trps.svl 2023.06)
