@<TRIPOS>MOLECULE
NONAME
36 37 1 0 0 
SMALL
USER_CHARGES


@<TRIPOS>ATOM
  1 BR      -0.1120     0.5570     0.0020 Br    1 <1>  -0.1110 
  2 C        1.6300     1.3620     0.2090 C.ar  1 <1>   0.1110 
  3 C        2.0290     2.3790    -0.6460 C.ar  1 <1>  -0.1440 
  4 C        2.4360     0.8860     1.2260 C.ar  1 <1>  -0.1500 
  5 C        3.2900     2.9220    -0.4560 C.ar  1 <1>  -0.1500 
  6 C        1.1260     2.8920    -1.7580 C.3   1 <1>  -0.0960 
  7 C        3.6920     1.4400     1.4020 C.ar  1 <1>  -0.1500 
  8 C        4.1220     2.4620     0.5550 C.ar  1 <1>   0.0830 
  9 O        5.3380     3.0550     0.6510 O.3   1 <1>  -0.3630 
 10 C        6.3110     2.5950     1.5790 C.3   1 <1>   0.1810 
 11 C        7.6290     3.3510     1.4330 C.2   1 <1>   0.5690 
 12 O        8.0030     3.9810     2.3970 O.2   1 <1>  -0.5700 
 13 N        8.3760     3.2910     0.2770 N.am  1 <1>  -0.6600 
 14 C        9.6610     4.0340     0.1490 C.3   1 <1>   0.1400 
 15 C        7.9780     2.5550    -0.9570 C.3   1 <1>   0.1400 
 16 C       10.7840     3.0630    -0.2360 C.3   1 <1>  -0.1600 
 17 C        9.0850     1.5710    -1.3520 C.3   1 <1>  -0.1600 
 18 C       10.4400     2.2750    -1.5070 C.3   1 <1>  -0.1600 
 19 H        2.0830     0.0980     1.8660 H     1 <1>   0.1500 
 20 H        3.6450     3.7140    -1.0910 H     1 <1>   0.1500 
 21 H        0.2140     3.2790    -1.3400 H     1 <1>   0.0800 
 22 H        0.8870     2.0920    -2.4360 H     1 <1>   0.0800 
 23 H        1.6070     3.6770    -2.3130 H     1 <1>   0.0800 
 24 H        4.3100     1.0690     2.1970 H     1 <1>   0.1500 
 25 H        6.4810     1.5490     1.4090 H     1 <1>   0.0800 
 26 H        5.9240     2.7460     2.5700 H     1 <1>   0.0800 
 27 H        9.9140     4.5250     1.0730 H     1 <1>   0.0800 
 28 H        9.5530     4.7890    -0.6100 H     1 <1>   0.0800 
 29 H        7.8240     3.2670    -1.7500 H     1 <1>   0.0800 
 30 H        7.0600     2.0140    -0.8170 H     1 <1>   0.0800 
 31 H       10.9460     2.3840     0.5830 H     1 <1>   0.0800 
 32 H       11.6930     3.6170    -0.3870 H     1 <1>   0.0800 
 33 H        8.8200     1.0920    -2.2780 H     1 <1>   0.0800 
 34 H        9.1570     0.8080    -0.5970 H     1 <1>   0.0800 
 35 H       11.2090     1.5480    -1.7040 H     1 <1>   0.0800 
 36 H       10.3970     2.9510    -2.3450 H     1 <1>   0.0800 
@<TRIPOS>BOND
  1   1   2  1   
  2   2   3  ar  
  3   2   4  ar  
  4   3   5  ar  
  5   3   6  1   
  6   4   7  ar  
  7   4  19  1   
  8   5   8  ar  
  9   5  20  1   
 10   6  21  1   
 11   6  22  1   
 12   6  23  1   
 13   7   8  ar  
 14   7  24  1   
 15   8   9  1   
 16   9  10  1   
 17  10  11  1   
 18  10  25  1   
 19  10  26  1   
 20  11  12  2   
 21  11  13  am  
 22  13  14  1   
 23  13  15  1   
 24  14  16  1   
 25  14  27  1   
 26  14  28  1   
 27  15  17  1   
 28  15  29  1   
 29  15  30  1   
 30  16  18  1   
 31  16  31  1   
 32  16  32  1   
 33  17  18  1   
 34  17  33  1   
 35  17  34  1   
 36  18  35  1   
 37  18  36  1   
@<TRIPOS>SUBSTRUCTURE
  1 ****   9 GROUP 4 **** **** 0

# MOE 2024.06 (io_trps.svl 2023.06)
