@<TRIPOS>MOLECULE
NONAME
42 45 1 0 0 
SMALL
USER_CHARGES


@<TRIPOS>ATOM
  1 CL      -0.0760     0.6880     1.7390 Cl    1 <1>  -0.1770 
  2 C       -0.2500     2.0720     0.6830 C.ar  1 <1>   0.1770 
  3 C        0.7820     2.4560    -0.1580 C.ar  1 <1>   0.1770 
  4 C       -1.4390     2.7760     0.7040 C.ar  1 <1>  -0.1500 
  5 CL       2.2920     1.5700    -0.1900 Cl    1 <1>  -0.1770 
  6 C        0.6320     3.5520    -0.9880 C.ar  1 <1>  -0.1500 
  7 C       -1.6030     3.8810    -0.1260 C.ar  1 <1>   0.1000 
  8 C       -0.5600     4.2580    -0.9670 C.ar  1 <1>  -0.1500 
  9 N       -2.7840     4.6130    -0.1320 N.pl3 1 <1>  -0.8380 
 10 C       -3.0690     5.4270     1.0870 C.3   1 <1>   0.2090 
 11 C       -3.9880     3.9320    -0.6990 C.3   1 <1>   0.2090 
 12 C       -4.1990     6.4450     0.8150 C.3   1 <1>   0.3430 
 13 C       -5.1170     4.9510    -0.9700 C.3   1 <1>   0.3430 
 14 N       -5.4320     5.7970     0.2380 N.4   1 <1>  -0.9590 
 15 C       -6.5330     6.7660    -0.0170 C.3   1 <1>   0.4810 
 16 C       -7.8590     6.0030    -0.0050 C.2   1 <1>   0.0330 
 17 N       -7.9570     4.9920     0.9170 N.2   1 <1>  -0.6210 
 18 C       -8.8840     6.3010    -0.8480 C.2   1 <1>  -0.1360 
 19 C       -9.0900     4.3620     0.9430 C.2   1 <1>   0.6510 
 20 C      -10.1010     5.5740    -0.7910 C.2   1 <1>   0.6160 
 21 S       -9.4240     3.0310     2.0510 S.3   1 <1>  -0.2420 
 22 N      -10.1860     4.5810     0.1530 N.am  1 <1>  -0.2290 
 23 O      -11.0320     5.8090    -1.5430 O.2   1 <1>  -0.5700 
 24 C      -11.0610     2.8260     1.3990 C.2   1 <1>  -0.0490 
 25 C      -11.2730     3.7190     0.4230 C.2   1 <1>  -0.0410 
 26 H       -2.2270     2.4640     1.3610 H     1 <1>   0.1500 
 27 H        1.4380     3.8450    -1.6380 H     1 <1>   0.1500 
 28 H       -0.6900     5.1120    -1.6070 H     1 <1>   0.1500 
 29 H       -2.1750     5.9540     1.3770 H     1 <1>   0.0800 
 30 H       -3.3490     4.7790     1.8990 H     1 <1>   0.0800 
 31 H       -4.3350     3.1770    -0.0150 H     1 <1>   0.0800 
 32 H       -3.7180     3.4450    -1.6210 H     1 <1>   0.0800 
 33 H       -3.8220     7.1800     0.1240 H     1 <1>   0.0800 
 34 H       -4.4440     6.9480     1.7360 H     1 <1>   0.0800 
 35 H       -5.9990     4.4180    -1.2840 H     1 <1>   0.0800 
 36 H       -4.8040     5.5850    -1.7830 H     1 <1>   0.0800 
 37 H       -5.8420     5.1610     0.9450 H     1 <1>   0.4500 
 38 H       -6.3890     7.2760    -0.9550 H     1 <1>   0.0800 
 39 H       -6.5580     7.4970     0.7740 H     1 <1>   0.0800 
 40 H       -8.8420     7.0830    -1.5830 H     1 <1>   0.1500 
 41 H      -11.6720     2.0520     1.8330 H     1 <1>   0.1500 
 42 H      -12.1740     3.8370    -0.1590 H     1 <1>   0.1500 
@<TRIPOS>BOND
  1   1   2  1   
  2   2   3  ar  
  3   2   4  ar  
  4   3   5  1   
  5   3   6  ar  
  6   4   7  ar  
  7   4  26  1   
  8   6   8  ar  
  9   6  27  1   
 10   7   8  ar  
 11   7   9  1   
 12   8  28  1   
 13   9  10  1   
 14   9  11  1   
 15  10  12  1   
 16  10  29  1   
 17  10  30  1   
 18  11  13  1   
 19  11  31  1   
 20  11  32  1   
 21  12  14  1   
 22  12  33  1   
 23  12  34  1   
 24  13  14  1   
 25  13  35  1   
 26  13  36  1   
 27  14  15  1   
 28  14  37  1   
 29  15  16  1   
 30  15  38  1   
 31  15  39  1   
 32  16  17  1   
 33  16  18  2   
 34  17  19  2   
 35  18  20  1   
 36  18  40  1   
 37  19  21  1   
 38  19  22  1   
 39  20  22  am  
 40  20  23  2   
 41  21  24  1   
 42  22  25  1   
 43  24  25  2   
 44  24  41  1   
 45  25  42  1   
@<TRIPOS>SUBSTRUCTURE
  1 ****  13 GROUP 4 **** **** 0

# MOE 2024.06 (io_trps.svl 2023.06)
