@<TRIPOS>MOLECULE
NONAME
51 54 1 0 0 
SMALL
USER_CHARGES


@<TRIPOS>ATOM
  1 BR       0.5550     0.4790     2.6690 Br    1 <1>  -0.1110 
  2 C        1.1290     1.7420     1.3330 C.ar  1 <1>   0.1110 
  3 C        2.4090     1.6380     0.8270 C.ar  1 <1>  -0.1500 
  4 C        0.2470     2.7190     0.9180 C.ar  1 <1>  -0.1500 
  5 C        2.8290     2.5450    -0.1340 C.ar  1 <1>  -0.1440 
  6 C        0.6670     3.6260    -0.0390 C.ar  1 <1>  -0.1500 
  7 C        1.9580     3.5460    -0.5680 C.ar  1 <1>   0.0830 
  8 C        4.2410     2.4210    -0.6930 C.3   1 <1>   0.2540 
  9 O        2.4170     4.4250    -1.4990 O.3   1 <1>  -0.3630 
 10 N        5.2410     2.8750     0.2970 N.3   1 <1>  -0.8100 
 11 C        1.5410     5.2970    -2.1810 C.3   1 <1>   0.0400 
 12 C        6.6120     2.6350    -0.1900 C.3   1 <1>   0.1100 
 13 C        5.0310     4.2920     0.6680 C.3   1 <1>   0.1100 
 14 C        7.6650     3.1070     0.8370 C.3   1 <1>   0.3430 
 15 C        6.0780     4.7700     1.6940 C.3   1 <1>   0.3430 
 16 N        7.4940     4.5570     1.2200 N.4   1 <1>  -0.9590 
 17 C        7.8550     5.4800     0.1010 C.3   1 <1>   0.4230 
 18 C        9.4060     5.3070    -0.4020 C.3   1 <1>  -0.0800 
 19 C        7.6460     7.0860     0.5230 C.3   1 <1>  -0.1600 
 20 C        9.1780     6.6120    -0.2030 C.3   1 <1>  -0.1600 
 21 C       10.7250     6.1280    -0.9120 C.3   1 <1>  -0.1600 
 22 C        8.9750     7.9090     0.0390 C.3   1 <1>  -0.0800 
 23 C       10.5020     7.7390    -0.5240 C.3   1 <1>  -0.1600 
 24 H        3.0650     0.8630     1.1820 H     1 <1>   0.1500 
 25 H       -0.7430     2.7660     1.3350 H     1 <1>   0.1500 
 26 H       -0.0220     4.3860    -0.3550 H     1 <1>   0.1500 
 27 H        4.3430     2.9830    -1.6060 H     1 <1>   0.0800 
 28 H        4.4210     1.3860    -0.9290 H     1 <1>   0.0800 
 29 H        2.1020     5.8120    -2.9400 H     1 <1>   0.0800 
 30 H        1.1380     6.0080    -1.4810 H     1 <1>   0.0800 
 31 H        0.7560     4.7190    -2.6370 H     1 <1>   0.0800 
 32 H        6.7660     3.1370    -1.1290 H     1 <1>   0.0800 
 33 H        6.7450     1.5790    -0.3560 H     1 <1>   0.0800 
 34 H        4.0580     4.4050     1.1160 H     1 <1>   0.0800 
 35 H        5.0570     4.9140    -0.2100 H     1 <1>   0.0800 
 36 H        8.6500     2.9400     0.4340 H     1 <1>   0.0800 
 37 H        7.5650     2.4920     1.7160 H     1 <1>   0.0800 
 38 H        5.9190     4.2160     2.6050 H     1 <1>   0.0800 
 39 H        5.9080     5.8100     1.9140 H     1 <1>   0.0800 
 40 H        8.1270     4.7650     2.0010 H     1 <1>   0.4500 
 41 H        7.2130     5.2760    -0.7420 H     1 <1>   0.0800 
 42 H        9.8450     4.6980     0.3760 H     1 <1>   0.0800 
 43 H        7.5310     7.2020     1.5900 H     1 <1>   0.0800 
 44 H        6.7630     7.4830     0.0480 H     1 <1>   0.0800 
 45 H        9.6100     6.4960     0.8900 H     1 <1>   0.0800 
 46 H        8.7620     6.7480    -1.2970 H     1 <1>   0.0800 
 47 H       10.8450     6.0190    -1.9810 H     1 <1>   0.0800 
 48 H       11.6250     5.7510    -0.4500 H     1 <1>   0.0800 
 49 H        8.5530     8.5670    -0.7100 H     1 <1>   0.0800 
 50 H       10.6710     8.3630    -1.3890 H     1 <1>   0.0800 
 51 H       11.2130     8.0430     0.2310 H     1 <1>   0.0800 
@<TRIPOS>BOND
  1   1   2  1   
  2   2   3  ar  
  3   2   4  ar  
  4   3   5  ar  
  5   3  24  1   
  6   4   6  ar  
  7   4  25  1   
  8   5   7  ar  
  9   5   8  1   
 10   6   7  ar  
 11   6  26  1   
 12   7   9  1   
 13   8  10  1   
 14   8  27  1   
 15   8  28  1   
 16   9  11  1   
 17  10  12  1   
 18  10  13  1   
 19  11  29  1   
 20  11  30  1   
 21  11  31  1   
 22  12  14  1   
 23  12  32  1   
 24  12  33  1   
 25  13  15  1   
 26  13  34  1   
 27  13  35  1   
 28  14  16  1   
 29  14  36  1   
 30  14  37  1   
 31  15  16  1   
 32  15  38  1   
 33  15  39  1   
 34  16  17  1   
 35  16  40  1   
 36  17  18  1   
 37  17  19  1   
 38  17  41  1   
 39  18  20  1   
 40  18  21  1   
 41  18  42  1   
 42  19  22  1   
 43  19  43  1   
 44  19  44  1   
 45  20  22  1   
 46  20  45  1   
 47  20  46  1   
 48  21  23  1   
 49  21  47  1   
 50  21  48  1   
 51  22  23  1   
 52  22  49  1   
 53  23  50  1   
 54  23  51  1   
@<TRIPOS>SUBSTRUCTURE
  1 ****  13 GROUP 4 **** **** 0

# MOE 2024.06 (io_trps.svl 2023.06)
