@<TRIPOS>MOLECULE
NONAME
44 46 1 0 0 
SMALL
USER_CHARGES


@<TRIPOS>ATOM
  1 N        0.4870     0.7700     0.8730 N.ar  1 <1>  -0.6200 
  2 C       -0.0690     1.7060     0.1070 C.ar  1 <1>   0.7200 
  3 C       -0.2750     0.2800     1.8230 C.ar  1 <1>   0.1600 
  4 N       -1.2860     2.2190     0.2410 N.ar  1 <1>  -0.6200 
  5 N        0.7090     2.2260    -0.9030 N.pl3 1 <1>  -0.8380 
  6 C       -1.5600     0.7210     2.0290 C.ar  1 <1>  -0.1500 
  7 C       -2.0250     1.7110     1.1980 C.ar  1 <1>   0.1600 
  8 C        0.8010     3.7040    -1.0480 C.3   1 <1>   0.2090 
  9 C        1.9330     1.5110    -1.3590 C.3   1 <1>   0.2090 
 10 C        2.0360     4.2250    -0.2830 C.3   1 <1>   0.3430 
 11 C        3.1560     2.0310    -0.5770 C.3   1 <1>   0.3430 
 12 N        3.3340     3.5390    -0.6810 N.4   1 <1>  -0.9590 
 13 C        4.4990     4.0830     0.0950 C.3   1 <1>   0.4230 
 14 C        4.8000     5.5100    -0.4080 C.3   1 <1>  -0.1600 
 15 C        5.7250     3.1480    -0.0050 C.3   1 <1>  -0.1600 
 16 C        5.6760     6.3060     0.5720 C.3   1 <1>  -0.1600 
 17 C        7.0130     3.6360     0.6810 C.3   1 <1>  -0.1600 
 18 C        7.1840     6.1840     0.3160 C.3   1 <1>  -0.1600 
 19 C        7.6950     4.7880    -0.0680 C.3   1 <1>  -0.1600 
 20 H        0.1310    -0.4920     2.4550 H     1 <1>   0.1500 
 21 H       -2.1750     0.3100     2.8070 H     1 <1>   0.1500 
 22 H       -3.0250     2.0920     1.3220 H     1 <1>   0.1500 
 23 H       -0.0830     4.1830    -0.6610 H     1 <1>   0.0800 
 24 H        0.8730     3.9580    -2.0900 H     1 <1>   0.0800 
 25 H        2.0710     1.6730    -2.4140 H     1 <1>   0.0800 
 26 H        1.8270     0.4500    -1.2090 H     1 <1>   0.0800 
 27 H        1.8600     4.0690     0.7690 H     1 <1>   0.0800 
 28 H        2.1060     5.2860    -0.4470 H     1 <1>   0.0800 
 29 H        4.0320     1.5300    -0.9510 H     1 <1>   0.0800 
 30 H        3.0300     1.7520     0.4560 H     1 <1>   0.0800 
 31 H        3.5100     3.7520    -1.6690 H     1 <1>   0.4500 
 32 H        4.2190     4.1440     1.1350 H     1 <1>   0.0800 
 33 H        3.8910     6.0700    -0.5050 H     1 <1>   0.0800 
 34 H        5.2630     5.4820    -1.3790 H     1 <1>   0.0800 
 35 H        5.9440     2.9470    -1.0400 H     1 <1>   0.0800 
 36 H        5.4880     2.2160     0.4750 H     1 <1>   0.0800 
 37 H        5.4580     6.0090     1.5840 H     1 <1>   0.0800 
 38 H        5.4220     7.3510     0.4980 H     1 <1>   0.0800 
 39 H        7.7050     2.8100     0.6950 H     1 <1>   0.0800 
 40 H        6.8300     3.9060     1.7070 H     1 <1>   0.0800 
 41 H        7.6990     6.5070     1.2050 H     1 <1>   0.0800 
 42 H        7.4650     6.8680    -0.4680 H     1 <1>   0.0800 
 43 H        7.5960     4.6430    -1.1310 H     1 <1>   0.0800 
 44 H        8.7510     4.7590     0.1450 H     1 <1>   0.0800 
@<TRIPOS>BOND
  1   1   2  ar  
  2   1   3  ar  
  3   2   4  ar  
  4   2   5  1   
  5   3   6  ar  
  6   3  20  1   
  7   4   7  ar  
  8   5   8  1   
  9   5   9  1   
 10   6   7  ar  
 11   6  21  1   
 12   7  22  1   
 13   8  10  1   
 14   8  23  1   
 15   8  24  1   
 16   9  11  1   
 17   9  25  1   
 18   9  26  1   
 19  10  12  1   
 20  10  27  1   
 21  10  28  1   
 22  11  12  1   
 23  11  29  1   
 24  11  30  1   
 25  12  13  1   
 26  12  31  1   
 27  13  14  1   
 28  13  15  1   
 29  13  32  1   
 30  14  16  1   
 31  14  33  1   
 32  14  34  1   
 33  15  17  1   
 34  15  35  1   
 35  15  36  1   
 36  16  18  1   
 37  16  37  1   
 38  16  38  1   
 39  17  19  1   
 40  17  39  1   
 41  17  40  1   
 42  18  19  1   
 43  18  41  1   
 44  18  42  1   
 45  19  43  1   
 46  19  44  1   
@<TRIPOS>SUBSTRUCTURE
  1 ****  12 GROUP 4 **** **** 0

# MOE 2024.06 (io_trps.svl 2023.06)
