@<TRIPOS>MOLECULE
NONAME
37 38 1 0 0 
SMALL
USER_CHARGES


@<TRIPOS>ATOM
  1 F        1.1440     0.0560     1.4620 F     1 <1>  -0.1900 
  2 C        2.0250    -0.7790     0.9770 C.ar  1 <1>   0.1900 
  3 C        3.2700    -0.3070     0.6230 C.ar  1 <1>  -0.1500 
  4 C        1.6680    -2.1050     0.8350 C.ar  1 <1>  -0.1500 
  5 C        4.2120    -1.1870     0.1010 C.ar  1 <1>   0.1170 
  6 C        2.6030    -2.9840     0.3180 C.ar  1 <1>  -0.1500 
  7 N        5.4790    -0.7300    -0.2930 N.am  1 <1>  -0.5470 
  8 C        3.8660    -2.5360    -0.0460 C.ar  1 <1>  -0.1430 
  9 C        6.2910     0.2220     0.2590 C.2   1 <1>   0.5690 
 10 C        4.8730    -3.5400    -0.5970 C.3   1 <1>  -0.0960 
 11 O        5.9750     0.8040     1.2740 O.2   1 <1>  -0.5700 
 12 C        7.5970     0.6120    -0.4780 C.3   1 <1>  -0.0190 
 13 C        8.6920    -0.4960    -0.5860 C.3   1 <1>  -0.1860 
 14 C        8.1990     1.9460     0.0610 C.3   1 <1>  -0.1600 
 15 C        8.1260    -1.8820    -0.8590 C.2   1 <1>   0.9060 
 16 C        9.6770    -0.4100     0.5970 C.3   1 <1>  -0.1600 
 17 C        9.7130     2.0550    -0.1560 C.3   1 <1>  -0.1600 
 18 O        8.3870    -2.8360    -0.1240 O.co2 1 <1>  -0.9000 
 19 O        7.3610    -1.9980    -1.8250 O.co2 1 <1>  -0.9000 
 20 C       10.4480     0.9260     0.5910 C.3   1 <1>  -0.1600 
 21 H        3.5080     0.7320     0.7490 H     1 <1>   0.1500 
 22 H        0.6870    -2.4360     1.1220 H     1 <1>   0.1500 
 23 H        2.3450    -4.0220     0.2030 H     1 <1>   0.1500 
 24 H        5.9660    -1.3270    -0.9920 H     1 <1>   0.3700 
 25 H        5.1100    -3.3050    -1.6190 H     1 <1>   0.0800 
 26 H        4.4920    -4.5430    -0.5580 H     1 <1>   0.0800 
 27 H        5.7820    -3.5060    -0.0230 H     1 <1>   0.0800 
 28 H        7.2900     0.8030    -1.4910 H     1 <1>   0.0800 
 29 H        9.2650    -0.2900    -1.4700 H     1 <1>   0.0800 
 30 H        8.0370     2.0240     1.1220 H     1 <1>   0.0800 
 31 H        7.6940     2.7760    -0.4020 H     1 <1>   0.0800 
 32 H       10.3740    -1.2300     0.5550 H     1 <1>   0.0800 
 33 H        9.1180    -0.5110     1.5120 H     1 <1>   0.0800 
 34 H       10.0680     3.0090     0.1920 H     1 <1>   0.0800 
 35 H        9.9230     1.9910    -1.2100 H     1 <1>   0.0800 
 36 H       11.4090     0.7800     0.1290 H     1 <1>   0.0800 
 37 H       10.6200     1.2220     1.6110 H     1 <1>   0.0800 
@<TRIPOS>BOND
  1   1   2  1   
  2   2   3  ar  
  3   2   4  ar  
  4   3   5  ar  
  5   3  21  1   
  6   4   6  ar  
  7   4  22  1   
  8   5   7  1   
  9   5   8  ar  
 10   6   8  ar  
 11   6  23  1   
 12   7   9  am  
 13   7  24  1   
 14   8  10  1   
 15   9  11  2   
 16   9  12  1   
 17  10  25  1   
 18  10  26  1   
 19  10  27  1   
 20  12  13  1   
 21  12  14  1   
 22  12  28  1   
 23  13  15  1   
 24  13  16  1   
 25  13  29  1   
 26  14  17  1   
 27  14  30  1   
 28  14  31  1   
 29  15  18  ar  
 30  15  19  ar  
 31  16  20  1   
 32  16  32  1   
 33  16  33  1   
 34  17  20  1   
 35  17  34  1   
 36  17  35  1   
 37  20  36  1   
 38  20  37  1   
@<TRIPOS>SUBSTRUCTURE
  1 ****   7 GROUP 4 **** **** 0

# MOE 2024.06 (io_trps.svl 2023.06)
