@<TRIPOS>MOLECULE
NONAME
48 50 1 0 0 
SMALL
USER_CHARGES


@<TRIPOS>ATOM
  1 O       -0.5360    -0.0200    -0.1710 O.2   1 <1>  -0.5700 
  2 C       -1.4540     0.7280    -0.4090 C.2   1 <1>   0.5690 
  3 N       -1.3100     2.0990    -0.4420 N.am  1 <1>  -0.4770 
  4 C       -2.8130     0.0960    -0.7000 C.3   1 <1>   0.2010 
  5 C       -0.0880     2.7610    -0.2150 C.ar  1 <1>   0.1170 
  6 C       -2.4770     2.9560    -0.8210 C.3   1 <1>   0.2010 
  7 N       -3.9880     0.9820    -0.4210 N.am  1 <1>  -0.4770 
  8 C        1.0270     2.4840    -0.9990 C.ar  1 <1>  -0.1500 
  9 C        0.0290     3.7130     0.7930 C.ar  1 <1>  -0.1500 
 10 C       -3.8430     2.3500    -0.5030 C.2   1 <1>   0.5690 
 11 C       -5.2140     0.3410    -0.1610 C.ar  1 <1>   0.1170 
 12 C        2.2240     3.1480    -0.7970 C.ar  1 <1>  -0.1500 
 13 C        1.2230     4.3800     0.9970 C.ar  1 <1>  -0.1500 
 14 O       -4.7650     3.1150    -0.3500 O.2   1 <1>  -0.5700 
 15 C       -6.3130     0.5480    -0.9890 C.ar  1 <1>  -0.1500 
 16 C       -5.3520    -0.5200     0.9220 C.ar  1 <1>  -0.1500 
 17 C        2.3270     4.1070     0.2070 C.ar  1 <1>   0.0830 
 18 C       -7.5150    -0.0970    -0.7540 C.ar  1 <1>  -0.1500 
 19 C       -6.5510    -1.1690     1.1600 C.ar  1 <1>  -0.1500 
 20 O        3.4590     4.8080     0.4750 O.3   1 <1>  -0.3630 
 21 C       -7.6380    -0.9660     0.3270 C.ar  1 <1>   0.0830 
 22 C        4.6590     4.5390    -0.2120 C.3   1 <1>   0.1200 
 23 O       -8.7770    -1.6420     0.6320 O.3   1 <1>  -0.3630 
 24 C        5.7400     5.4560     0.3510 C.3   1 <1>  -0.2400 
 25 C       -9.9620    -1.4340    -0.1000 C.3   1 <1>   0.1200 
 26 C      -11.0550    -2.3000     0.5190 C.3   1 <1>  -0.2400 
 27 H       -2.8910    -0.7990    -0.1100 H     1 <1>   0.0800 
 28 H       -2.8380    -0.1940    -1.7340 H     1 <1>   0.0800 
 29 H       -2.4320     3.1550    -1.8760 H     1 <1>   0.0800 
 30 H       -2.4110     3.8990    -0.3090 H     1 <1>   0.0800 
 31 H        0.9540     1.7380    -1.7690 H     1 <1>   0.1500 
 32 H       -0.8130     3.9290     1.4240 H     1 <1>   0.1500 
 33 H        3.0590     2.9030    -1.4250 H     1 <1>   0.1500 
 34 H        1.3100     5.1170     1.7760 H     1 <1>   0.1500 
 35 H       -6.2240     1.2240    -1.8190 H     1 <1>   0.1500 
 36 H       -4.5240    -0.6800     1.5870 H     1 <1>   0.1500 
 37 H       -8.3370     0.0910    -1.4170 H     1 <1>   0.1500 
 38 H       -6.6540    -1.8350     1.9980 H     1 <1>   0.1500 
 39 H        4.5040     4.7330    -1.2590 H     1 <1>   0.0800 
 40 H        4.9170     3.5060    -0.0560 H     1 <1>   0.0800 
 41 H        5.4640     6.4850     0.2050 H     1 <1>   0.0800 
 42 H        6.6710     5.2740    -0.1550 H     1 <1>   0.0800 
 43 H        5.8750     5.2650     1.4000 H     1 <1>   0.0800 
 44 H       -9.7860    -1.7180    -1.1230 H     1 <1>   0.0800 
 45 H      -10.2220    -0.3910    -0.0390 H     1 <1>   0.0800 
 46 H      -10.7780    -3.3370     0.4690 H     1 <1>   0.0800 
 47 H      -11.9760    -2.1630    -0.0190 H     1 <1>   0.0800 
 48 H      -11.2110    -2.0180     1.5450 H     1 <1>   0.0800 
@<TRIPOS>BOND
  1   1   2  2   
  2   2   3  am  
  3   2   4  1   
  4   3   5  1   
  5   3   6  1   
  6   4   7  1   
  7   4  27  1   
  8   4  28  1   
  9   5   8  ar  
 10   5   9  ar  
 11   6  10  1   
 12   6  29  1   
 13   6  30  1   
 14   7  10  am  
 15   7  11  1   
 16   8  12  ar  
 17   8  31  1   
 18   9  13  ar  
 19   9  32  1   
 20  10  14  2   
 21  11  15  ar  
 22  11  16  ar  
 23  12  17  ar  
 24  12  33  1   
 25  13  17  ar  
 26  13  34  1   
 27  15  18  ar  
 28  15  35  1   
 29  16  19  ar  
 30  16  36  1   
 31  17  20  1   
 32  18  21  ar  
 33  18  37  1   
 34  19  21  ar  
 35  19  38  1   
 36  20  22  1   
 37  21  23  1   
 38  22  24  1   
 39  22  39  1   
 40  22  40  1   
 41  23  25  1   
 42  24  41  1   
 43  24  42  1   
 44  24  43  1   
 45  25  26  1   
 46  25  44  1   
 47  25  45  1   
 48  26  46  1   
 49  26  47  1   
 50  26  48  1   
@<TRIPOS>SUBSTRUCTURE
  1 ****   3 GROUP 4 **** **** 0

# MOE 2024.06 (io_trps.svl 2023.06)
