@<TRIPOS>MOLECULE
NONAME
31 32 1 0 0 
SMALL
USER_CHARGES


@<TRIPOS>ATOM
  1 O        0.0580     0.4530    -0.3380 O.2   1 <1>  -0.5700 
  2 C       -0.1020     1.6450    -0.1740 C.2   1 <1>   0.6900 
  3 N       -1.3410     2.2360    -0.0780 N.am  1 <1>  -0.3680 
  4 N        1.0030     2.4340    -0.1080 N.am  1 <1>  -0.5470 
  5 N       -2.6080     1.6710    -0.1380 N.2   1 <1>  -0.5120 
  6 C        1.0860     3.8090     0.1200 C.ar  1 <1>   0.1170 
  7 C       -3.6470     2.3900    -0.0400 C.2   1 <1>   0.3890 
  8 C        0.4910     4.3870     1.2370 C.ar  1 <1>  -0.1500 
  9 C        1.7620     4.6240    -0.7780 C.ar  1 <1>  -0.1500 
 10 C       -3.6660     3.9110     0.1460 C.3   1 <1>  -0.1000 
 11 C       -5.0230     1.7600    -0.0720 C.3   1 <1>  -0.1790 
 12 C        0.5540     5.7540     1.4410 C.ar  1 <1>  -0.1500 
 13 C        1.8280     5.9910    -0.5760 C.ar  1 <1>  -0.1500 
 14 C       -4.2990     4.8040    -0.8810 C.3   1 <1>  -0.2000 
 15 C       -2.8190     4.8530    -0.6670 C.3   1 <1>  -0.2000 
 16 C        1.2210     6.5580     0.5320 C.ar  1 <1>  -0.1500 
 17 H       -1.2890     3.2530     0.0140 H     1 <1>   0.3700 
 18 H        1.8560     1.9260    -0.3370 H     1 <1>   0.3700 
 19 H       -0.0150     3.7630     1.9530 H     1 <1>   0.1500 
 20 H        2.2300     4.1880    -1.6420 H     1 <1>   0.1500 
 21 H       -3.8350     4.1700     1.1760 H     1 <1>   0.1000 
 22 H       -5.5770     2.1300    -0.9140 H     1 <1>   0.0800 
 23 H       -5.5520     1.9910     0.8330 H     1 <1>   0.0800 
 24 H       -4.9350     0.6920    -0.1600 H     1 <1>   0.0800 
 25 H        0.0900     6.1930     2.3070 H     1 <1>   0.1500 
 26 H        2.3500     6.6160    -1.2800 H     1 <1>   0.1500 
 27 H       -4.6610     4.3770    -1.8010 H     1 <1>   0.1000 
 28 H       -4.8980     5.6330    -0.5480 H     1 <1>   0.1000 
 29 H       -2.3940     5.7170    -0.1860 H     1 <1>   0.1000 
 30 H       -2.1990     4.4810    -1.4650 H     1 <1>   0.1000 
 31 H        1.2730     7.6220     0.6890 H     1 <1>   0.1500 
@<TRIPOS>BOND
  1   1   2  2   
  2   2   3  am  
  3   2   4  am  
  4   3   5  1   
  5   3  17  1   
  6   4   6  1   
  7   4  18  1   
  8   5   7  2   
  9   6   8  ar  
 10   6   9  ar  
 11   7  10  1   
 12   7  11  1   
 13   8  12  ar  
 14   8  19  1   
 15   9  13  ar  
 16   9  20  1   
 17  10  14  1   
 18  10  15  1   
 19  10  21  1   
 20  11  22  1   
 21  11  23  1   
 22  11  24  1   
 23  12  16  ar  
 24  12  25  1   
 25  13  16  ar  
 26  13  26  1   
 27  14  15  1   
 28  14  27  1   
 29  14  28  1   
 30  15  29  1   
 31  15  30  1   
 32  16  31  1   
@<TRIPOS>SUBSTRUCTURE
  1 ****   3 GROUP 4 **** **** 0

# MOE 2024.06 (io_trps.svl 2023.06)
