@<TRIPOS>MOLECULE
NONAME
42 43 1 0 0 
SMALL
USER_CHARGES


@<TRIPOS>ATOM
  1 O       -0.1420    -0.9130     2.2330 O.2   1 <1>  -0.5700 
  2 C        0.3670    -1.6930     1.4440 C.2   1 <1>   0.5440 
  3 N        1.5290    -1.3250     0.7980 N.am  1 <1>  -0.6600 
  4 C       -0.2990    -2.9470     1.1650 C.ar  1 <1>   0.0860 
  5 C        2.2670    -0.0830     1.1610 C.3   1 <1>   0.1400 
  6 C        1.9590    -1.9190    -0.5000 C.3   1 <1>   0.1400 
  7 C       -1.6170    -2.9530     0.6840 C.ar  1 <1>   0.1170 
  8 C        0.3530    -4.1670     1.3480 C.ar  1 <1>  -0.1500 
  9 C        2.0650     0.9680     0.0630 C.3   1 <1>  -0.1600 
 10 C        1.7510    -0.8920    -1.6180 C.3   1 <1>  -0.1600 
 11 N       -2.2860    -1.7330     0.5360 N.am  1 <1>  -0.5470 
 12 C       -2.2280    -4.1650     0.3800 C.ar  1 <1>  -0.1500 
 13 C       -0.2670    -5.3640     1.0470 C.ar  1 <1>  -0.1500 
 14 C        2.4710     0.4310    -1.3170 C.3   1 <1>  -0.1600 
 15 C       -3.2160    -1.3140    -0.3700 C.2   1 <1>   0.5690 
 16 C       -1.5610    -5.3620     0.5560 C.ar  1 <1>  -0.1500 
 17 O       -3.7170    -2.0350    -1.1950 O.2   1 <1>  -0.5700 
 18 C       -3.6070     0.1510    -0.3330 C.3   1 <1>  -0.0990 
 19 C       -2.4260     1.0780    -0.6730 C.3   1 <1>  -0.1600 
 20 C       -2.8510     2.5500    -0.6570 C.3   1 <1>  -0.2400 
 21 H        3.3140    -0.3130     1.2600 H     1 <1>   0.0800 
 22 H        1.9230     0.3030     2.1060 H     1 <1>   0.0800 
 23 H        1.3990    -2.8080    -0.7280 H     1 <1>   0.0800 
 24 H        3.0000    -2.1860    -0.4360 H     1 <1>   0.0800 
 25 H        1.3590    -4.1660     1.7300 H     1 <1>   0.1500 
 26 H        2.6450     1.8420     0.2980 H     1 <1>   0.0800 
 27 H        1.0280     1.2570     0.0520 H     1 <1>   0.0800 
 28 H        0.6950    -0.7130    -1.7310 H     1 <1>   0.0800 
 29 H        2.1140    -1.2980    -2.5460 H     1 <1>   0.0800 
 30 H       -1.8990    -0.9910     1.1340 H     1 <1>   0.3700 
 31 H       -3.2360    -4.1710     0.0040 H     1 <1>   0.1500 
 32 H        0.2510    -6.2970     1.1910 H     1 <1>   0.1500 
 33 H        3.5350     0.2680    -1.3350 H     1 <1>   0.0800 
 34 H        2.2320     1.1570    -2.0750 H     1 <1>   0.0800 
 35 H       -2.0500    -6.2900     0.3160 H     1 <1>   0.1500 
 36 H       -3.9860     0.3800     0.6460 H     1 <1>   0.0800 
 37 H       -4.4020     0.3080    -1.0390 H     1 <1>   0.0800 
 38 H       -2.0480     0.8270    -1.6500 H     1 <1>   0.0800 
 39 H       -1.6280     0.9350     0.0370 H     1 <1>   0.0800 
 40 H       -3.6290     2.7250    -1.3790 H     1 <1>   0.0800 
 41 H       -2.0110     3.1770    -0.9010 H     1 <1>   0.0800 
 42 H       -3.2120     2.8270     0.3180 H     1 <1>   0.0800 
@<TRIPOS>BOND
  1   1   2  2   
  2   2   3  am  
  3   2   4  1   
  4   3   5  1   
  5   3   6  1   
  6   4   7  ar  
  7   4   8  ar  
  8   5   9  1   
  9   5  21  1   
 10   5  22  1   
 11   6  10  1   
 12   6  23  1   
 13   6  24  1   
 14   7  11  1   
 15   7  12  ar  
 16   8  13  ar  
 17   8  25  1   
 18   9  14  1   
 19   9  26  1   
 20   9  27  1   
 21  10  14  1   
 22  10  28  1   
 23  10  29  1   
 24  11  15  am  
 25  11  30  1   
 26  12  16  ar  
 27  12  31  1   
 28  13  16  ar  
 29  13  32  1   
 30  14  33  1   
 31  14  34  1   
 32  15  17  2   
 33  15  18  1   
 34  16  35  1   
 35  18  19  1   
 36  18  36  1   
 37  18  37  1   
 38  19  20  1   
 39  19  38  1   
 40  19  39  1   
 41  20  40  1   
 42  20  41  1   
 43  20  42  1   
@<TRIPOS>SUBSTRUCTURE
  1 ****   2 GROUP 4 **** **** 0

# MOE 2024.06 (io_trps.svl 2023.06)
