@<TRIPOS>MOLECULE
NONAME
54 54 1 0 0 
SMALL
USER_CHARGES


@<TRIPOS>ATOM
  1 N       -0.2250    -0.1470    -0.4230 N.4   1 <1>  -0.9590 
  2 C       -1.4230     0.7290    -0.3380 C.3   1 <1>   0.3430 
  3 C       -0.2520    -1.2450     0.5840 C.3   1 <1>   0.3430 
  4 C        1.0120     0.6840    -0.2840 C.3   1 <1>   0.3430 
  5 C       -2.7000    -0.0950    -0.5310 C.3   1 <1>  -0.1600 
  6 C       -1.5110    -2.0960     0.4030 C.3   1 <1>  -0.1600 
  7 C        2.2390    -0.0920    -0.7690 C.3   1 <1>  -0.1600 
  8 C       -2.7990    -1.2560     0.4740 C.3   1 <1>   0.4230 
  9 C        3.4880     0.7950    -0.7400 C.3   1 <1>  -0.2400 
 10 N       -4.0180    -2.1150     0.1970 N.4   1 <1>  -0.9590 
 11 C       -5.3250    -1.3290     0.2030 C.3   1 <1>   0.3430 
 12 C       -4.1040    -3.2750     1.1650 C.3   1 <1>   0.2630 
 13 C       -6.6010    -2.1420    -0.1830 C.3   1 <1>   0.3430 
 14 N       -7.8720    -1.3340    -0.3120 N.4   1 <1>  -0.9590 
 15 C       -8.3400    -0.7180     0.9690 C.3   1 <1>   0.3430 
 16 C       -8.9550    -2.1940    -0.8790 C.3   1 <1>   0.3430 
 17 C       -7.9030     0.7410     1.0100 C.3   1 <1>  -0.2400 
 18 C      -10.0140    -1.3110    -1.5280 C.3   1 <1>  -0.2400 
 19 H       -0.1740    -0.5570    -1.3680 H     1 <1>   0.4500 
 20 H       -1.3700     1.4950    -1.0970 H     1 <1>   0.0800 
 21 H       -1.4460     1.2190     0.6240 H     1 <1>   0.0800 
 22 H       -0.2310    -0.8270     1.5780 H     1 <1>   0.0800 
 23 H        0.6190    -1.8720     0.4700 H     1 <1>   0.0800 
 24 H        1.1520     0.9860     0.7420 H     1 <1>   0.0800 
 25 H        0.9190     1.5770    -0.8830 H     1 <1>   0.0800 
 26 H       -2.7180    -0.4670    -1.5410 H     1 <1>   0.0800 
 27 H       -3.5230     0.5840    -0.4050 H     1 <1>   0.0800 
 28 H       -1.4950    -2.8290     1.1890 H     1 <1>   0.0800 
 29 H       -1.4460    -2.6110    -0.5390 H     1 <1>   0.0800 
 30 H        2.0870    -0.4280    -1.7800 H     1 <1>   0.0800 
 31 H        2.4220    -0.9460    -0.1420 H     1 <1>   0.0800 
 32 H       -2.8800    -0.8410     1.4680 H     1 <1>   0.0800 
 33 H        3.3670     1.6520    -1.3810 H     1 <1>   0.0800 
 34 H        4.3430     0.2380    -1.0850 H     1 <1>   0.0800 
 35 H        3.6950     1.1370     0.2600 H     1 <1>   0.0800 
 36 H       -3.8780    -2.5180    -0.7450 H     1 <1>   0.4500 
 37 H       -5.2450    -0.5140    -0.4950 H     1 <1>   0.0800 
 38 H       -5.4720    -0.9110     1.1860 H     1 <1>   0.0800 
 39 H       -4.1670    -2.9180     2.1810 H     1 <1>   0.0800 
 40 H       -3.2360    -3.9090     1.0800 H     1 <1>   0.0800 
 41 H       -4.9690    -3.8840     0.9610 H     1 <1>   0.0800 
 42 H       -6.7600    -2.9120     0.5540 H     1 <1>   0.0800 
 43 H       -6.4130    -2.6250    -1.1280 H     1 <1>   0.0800 
 44 H       -7.7610    -0.5700    -0.9960 H     1 <1>   0.4500 
 45 H       -7.9530    -1.2560     1.8200 H     1 <1>   0.0800 
 46 H       -9.4180    -0.7500     1.0240 H     1 <1>   0.0800 
 47 H       -9.4000    -2.8030    -0.1070 H     1 <1>   0.0800 
 48 H       -8.5510    -2.8510    -1.6340 H     1 <1>   0.0800 
 49 H       -6.8370     0.8500     1.0120 H     1 <1>   0.0800 
 50 H       -8.2780     1.1900     1.9140 H     1 <1>   0.0800 
 51 H       -8.3240     1.2870     0.1830 H     1 <1>   0.0800 
 52 H      -10.5000    -0.6730    -0.8120 H     1 <1>   0.0800 
 53 H      -10.7720    -1.9380    -1.9660 H     1 <1>   0.0800 
 54 H       -9.5910    -0.7140    -2.3160 H     1 <1>   0.0800 
@<TRIPOS>BOND
  1   1   2  1   
  2   1   3  1   
  3   1   4  1   
  4   1  19  1   
  5   2   5  1   
  6   2  20  1   
  7   2  21  1   
  8   3   6  1   
  9   3  22  1   
 10   3  23  1   
 11   4   7  1   
 12   4  24  1   
 13   4  25  1   
 14   5   8  1   
 15   5  26  1   
 16   5  27  1   
 17   6   8  1   
 18   6  28  1   
 19   6  29  1   
 20   7   9  1   
 21   7  30  1   
 22   7  31  1   
 23   8  10  1   
 24   8  32  1   
 25   9  33  1   
 26   9  34  1   
 27   9  35  1   
 28  10  11  1   
 29  10  12  1   
 30  10  36  1   
 31  11  13  1   
 32  11  37  1   
 33  11  38  1   
 34  12  39  1   
 35  12  40  1   
 36  12  41  1   
 37  13  14  1   
 38  13  42  1   
 39  13  43  1   
 40  14  15  1   
 41  14  16  1   
 42  14  44  1   
 43  15  17  1   
 44  15  45  1   
 45  15  46  1   
 46  16  18  1   
 47  16  47  1   
 48  16  48  1   
 49  17  49  1   
 50  17  50  1   
 51  17  51  1   
 52  18  52  1   
 53  18  53  1   
 54  18  54  1   
@<TRIPOS>SUBSTRUCTURE
  1 ****   8 GROUP 4 **** **** 0

# MOE 2024.06 (io_trps.svl 2023.06)
