@<TRIPOS>MOLECULE
NONAME
25 26 1 0 0 
SMALL
USER_CHARGES


@<TRIPOS>ATOM
  1 CL       0.6430     0.4640    -1.3090 Cl    1 <1>  -0.1770 
  2 C        0.2330     2.0130    -0.6180 C.ar  1 <1>   0.1770 
  3 C        1.2470     2.9000    -0.3130 C.ar  1 <1>  -0.1500 
  4 C       -1.0930     2.3240    -0.3850 C.ar  1 <1>  -0.1500 
  5 C        0.8970     4.1170     0.2380 C.ar  1 <1>   0.1770 
  6 C       -1.4400     3.5550     0.1680 C.ar  1 <1>   0.1170 
  7 CL       2.1510     5.2610     0.6390 Cl    1 <1>  -0.1770 
  8 C       -0.4220     4.4500     0.4800 C.ar  1 <1>  -0.1500 
  9 N       -2.7680     3.9170     0.4370 N.am  1 <1>  -0.5470 
 10 C       -3.9270     3.5220    -0.1700 C.2   1 <1>   0.6900 
 11 O       -3.9150     2.8340    -1.1720 O.2   1 <1>  -0.5700 
 12 N       -5.1020     3.9350     0.3750 N.am  1 <1>  -0.5790 
 13 C       -6.4400     3.6340    -0.1570 C.3   1 <1>   0.0490 
 14 C       -7.5210     4.6400     0.0580 C.3   1 <1>  -0.2000 
 15 C       -7.5330     3.3480     0.8180 C.3   1 <1>  -0.2000 
 16 H        2.2750     2.6500    -0.4980 H     1 <1>   0.1500 
 17 H       -1.8500     1.6020    -0.6340 H     1 <1>   0.1500 
 18 H       -0.6490     5.4090     0.9070 H     1 <1>   0.1500 
 19 H       -2.8870     4.6730     1.1030 H     1 <1>   0.3700 
 20 H       -5.1000     4.4060     1.2740 H     1 <1>   0.3700 
 21 H       -6.4190     3.0870    -1.0870 H     1 <1>   0.1000 
 22 H       -8.2540     4.7800    -0.7180 H     1 <1>   0.1000 
 23 H       -7.2910     5.5530     0.5780 H     1 <1>   0.1000 
 24 H       -7.3110     3.3550     1.8700 H     1 <1>   0.1000 
 25 H       -8.2740     2.6120     0.5570 H     1 <1>   0.1000 
@<TRIPOS>BOND
  1   1   2  1   
  2   2   3  ar  
  3   2   4  ar  
  4   3   5  ar  
  5   3  16  1   
  6   4   6  ar  
  7   4  17  1   
  8   5   7  1   
  9   5   8  ar  
 10   6   8  ar  
 11   6   9  1   
 12   8  18  1   
 13   9  10  am  
 14   9  19  1   
 15  10  11  2   
 16  10  12  am  
 17  12  13  1   
 18  12  20  1   
 19  13  14  1   
 20  13  15  1   
 21  13  21  1   
 22  14  15  1   
 23  14  22  1   
 24  14  23  1   
 25  15  24  1   
 26  15  25  1   
@<TRIPOS>SUBSTRUCTURE
  1 ****   9 GROUP 4 **** **** 0

# MOE 2024.06 (io_trps.svl 2023.06)
