@<TRIPOS>MOLECULE
NONAME
49 51 1 0 0 
SMALL
USER_CHARGES


@<TRIPOS>ATOM
  1 F       -0.1700    -2.7790     1.7650 F     1 <1>  -0.1900 
  2 C       -1.1190    -2.3610     0.9590 C.ar  1 <1>   0.1900 
  3 C       -0.9690    -2.5210    -0.4240 C.ar  1 <1>   0.1000 
  4 C       -2.2320    -1.7760     1.5310 C.ar  1 <1>  -0.1500 
  5 N        0.1430    -3.1080    -1.0440 N.pl3 1 <1>  -0.8380 
  6 C       -2.0070    -2.0590    -1.2230 C.ar  1 <1>  -0.1500 
  7 C       -3.2490    -1.3270     0.7050 C.ar  1 <1>  -0.1500 
  8 C        1.4110    -2.3150    -1.0710 C.3   1 <1>   0.2090 
  9 C        0.2930    -4.5900    -0.9260 C.3   1 <1>   0.2090 
 10 C       -3.1320    -1.4700    -0.6690 C.ar  1 <1>  -0.1500 
 11 C        2.4070    -2.7660     0.0190 C.3   1 <1>   0.3430 
 12 C        1.3130    -4.9930     0.1620 C.3   1 <1>   0.3430 
 13 N        2.6230    -4.2610     0.0350 N.4   1 <1>  -0.9590 
 14 C        3.5790    -4.6570     1.1030 C.3   1 <1>   0.4860 
 15 C        4.9160    -4.0090     0.8100 C.ar  1 <1>  -0.1430 
 16 C        5.3470    -2.9260     1.5610 C.ar  1 <1>  -0.1500 
 17 C        5.7170    -4.4850    -0.2180 C.ar  1 <1>  -0.1500 
 18 C        6.5570    -2.3180     1.2770 C.ar  1 <1>  -0.1500 
 19 C        6.9260    -3.8730    -0.4980 C.ar  1 <1>  -0.1500 
 20 C        7.3560    -2.7820     0.2440 C.ar  1 <1>  -0.1430 
 21 C        8.6900    -2.0990    -0.0540 C.3   1 <1>   0.0630 
 22 C        8.7030    -1.5120    -1.4690 C.3   1 <1>  -0.2400 
 23 C        9.8580    -3.0700     0.1420 C.3   1 <1>  -0.2400 
 24 H       -2.3050    -1.6740     2.5990 H     1 <1>   0.1500 
 25 H       -1.9260    -2.1650    -2.2900 H     1 <1>   0.1500 
 26 H       -4.1270    -0.8680     1.1270 H     1 <1>   0.1500 
 27 H        1.1840    -1.2720    -0.9310 H     1 <1>   0.0800 
 28 H        1.8680    -2.4170    -2.0400 H     1 <1>   0.0800 
 29 H        0.6030    -4.9860    -1.8770 H     1 <1>   0.0800 
 30 H       -0.6640    -5.0270    -0.6930 H     1 <1>   0.0800 
 31 H       -3.9230    -1.1200    -1.3110 H     1 <1>   0.1500 
 32 H        2.0250    -2.4480     0.9750 H     1 <1>   0.0800 
 33 H        3.3450    -2.2610    -0.1410 H     1 <1>   0.0800 
 34 H        1.4790    -6.0560     0.1060 H     1 <1>   0.0800 
 35 H        0.8760    -4.7810     1.1230 H     1 <1>   0.0800 
 36 H        3.0560    -4.5050    -0.8640 H     1 <1>   0.4500 
 37 H        3.6980    -5.7280     1.1200 H     1 <1>   0.0800 
 38 H        3.2170    -4.3360     2.0660 H     1 <1>   0.0800 
 39 H        4.7550    -2.5420     2.3740 H     1 <1>   0.1500 
 40 H        5.4210    -5.3340    -0.8090 H     1 <1>   0.1500 
 41 H        6.8780    -1.4780     1.8690 H     1 <1>   0.1500 
 42 H        7.5380    -4.2520    -1.2980 H     1 <1>   0.1500 
 43 H        8.8250    -1.2840     0.6380 H     1 <1>   0.0800 
 44 H        8.6220    -2.2890    -2.2080 H     1 <1>   0.0800 
 45 H        9.6170    -0.9720    -1.6380 H     1 <1>   0.0800 
 46 H        7.8780    -0.8330    -1.5920 H     1 <1>   0.0800 
 47 H        9.8080    -3.8810    -0.5620 H     1 <1>   0.0800 
 48 H        9.8330    -3.4780     1.1370 H     1 <1>   0.0800 
 49 H       10.7940    -2.5580     0.0080 H     1 <1>   0.0800 
@<TRIPOS>BOND
  1   1   2  1   
  2   2   3  ar  
  3   2   4  ar  
  4   3   5  1   
  5   3   6  ar  
  6   4   7  ar  
  7   4  24  1   
  8   5   8  1   
  9   5   9  1   
 10   6  10  ar  
 11   6  25  1   
 12   7  10  ar  
 13   7  26  1   
 14   8  11  1   
 15   8  27  1   
 16   8  28  1   
 17   9  12  1   
 18   9  29  1   
 19   9  30  1   
 20  10  31  1   
 21  11  13  1   
 22  11  32  1   
 23  11  33  1   
 24  12  13  1   
 25  12  34  1   
 26  12  35  1   
 27  13  14  1   
 28  13  36  1   
 29  14  15  1   
 30  14  37  1   
 31  14  38  1   
 32  15  16  ar  
 33  15  17  ar  
 34  16  18  ar  
 35  16  39  1   
 36  17  19  ar  
 37  17  40  1   
 38  18  20  ar  
 39  18  41  1   
 40  19  20  ar  
 41  19  42  1   
 42  20  21  1   
 43  21  22  1   
 44  21  23  1   
 45  21  43  1   
 46  22  44  1   
 47  22  45  1   
 48  22  46  1   
 49  23  47  1   
 50  23  48  1   
 51  23  49  1   
@<TRIPOS>SUBSTRUCTURE
  1 ****  11 GROUP 4 **** **** 0

# MOE 2024.06 (io_trps.svl 2023.06)
