@<TRIPOS>MOLECULE
NONAME
45 46 1 0 0 
SMALL
USER_CHARGES


@<TRIPOS>ATOM
  1 O       -2.0110    -1.1070    -0.5880 O.2   1 <1>  -0.5700 
  2 C       -2.7030    -0.1320    -0.3770 C.2   1 <1>   0.7060 
  3 O       -3.9830    -0.1650    -0.7560 O.3   1 <1>  -0.2330 
  4 C       -2.2190     1.0490     0.2580 C.2   1 <1>  -0.1360 
  5 C       -4.8280     0.8720    -0.5570 C.ar  1 <1>   0.0820 
  6 C       -3.0140     2.1190     0.4820 C.2   1 <1>  -0.1670 
  7 C       -4.3870     2.0510     0.0630 C.ar  1 <1>   0.0280 
  8 C       -6.1380     0.7370    -0.9810 C.ar  1 <1>  -0.1500 
  9 C       -2.4800     3.3720     1.1620 C.3   1 <1>  -0.1020 
 10 C       -5.3200     3.0810     0.2270 C.ar  1 <1>  -0.1500 
 11 C       -7.0430     1.7610    -0.7840 C.ar  1 <1>   0.0830 
 12 C       -6.6340     2.9560    -0.1870 C.ar  1 <1>  -0.1430 
 13 O       -8.3090     1.5750    -1.2050 O.3   1 <1>  -0.3630 
 14 C       -7.5790     4.1390     0.0060 C.3   1 <1>  -0.0170 
 15 C       -9.2770     1.1740    -0.2410 C.3   1 <1>   0.2610 
 16 C       -7.9310     4.3370     1.4840 C.3   1 <1>  -0.2400 
 17 C       -8.9120    -0.1610     0.4190 C.2   1 <1>   0.6590 
 18 C      -10.6540     1.1280    -0.9290 C.3   1 <1>  -0.1600 
 19 O       -8.8090    -0.2570     1.6170 O.2   1 <1>  -0.5700 
 20 O       -8.7320    -1.2050    -0.3890 O.3   1 <1>  -0.4300 
 21 C      -11.0840     2.4840    -1.5090 C.3   1 <1>  -0.2400 
 22 C       -8.3880    -2.4880     0.0830 C.3   1 <1>   0.1200 
 23 C       -9.6670    -3.2380     0.4500 C.3   1 <1>  -0.2400 
 24 H       -1.1840     1.0230     0.5410 H     1 <1>   0.1500 
 25 H       -6.4520    -0.1700    -1.4630 H     1 <1>   0.1500 
 26 H       -3.0270     3.5630     2.0680 H     1 <1>   0.0800 
 27 H       -2.5770     4.2190     0.5070 H     1 <1>   0.0800 
 28 H       -1.4400     3.2580     1.4130 H     1 <1>   0.0800 
 29 H       -5.0090     4.0010     0.6850 H     1 <1>   0.1500 
 30 H       -7.1040     5.0300    -0.3670 H     1 <1>   0.0800 
 31 H       -8.4790     4.0030    -0.5660 H     1 <1>   0.0800 
 32 H       -9.2980     1.9230     0.5250 H     1 <1>   0.0800 
 33 H       -8.6350     5.1430     1.5900 H     1 <1>   0.0800 
 34 H       -7.0490     4.5760     2.0510 H     1 <1>   0.0800 
 35 H       -8.3650     3.4430     1.8940 H     1 <1>   0.0800 
 36 H      -10.6310     0.3890    -1.7110 H     1 <1>   0.0800 
 37 H      -11.3860     0.8130    -0.2070 H     1 <1>   0.0800 
 38 H      -12.0620     2.4010    -1.9500 H     1 <1>   0.0800 
 39 H      -10.3960     2.8050    -2.2720 H     1 <1>   0.0800 
 40 H      -11.1190     3.2320    -0.7370 H     1 <1>   0.0800 
 41 H       -7.7290    -2.3910     0.9310 H     1 <1>   0.0800 
 42 H       -7.8670    -2.9980    -0.7090 H     1 <1>   0.0800 
 43 H      -10.1770    -2.7350     1.2520 H     1 <1>   0.0800 
 44 H       -9.4210    -4.2320     0.7760 H     1 <1>   0.0800 
 45 H      -10.3160    -3.3080    -0.4050 H     1 <1>   0.0800 
@<TRIPOS>BOND
  1   1   2  2   
  2   2   3  1   
  3   2   4  1   
  4   3   5  1   
  5   4   6  2   
  6   4  24  1   
  7   5   7  ar  
  8   5   8  ar  
  9   6   7  1   
 10   6   9  1   
 11   7  10  ar  
 12   8  11  ar  
 13   8  25  1   
 14   9  26  1   
 15   9  27  1   
 16   9  28  1   
 17  10  12  ar  
 18  10  29  1   
 19  11  12  ar  
 20  11  13  1   
 21  12  14  1   
 22  13  15  1   
 23  14  16  1   
 24  14  30  1   
 25  14  31  1   
 26  15  17  1   
 27  15  18  1   
 28  15  32  1   
 29  16  33  1   
 30  16  34  1   
 31  16  35  1   
 32  17  19  2   
 33  17  20  1   
 34  18  21  1   
 35  18  36  1   
 36  18  37  1   
 37  20  22  1   
 38  21  38  1   
 39  21  39  1   
 40  21  40  1   
 41  22  23  1   
 42  22  41  1   
 43  22  42  1   
 44  23  43  1   
 45  23  44  1   
 46  23  45  1   
@<TRIPOS>SUBSTRUCTURE
  1 ****   8 GROUP 4 **** **** 0

# MOE 2024.06 (io_trps.svl 2023.06)
