@<TRIPOS>MOLECULE
NONAME
43 43 1 0 0 
SMALL
USER_CHARGES


@<TRIPOS>ATOM
  1 CL       0.0850     0.5120     0.0000 Cl    1 <1>  -0.1770 
  2 C        1.7450     1.0780     0.0120 C.ar  1 <1>   0.1770 
  3 C        2.7790     0.1510    -0.0500 C.ar  1 <1>  -0.1440 
  4 C        1.9930     2.4430     0.0820 C.ar  1 <1>  -0.1440 
  5 C        4.0880     0.6070    -0.0400 C.ar  1 <1>  -0.1500 
  6 C        2.4870    -1.3410    -0.1270 C.3   1 <1>  -0.0960 
  7 C        3.3090     2.8780     0.0910 C.ar  1 <1>  -0.1500 
  8 C        0.8550     3.4510     0.1490 C.3   1 <1>  -0.0960 
  9 C        4.3570     1.9730     0.0300 C.ar  1 <1>   0.0830 
 10 O        5.6090     2.4960     0.0440 O.3   1 <1>  -0.3630 
 11 C        6.7490     1.6800    -0.0130 C.3   1 <1>   0.1200 
 12 C        7.9640     2.6070     0.0230 C.3   1 <1>  -0.1600 
 13 C        9.2630     1.8120    -0.0350 C.3   1 <1>   0.3430 
 14 N       10.4030     2.7580     0.0030 N.4   1 <1>  -0.9060 
 15 C       11.7180     2.0760    -0.0480 C.3   1 <1>   0.3430 
 16 C       12.8220     3.1280    -0.0040 C.3   1 <1>  -0.1600 
 17 C       14.2060     2.4670    -0.0550 C.3   1 <1>  -0.1600 
 18 C       15.3160     3.5200    -0.0110 C.3   1 <1>  -0.2400 
 19 H        4.8830    -0.1110    -0.0880 H     1 <1>   0.1500 
 20 H        1.9080    -1.5560    -1.0070 H     1 <1>   0.0800 
 21 H        1.9280    -1.6500     0.7380 H     1 <1>   0.0800 
 22 H        3.3950    -1.9150    -0.1680 H     1 <1>   0.0800 
 23 H        3.5360     3.9270     0.1440 H     1 <1>   0.1500 
 24 H        0.2540     3.2680     1.0220 H     1 <1>   0.0800 
 25 H        0.2340     3.3620    -0.7240 H     1 <1>   0.0800 
 26 H        1.2310     4.4570     0.1990 H     1 <1>   0.0800 
 27 H        6.7120     1.1150    -0.9300 H     1 <1>   0.0800 
 28 H        6.7320     1.0200     0.8380 H     1 <1>   0.0800 
 29 H        7.9260     3.1780     0.9340 H     1 <1>   0.0800 
 30 H        7.9060     3.2730    -0.8210 H     1 <1>   0.0800 
 31 H        9.2940     1.2320    -0.9440 H     1 <1>   0.0800 
 32 H        9.3140     1.1380     0.8060 H     1 <1>   0.0800 
 33 H       10.3510     3.3260     0.8590 H     1 <1>   0.4500 
 34 H       10.3320     3.4150    -0.7850 H     1 <1>   0.4500 
 35 H       11.8030     1.5010    -0.9570 H     1 <1>   0.0800 
 36 H       11.8230     1.4070     0.7910 H     1 <1>   0.0800 
 37 H       12.7460     3.7000     0.9050 H     1 <1>   0.0800 
 38 H       12.7260     3.7940    -0.8450 H     1 <1>   0.0800 
 39 H       14.3090     1.8920    -0.9610 H     1 <1>   0.0800 
 40 H       14.3290     1.7980     0.7810 H     1 <1>   0.0800 
 41 H       15.2430     4.1900    -0.8510 H     1 <1>   0.0800 
 42 H       16.2790     3.0400    -0.0480 H     1 <1>   0.0800 
 43 H       15.2620     4.0960     0.8960 H     1 <1>   0.0800 
@<TRIPOS>BOND
  1   1   2  1   
  2   2   3  ar  
  3   2   4  ar  
  4   3   5  ar  
  5   3   6  1   
  6   4   7  ar  
  7   4   8  1   
  8   5   9  ar  
  9   5  19  1   
 10   6  20  1   
 11   6  21  1   
 12   6  22  1   
 13   7   9  ar  
 14   7  23  1   
 15   8  24  1   
 16   8  25  1   
 17   8  26  1   
 18   9  10  1   
 19  10  11  1   
 20  11  12  1   
 21  11  27  1   
 22  11  28  1   
 23  12  13  1   
 24  12  29  1   
 25  12  30  1   
 26  13  14  1   
 27  13  31  1   
 28  13  32  1   
 29  14  15  1   
 30  14  33  1   
 31  14  34  1   
 32  15  16  1   
 33  15  35  1   
 34  15  36  1   
 35  16  17  1   
 36  16  37  1   
 37  16  38  1   
 38  17  18  1   
 39  17  39  1   
 40  17  40  1   
 41  18  41  1   
 42  18  42  1   
 43  18  43  1   
@<TRIPOS>SUBSTRUCTURE
  1 ****  11 GROUP 4 **** **** 0

# MOE 2024.06 (io_trps.svl 2023.06)
