@<TRIPOS>MOLECULE
NONAME
49 51 1 0 0 
SMALL
USER_CHARGES


@<TRIPOS>ATOM
  1 P        0.2500     0.1600     0.7960 P.3   1 <1>   1.2420 
  2 O        0.0430     1.0100     1.9710 O.2   1 <1>  -0.7000 
  3 O       -0.1610     0.9140    -0.5640 O.3   1 <1>  -0.5510 
  4 O       -0.7710    -1.0880     0.7640 O.3   1 <1>  -0.5510 
  5 C        1.9200    -0.5120     0.4860 C.3   1 <1>   0.4330 
  6 C       -1.5070     1.0200    -0.8320 C.3   1 <1>   0.2000 
  7 C       -1.2900    -1.5230    -0.4440 C.3   1 <1>   0.1200 
  8 N        2.5090    -1.5030     1.4550 N.pl3 1 <1>  -0.8690 
  9 C        3.0080     0.5480     0.3250 C.ar  1 <1>  -0.1440 
 10 C       -2.0750    -0.3840    -1.1140 C.3   1 <1>  -0.1600 
 11 C       -1.6710     1.9700    -2.0150 C.3   1 <1>  -0.2400 
 12 C        2.6300    -2.8040     1.0000 C.ar  1 <1>   0.1000 
 13 C        3.7900     0.5810    -0.8230 C.ar  1 <1>  -0.1500 
 14 C        3.2430     1.4800     1.3270 C.ar  1 <1>  -0.1500 
 15 C        1.5280    -3.6490     0.9790 C.ar  1 <1>  -0.1500 
 16 C        3.8530    -3.2790     0.5450 C.ar  1 <1>  -0.1500 
 17 C        4.7850     1.5320    -0.9720 C.ar  1 <1>  -0.1500 
 18 C        4.2370     2.4310     1.1790 C.ar  1 <1>  -0.1500 
 19 C        1.6400    -4.9400     0.4980 C.ar  1 <1>  -0.1500 
 20 C        3.9690    -4.5710     0.0640 C.ar  1 <1>  -0.1500 
 21 C        5.0130     2.4670     0.0330 C.ar  1 <1>   0.0830 
 22 C        2.8620    -5.4030     0.0370 C.ar  1 <1>  -0.1500 
 23 O        5.9650     3.4310    -0.0310 O.3   1 <1>  -0.3630 
 24 C        6.7750     3.5890    -1.1710 C.3   1 <1>   0.1200 
 25 C        7.7080     4.7710    -0.9270 C.3   1 <1>  -0.2400 
 26 H        1.8610    -1.0220    -0.4570 H     1 <1>   0.0800 
 27 H       -1.9800     1.4430     0.0410 H     1 <1>   0.0800 
 28 H       -1.9270    -2.3700    -0.2520 H     1 <1>   0.0800 
 29 H       -0.4680    -1.8370    -1.0660 H     1 <1>   0.0800 
 30 H        3.3920    -1.1090     1.7990 H     1 <1>   0.4000 
 31 H       -2.1000    -0.5690    -2.1730 H     1 <1>   0.0800 
 32 H       -3.0950    -0.4110    -0.7760 H     1 <1>   0.0800 
 33 H       -1.1560     1.5910    -2.8790 H     1 <1>   0.0800 
 34 H       -1.2730     2.9370    -1.7610 H     1 <1>   0.0800 
 35 H       -2.7120     2.0840    -2.2530 H     1 <1>   0.0800 
 36 H        3.6320    -0.1360    -1.6100 H     1 <1>   0.1500 
 37 H        2.6540     1.4760     2.2310 H     1 <1>   0.1500 
 38 H        0.5870    -3.2890     1.3540 H     1 <1>   0.1500 
 39 H        4.7120    -2.6340     0.5670 H     1 <1>   0.1500 
 40 H        5.3690     1.5300    -1.8730 H     1 <1>   0.1500 
 41 H        4.4150     3.1540     1.9540 H     1 <1>   0.1500 
 42 H        0.7810    -5.5870     0.4870 H     1 <1>   0.1500 
 43 H        4.9200    -4.9310    -0.2880 H     1 <1>   0.1500 
 44 H        2.9520    -6.4080    -0.3360 H     1 <1>   0.1500 
 45 H        6.1380     3.7760    -2.0190 H     1 <1>   0.0800 
 46 H        7.3380     2.6830    -1.3180 H     1 <1>   0.0800 
 47 H        7.1340     5.6660    -0.7650 H     1 <1>   0.0800 
 48 H        8.3420     4.9190    -1.7830 H     1 <1>   0.0800 
 49 H        8.3280     4.5800    -0.0690 H     1 <1>   0.0800 
@<TRIPOS>BOND
  1   1   2  2   
  2   1   3  1   
  3   1   4  1   
  4   1   5  1   
  5   3   6  1   
  6   4   7  1   
  7   5   8  1   
  8   5   9  1   
  9   5  26  1   
 10   6  10  1   
 11   6  11  1   
 12   6  27  1   
 13   7  10  1   
 14   7  28  1   
 15   7  29  1   
 16   8  12  1   
 17   8  30  1   
 18   9  13  ar  
 19   9  14  ar  
 20  10  31  1   
 21  10  32  1   
 22  11  33  1   
 23  11  34  1   
 24  11  35  1   
 25  12  15  ar  
 26  12  16  ar  
 27  13  17  ar  
 28  13  36  1   
 29  14  18  ar  
 30  14  37  1   
 31  15  19  ar  
 32  15  38  1   
 33  16  20  ar  
 34  16  39  1   
 35  17  21  ar  
 36  17  40  1   
 37  18  21  ar  
 38  18  41  1   
 39  19  22  ar  
 40  19  42  1   
 41  20  22  ar  
 42  20  43  1   
 43  21  23  1   
 44  22  44  1   
 45  23  24  1   
 46  24  25  1   
 47  24  45  1   
 48  24  46  1   
 49  25  47  1   
 50  25  48  1   
 51  25  49  1   
@<TRIPOS>SUBSTRUCTURE
  1 ****   5 GROUP 4 **** **** 0

# MOE 2024.06 (io_trps.svl 2023.06)
