@<TRIPOS>MOLECULE
NONAME
42 44 1 0 0 
SMALL
USER_CHARGES


@<TRIPOS>ATOM
  1 O       -0.6170    -0.2550     0.1820 O.3   1 <1>  -0.3630 
  2 C       -1.8350    -0.8170    -0.0160 C.ar  1 <1>   0.0830 
  3 C        0.3350    -0.8370     1.0450 C.3   1 <1>   0.0400 
  4 C       -2.2880    -1.9460     0.6590 C.ar  1 <1>  -0.1500 
  5 C       -2.6540    -0.2100    -0.9520 C.ar  1 <1>  -0.1500 
  6 C       -3.5500    -2.4500     0.3970 C.ar  1 <1>  -0.1500 
  7 C       -3.9140    -0.7140    -1.2160 C.ar  1 <1>  -0.1500 
  8 C       -4.3740    -1.8340    -0.5360 C.ar  1 <1>  -0.1430 
  9 C       -5.7650    -2.3710    -0.8100 C.3   1 <1>   0.4860 
 10 N       -6.6620    -1.9520     0.2990 N.4   1 <1>  -0.9590 
 11 C       -8.0160    -2.6180     0.1900 C.3   1 <1>   0.3430 
 12 C       -6.7810    -0.4420     0.3710 C.3   1 <1>   0.3430 
 13 C       -8.9990    -2.1360     1.2760 C.3   1 <1>   0.2090 
 14 C       -7.7870     0.0360     1.4400 C.3   1 <1>   0.2090 
 15 N       -9.0950    -0.6490     1.2370 N.pl3 1 <1>  -0.8380 
 16 C      -10.0480    -0.0320     0.4590 C.ar  1 <1>   0.7200 
 17 N      -10.6040    -0.7670    -0.5030 N.ar  1 <1>  -0.6200 
 18 N      -10.2870     1.2470     0.7180 N.ar  1 <1>  -0.6200 
 19 C      -11.5200    -0.1630    -1.2260 C.ar  1 <1>   0.1600 
 20 C      -11.2060     1.8230    -0.0200 C.ar  1 <1>   0.1600 
 21 C      -11.8650     1.1500    -1.0190 C.ar  1 <1>  -0.1500 
 22 H        1.2250    -0.2350     1.0130 H     1 <1>   0.0800 
 23 H        0.5560    -1.8330     0.7030 H     1 <1>   0.0800 
 24 H       -0.0610    -0.8500     2.0450 H     1 <1>   0.0800 
 25 H       -1.6690    -2.4410     1.3840 H     1 <1>   0.1500 
 26 H       -2.2910     0.6580    -1.4730 H     1 <1>   0.1500 
 27 H       -3.8740    -3.3290     0.9280 H     1 <1>   0.1500 
 28 H       -4.5220    -0.2230    -1.9570 H     1 <1>   0.1500 
 29 H       -5.7240    -3.4470    -0.8710 H     1 <1>   0.0800 
 30 H       -6.1290    -1.9890    -1.7500 H     1 <1>   0.0800 
 31 H       -6.2170    -2.2540     1.1740 H     1 <1>   0.4500 
 32 H       -7.9100    -3.6870     0.2610 H     1 <1>   0.0800 
 33 H       -8.4540    -2.3910    -0.7680 H     1 <1>   0.0800 
 34 H       -7.1110    -0.0630    -0.5820 H     1 <1>   0.0800 
 35 H       -5.8170    -0.0080     0.5810 H     1 <1>   0.0800 
 36 H       -8.6620    -2.4480     2.2490 H     1 <1>   0.0800 
 37 H       -9.9690    -2.5790     1.1160 H     1 <1>   0.0800 
 38 H       -7.8970     1.1050     1.3700 H     1 <1>   0.0800 
 39 H       -7.4150    -0.1840     2.4250 H     1 <1>   0.0800 
 40 H      -12.0090    -0.7270    -2.0020 H     1 <1>   0.1500 
 41 H      -11.4390     2.8570     0.1780 H     1 <1>   0.1500 
 42 H      -12.6180     1.6320    -1.6140 H     1 <1>   0.1500 
@<TRIPOS>BOND
  1   1   2  1   
  2   1   3  1   
  3   2   4  ar  
  4   2   5  ar  
  5   3  22  1   
  6   3  23  1   
  7   3  24  1   
  8   4   6  ar  
  9   4  25  1   
 10   5   7  ar  
 11   5  26  1   
 12   6   8  ar  
 13   6  27  1   
 14   7   8  ar  
 15   7  28  1   
 16   8   9  1   
 17   9  10  1   
 18   9  29  1   
 19   9  30  1   
 20  10  11  1   
 21  10  12  1   
 22  10  31  1   
 23  11  13  1   
 24  11  32  1   
 25  11  33  1   
 26  12  14  1   
 27  12  34  1   
 28  12  35  1   
 29  13  15  1   
 30  13  36  1   
 31  13  37  1   
 32  14  15  1   
 33  14  38  1   
 34  14  39  1   
 35  15  16  1   
 36  16  17  ar  
 37  16  18  ar  
 38  17  19  ar  
 39  18  20  ar  
 40  19  21  ar  
 41  19  40  1   
 42  20  21  ar  
 43  20  41  1   
 44  21  42  1   
@<TRIPOS>SUBSTRUCTURE
  1 ****  12 GROUP 4 **** **** 0

# MOE 2024.06 (io_trps.svl 2023.06)
