@<TRIPOS>MOLECULE
NONAME
41 43 1 0 0 
SMALL
USER_CHARGES


@<TRIPOS>ATOM
  1 O       -0.3620     1.1820    -1.7400 O.2   1 <1>  -0.5700 
  2 C       -0.2600     2.0660    -0.9210 C.2   1 <1>   0.5690 
  3 N       -1.2880     2.5890    -0.1850 N.am  1 <1>  -0.2370 
  4 C        1.0620     2.8020    -0.6420 C.3   1 <1>   0.2510 
  5 C       -2.6090     2.0810    -0.1610 C.ar  1 <1>   0.1170 
  6 C       -0.8490     3.6980     0.4850 C.2   1 <1>   0.5690 
  7 N        2.1080     2.0360     0.1000 N.3   1 <1>  -0.8100 
  8 C        0.6040     3.9890     0.2160 C.3   1 <1>  -0.0990 
  9 C       -3.7060     2.9260    -0.3010 C.ar  1 <1>  -0.1500 
 10 C       -2.8420     0.7180    -0.0010 C.ar  1 <1>  -0.1500 
 11 O       -1.5060     4.4120     1.1980 O.2   1 <1>  -0.5700 
 12 C        3.4050     2.7560     0.1030 C.3   1 <1>   0.1100 
 13 C        2.3230     0.6790    -0.4620 C.3   1 <1>   0.1100 
 14 C       -4.9970     2.4280    -0.2840 C.ar  1 <1>  -0.1500 
 15 C       -4.1300     0.2150     0.0180 C.ar  1 <1>  -0.1500 
 16 C        4.4960     1.9480     0.8270 C.3   1 <1>   0.1200 
 17 C        3.4620    -0.0640     0.2590 C.3   1 <1>   0.1200 
 18 C       -5.2160     1.0650    -0.1190 C.ar  1 <1>   0.0830 
 19 O        4.6380     0.6920     0.2350 O.3   1 <1>  -0.5600 
 20 O       -6.4540     0.5000    -0.1030 O.3   1 <1>  -0.2320 
 21 C       -7.6090     1.0400     0.2820 C.2   1 <1>   0.6590 
 22 O       -7.7210     2.1410     0.7500 O.2   1 <1>  -0.5700 
 23 C       -8.8180     0.1570     0.0960 C.3   1 <1>  -0.1790 
 24 H        1.4600     3.1430    -1.5820 H     1 <1>   0.0800 
 25 H        0.6830     4.9120    -0.3280 H     1 <1>   0.0800 
 26 H        1.1270     4.0610     1.1510 H     1 <1>   0.0800 
 27 H       -3.5540     3.9840    -0.4220 H     1 <1>   0.1500 
 28 H       -2.0100     0.0450     0.1040 H     1 <1>   0.1500 
 29 H        3.3010     3.7050     0.5980 H     1 <1>   0.0800 
 30 H        3.7290     2.9390    -0.9080 H     1 <1>   0.0800 
 31 H        2.5550     0.7440    -1.5110 H     1 <1>   0.0800 
 32 H        1.4280     0.0920    -0.3530 H     1 <1>   0.0800 
 33 H       -5.8200     3.1100    -0.4020 H     1 <1>   0.1500 
 34 H       -4.2960    -0.8400     0.1390 H     1 <1>   0.1500 
 35 H        4.2450     1.8160     1.8650 H     1 <1>   0.0800 
 36 H        5.4430     2.4520     0.7580 H     1 <1>   0.0800 
 37 H        3.6630    -1.0000    -0.2290 H     1 <1>   0.0800 
 38 H        3.1970    -0.2560     1.2850 H     1 <1>   0.0800 
 39 H       -8.9250    -0.0930    -0.9420 H     1 <1>   0.0800 
 40 H       -9.6990     0.6730     0.4290 H     1 <1>   0.0800 
 41 H       -8.6970    -0.7430     0.6700 H     1 <1>   0.0800 
@<TRIPOS>BOND
  1   1   2  2   
  2   2   3  am  
  3   2   4  1   
  4   3   5  1   
  5   3   6  am  
  6   4   7  1   
  7   4   8  1   
  8   4  24  1   
  9   5   9  ar  
 10   5  10  ar  
 11   6   8  1   
 12   6  11  2   
 13   7  12  1   
 14   7  13  1   
 15   8  25  1   
 16   8  26  1   
 17   9  14  ar  
 18   9  27  1   
 19  10  15  ar  
 20  10  28  1   
 21  12  16  1   
 22  12  29  1   
 23  12  30  1   
 24  13  17  1   
 25  13  31  1   
 26  13  32  1   
 27  14  18  ar  
 28  14  33  1   
 29  15  18  ar  
 30  15  34  1   
 31  16  19  1   
 32  16  35  1   
 33  16  36  1   
 34  17  19  1   
 35  17  37  1   
 36  17  38  1   
 37  18  20  1   
 38  20  21  1   
 39  21  22  2   
 40  21  23  1   
 41  23  39  1   
 42  23  40  1   
 43  23  41  1   
@<TRIPOS>SUBSTRUCTURE
  1 ****   3 GROUP 4 **** **** 0

# MOE 2024.06 (io_trps.svl 2023.06)
