@<TRIPOS>MOLECULE
NONAME
44 45 1 0 0 
SMALL
USER_CHARGES


@<TRIPOS>ATOM
  1 O        0.3400    -0.3040    -0.1640 O.3   1 <1>  -0.3630 
  2 C       -0.9020    -0.8470    -0.1040 C.ar  1 <1>   0.0830 
  3 C        1.4940    -1.0970    -0.0110 C.3   1 <1>   0.1200 
  4 C       -1.9690     0.0210    -0.2670 C.ar  1 <1>  -0.1500 
  5 C       -1.1480    -2.2010     0.1090 C.ar  1 <1>  -0.1500 
  6 C        2.7160    -0.1850    -0.1320 C.3   1 <1>  -0.1600 
  7 C       -3.2720    -0.4430    -0.2200 C.ar  1 <1>  -0.1440 
  8 C       -2.4490    -2.6750     0.1570 C.ar  1 <1>  -0.1430 
  9 C        4.0210    -0.9770     0.0250 C.3   1 <1>  -0.1600 
 10 C       -3.5050    -1.7920    -0.0060 C.ar  1 <1>  -0.1500 
 11 C       -4.4400     0.5100    -0.3960 C.3   1 <1>  -0.0970 
 12 C       -2.7250    -4.1490     0.3900 C.3   1 <1>  -0.0970 
 13 C        5.2410    -0.0560    -0.1000 C.3   1 <1>  -0.1600 
 14 C        6.5480    -0.8450     0.0550 C.3   1 <1>  -0.1600 
 15 C        7.7690     0.0730    -0.0760 C.3   1 <1>   0.0960 
 16 N        9.0150    -0.7030     0.0740 N.pl3 1 <1>   0.0480 
 17 C        9.7630    -0.8660     1.1880 C.2   1 <1>   0.0360 
 18 C        9.6600    -1.4070    -0.8740 C.2   1 <1>  -0.3020 
 19 N       10.8110    -1.6060     1.0170 N.2   1 <1>  -0.5650 
 20 C       10.7470    -1.9480    -0.2830 C.2   1 <1>   0.0770 
 21 H        1.4960    -1.8430    -0.7870 H     1 <1>   0.0800 
 22 H        1.4580    -1.5620     0.9580 H     1 <1>   0.0800 
 23 H       -1.7630     1.0630    -0.4290 H     1 <1>   0.1500 
 24 H       -0.3400    -2.8940     0.2400 H     1 <1>   0.1500 
 25 H        2.6600     0.5720     0.6310 H     1 <1>   0.0800 
 26 H        2.6980     0.2930    -1.0960 H     1 <1>   0.0800 
 27 H        4.0690    -1.7410    -0.7330 H     1 <1>   0.0800 
 28 H        4.0330    -1.4590     0.9880 H     1 <1>   0.0800 
 29 H       -4.5160    -2.1560     0.0340 H     1 <1>   0.1500 
 30 H       -4.1080     1.4490    -0.8020 H     1 <1>   0.0800 
 31 H       -4.9080     0.6910     0.5550 H     1 <1>   0.0800 
 32 H       -5.1650     0.0860    -1.0670 H     1 <1>   0.0800 
 33 H       -1.8770    -4.7450     0.1030 H     1 <1>   0.0800 
 34 H       -3.5730    -4.4650    -0.1890 H     1 <1>   0.0800 
 35 H       -2.9320    -4.3190     1.4320 H     1 <1>   0.0800 
 36 H        5.1890     0.7080     0.6580 H     1 <1>   0.0800 
 37 H        5.2240     0.4270    -1.0630 H     1 <1>   0.0800 
 38 H        6.5950    -1.6080    -0.7040 H     1 <1>   0.0800 
 39 H        6.5650    -1.3220     1.0200 H     1 <1>   0.0800 
 40 H        7.7440     0.8360     0.6810 H     1 <1>   0.0800 
 41 H        7.7760     0.5480    -1.0410 H     1 <1>   0.0800 
 42 H        9.4940    -0.4140     2.1260 H     1 <1>   0.1500 
 43 H        9.3220    -1.4840    -1.8910 H     1 <1>   0.1500 
 44 H       11.5000    -2.5750    -0.7310 H     1 <1>   0.1500 
@<TRIPOS>BOND
  1   1   2  1   
  2   1   3  1   
  3   2   4  ar  
  4   2   5  ar  
  5   3   6  1   
  6   3  21  1   
  7   3  22  1   
  8   4   7  ar  
  9   4  23  1   
 10   5   8  ar  
 11   5  24  1   
 12   6   9  1   
 13   6  25  1   
 14   6  26  1   
 15   7  10  ar  
 16   7  11  1   
 17   8  10  ar  
 18   8  12  1   
 19   9  13  1   
 20   9  27  1   
 21   9  28  1   
 22  10  29  1   
 23  11  30  1   
 24  11  31  1   
 25  11  32  1   
 26  12  33  1   
 27  12  34  1   
 28  12  35  1   
 29  13  14  1   
 30  13  36  1   
 31  13  37  1   
 32  14  15  1   
 33  14  38  1   
 34  14  39  1   
 35  15  16  1   
 36  15  40  1   
 37  15  41  1   
 38  16  17  1   
 39  16  18  1   
 40  17  19  2   
 41  17  42  1   
 42  18  20  2   
 43  18  43  1   
 44  19  20  1   
 45  20  44  1   
@<TRIPOS>SUBSTRUCTURE
  1 ****   6 GROUP 4 **** **** 0

# MOE 2024.06 (io_trps.svl 2023.06)
