@<TRIPOS>MOLECULE
NONAME
50 51 1 0 0 
SMALL
USER_CHARGES


@<TRIPOS>ATOM
  1 S        0.0010     0.6770    -1.5140 S.o2  1 <1>   1.3330 
  2 O        1.1470    -0.1280    -1.8670 O.2   1 <1>  -0.6500 
  3 O       -1.3220     0.1080    -1.5190 O.2   1 <1>  -0.6500 
  4 N        0.3140     1.2400     0.0880 N.am  1 <1>  -0.6930 
  5 C        0.0480     2.1740    -2.4760 C.3   1 <1>  -0.1350 
  6 C       -0.4370     2.2710     0.6420 C.ar  1 <1>   0.1990 
  7 C        0.9630     0.2630     1.0190 C.3   1 <1>   0.2570 
  8 C        0.1050     3.5420     0.8630 C.ar  1 <1>  -0.1440 
  9 C       -1.7670     2.0370     0.9730 C.ar  1 <1>  -0.1500 
 10 C        2.4790     0.4380     1.1250 C.2   1 <1>   0.5690 
 11 C       -0.6930     4.5370     1.4040 C.ar  1 <1>  -0.1500 
 12 C        1.5550     3.8910     0.5270 C.3   1 <1>  -0.0170 
 13 C       -2.5540     3.0360     1.5130 C.ar  1 <1>  -0.1500 
 14 O        2.9870     0.4080     2.2210 O.2   1 <1>  -0.5700 
 15 N        3.1850     0.6400    -0.0280 N.am  1 <1>  -0.5470 
 16 C       -2.0160     4.2900     1.7290 C.ar  1 <1>  -0.1500 
 17 C        2.4140     3.9570     1.7930 C.3   1 <1>  -0.2400 
 18 C        4.4400     1.2210    -0.2740 C.ar  1 <1>   0.1170 
 19 C        4.6710     1.8000    -1.5250 C.ar  1 <1>   0.0830 
 20 C        5.4630     1.2530     0.6660 C.ar  1 <1>  -0.1500 
 21 O        3.6940     1.7920    -2.4660 O.3   1 <1>  -0.3620 
 22 C        5.8820     2.4030    -1.8150 C.ar  1 <1>  -0.1500 
 23 C        6.6800     1.8520     0.3800 C.ar  1 <1>  -0.1430 
 24 C        3.7950     0.7660    -3.4290 C.3   1 <1>   0.0400 
 25 C        6.8870     2.4280    -0.8630 C.ar  1 <1>  -0.1500 
 26 C        7.7820     1.8770     1.4240 C.3   1 <1>  -0.0970 
 27 H       -0.1180     1.9510    -3.5110 H     1 <1>   0.0800 
 28 H        1.0040     2.6490    -2.3760 H     1 <1>   0.0800 
 29 H       -0.7130     2.8530    -2.1440 H     1 <1>   0.0800 
 30 H        0.7520    -0.7410     0.6980 H     1 <1>   0.0800 
 31 H        0.5450     0.3850     2.0030 H     1 <1>   0.0800 
 32 H       -2.1890     1.0620     0.8020 H     1 <1>   0.1500 
 33 H       -0.2850     5.5180     1.5790 H     1 <1>   0.1500 
 34 H        1.5850     4.8460     0.0330 H     1 <1>   0.0800 
 35 H        1.9830     3.1770    -0.1520 H     1 <1>   0.0800 
 36 H       -3.5820     2.8390     1.7630 H     1 <1>   0.1500 
 37 H        2.6290     0.5220    -0.8850 H     1 <1>   0.3700 
 38 H       -2.6230     5.0730     2.1490 H     1 <1>   0.1500 
 39 H        2.3550     3.0310     2.3340 H     1 <1>   0.0800 
 40 H        2.0770     4.7500     2.4360 H     1 <1>   0.0800 
 41 H        3.4420     4.1340     1.5310 H     1 <1>   0.0800 
 42 H        5.3090     0.8030     1.6290 H     1 <1>   0.1500 
 43 H        6.0350     2.8540    -2.7780 H     1 <1>   0.1500 
 44 H        2.9540     0.8410    -4.0940 H     1 <1>   0.0800 
 45 H        3.7800    -0.1860    -2.9270 H     1 <1>   0.0800 
 46 H        4.7140     0.8870    -3.9760 H     1 <1>   0.0800 
 47 H        7.8280     2.8960    -1.0930 H     1 <1>   0.1500 
 48 H        7.3670     1.8010     2.4130 H     1 <1>   0.0800 
 49 H        8.3370     2.7950     1.3600 H     1 <1>   0.0800 
 50 H        8.4520     1.0510     1.2650 H     1 <1>   0.0800 
@<TRIPOS>BOND
  1   1   2  2   
  2   1   3  2   
  3   1   4  am  
  4   1   5  1   
  5   4   6  1   
  6   4   7  1   
  7   5  27  1   
  8   5  28  1   
  9   5  29  1   
 10   6   8  ar  
 11   6   9  ar  
 12   7  10  1   
 13   7  30  1   
 14   7  31  1   
 15   8  11  ar  
 16   8  12  1   
 17   9  13  ar  
 18   9  32  1   
 19  10  14  2   
 20  10  15  am  
 21  11  16  ar  
 22  11  33  1   
 23  12  17  1   
 24  12  34  1   
 25  12  35  1   
 26  13  16  ar  
 27  13  36  1   
 28  15  18  1   
 29  15  37  1   
 30  16  38  1   
 31  17  39  1   
 32  17  40  1   
 33  17  41  1   
 34  18  19  ar  
 35  18  20  ar  
 36  19  21  1   
 37  19  22  ar  
 38  20  23  ar  
 39  20  42  1   
 40  21  24  1   
 41  22  25  ar  
 42  22  43  1   
 43  23  25  ar  
 44  23  26  1   
 45  24  44  1   
 46  24  45  1   
 47  24  46  1   
 48  25  47  1   
 49  26  48  1   
 50  26  49  1   
 51  26  50  1   
@<TRIPOS>SUBSTRUCTURE
  1 ****  15 GROUP 4 **** **** 0

# MOE 2024.06 (io_trps.svl 2023.06)
