@<TRIPOS>MOLECULE
NONAME
45 47 1 0 0 
SMALL
USER_CHARGES


@<TRIPOS>ATOM
  1 CL       3.1230     2.2440    -2.2740 Cl    1 <1>  -0.1770 
  2 C        1.7370     2.6170    -1.2810 C.ar  1 <1>   0.1770 
  3 C        1.7980     2.4400     0.1020 C.ar  1 <1>   0.0860 
  4 C        0.6000     3.0830    -1.9130 C.ar  1 <1>  -0.1500 
  5 C        2.9930     1.9620     0.7540 C.2   1 <1>   0.5440 
  6 C        0.6510     2.7370     0.8420 C.ar  1 <1>  -0.1500 
  7 C       -0.5110     3.3750    -1.1470 C.ar  1 <1>   0.1770 
  8 O        3.0130     0.8180     1.1650 O.2   1 <1>  -0.5700 
  9 N        4.0920     2.7730     0.9560 N.am  1 <1>  -0.6600 
 10 C       -0.4980     3.2050     0.2250 C.ar  1 <1>  -0.1500 
 11 CL      -1.9540     3.9680    -1.9230 Cl    1 <1>  -0.1770 
 12 C        5.3850     2.2190     1.4440 C.3   1 <1>   0.1400 
 13 C        4.0930     4.2450     0.7280 C.3   1 <1>   0.1400 
 14 C        6.5040     2.5800     0.4630 C.3   1 <1>  -0.1600 
 15 C        5.2100     4.6220    -0.2470 C.3   1 <1>  -0.1600 
 16 C        6.5830     4.0990     0.2240 C.3   1 <1>  -0.0190 
 17 C        7.7150     4.4430    -0.7450 C.2   1 <1>   0.5690 
 18 O        7.4790     4.7030    -1.9000 O.2   1 <1>  -0.5700 
 19 N        8.9850     4.4440    -0.2720 N.am  1 <1>  -0.7300 
 20 C       10.1800     4.6690    -1.1040 C.3   1 <1>   0.2840 
 21 C       11.2920     3.7850    -0.5780 C.ar  1 <1>  -0.1430 
 22 C       11.2980     2.4300    -0.8740 C.ar  1 <1>   0.1600 
 23 C       12.3070     4.3010     0.2030 C.ar  1 <1>  -0.1500 
 24 N       12.2150     1.5680    -0.4630 N.ar  1 <1>  -0.6200 
 25 C       13.2730     3.4180     0.6370 C.ar  1 <1>  -0.1500 
 26 C       13.1810     2.0830     0.2800 C.ar  1 <1>   0.1600 
 27 H        0.5800     3.2140    -2.9790 H     1 <1>   0.1500 
 28 H        0.6710     2.5920     1.9090 H     1 <1>   0.1500 
 29 H       -1.3790     3.4330     0.7990 H     1 <1>   0.1500 
 30 H        5.3310     1.1470     1.5390 H     1 <1>   0.0800 
 31 H        5.5960     2.6270     2.4170 H     1 <1>   0.0800 
 32 H        4.2530     4.7400     1.6710 H     1 <1>   0.0800 
 33 H        3.1480     4.5780     0.3370 H     1 <1>   0.0800 
 34 H        6.3220     2.0750    -0.4700 H     1 <1>   0.0800 
 35 H        7.4400     2.2190     0.8520 H     1 <1>   0.0800 
 36 H        5.2480     5.6920    -0.3500 H     1 <1>   0.0800 
 37 H        4.9790     4.2130    -1.2160 H     1 <1>   0.0800 
 38 H        6.8090     4.5770     1.1600 H     1 <1>   0.0800 
 39 H        9.1820     4.1860     0.6950 H     1 <1>   0.3700 
 40 H       10.4630     5.7060    -1.0500 H     1 <1>   0.0800 
 41 H        9.9670     4.4270    -2.1330 H     1 <1>   0.0800 
 42 H       10.5020     2.0310    -1.4810 H     1 <1>   0.1500 
 43 H       12.3510     5.3450     0.4640 H     1 <1>   0.1500 
 44 H       14.0910     3.7570     1.2450 H     1 <1>   0.1500 
 45 H       13.9420     1.4030     0.6250 H     1 <1>   0.1500 
@<TRIPOS>BOND
  1   1   2  1   
  2   2   3  ar  
  3   2   4  ar  
  4   3   5  1   
  5   3   6  ar  
  6   4   7  ar  
  7   4  27  1   
  8   5   8  2   
  9   5   9  am  
 10   6  10  ar  
 11   6  28  1   
 12   7  10  ar  
 13   7  11  1   
 14   9  12  1   
 15   9  13  1   
 16  10  29  1   
 17  12  14  1   
 18  12  30  1   
 19  12  31  1   
 20  13  15  1   
 21  13  32  1   
 22  13  33  1   
 23  14  16  1   
 24  14  34  1   
 25  14  35  1   
 26  15  16  1   
 27  15  36  1   
 28  15  37  1   
 29  16  17  1   
 30  16  38  1   
 31  17  18  2   
 32  17  19  am  
 33  19  20  1   
 34  19  39  1   
 35  20  21  1   
 36  20  40  1   
 37  20  41  1   
 38  21  22  ar  
 39  21  23  ar  
 40  22  24  ar  
 41  22  42  1   
 42  23  25  ar  
 43  23  43  1   
 44  24  26  ar  
 45  25  26  ar  
 46  25  44  1   
 47  26  45  1   
@<TRIPOS>SUBSTRUCTURE
  1 ****  14 GROUP 4 **** **** 0

# MOE 2024.06 (io_trps.svl 2023.06)
