@<TRIPOS>MOLECULE
NONAME
46 49 1 0 0 
SMALL
USER_CHARGES


@<TRIPOS>ATOM
  1 O        1.5720    -2.2580     2.8160 O.2   1 <1>  -0.5700 
  2 C        1.0830    -2.0000     1.7480 C.2   1 <1>   0.5690 
  3 N       -0.1200    -1.4060     1.6790 N.am  1 <1>  -0.8000 
  4 C        1.8460    -2.3580     0.4750 C.3   1 <1>  -0.0190 
  5 C        2.0960    -3.8770     0.4030 C.3   1 <1>  -0.1600 
  6 C        3.1820    -1.5910     0.4110 C.3   1 <1>  -0.1600 
  7 C        2.9880    -4.2660    -0.7740 C.3   1 <1>   0.3430 
  8 C        4.0510    -2.0310    -0.7650 C.3   1 <1>   0.3430 
  9 N        4.2650    -3.5060    -0.6980 N.4   1 <1>  -0.9590 
 10 C        5.2450    -3.9720    -1.7180 C.3   1 <1>   0.4860 
 11 C        6.5820    -3.3150    -1.4430 C.ar  1 <1>  -0.1440 
 12 C        7.3470    -3.7120    -0.3510 C.ar  1 <1>  -0.1500 
 13 C        7.0470    -2.3050    -2.2800 C.ar  1 <1>  -0.1500 
 14 C        8.5520    -3.0810    -0.1090 C.ar  1 <1>  -0.1440 
 15 C        8.2560    -1.6810    -2.0280 C.ar  1 <1>  -0.1500 
 16 C        9.0110    -2.0690    -0.9310 C.ar  1 <1>   0.0000 
 17 C        9.5500    -3.3390     1.0130 C.3   1 <1>   0.1270 
 18 C       10.2750    -1.5970    -0.4440 C.ar  1 <1>   0.0000 
 19 C       10.6210    -2.3110     0.6890 C.ar  1 <1>  -0.1440 
 20 C       11.1220    -0.6030    -0.9160 C.ar  1 <1>  -0.1500 
 21 C       11.7990    -2.0550     1.3660 C.ar  1 <1>  -0.1500 
 22 C       12.3040    -0.3390    -0.2440 C.ar  1 <1>  -0.1500 
 23 C       12.6420    -1.0610     0.8920 C.ar  1 <1>  -0.1500 
 24 H       -0.6050    -1.1790     2.5510 H     1 <1>   0.3700 
 25 H       -0.6090    -1.1490     0.8230 H     1 <1>   0.3700 
 26 H        1.2470    -2.0700    -0.3720 H     1 <1>   0.0800 
 27 H        1.1530    -4.3890     0.3160 H     1 <1>   0.0800 
 28 H        2.5560    -4.2160     1.3160 H     1 <1>   0.0800 
 29 H        3.7330    -1.7370     1.3250 H     1 <1>   0.0800 
 30 H        2.9840    -0.5370     0.3280 H     1 <1>   0.0800 
 31 H        2.4830    -4.0440    -1.7000 H     1 <1>   0.0800 
 32 H        3.1840    -5.3260    -0.7370 H     1 <1>   0.0800 
 33 H        4.9980    -1.5150    -0.7160 H     1 <1>   0.0800 
 34 H        3.5700    -1.7700    -1.6930 H     1 <1>   0.0800 
 35 H        4.6940    -3.6890     0.2190 H     1 <1>   0.4500 
 36 H        4.9050    -3.7160    -2.7080 H     1 <1>   0.0800 
 37 H        5.3600    -5.0420    -1.6610 H     1 <1>   0.0800 
 38 H        7.0250    -4.5000     0.3070 H     1 <1>   0.1500 
 39 H        6.4770    -1.9920    -3.1390 H     1 <1>   0.1500 
 40 H        8.6210    -0.9000    -2.6720 H     1 <1>   0.1500 
 41 H        9.9470    -4.3370     0.9600 H     1 <1>   0.0800 
 42 H        9.1150    -3.1500     1.9770 H     1 <1>   0.0800 
 43 H       10.8590    -0.0450    -1.7960 H     1 <1>   0.1500 
 44 H       12.0600    -2.6160     2.2460 H     1 <1>   0.1500 
 45 H       12.9650     0.4300    -0.6040 H     1 <1>   0.1500 
 46 H       13.5620    -0.8490     1.4080 H     1 <1>   0.1500 
@<TRIPOS>BOND
  1   1   2  2   
  2   2   3  am  
  3   2   4  1   
  4   3  24  1   
  5   3  25  1   
  6   4   5  1   
  7   4   6  1   
  8   4  26  1   
  9   5   7  1   
 10   5  27  1   
 11   5  28  1   
 12   6   8  1   
 13   6  29  1   
 14   6  30  1   
 15   7   9  1   
 16   7  31  1   
 17   7  32  1   
 18   8   9  1   
 19   8  33  1   
 20   8  34  1   
 21   9  10  1   
 22   9  35  1   
 23  10  11  1   
 24  10  36  1   
 25  10  37  1   
 26  11  12  ar  
 27  11  13  ar  
 28  12  14  ar  
 29  12  38  1   
 30  13  15  ar  
 31  13  39  1   
 32  14  16  ar  
 33  14  17  1   
 34  15  16  ar  
 35  15  40  1   
 36  16  18  1   
 37  17  19  1   
 38  17  41  1   
 39  17  42  1   
 40  18  19  ar  
 41  18  20  ar  
 42  19  21  ar  
 43  20  22  ar  
 44  20  43  1   
 45  21  23  ar  
 46  21  44  1   
 47  22  23  ar  
 48  22  45  1   
 49  23  46  1   
@<TRIPOS>SUBSTRUCTURE
  1 ****  12 GROUP 4 **** **** 0

# MOE 2024.06 (io_trps.svl 2023.06)
