@<TRIPOS>MOLECULE
NONAME
33 33 1 0 0 
SMALL
USER_CHARGES


@<TRIPOS>ATOM
  1 CL       0.0940     0.0550     0.0940 Cl    1 <1>  -0.1770 
  2 C       -1.4310     0.9070     0.0580 C.ar  1 <1>   0.1770 
  3 C       -2.6100     0.2250    -0.1880 C.ar  1 <1>  -0.1440 
  4 C       -1.4280     2.2690     0.2760 C.ar  1 <1>  -0.1500 
  5 C       -3.7930     0.9470    -0.2030 C.ar  1 <1>  -0.1500 
  6 C       -2.6160    -1.2750    -0.4410 C.3   1 <1>  -0.0960 
  7 C       -2.6180     2.9810     0.2560 C.ar  1 <1>  -0.1430 
  8 C       -3.8310     2.3220     0.0290 C.ar  1 <1>  -0.0090 
  9 C       -2.5570     4.4870     0.4840 C.3   1 <1>  -0.0960 
 10 S       -5.4270     3.2050    -0.0100 S.o2  1 <1>   1.4470 
 11 O       -5.5530     4.1030     1.1130 O.2   1 <1>  -0.6500 
 12 O       -5.6900     3.6830    -1.3480 O.2   1 <1>  -0.6500 
 13 N       -6.5750     2.0320     0.3400 N.am  1 <1>  -0.9140 
 14 C       -7.9030     2.3730    -0.1670 C.3   1 <1>   0.1960 
 15 C       -8.9150     1.3010     0.2400 C.3   1 <1>   0.1200 
 16 O      -10.1790     1.6990    -0.1870 O.3   1 <1>  -0.5600 
 17 C      -11.1870     0.7830     0.0970 C.3   1 <1>   0.0400 
 18 H       -0.4890     2.7610     0.4560 H     1 <1>   0.1500 
 19 H       -4.7140     0.4270    -0.4040 H     1 <1>   0.1500 
 20 H       -2.0130    -1.5050    -1.3010 H     1 <1>   0.0800 
 21 H       -3.6130    -1.6360    -0.6180 H     1 <1>   0.0800 
 22 H       -2.2130    -1.7920     0.4120 H     1 <1>   0.0800 
 23 H       -1.5420     4.8410     0.4660 H     1 <1>   0.0800 
 24 H       -2.9810     4.7360     1.4410 H     1 <1>   0.0800 
 25 H       -3.1010     5.0090    -0.2840 H     1 <1>   0.0800 
 26 H       -6.6290     2.0830     1.3570 H     1 <1>   0.4200 
 27 H       -7.8780     2.4330    -1.2430 H     1 <1>   0.0800 
 28 H       -8.2110     3.3270     0.2280 H     1 <1>   0.0800 
 29 H       -8.9390     1.1920     1.3100 H     1 <1>   0.0800 
 30 H       -8.6710     0.3640    -0.2300 H     1 <1>   0.0800 
 31 H      -12.1160     1.1840    -0.2700 H     1 <1>   0.0800 
 32 H      -11.2500     0.6400     1.1620 H     1 <1>   0.0800 
 33 H      -10.9740    -0.1470    -0.4010 H     1 <1>   0.0800 
@<TRIPOS>BOND
  1   1   2  1   
  2   2   3  ar  
  3   2   4  ar  
  4   3   5  ar  
  5   3   6  1   
  6   4   7  ar  
  7   4  18  1   
  8   5   8  ar  
  9   5  19  1   
 10   6  20  1   
 11   6  21  1   
 12   6  22  1   
 13   7   8  ar  
 14   7   9  1   
 15   8  10  1   
 16   9  23  1   
 17   9  24  1   
 18   9  25  1   
 19  10  11  2   
 20  10  12  2   
 21  10  13  am  
 22  13  14  1   
 23  13  26  1   
 24  14  15  1   
 25  14  27  1   
 26  14  28  1   
 27  15  16  1   
 28  15  29  1   
 29  15  30  1   
 30  16  17  1   
 31  17  31  1   
 32  17  32  1   
 33  17  33  1   
@<TRIPOS>SUBSTRUCTURE
  1 ****   8 GROUP 4 **** **** 0

# MOE 2024.06 (io_trps.svl 2023.06)
