@<TRIPOS>MOLECULE
NONAME
27 27 1 0 0 
SMALL
USER_CHARGES


@<TRIPOS>ATOM
  1 P        0.1130     0.0430     0.1230 P.3   1 <1>   1.0390 
  2 O        1.0140    -0.0060    -1.0690 O.co2 1 <1>  -0.9500 
  3 O        0.6220    -0.2400     1.5010 O.co2 1 <1>  -0.9500 
  4 C       -0.7500     1.6390     0.1400 C.ar  1 <1>  -0.1390 
  5 C       -1.2660    -1.0660    -0.2090 C.3   1 <1>  -0.1600 
  6 C       -0.9210     2.3890    -1.0180 C.ar  1 <1>  -0.1500 
  7 C       -1.3030     2.1570     1.3050 C.ar  1 <1>  -0.1500 
  8 C       -0.9170    -2.5440    -0.4770 C.3   1 <1>  -0.0800 
  9 C       -1.6120     3.5890    -1.0230 C.ar  1 <1>  -0.1500 
 10 C       -1.9970     3.3550     1.3210 C.ar  1 <1>  -0.1500 
 11 C       -2.1330    -3.2870    -1.0460 C.3   1 <1>  -0.2400 
 12 C       -0.4340    -3.2560     0.7930 C.3   1 <1>  -0.2400 
 13 C       -2.1550     4.0750     0.1510 C.ar  1 <1>  -0.1500 
 14 H       -1.7720    -0.7000    -1.0810 H     1 <1>   0.0800 
 15 H       -1.9740    -1.0220     0.5950 H     1 <1>   0.0800 
 16 H       -0.4880     2.0100    -1.9290 H     1 <1>   0.1500 
 17 H       -1.1700     1.5970     2.2160 H     1 <1>   0.1500 
 18 H       -0.1240    -2.5710    -1.2070 H     1 <1>   0.0800 
 19 H       -1.7190     4.1380    -1.9400 H     1 <1>   0.1500 
 20 H       -2.4080     3.7210     2.2440 H     1 <1>   0.1500 
 21 H       -2.9490    -3.2670    -0.3450 H     1 <1>   0.0800 
 22 H       -1.8790    -4.3110    -1.2540 H     1 <1>   0.0800 
 23 H       -2.4530    -2.8260    -1.9640 H     1 <1>   0.0800 
 24 H       -1.1770    -3.2010     1.5670 H     1 <1>   0.0800 
 25 H        0.4660    -2.7900     1.1550 H     1 <1>   0.0800 
 26 H       -0.2140    -4.2880     0.5880 H     1 <1>   0.0800 
 27 H       -2.6930     5.0060     0.1560 H     1 <1>   0.1500 
@<TRIPOS>BOND
  1   1   2  ar  
  2   1   3  ar  
  3   1   4  1   
  4   1   5  1   
  5   4   6  ar  
  6   4   7  ar  
  7   5   8  1   
  8   5  14  1   
  9   5  15  1   
 10   6   9  ar  
 11   6  16  1   
 12   7  10  ar  
 13   7  17  1   
 14   8  11  1   
 15   8  12  1   
 16   8  18  1   
 17   9  13  ar  
 18   9  19  1   
 19  10  13  ar  
 20  10  20  1   
 21  11  21  1   
 22  11  22  1   
 23  11  23  1   
 24  12  24  1   
 25  12  25  1   
 26  12  26  1   
 27  13  27  1   
@<TRIPOS>SUBSTRUCTURE
  1 ****   4 GROUP 4 **** **** 0

# MOE 2024.06 (io_trps.svl 2023.06)
