@<TRIPOS>MOLECULE
NONAME
30 31 1 0 0 
SMALL
USER_CHARGES


@<TRIPOS>ATOM
  1 S       -0.0040    -0.0760     1.6020 S.o2  1 <1>   1.4470 
  2 O       -0.8380     1.0970     1.4660 O.2   1 <1>  -0.6500 
  3 O        0.5470    -0.4110     2.8920 O.2   1 <1>  -0.6500 
  4 N       -0.9600    -1.4090     1.2540 N.am  1 <1>  -0.9140 
  5 C        1.2970    -0.1220     0.3470 C.ar  1 <1>  -0.0090 
  6 C       -2.2450    -1.1280     0.6370 C.3   1 <1>   0.2760 
  7 C        2.1230     0.9760     0.1550 C.ar  1 <1>   0.1900 
  8 C        1.5410    -1.2400    -0.4470 C.ar  1 <1>  -0.1500 
  9 C       -3.0500    -2.4230     0.6120 C.3   1 <1>  -0.1600 
 10 C       -2.0840    -0.8050    -0.8490 C.3   1 <1>  -0.1600 
 11 F        1.9510     2.0390     0.8910 F     1 <1>  -0.1900 
 12 C        3.1430     1.0140    -0.7840 C.ar  1 <1>  -0.1500 
 13 C        2.5570    -1.2060    -1.3860 C.ar  1 <1>   0.1900 
 14 C       -2.5350    -3.2030    -0.6010 C.3   1 <1>  -0.1600 
 15 C       -2.0050    -2.1510    -1.5810 C.3   1 <1>  -0.1600 
 16 C        3.3650    -0.1000    -1.5750 C.ar  1 <1>  -0.1500 
 17 F        2.7600    -2.2630    -2.1250 F     1 <1>  -0.1900 
 18 H       -1.1460    -1.7910     2.1790 H     1 <1>   0.4200 
 19 H       -2.7740    -0.3550     1.1730 H     1 <1>   0.0800 
 20 H        0.9520    -2.1340    -0.3410 H     1 <1>   0.1500 
 21 H       -4.0850    -2.1770     0.4510 H     1 <1>   0.0800 
 22 H       -2.9700    -2.9820     1.5270 H     1 <1>   0.0800 
 23 H       -1.2440    -0.1700    -1.0600 H     1 <1>   0.0800 
 24 H       -2.9730    -0.2930    -1.1740 H     1 <1>   0.0800 
 25 H        3.7470     1.8990    -0.8880 H     1 <1>   0.1500 
 26 H       -3.3110    -3.8060    -1.0400 H     1 <1>   0.0800 
 27 H       -1.7250    -3.8440    -0.2960 H     1 <1>   0.0800 
 28 H       -0.9860    -2.3770    -1.8430 H     1 <1>   0.0800 
 29 H       -2.5950    -2.1260    -2.4810 H     1 <1>   0.0800 
 30 H        4.1430    -0.1160    -2.3170 H     1 <1>   0.1500 
@<TRIPOS>BOND
  1   1   2  2   
  2   1   3  2   
  3   1   4  am  
  4   1   5  1   
  5   4   6  1   
  6   4  18  1   
  7   5   7  ar  
  8   5   8  ar  
  9   6   9  1   
 10   6  10  1   
 11   6  19  1   
 12   7  11  1   
 13   7  12  ar  
 14   8  13  ar  
 15   8  20  1   
 16   9  14  1   
 17   9  21  1   
 18   9  22  1   
 19  10  15  1   
 20  10  23  1   
 21  10  24  1   
 22  12  16  ar  
 23  12  25  1   
 24  13  16  ar  
 25  13  17  1   
 26  14  15  1   
 27  14  26  1   
 28  14  27  1   
 29  15  28  1   
 30  15  29  1   
 31  16  30  1   
@<TRIPOS>SUBSTRUCTURE
  1 ****   5 GROUP 4 **** **** 0

# MOE 2024.06 (io_trps.svl 2023.06)
