@<TRIPOS>MOLECULE
NONAME
43 45 1 0 0 
SMALL
USER_CHARGES


@<TRIPOS>ATOM
  1 F       -1.9280     0.2490    -2.1040 F     1 <1>  -0.1900 
  2 C       -2.4440     0.9060    -1.0980 C.ar  1 <1>   0.1900 
  3 C       -1.8140     2.0290    -0.5920 C.ar  1 <1>   0.1900 
  4 C       -3.6340     0.4540    -0.5560 C.ar  1 <1>  -0.1500 
  5 F       -0.6910     2.4510    -1.1110 F     1 <1>  -0.1900 
  6 C       -2.3620     2.7230     0.4700 C.ar  1 <1>  -0.1500 
  7 C       -4.2010     1.1510     0.5080 C.ar  1 <1>  -0.1440 
  8 C       -3.5570     2.2780     1.0170 C.ar  1 <1>  -0.1500 
  9 C       -5.5140     0.6830     1.1120 C.3   1 <1>   0.4870 
 10 N       -6.6210     1.0040     0.1710 N.4   1 <1>  -0.9590 
 11 C       -6.7600     2.4930    -0.0560 C.3   1 <1>   0.3430 
 12 C       -7.9310     0.4100     0.6290 C.3   1 <1>   0.3430 
 13 C       -7.8990     2.8450    -1.0370 C.3   1 <1>   0.2090 
 14 C       -9.0930     0.7050    -0.3440 C.3   1 <1>   0.2090 
 15 N       -9.1740     2.1610    -0.6630 N.pl3 1 <1>  -0.8380 
 16 C      -10.2610     2.8910    -0.1880 C.ar  1 <1>   0.1000 
 17 C      -11.5310     2.6290    -0.6870 C.ar  1 <1>  -0.1500 
 18 C      -10.1180     3.8760     0.7810 C.ar  1 <1>  -0.1500 
 19 C      -12.6490     3.3210    -0.2380 C.ar  1 <1>  -0.1430 
 20 C      -11.2170     4.5780     1.2380 C.ar  1 <1>  -0.1500 
 21 C      -12.4760     4.3040     0.7330 C.ar  1 <1>  -0.1500 
 22 C      -14.0410     3.0120    -0.8130 C.3   1 <1>   1.1630 
 23 F      -15.0270     3.3060     0.0270 F     1 <1>  -0.3400 
 24 F      -14.1910     1.7290    -1.1220 F     1 <1>  -0.3400 
 25 F      -14.2830     3.6940    -1.9250 F     1 <1>  -0.3400 
 26 H       -4.0870    -0.4290    -0.9720 H     1 <1>   0.1500 
 27 H       -1.8560     3.5920     0.8580 H     1 <1>   0.1500 
 28 H       -3.9740     2.8220     1.8500 H     1 <1>   0.1500 
 29 H       -5.6770     1.1710     2.0600 H     1 <1>   0.0800 
 30 H       -5.4680    -0.3810     1.2820 H     1 <1>   0.0800 
 31 H       -6.3850     0.5880    -0.7380 H     1 <1>   0.4500 
 32 H       -5.8360     2.8940    -0.4420 H     1 <1>   0.0800 
 33 H       -6.9640     2.9810     0.8810 H     1 <1>   0.0800 
 34 H       -8.1950     0.8190     1.5910 H     1 <1>   0.0800 
 35 H       -7.8340    -0.6580     0.7400 H     1 <1>   0.0800 
 36 H       -7.6230     2.5490    -2.0340 H     1 <1>   0.0800 
 37 H       -8.0480     3.9120    -1.0500 H     1 <1>   0.0800 
 38 H      -10.0180     0.3800     0.1020 H     1 <1>   0.0800 
 39 H       -8.9580     0.1500    -1.2560 H     1 <1>   0.0800 
 40 H      -11.6300     1.8750    -1.4480 H     1 <1>   0.1500 
 41 H       -9.1510     4.0980     1.1860 H     1 <1>   0.1500 
 42 H      -11.0980     5.3410     1.9880 H     1 <1>   0.1500 
 43 H      -13.3190     4.8650     1.1020 H     1 <1>   0.1500 
@<TRIPOS>BOND
  1   1   2  1   
  2   2   3  ar  
  3   2   4  ar  
  4   3   5  1   
  5   3   6  ar  
  6   4   7  ar  
  7   4  26  1   
  8   6   8  ar  
  9   6  27  1   
 10   7   8  ar  
 11   7   9  1   
 12   8  28  1   
 13   9  10  1   
 14   9  29  1   
 15   9  30  1   
 16  10  11  1   
 17  10  12  1   
 18  10  31  1   
 19  11  13  1   
 20  11  32  1   
 21  11  33  1   
 22  12  14  1   
 23  12  34  1   
 24  12  35  1   
 25  13  15  1   
 26  13  36  1   
 27  13  37  1   
 28  14  15  1   
 29  14  38  1   
 30  14  39  1   
 31  15  16  1   
 32  16  17  ar  
 33  16  18  ar  
 34  17  19  ar  
 35  17  40  1   
 36  18  20  ar  
 37  18  41  1   
 38  19  21  ar  
 39  19  22  1   
 40  20  21  ar  
 41  20  42  1   
 42  21  43  1   
 43  22  23  1   
 44  22  24  1   
 45  22  25  1   
@<TRIPOS>SUBSTRUCTURE
  1 ****  13 GROUP 4 **** **** 0

# MOE 2024.06 (io_trps.svl 2023.06)
