@<TRIPOS>MOLECULE
NONAME
32 32 1 0 0 
SMALL
USER_CHARGES


@<TRIPOS>ATOM
  1 O       -0.0550    -0.5490    -0.8810 O.co2 1 <1>  -0.9000 
  2 C       -0.2210    -1.2500     0.1280 C.2   1 <1>   0.9060 
  3 O        0.4240    -1.0300     1.1640 O.co2 1 <1>  -0.9000 
  4 C       -1.3390    -2.2990     0.1890 C.3   1 <1>  -0.1860 
  5 C       -0.7960    -3.7730     0.1760 C.3   1 <1>  -0.1860 
  6 C       -2.4540    -1.9770    -0.8360 C.3   1 <1>  -0.0170 
  7 C       -0.4370    -4.4040    -1.1840 C.2   1 <1>   0.9060 
  8 C       -1.7100    -4.7150     0.9910 C.3   1 <1>  -0.2400 
  9 C       -3.8240    -2.5570    -0.4860 C.ar  1 <1>  -0.1440 
 10 O        0.7290    -4.7740    -1.3810 O.co2 1 <1>  -0.9000 
 11 O       -1.3260    -4.6680    -2.0090 O.co2 1 <1>  -0.9000 
 12 C       -4.5750    -2.0080     0.5410 C.ar  1 <1>  -0.1500 
 13 C       -4.3380    -3.6250    -1.2020 C.ar  1 <1>  -0.1500 
 14 C       -5.8250    -2.5200     0.8460 C.ar  1 <1>  -0.1500 
 15 C       -5.5860    -4.1420    -0.9020 C.ar  1 <1>  -0.1500 
 16 C       -6.3410    -3.5880     0.1280 C.ar  1 <1>   0.0820 
 17 O       -7.5740    -4.0320     0.4860 O.3   1 <1>  -0.3630 
 18 C       -8.1580    -5.1420    -0.1590 C.3   1 <1>   0.0400 
 19 H       -1.7650    -2.1350     1.1590 H     1 <1>   0.0800 
 20 H        0.1340    -3.7420     0.7140 H     1 <1>   0.0800 
 21 H       -2.1440    -2.2900    -1.8170 H     1 <1>   0.0800 
 22 H       -2.5690    -0.9090    -0.8890 H     1 <1>   0.0800 
 23 H       -2.6470    -4.8550     0.4870 H     1 <1>   0.0800 
 24 H       -1.8900    -4.3170     1.9720 H     1 <1>   0.0800 
 25 H       -1.2360    -5.6750     1.0860 H     1 <1>   0.0800 
 26 H       -4.1760    -1.1820     1.1020 H     1 <1>   0.1500 
 27 H       -3.7450    -4.0600    -1.9920 H     1 <1>   0.1500 
 28 H       -6.4040    -2.0940     1.6430 H     1 <1>   0.1500 
 29 H       -5.9390    -4.9730    -1.4800 H     1 <1>   0.1500 
 30 H       -9.1150    -5.3260     0.2940 H     1 <1>   0.0800 
 31 H       -7.5180    -5.9970    -0.0270 H     1 <1>   0.0800 
 32 H       -8.2840    -4.9120    -1.2020 H     1 <1>   0.0800 
@<TRIPOS>BOND
  1   1   2  ar  
  2   2   3  ar  
  3   2   4  1   
  4   4   5  1   
  5   4   6  1   
  6   4  19  1   
  7   5   7  1   
  8   5   8  1   
  9   5  20  1   
 10   6   9  1   
 11   6  21  1   
 12   6  22  1   
 13   7  10  ar  
 14   7  11  ar  
 15   8  23  1   
 16   8  24  1   
 17   8  25  1   
 18   9  12  ar  
 19   9  13  ar  
 20  12  14  ar  
 21  12  26  1   
 22  13  15  ar  
 23  13  27  1   
 24  14  16  ar  
 25  14  28  1   
 26  15  16  ar  
 27  15  29  1   
 28  16  17  1   
 29  17  18  1   
 30  18  30  1   
 31  18  31  1   
 32  18  32  1   
@<TRIPOS>SUBSTRUCTURE
  1 ****   9 GROUP 4 **** **** 0

# MOE 2024.06 (io_trps.svl 2023.06)
