@<TRIPOS>MOLECULE
NONAME
33 34 1 0 0 
SMALL
USER_CHARGES


@<TRIPOS>ATOM
  1 F        0.6060     0.0120    -1.9480 F     1 <1>  -0.3400 
  2 C        1.5490     0.8850    -1.6140 C.3   1 <1>   1.1640 
  3 F        1.9750     1.4200    -2.7520 F     1 <1>  -0.3400 
  4 F        0.9370     1.8580    -0.9510 F     1 <1>  -0.3400 
  5 C        2.6790     0.2510    -0.7880 C.ar  1 <1>  -0.1440 
  6 C        3.9840     0.7210    -0.8870 C.ar  1 <1>  -0.1500 
  7 C        2.4180    -0.8020     0.0850 C.ar  1 <1>  -0.1500 
  8 C        5.0080     0.1590    -0.1430 C.ar  1 <1>   0.0820 
  9 C        3.4360    -1.3700     0.8320 C.ar  1 <1>  -0.1500 
 10 O        6.2440     0.6880    -0.3140 O.3   1 <1>  -0.3630 
 11 C        4.7300    -0.8950     0.7220 C.ar  1 <1>  -0.1500 
 12 C        7.3590     0.1910     0.3960 C.3   1 <1>   0.1200 
 13 C        8.5870     0.9930    -0.0170 C.3   1 <1>   0.1200 
 14 O        9.6990     0.4940     0.6950 O.3   1 <1>  -0.3160 
 15 N       10.8540     1.2080     0.3410 N.am  1 <1>  -0.0840 
 16 C       11.2980     2.3080     1.0140 C.2   1 <1>   0.5690 
 17 C       11.7030     0.8270    -0.6550 C.2   1 <1>   0.5690 
 18 O       10.7450     2.8910     1.9140 O.2   1 <1>  -0.5700 
 19 C       12.6310     2.7530     0.4510 C.3   1 <1>  -0.0990 
 20 O       11.5580    -0.0810    -1.4360 O.2   1 <1>  -0.5700 
 21 C       12.9070     1.7450    -0.6860 C.3   1 <1>  -0.0990 
 22 H        4.2280     1.5360    -1.5460 H     1 <1>   0.1500 
 23 H        1.4170    -1.1880     0.1900 H     1 <1>   0.1500 
 24 H        3.2190    -2.1840     1.5020 H     1 <1>   0.1500 
 25 H        5.4990    -1.3550     1.3130 H     1 <1>   0.1500 
 26 H        7.4870    -0.8460     0.1410 H     1 <1>   0.0800 
 27 H        7.1710     0.3110     1.4480 H     1 <1>   0.0800 
 28 H        8.4570     2.0320     0.2350 H     1 <1>   0.0800 
 29 H        8.7730     0.8740    -1.0710 H     1 <1>   0.0800 
 30 H       13.3850     2.7030     1.2160 H     1 <1>   0.0800 
 31 H       12.5530     3.7590     0.0790 H     1 <1>   0.0800 
 32 H       12.9700     2.2330    -1.6420 H     1 <1>   0.0800 
 33 H       13.8020     1.1780    -0.5030 H     1 <1>   0.0800 
@<TRIPOS>BOND
  1   1   2  1   
  2   2   3  1   
  3   2   4  1   
  4   2   5  1   
  5   5   6  ar  
  6   5   7  ar  
  7   6   8  ar  
  8   6  22  1   
  9   7   9  ar  
 10   7  23  1   
 11   8  10  1   
 12   8  11  ar  
 13   9  11  ar  
 14   9  24  1   
 15  10  12  1   
 16  11  25  1   
 17  12  13  1   
 18  12  26  1   
 19  12  27  1   
 20  13  14  1   
 21  13  28  1   
 22  13  29  1   
 23  14  15  1   
 24  15  16  am  
 25  15  17  am  
 26  16  18  2   
 27  16  19  1   
 28  17  20  2   
 29  17  21  1   
 30  19  21  1   
 31  19  30  1   
 32  19  31  1   
 33  21  32  1   
 34  21  33  1   
@<TRIPOS>SUBSTRUCTURE
  1 ****  10 GROUP 4 **** **** 0

# MOE 2024.06 (io_trps.svl 2023.06)
