@<TRIPOS>MOLECULE
NONAME
48 51 1 0 0 
SMALL
USER_CHARGES


@<TRIPOS>ATOM
  1 O       -0.7090     0.6010    -1.8940 O.2   1 <1>  -0.5700 
  2 C       -1.7190     0.2970    -1.3020 C.2   1 <1>   0.5690 
  3 N       -2.5980     1.2310    -0.7950 N.am  1 <1>  -0.2980 
  4 C       -2.0430    -1.1700    -1.1420 C.3   1 <1>  -0.1790 
  5 N       -3.8860     1.0020    -0.3640 N.2   1 <1>  -0.5120 
  6 C       -2.2870     2.6760    -0.8520 C.3   1 <1>   0.3640 
  7 C       -4.4700     2.1120    -0.1490 C.2   1 <1>   0.3030 
  8 C       -1.0990     3.0410     0.0410 C.ar  1 <1>  -0.1440 
  9 C       -3.5810     3.3160    -0.3420 C.3   1 <1>  -0.0190 
 10 C       -5.8460     2.3580     0.1880 C.ar  1 <1>   0.0860 
 11 C       -0.0680     3.8210    -0.4630 C.ar  1 <1>  -0.1500 
 12 C       -1.0320     2.6080     1.3600 C.ar  1 <1>  -0.1500 
 13 C       -4.2790     4.3030    -1.2870 C.3   1 <1>  -0.1600 
 14 C       -6.4180     3.6170    -0.0460 C.ar  1 <1>  -0.1440 
 15 C       -6.6530     1.3570     0.7290 C.ar  1 <1>  -0.1500 
 16 C        1.0070     4.1740     0.3350 C.ar  1 <1>  -0.1500 
 17 C        0.0390     2.9600     2.1600 C.ar  1 <1>  -0.1500 
 18 C       -5.6010     4.7650    -0.6490 C.3   1 <1>  -0.0170 
 19 C       -7.7450     3.8450     0.2710 C.ar  1 <1>  -0.1500 
 20 C       -7.9790     1.5890     1.0420 C.ar  1 <1>  -0.1500 
 21 C        1.0640     3.7450     1.6580 C.ar  1 <1>   0.0830 
 22 C       -8.5340     2.8440     0.8140 C.ar  1 <1>   0.0830 
 23 O        2.0770     4.0460     2.5080 O.3   1 <1>  -0.3630 
 24 O       -9.8210     3.1620     1.0910 O.3   1 <1>  -0.3630 
 25 C        3.2080     4.7660     2.0710 C.3   1 <1>   0.0400 
 26 C      -10.7150     2.2130     1.6300 C.3   1 <1>   0.0400 
 27 H       -2.9270    -1.4030    -1.7040 H     1 <1>   0.0800 
 28 H       -2.2140    -1.3880    -0.1050 H     1 <1>   0.0800 
 29 H       -1.2260    -1.7680    -1.5000 H     1 <1>   0.0800 
 30 H       -2.0990     2.9470    -1.8760 H     1 <1>   0.0800 
 31 H       -3.4160     3.7860     0.6110 H     1 <1>   0.0800 
 32 H       -0.0930     4.1540    -1.4860 H     1 <1>   0.1500 
 33 H       -1.8150     1.9900     1.7670 H     1 <1>   0.1500 
 34 H       -4.4870     3.8160    -2.2260 H     1 <1>   0.0800 
 35 H       -3.6450     5.1520    -1.4770 H     1 <1>   0.0800 
 36 H       -6.2260     0.3840     0.9020 H     1 <1>   0.1500 
 37 H        1.7860     4.7770    -0.0880 H     1 <1>   0.1500 
 38 H        0.0900     2.6250     3.1800 H     1 <1>   0.1500 
 39 H       -6.1900     5.2780    -1.3900 H     1 <1>   0.0800 
 40 H       -5.3840     5.4680     0.1370 H     1 <1>   0.0800 
 41 H       -8.1930     4.8070     0.1000 H     1 <1>   0.1500 
 42 H       -8.5600     0.7890     1.4580 H     1 <1>   0.1500 
 43 H        3.8860     4.8570     2.9000 H     1 <1>   0.0800 
 44 H        2.8950     5.7420     1.7460 H     1 <1>   0.0800 
 45 H        3.6780     4.2240     1.2700 H     1 <1>   0.0800 
 46 H      -11.6700     2.6890     1.7580 H     1 <1>   0.0800 
 47 H      -10.3400     1.8820     2.5820 H     1 <1>   0.0800 
 48 H      -10.8050     1.3900     0.9430 H     1 <1>   0.0800 
@<TRIPOS>BOND
  1   1   2  2   
  2   2   3  am  
  3   2   4  1   
  4   3   5  1   
  5   3   6  1   
  6   4  27  1   
  7   4  28  1   
  8   4  29  1   
  9   5   7  2   
 10   6   8  1   
 11   6   9  1   
 12   6  30  1   
 13   7   9  1   
 14   7  10  1   
 15   8  11  ar  
 16   8  12  ar  
 17   9  13  1   
 18   9  31  1   
 19  10  14  ar  
 20  10  15  ar  
 21  11  16  ar  
 22  11  32  1   
 23  12  17  ar  
 24  12  33  1   
 25  13  18  1   
 26  13  34  1   
 27  13  35  1   
 28  14  18  1   
 29  14  19  ar  
 30  15  20  ar  
 31  15  36  1   
 32  16  21  ar  
 33  16  37  1   
 34  17  21  ar  
 35  17  38  1   
 36  18  39  1   
 37  18  40  1   
 38  19  22  ar  
 39  19  41  1   
 40  20  22  ar  
 41  20  42  1   
 42  21  23  1   
 43  22  24  1   
 44  23  25  1   
 45  24  26  1   
 46  25  43  1   
 47  25  44  1   
 48  25  45  1   
 49  26  46  1   
 50  26  47  1   
 51  26  48  1   
@<TRIPOS>SUBSTRUCTURE
  1 ****   9 GROUP 4 **** **** 0

# MOE 2024.06 (io_trps.svl 2023.06)
