@<TRIPOS>MOLECULE
NONAME
38 38 1 0 0 
SMALL
USER_CHARGES


@<TRIPOS>ATOM
  1 O       -1.3020    -6.0890     0.2930 O.3   1 <1>  -0.3630 
  2 C       -2.4890    -5.4420     0.1790 C.ar  1 <1>   0.0830 
  3 C       -0.0820    -5.4290     0.0330 C.3   1 <1>   0.1200 
  4 C       -2.6130    -4.1070    -0.1960 C.ar  1 <1>  -0.1500 
  5 C       -3.6300    -6.1770     0.4580 C.ar  1 <1>  -0.1500 
  6 C        1.0500    -6.4290     0.2520 C.3   1 <1>   0.1200 
  7 C       -3.8670    -3.5270    -0.2860 C.ar  1 <1>  -0.1500 
  8 C       -4.8810    -5.5930     0.3660 C.ar  1 <1>  -0.1500 
  9 O        2.2690    -5.7950    -0.0040 O.3   1 <1>  -0.5600 
 10 C       -5.0060    -4.2640    -0.0050 C.ar  1 <1>  -0.1430 
 11 C        3.3810    -6.6090     0.1640 C.3   1 <1>   0.1200 
 12 C       -6.3790    -3.6240    -0.1060 C.3   1 <1>  -0.0970 
 13 C        4.6210    -5.7580    -0.1380 C.3   1 <1>   0.3430 
 14 N        5.9110    -6.5050     0.0590 N.4   1 <1>  -0.9590 
 15 C        7.0640    -5.5550    -0.0150 C.3   1 <1>   0.2630 
 16 C        6.0860    -7.6080    -0.9400 C.3   1 <1>   0.2630 
 17 H        0.0070    -4.6030     0.7150 H     1 <1>   0.0800 
 18 H       -0.0930    -5.0890    -0.9880 H     1 <1>   0.0800 
 19 H       -1.7540    -3.5060    -0.4210 H     1 <1>   0.1500 
 20 H       -3.5320    -7.2070     0.7460 H     1 <1>   0.1500 
 21 H        0.9400    -7.2590    -0.4250 H     1 <1>   0.0800 
 22 H        1.0420    -6.7710     1.2730 H     1 <1>   0.0800 
 23 H       -3.9530    -2.4950    -0.5780 H     1 <1>   0.1500 
 24 H       -5.7560    -6.1790     0.5850 H     1 <1>   0.1500 
 25 H        3.2980    -7.4350    -0.5210 H     1 <1>   0.0800 
 26 H        3.3950    -6.9580     1.1830 H     1 <1>   0.0800 
 27 H       -6.3210    -2.5730     0.1170 H     1 <1>   0.0800 
 28 H       -7.0590    -4.0810     0.5890 H     1 <1>   0.0800 
 29 H       -6.7640    -3.7470    -1.1020 H     1 <1>   0.0800 
 30 H        4.6020    -4.9030     0.5170 H     1 <1>   0.0800 
 31 H        4.5590    -5.4050    -1.1540 H     1 <1>   0.0800 
 32 H        5.9020    -6.9150     1.0070 H     1 <1>   0.4500 
 33 H        7.1100    -5.0950    -0.9890 H     1 <1>   0.0800 
 34 H        7.9920    -6.0760     0.1640 H     1 <1>   0.0800 
 35 H        6.9600    -4.7800     0.7270 H     1 <1>   0.0800 
 36 H        6.0830    -7.2100    -1.9420 H     1 <1>   0.0800 
 37 H        5.2890    -8.3280    -0.8530 H     1 <1>   0.0800 
 38 H        7.0230    -8.1160    -0.7750 H     1 <1>   0.0800 
@<TRIPOS>BOND
  1   1   2  1   
  2   1   3  1   
  3   2   4  ar  
  4   2   5  ar  
  5   3   6  1   
  6   3  17  1   
  7   3  18  1   
  8   4   7  ar  
  9   4  19  1   
 10   5   8  ar  
 11   5  20  1   
 12   6   9  1   
 13   6  21  1   
 14   6  22  1   
 15   7  10  ar  
 16   7  23  1   
 17   8  10  ar  
 18   8  24  1   
 19   9  11  1   
 20  10  12  1   
 21  11  13  1   
 22  11  25  1   
 23  11  26  1   
 24  12  27  1   
 25  12  28  1   
 26  12  29  1   
 27  13  14  1   
 28  13  30  1   
 29  13  31  1   
 30  14  15  1   
 31  14  16  1   
 32  14  32  1   
 33  15  33  1   
 34  15  34  1   
 35  15  35  1   
 36  16  36  1   
 37  16  37  1   
 38  16  38  1   
@<TRIPOS>SUBSTRUCTURE
  1 ****   3 GROUP 4 **** **** 0

# MOE 2024.06 (io_trps.svl 2023.06)
