@<TRIPOS>MOLECULE
NONAME
45 46 1 0 0 
SMALL
USER_CHARGES


@<TRIPOS>ATOM
  1 O        0.6210    -3.1650     0.6380 O.2   1 <1>  -0.5700 
  2 C       -0.0770    -2.2730     0.2220 C.2   1 <1>   0.5690 
  3 N        0.3830    -1.0090     0.0200 N.am  1 <1>  -0.7300 
  4 C       -1.5230    -2.5930    -0.1010 C.3   1 <1>  -0.0990 
  5 C        1.7190    -0.4540     0.2900 C.3   1 <1>   0.2200 
  6 C       -2.5260    -1.6910     0.6420 C.3   1 <1>   0.2070 
  7 C        2.7740    -1.1810    -0.5400 C.3   1 <1>  -0.2400 
  8 C        2.0140    -0.5190     1.7860 C.3   1 <1>  -0.2400 
  9 C       -3.9460    -2.2720     0.5340 C.ar  1 <1>  -0.1440 
 10 C       -2.4430    -0.2130     0.2200 C.ar  1 <1>  -0.1440 
 11 C       -4.3360    -3.3180     1.3670 C.ar  1 <1>   0.0820 
 12 C       -4.8740    -1.7890    -0.3820 C.ar  1 <1>  -0.1500 
 13 C       -2.4730     0.7660     1.2030 C.ar  1 <1>  -0.1500 
 14 C       -2.3120     0.1810    -1.1080 C.ar  1 <1>  -0.1500 
 15 O       -3.4840    -3.8280     2.2730 O.3   1 <1>  -0.5320 
 16 C       -5.6070    -3.8650     1.2840 C.ar  1 <1>  -0.1500 
 17 C       -6.1480    -2.3270    -0.4710 C.ar  1 <1>  -0.1440 
 18 C       -2.3640     2.1060     0.8720 C.ar  1 <1>  -0.1500 
 19 C       -2.2010     1.5190    -1.4410 C.ar  1 <1>  -0.1500 
 20 C       -6.5110    -3.3690     0.3640 C.ar  1 <1>  -0.1500 
 21 C       -7.1350    -1.7720    -1.4820 C.3   1 <1>  -0.0970 
 22 C       -2.2260     2.4830    -0.4500 C.ar  1 <1>  -0.1500 
 23 H       -0.3140    -0.2970    -0.2280 H     1 <1>   0.3700 
 24 H       -1.7010    -3.6120     0.1930 H     1 <1>   0.0800 
 25 H       -1.6710    -2.5460    -1.1600 H     1 <1>   0.0800 
 26 H        1.7110     0.5810    -0.0090 H     1 <1>   0.0800 
 27 H       -2.2470    -1.7280     1.6810 H     1 <1>   0.0800 
 28 H        2.8550    -2.2100    -0.2380 H     1 <1>   0.0800 
 29 H        3.7320    -0.7150    -0.4030 H     1 <1>   0.0800 
 30 H        2.5190    -1.1380    -1.5830 H     1 <1>   0.0800 
 31 H        2.0670    -1.5410     2.1180 H     1 <1>   0.0800 
 32 H        1.2470    -0.0070     2.3370 H     1 <1>   0.0800 
 33 H        2.9570    -0.0470     1.9940 H     1 <1>   0.0800 
 34 H       -4.6210    -0.9800    -1.0410 H     1 <1>   0.1500 
 35 H       -2.5830     0.4910     2.2380 H     1 <1>   0.1500 
 36 H       -2.2980    -0.5480    -1.8990 H     1 <1>   0.1500 
 37 H       -3.8630    -4.5650     2.7820 H     1 <1>   0.4500 
 38 H       -5.8980    -4.6730     1.9290 H     1 <1>   0.1500 
 39 H       -2.3890     2.8530     1.6460 H     1 <1>   0.1500 
 40 H       -2.1000     1.8110    -2.4720 H     1 <1>   0.1500 
 41 H       -7.4960    -3.7960     0.3020 H     1 <1>   0.1500 
 42 H       -6.9420    -2.1980    -2.4500 H     1 <1>   0.0800 
 43 H       -7.0390    -0.7030    -1.5460 H     1 <1>   0.0800 
 44 H       -8.1450    -2.0050    -1.1960 H     1 <1>   0.0800 
 45 H       -2.1410     3.5250    -0.7080 H     1 <1>   0.1500 
@<TRIPOS>BOND
  1   1   2  2   
  2   2   3  am  
  3   2   4  1   
  4   3   5  1   
  5   3  23  1   
  6   4   6  1   
  7   4  24  1   
  8   4  25  1   
  9   5   7  1   
 10   5   8  1   
 11   5  26  1   
 12   6   9  1   
 13   6  10  1   
 14   6  27  1   
 15   7  28  1   
 16   7  29  1   
 17   7  30  1   
 18   8  31  1   
 19   8  32  1   
 20   8  33  1   
 21   9  11  ar  
 22   9  12  ar  
 23  10  13  ar  
 24  10  14  ar  
 25  11  15  1   
 26  11  16  ar  
 27  12  17  ar  
 28  12  34  1   
 29  13  18  ar  
 30  13  35  1   
 31  14  19  ar  
 32  14  36  1   
 33  15  37  1   
 34  16  20  ar  
 35  16  38  1   
 36  17  20  ar  
 37  17  21  1   
 38  18  22  ar  
 39  18  39  1   
 40  19  22  ar  
 41  19  40  1   
 42  20  41  1   
 43  21  42  1   
 44  21  43  1   
 45  21  44  1   
 46  22  45  1   
@<TRIPOS>SUBSTRUCTURE
  1 ****   6 GROUP 4 **** **** 0

# MOE 2024.06 (io_trps.svl 2023.06)
