@<TRIPOS>MOLECULE
NONAME
36 37 1 0 0 
SMALL
USER_CHARGES


@<TRIPOS>ATOM
  1 O       -1.0560    -0.4110    -1.1700 O.2   1 <1>  -0.5700 
  2 C       -0.7790    -1.3030    -0.3980 C.2   1 <1>   0.5690 
  3 N       -1.6160    -1.5590     0.6720 N.am  1 <1>  -0.6600 
  4 C        0.4660    -2.1520    -0.7270 C.3   1 <1>   0.2610 
  5 C       -2.9200    -0.8490     0.7510 C.3   1 <1>   0.1400 
  6 C       -1.4850    -2.7130     1.5970 C.3   1 <1>   0.1400 
  7 O        0.1930    -3.5310    -0.7490 O.3   1 <1>  -0.5600 
  8 C        1.6450    -1.9920     0.2350 C.3   1 <1>  -0.1600 
  9 C       -3.8610    -1.3610    -0.3560 C.3   1 <1>   0.3430 
 10 C       -2.4760    -3.8280     1.2330 C.3   1 <1>  -0.1600 
 11 C        1.3880    -4.2280    -0.6210 C.3   1 <1>   0.1200 
 12 C        2.2380    -3.3940     0.3310 C.3   1 <1>  -0.1600 
 13 N       -4.2240    -2.8250    -0.2480 N.4   1 <1>  -0.9590 
 14 C       -3.0450    -3.7530    -0.1900 C.3   1 <1>   0.3430 
 15 C       -5.0920    -3.1980    -1.4040 C.3   1 <1>   0.2630 
 16 H        0.7940    -1.8920    -1.7190 H     1 <1>   0.0800 
 17 H       -2.7520     0.2060     0.6070 H     1 <1>   0.0800 
 18 H       -3.3690    -0.9780     1.7200 H     1 <1>   0.0800 
 19 H       -1.6560    -2.3820     2.6080 H     1 <1>   0.0800 
 20 H       -0.4840    -3.1030     1.5670 H     1 <1>   0.0800 
 21 H        1.3150    -1.6470     1.1990 H     1 <1>   0.0800 
 22 H        2.3510    -1.2830    -0.1590 H     1 <1>   0.0800 
 23 H       -3.3810    -1.1790    -1.3040 H     1 <1>   0.0800 
 24 H       -4.7610    -0.7700    -0.3340 H     1 <1>   0.0800 
 25 H       -3.2720    -3.8650     1.9530 H     1 <1>   0.0800 
 26 H       -1.9430    -4.7580     1.3230 H     1 <1>   0.0800 
 27 H        1.8450    -4.2900    -1.5960 H     1 <1>   0.0800 
 28 H        1.1890    -5.2160    -0.2430 H     1 <1>   0.0800 
 29 H        2.1460    -3.7770     1.3320 H     1 <1>   0.0800 
 30 H        3.2740    -3.4180     0.0420 H     1 <1>   0.0800 
 31 H       -4.7580    -2.9590     0.6200 H     1 <1>   0.4500 
 32 H       -3.3640    -4.7430    -0.4720 H     1 <1>   0.0800 
 33 H       -2.2800    -3.4440    -0.8850 H     1 <1>   0.0800 
 34 H       -4.5530    -3.0750    -2.3300 H     1 <1>   0.0800 
 35 H       -5.9700    -2.5730    -1.4320 H     1 <1>   0.0800 
 36 H       -5.4060    -4.2260    -1.3220 H     1 <1>   0.0800 
@<TRIPOS>BOND
  1   1   2  2   
  2   2   3  am  
  3   2   4  1   
  4   3   5  1   
  5   3   6  1   
  6   4   7  1   
  7   4   8  1   
  8   4  16  1   
  9   5   9  1   
 10   5  17  1   
 11   5  18  1   
 12   6  10  1   
 13   6  19  1   
 14   6  20  1   
 15   7  11  1   
 16   8  12  1   
 17   8  21  1   
 18   8  22  1   
 19   9  13  1   
 20   9  23  1   
 21   9  24  1   
 22  10  14  1   
 23  10  25  1   
 24  10  26  1   
 25  11  12  1   
 26  11  27  1   
 27  11  28  1   
 28  12  29  1   
 29  12  30  1   
 30  13  14  1   
 31  13  15  1   
 32  13  31  1   
 33  14  32  1   
 34  14  33  1   
 35  15  34  1   
 36  15  35  1   
 37  15  36  1   
@<TRIPOS>SUBSTRUCTURE
  1 ****   3 GROUP 4 **** **** 0

# MOE 2024.06 (io_trps.svl 2023.06)
