@<TRIPOS>MOLECULE
NONAME
47 49 1 0 0 
SMALL
USER_CHARGES


@<TRIPOS>ATOM
  1 S        0.5930    -0.0010    -0.3390 S.3   1 <1>  -0.3320 
  2 C        1.1030    -1.6310    -0.9280 C.ar  1 <1>   0.1020 
  3 C       -1.1640    -0.1360     0.2210 C.3   1 <1>   0.2140 
  4 C        2.3050    -1.7430    -1.6320 C.ar  1 <1>   0.0860 
  5 C        0.3100    -2.7410    -0.6730 C.ar  1 <1>  -0.1500 
  6 C       -1.6540     1.2460     0.6210 C.ar  1 <1>  -0.1440 
  7 C        3.1610    -0.6120    -1.9180 C.2   1 <1>   0.5440 
  8 C        2.6730    -3.0110    -2.0800 C.ar  1 <1>  -0.1500 
  9 C        0.7050    -3.9880    -1.1240 C.ar  1 <1>  -0.1500 
 10 C       -1.9920     1.5190     1.9380 C.ar  1 <1>  -0.1500 
 11 C       -1.7750     2.2460    -0.3330 C.ar  1 <1>  -0.1500 
 12 O        3.1860    -0.1570    -3.0470 O.2   1 <1>  -0.5700 
 13 N        3.9880    -0.0720    -0.9580 N.am  1 <1>  -0.6600 
 14 C        1.8880    -4.1220    -1.8300 C.ar  1 <1>  -0.1500 
 15 C       -2.4500     2.7760     2.2960 C.ar  1 <1>  -0.1500 
 16 C       -2.2320     3.5020     0.0240 C.ar  1 <1>  -0.1500 
 17 C        4.0800    -0.6140     0.4310 C.3   1 <1>   0.1400 
 18 C        4.8500     1.1170    -1.2320 C.3   1 <1>   0.1400 
 19 C       -2.5710     3.7680     1.3390 C.ar  1 <1>  -0.1500 
 20 C        5.0220     0.2230     1.3190 C.3   1 <1>   0.2000 
 21 C        6.2510     0.9870    -0.5850 C.3   1 <1>   0.2000 
 22 O        6.2550     0.3830     0.6850 O.3   1 <1>  -0.5600 
 23 C        5.2950    -0.4480     2.6630 C.3   1 <1>  -0.2400 
 24 C        6.9370     2.3430    -0.4350 C.3   1 <1>  -0.2400 
 25 H       -1.1850    -0.8160     1.0520 H     1 <1>   0.0800 
 26 H       -1.7350    -0.5260    -0.6030 H     1 <1>   0.0800 
 27 H       -0.6090    -2.6630    -0.1270 H     1 <1>   0.1500 
 28 H        3.5890    -3.1160    -2.6350 H     1 <1>   0.1500 
 29 H        0.0940    -4.8530    -0.9300 H     1 <1>   0.1500 
 30 H       -1.9010     0.7580     2.6930 H     1 <1>   0.1500 
 31 H       -1.5080     2.0490    -1.3570 H     1 <1>   0.1500 
 32 H        2.1950    -5.0900    -2.1860 H     1 <1>   0.1500 
 33 H       -2.7110     2.9830     3.3190 H     1 <1>   0.1500 
 34 H       -2.3220     4.2730    -0.7210 H     1 <1>   0.1500 
 35 H        4.4440    -1.6250     0.3890 H     1 <1>   0.0800 
 36 H        3.1030    -0.6260     0.8790 H     1 <1>   0.0800 
 37 H        4.3550     1.9900    -0.8450 H     1 <1>   0.0800 
 38 H        4.9690     1.2620    -2.2920 H     1 <1>   0.0800 
 39 H       -2.9260     4.7450     1.6170 H     1 <1>   0.1500 
 40 H        4.6000     1.2000     1.4880 H     1 <1>   0.0800 
 41 H        6.8550     0.3600    -1.2180 H     1 <1>   0.0800 
 42 H        5.7530    -1.4090     2.5130 H     1 <1>   0.0800 
 43 H        4.3750    -0.5810     3.2030 H     1 <1>   0.0800 
 44 H        5.9500     0.1690     3.2500 H     1 <1>   0.0800 
 45 H        6.3700     2.9790     0.2200 H     1 <1>   0.0800 
 46 H        7.0220     2.8200    -1.3940 H     1 <1>   0.0800 
 47 H        7.9250     2.2080    -0.0330 H     1 <1>   0.0800 
@<TRIPOS>BOND
  1   1   2  1   
  2   1   3  1   
  3   2   4  ar  
  4   2   5  ar  
  5   3   6  1   
  6   3  25  1   
  7   3  26  1   
  8   4   7  1   
  9   4   8  ar  
 10   5   9  ar  
 11   5  27  1   
 12   6  10  ar  
 13   6  11  ar  
 14   7  12  2   
 15   7  13  am  
 16   8  14  ar  
 17   8  28  1   
 18   9  14  ar  
 19   9  29  1   
 20  10  15  ar  
 21  10  30  1   
 22  11  16  ar  
 23  11  31  1   
 24  13  17  1   
 25  13  18  1   
 26  14  32  1   
 27  15  19  ar  
 28  15  33  1   
 29  16  19  ar  
 30  16  34  1   
 31  17  20  1   
 32  17  35  1   
 33  17  36  1   
 34  18  21  1   
 35  18  37  1   
 36  18  38  1   
 37  19  39  1   
 38  20  22  1   
 39  20  23  1   
 40  20  40  1   
 41  21  22  1   
 42  21  24  1   
 43  21  41  1   
 44  23  42  1   
 45  23  43  1   
 46  23  44  1   
 47  24  45  1   
 48  24  46  1   
 49  24  47  1   
@<TRIPOS>SUBSTRUCTURE
  1 ****   1 GROUP 4 **** **** 0

# MOE 2024.06 (io_trps.svl 2023.06)
