@<TRIPOS>MOLECULE
NONAME
47 49 1 0 0 
SMALL
USER_CHARGES


@<TRIPOS>ATOM
  1 O       -3.8710    -2.4550    -1.8700 O.2   1 <1>  -0.5700 
  2 C       -4.0190    -1.3840    -1.3150 C.2   1 <1>   0.6900 
  3 N       -4.6840    -1.3010    -0.1400 N.am  1 <1>  -0.4210 
  4 N       -3.5140    -0.2750    -1.8710 N.am  1 <1>  -0.8000 
  5 N       -4.9780    -0.0570     0.6560 N.3   1 <1>  -0.6390 
  6 C       -6.4630     0.1490     0.7400 C.3   1 <1>   0.4500 
  7 C       -7.1090    -1.1710     1.2050 C.2   1 <1>   0.0060 
  8 C       -6.9370     0.7180    -0.6180 C.3   1 <1>  -0.1600 
  9 C       -6.7160     1.2100     1.8440 C.3   1 <1>  -0.1600 
 10 N       -6.6690    -1.8310     2.2160 N.2   1 <1>  -0.3380 
 11 N       -8.1600    -1.8060     0.6770 N.pl3 1 <1>   0.5930 
 12 C       -6.2480     2.0380    -1.0300 C.3   1 <1>  -0.1600 
 13 C       -6.7630     2.6790     1.3710 C.3   1 <1>  -0.1600 
 14 N       -7.4450    -2.8950     2.3270 N.2   1 <1>   0.0000 
 15 N       -8.3410    -2.8940     1.4140 N.2   1 <1>  -0.4180 
 16 C       -9.0210    -1.4980    -0.4160 C.ar  1 <1>  -0.0230 
 17 C       -5.8520     2.9220     0.1650 C.3   1 <1>  -0.1600 
 18 C      -10.1430    -0.6850    -0.2200 C.ar  1 <1>  -0.1430 
 19 C       -8.7530    -2.0010    -1.6930 C.ar  1 <1>  -0.1430 
 20 C      -10.9520    -0.3590    -1.2950 C.ar  1 <1>  -0.1500 
 21 C      -10.5120    -0.1420     1.1560 C.3   1 <1>  -0.0970 
 22 C       -9.5750    -1.6610    -2.7530 C.ar  1 <1>  -0.1500 
 23 C       -7.5700    -2.9270    -1.9640 C.3   1 <1>  -0.0970 
 24 C      -10.6690    -0.8400    -2.5580 C.ar  1 <1>  -0.1500 
 25 H       -4.9910    -2.1990     0.2560 H     1 <1>   0.3700 
 26 H       -2.8190    -0.3750    -2.6070 H     1 <1>   0.3700 
 27 H       -3.4890     0.5600    -1.2880 H     1 <1>   0.3700 
 28 H       -4.6990    -0.2770     1.6220 H     1 <1>   0.3600 
 29 H       -7.9880     0.9260    -0.5500 H     1 <1>   0.0800 
 30 H       -6.8000    -0.0050    -1.4000 H     1 <1>   0.0800 
 31 H       -5.9660     1.1060     2.6070 H     1 <1>   0.0800 
 32 H       -7.6580     1.0040     2.3200 H     1 <1>   0.0800 
 33 H       -6.9160     2.5840    -1.6740 H     1 <1>   0.0800 
 34 H       -5.3640     1.8190    -1.6030 H     1 <1>   0.0800 
 35 H       -6.4790     3.3280     2.1820 H     1 <1>   0.0800 
 36 H       -7.7720     2.9320     1.0930 H     1 <1>   0.0800 
 37 H       -5.8880     3.9580    -0.1240 H     1 <1>   0.0800 
 38 H       -4.8370     2.7020     0.4500 H     1 <1>   0.0800 
 39 H      -11.8140     0.2720    -1.1590 H     1 <1>   0.1500 
 40 H      -10.4500    -0.9160     1.9000 H     1 <1>   0.0800 
 41 H      -11.5190     0.2350     1.1600 H     1 <1>   0.0800 
 42 H       -9.8520     0.6620     1.4270 H     1 <1>   0.0800 
 43 H       -9.3720    -2.0350    -3.7420 H     1 <1>   0.1500 
 44 H       -6.6540    -2.3680    -1.9770 H     1 <1>   0.0800 
 45 H       -7.6750    -3.4130    -2.9170 H     1 <1>   0.0800 
 46 H       -7.5030    -3.6950    -1.2130 H     1 <1>   0.0800 
 47 H      -11.3020    -0.5810    -3.3890 H     1 <1>   0.1500 
@<TRIPOS>BOND
  1   1   2  2   
  2   2   3  am  
  3   2   4  am  
  4   3   5  1   
  5   3  25  1   
  6   4  26  1   
  7   4  27  1   
  8   5   6  1   
  9   5  28  1   
 10   6   7  1   
 11   6   8  1   
 12   6   9  1   
 13   7  10  2   
 14   7  11  1   
 15   8  12  1   
 16   8  29  1   
 17   8  30  1   
 18   9  13  1   
 19   9  31  1   
 20   9  32  1   
 21  10  14  1   
 22  11  15  1   
 23  11  16  1   
 24  12  17  1   
 25  12  33  1   
 26  12  34  1   
 27  13  17  1   
 28  13  35  1   
 29  13  36  1   
 30  14  15  2   
 31  16  18  ar  
 32  16  19  ar  
 33  17  37  1   
 34  17  38  1   
 35  18  20  ar  
 36  18  21  1   
 37  19  22  ar  
 38  19  23  1   
 39  20  24  ar  
 40  20  39  1   
 41  21  40  1   
 42  21  41  1   
 43  21  42  1   
 44  22  24  ar  
 45  22  43  1   
 46  23  44  1   
 47  23  45  1   
 48  23  46  1   
 49  24  47  1   
@<TRIPOS>SUBSTRUCTURE
  1 ****   7 GROUP 4 **** **** 0

# MOE 2024.06 (io_trps.svl 2023.06)
