@<TRIPOS>MOLECULE
NONAME
47 50 1 0 0 
SMALL
USER_CHARGES


@<TRIPOS>ATOM
  1 S       -1.6070     0.4790     0.3450 S.3   1 <1>  -0.0800 
  2 C        0.1300     0.7010     0.5050 C.2   1 <1>   0.1040 
  3 C       -1.8200     2.1310    -0.1790 C.2   1 <1>  -0.1400 
  4 N        0.9050    -0.3630     0.9490 N.am  1 <1>  -0.4940 
  5 C        0.4930     1.9910     0.2010 C.2   1 <1>  -0.0860 
  6 C       -0.6480     2.7790    -0.2230 C.2   1 <1>  -0.1810 
  7 C       -3.2030     2.6450    -0.5150 C.3   1 <1>   0.0200 
  8 C        0.7480    -1.7190     1.0150 C.2   1 <1>   0.5690 
  9 C        1.8380     2.5070     0.3120 C.2   1 <1>   0.8060 
 10 C       -0.5970     4.2350    -0.6830 C.3   1 <1>   0.0210 
 11 C       -3.1590     4.1790    -0.6020 C.3   1 <1>  -0.1600 
 12 O        1.4810    -2.3430     1.7380 O.2   1 <1>  -0.5700 
 13 C       -0.3080    -2.4550     0.2130 C.3   1 <1>   0.1570 
 14 O        2.1750     3.6340     0.0050 O.2   1 <1>  -0.5700 
 15 O        2.7790     1.6880     0.8020 O.3   1 <1>  -0.4300 
 16 C       -1.9120     4.6690    -1.3630 C.3   1 <1>  -0.1600 
 17 N        0.2610    -3.6400    -0.4430 N.pl3 1 <1>   0.3140 
 18 C        4.1220     2.0930     0.9460 C.3   1 <1>   0.1200 
 19 N        0.4850    -3.6780    -1.7680 N.2   1 <1>  -0.4180 
 20 C        0.4460    -4.8690     0.0910 C.ar  1 <1>  -0.1520 
 21 C        4.9070     0.9140     1.5140 C.3   1 <1>  -0.2400 
 22 N        0.8160    -4.8700    -2.0980 N.2   1 <1>  -0.2270 
 23 C        0.8000    -5.6410    -0.9840 C.ar  1 <1>   0.2270 
 24 C        0.3520    -5.4140     1.3780 C.ar  1 <1>  -0.1500 
 25 C        1.0670    -7.0010    -0.8140 C.ar  1 <1>  -0.1500 
 26 C        0.6150    -6.7550     1.5420 C.ar  1 <1>  -0.1500 
 27 C        0.9720    -7.5510     0.4450 C.ar  1 <1>  -0.1500 
 28 H        1.8150    -0.0880     1.3340 H     1 <1>   0.3700 
 29 H       -3.9060     2.3420     0.2410 H     1 <1>   0.0800 
 30 H       -3.5110     2.2280    -1.4580 H     1 <1>   0.0800 
 31 H        0.2060     4.3740    -1.3860 H     1 <1>   0.0800 
 32 H       -0.4060     4.8610     0.1710 H     1 <1>   0.0800 
 33 H       -3.1380     4.5850     0.3950 H     1 <1>   0.0800 
 34 H       -4.0510     4.5380    -1.0860 H     1 <1>   0.0800 
 35 H       -0.6980    -1.8250    -0.5600 H     1 <1>   0.0800 
 36 H       -1.1070    -2.7620     0.8590 H     1 <1>   0.0800 
 37 H       -1.9340     4.2640    -2.3600 H     1 <1>   0.0800 
 38 H       -1.9310     5.7420    -1.4450 H     1 <1>   0.0800 
 39 H        4.1570     2.9390     1.6120 H     1 <1>   0.0800 
 40 H        4.5000     2.3780    -0.0220 H     1 <1>   0.0800 
 41 H        4.5170     0.6350     2.4760 H     1 <1>   0.0800 
 42 H        5.9390     1.1910     1.6320 H     1 <1>   0.0800 
 43 H        4.8540     0.0740     0.8450 H     1 <1>   0.0800 
 44 H        0.0900    -4.7900     2.2150 H     1 <1>   0.1500 
 45 H        1.3410    -7.5870    -1.6720 H     1 <1>   0.1500 
 46 H        0.5530    -7.2040     2.5180 H     1 <1>   0.1500 
 47 H        1.1740    -8.5970     0.6000 H     1 <1>   0.1500 
@<TRIPOS>BOND
  1   1   2  1   
  2   1   3  1   
  3   2   4  1   
  4   2   5  2   
  5   3   6  2   
  6   3   7  1   
  7   4   8  am  
  8   4  28  1   
  9   5   6  1   
 10   5   9  1   
 11   6  10  1   
 12   7  11  1   
 13   7  29  1   
 14   7  30  1   
 15   8  12  2   
 16   8  13  1   
 17   9  14  2   
 18   9  15  1   
 19  10  16  1   
 20  10  31  1   
 21  10  32  1   
 22  11  16  1   
 23  11  33  1   
 24  11  34  1   
 25  13  17  1   
 26  13  35  1   
 27  13  36  1   
 28  15  18  1   
 29  16  37  1   
 30  16  38  1   
 31  17  19  1   
 32  17  20  1   
 33  18  21  1   
 34  18  39  1   
 35  18  40  1   
 36  19  22  2   
 37  20  23  ar  
 38  20  24  ar  
 39  21  41  1   
 40  21  42  1   
 41  21  43  1   
 42  22  23  1   
 43  23  25  ar  
 44  24  26  ar  
 45  24  44  1   
 46  25  27  ar  
 47  25  45  1   
 48  26  27  ar  
 49  26  46  1   
 50  27  47  1   
@<TRIPOS>SUBSTRUCTURE
  1 ****   4 GROUP 4 **** **** 0

# MOE 2024.06 (io_trps.svl 2023.06)
