@<TRIPOS>MOLECULE
NONAME
47 49 1 0 0 
SMALL
USER_CHARGES


@<TRIPOS>ATOM
  1 CL      -0.0700    -1.6340     2.4980 Cl    1 <1>  -0.1770 
  2 C       -1.2110    -1.6100     1.1650 C.ar  1 <1>   0.1770 
  3 C       -0.9530    -2.3280    -0.0100 C.ar  1 <1>   0.1000 
  4 C       -2.3610    -0.8610     1.3230 C.ar  1 <1>  -0.1500 
  5 N        0.1920    -3.1040    -0.2320 N.pl3 1 <1>  -0.8380 
  6 C       -1.9020    -2.2610    -1.0230 C.ar  1 <1>  -0.1500 
  7 C       -3.2910    -0.8120     0.2970 C.ar  1 <1>  -0.1500 
  8 C        0.3040    -4.3550     0.5770 C.3   1 <1>   0.2090 
  9 C        1.4740    -2.3510    -0.3960 C.3   1 <1>   0.2090 
 10 C       -3.0580    -1.5130    -0.8740 C.ar  1 <1>  -0.1500 
 11 C        1.4400    -5.2570     0.0490 C.3   1 <1>   0.3430 
 12 C        2.5980    -3.2740    -0.9080 C.3   1 <1>   0.3430 
 13 N        2.7510    -4.5220    -0.0690 N.4   1 <1>  -0.9590 
 14 C        3.8370    -5.4010    -0.5810 C.3   1 <1>   0.4860 
 15 C        5.1490    -4.6450    -0.5040 C.ar  1 <1>  -0.1430 
 16 C        5.7200    -4.1240    -1.6570 C.ar  1 <1>  -0.1500 
 17 C        5.7870    -4.4620     0.7160 C.ar  1 <1>  -0.1500 
 18 C        6.9060    -3.4170    -1.5860 C.ar  1 <1>  -0.1500 
 19 C        6.9750    -3.7550     0.7860 C.ar  1 <1>  -0.1500 
 20 C        7.5400    -3.2250    -0.3700 C.ar  1 <1>   0.0830 
 21 O        8.6960    -2.5190    -0.3940 O.3   1 <1>  -0.3620 
 22 C        9.4780    -2.3390     0.7640 C.3   1 <1>   0.1200 
 23 C       10.7210    -1.5450     0.3750 C.3   1 <1>  -0.2400 
 24 H       -2.5290    -0.3220     2.2380 H     1 <1>   0.1500 
 25 H       -1.7290    -2.8020    -1.9350 H     1 <1>   0.1500 
 26 H       -4.1910    -0.2320     0.4100 H     1 <1>   0.1500 
 27 H       -0.6290    -4.8910     0.5270 H     1 <1>   0.0800 
 28 H        0.4880    -4.1120     1.6080 H     1 <1>   0.0800 
 29 H        1.7680    -1.9150     0.5430 H     1 <1>   0.0800 
 30 H        1.3240    -1.5480    -1.0980 H     1 <1>   0.0800 
 31 H       -3.7800    -1.4760    -1.6720 H     1 <1>   0.1500 
 32 H        1.1460    -5.6270    -0.9190 H     1 <1>   0.0800 
 33 H        1.5480    -6.1020     0.7080 H     1 <1>   0.0800 
 34 H        3.5240    -2.7200    -0.9170 H     1 <1>   0.0800 
 35 H        2.3680    -3.5480    -1.9240 H     1 <1>   0.0800 
 36 H        3.0340    -4.2080     0.8670 H     1 <1>   0.4500 
 37 H        3.6360    -5.6870    -1.6000 H     1 <1>   0.0800 
 38 H        3.9060    -6.2950     0.0180 H     1 <1>   0.0800 
 39 H        5.2580    -4.2610    -2.6200 H     1 <1>   0.1500 
 40 H        5.3760    -4.8680     1.6240 H     1 <1>   0.1500 
 41 H        7.3560    -3.0090    -2.4740 H     1 <1>   0.1500 
 42 H        7.4500    -3.6270     1.7410 H     1 <1>   0.1500 
 43 H        9.7510    -3.3080     1.1460 H     1 <1>   0.0800 
 44 H        8.8950    -1.8000     1.4910 H     1 <1>   0.0800 
 45 H       11.2880    -2.0840    -0.3620 H     1 <1>   0.0800 
 46 H       11.3410    -1.3900     1.2390 H     1 <1>   0.0800 
 47 H       10.4380    -0.5860    -0.0210 H     1 <1>   0.0800 
@<TRIPOS>BOND
  1   1   2  1   
  2   2   3  ar  
  3   2   4  ar  
  4   3   5  1   
  5   3   6  ar  
  6   4   7  ar  
  7   4  24  1   
  8   5   8  1   
  9   5   9  1   
 10   6  10  ar  
 11   6  25  1   
 12   7  10  ar  
 13   7  26  1   
 14   8  11  1   
 15   8  27  1   
 16   8  28  1   
 17   9  12  1   
 18   9  29  1   
 19   9  30  1   
 20  10  31  1   
 21  11  13  1   
 22  11  32  1   
 23  11  33  1   
 24  12  13  1   
 25  12  34  1   
 26  12  35  1   
 27  13  14  1   
 28  13  36  1   
 29  14  15  1   
 30  14  37  1   
 31  14  38  1   
 32  15  16  ar  
 33  15  17  ar  
 34  16  18  ar  
 35  16  39  1   
 36  17  19  ar  
 37  17  40  1   
 38  18  20  ar  
 39  18  41  1   
 40  19  20  ar  
 41  19  42  1   
 42  20  21  1   
 43  21  22  1   
 44  22  23  1   
 45  22  43  1   
 46  22  44  1   
 47  23  45  1   
 48  23  46  1   
 49  23  47  1   
@<TRIPOS>SUBSTRUCTURE
  1 ****  12 GROUP 4 **** **** 0

# MOE 2024.06 (io_trps.svl 2023.06)
