@<TRIPOS>MOLECULE
NONAME
31 32 1 0 0 
SMALL
USER_CHARGES


@<TRIPOS>ATOM
  1 O       -0.0860     0.4900    -0.9350 O.2   1 <1>  -0.5700 
  2 C       -0.2250     1.5730    -0.3970 C.2   1 <1>   0.6900 
  3 N        0.8380     2.4130    -0.2270 N.am  1 <1>  -0.6600 
  4 N       -1.4450     1.9600     0.0310 N.am  1 <1>  -0.7300 
  5 C        0.8210     3.6860     0.5230 C.3   1 <1>   0.1400 
  6 C        2.2130     2.0310    -0.6040 C.3   1 <1>   0.1400 
  7 C       -2.6860     1.2300    -0.2530 C.3   1 <1>   0.2840 
  8 C        2.2450     4.2220     0.4100 C.3   1 <1>  -0.1600 
  9 C        3.1080     2.9850     0.1790 C.3   1 <1>  -0.1600 
 10 C       -3.8380     2.2110    -0.1350 C.ar  1 <1>  -0.1440 
 11 C       -4.5270     2.3440     1.0610 C.ar  1 <1>  -0.1500 
 12 C       -4.2040     2.9900    -1.2220 C.ar  1 <1>  -0.1500 
 13 C       -5.5730     3.2450     1.1680 C.ar  1 <1>  -0.1500 
 14 C       -5.2500     3.8910    -1.1160 C.ar  1 <1>  -0.1500 
 15 C       -5.9350     4.0180     0.0790 C.ar  1 <1>  -0.1500 
 16 H       -1.5750     2.9240     0.3210 H     1 <1>   0.3700 
 17 H        0.5750     3.4850     1.5520 H     1 <1>   0.0800 
 18 H        0.1090     4.3740     0.0990 H     1 <1>   0.0800 
 19 H        2.3360     2.1740    -1.6640 H     1 <1>   0.0800 
 20 H        2.4100     1.0010    -0.3540 H     1 <1>   0.0800 
 21 H       -2.7960     0.4250     0.4520 H     1 <1>   0.0800 
 22 H       -2.6460     0.8130    -1.2450 H     1 <1>   0.0800 
 23 H        2.5370     4.7690     1.2880 H     1 <1>   0.0800 
 24 H        2.3050     4.8730    -0.4450 H     1 <1>   0.0800 
 25 H        4.0160     3.2080    -0.3540 H     1 <1>   0.0800 
 26 H        3.3580     2.5300     1.1220 H     1 <1>   0.0800 
 27 H       -4.2510     1.7490     1.9140 H     1 <1>   0.1500 
 28 H       -3.6720     2.8980    -2.1540 H     1 <1>   0.1500 
 29 H       -6.1060     3.3430     2.0980 H     1 <1>   0.1500 
 30 H       -5.5300     4.4920    -1.9640 H     1 <1>   0.1500 
 31 H       -6.7490     4.7180     0.1610 H     1 <1>   0.1500 
@<TRIPOS>BOND
  1   1   2  2   
  2   2   3  am  
  3   2   4  am  
  4   3   5  1   
  5   3   6  1   
  6   4   7  1   
  7   4  16  1   
  8   5   8  1   
  9   5  17  1   
 10   5  18  1   
 11   6   9  1   
 12   6  19  1   
 13   6  20  1   
 14   7  10  1   
 15   7  21  1   
 16   7  22  1   
 17   8   9  1   
 18   8  23  1   
 19   8  24  1   
 20   9  25  1   
 21   9  26  1   
 22  10  11  ar  
 23  10  12  ar  
 24  11  13  ar  
 25  11  27  1   
 26  12  14  ar  
 27  12  28  1   
 28  13  15  ar  
 29  13  29  1   
 30  14  15  ar  
 31  14  30  1   
 32  15  31  1   
@<TRIPOS>SUBSTRUCTURE
  1 ****   4 GROUP 4 **** **** 0

# MOE 2024.06 (io_trps.svl 2023.06)
