@<TRIPOS>MOLECULE
NONAME
46 47 1 0 0 
SMALL
USER_CHARGES


@<TRIPOS>ATOM
  1 CL      -1.5700     1.4430     2.5070 Cl    1 <1>  -0.1770 
  2 C       -2.4900     1.4670     1.0170 C.ar  1 <1>   0.1770 
  3 C       -3.7820     0.9560     0.9530 C.ar  1 <1>  -0.1440 
  4 C       -1.8660     2.0210    -0.0840 C.ar  1 <1>  -0.1500 
  5 C       -4.4670     1.0220    -0.2660 C.ar  1 <1>   0.1170 
  6 C       -4.4540     0.3380     2.1820 C.3   1 <1>  -0.0960 
  7 C       -2.5400     2.0730    -1.2890 C.ar  1 <1>  -0.1500 
  8 N       -5.7780     0.5190    -0.3600 N.am  1 <1>  -0.5470 
  9 C       -3.8260     1.5750    -1.3730 C.ar  1 <1>  -0.1500 
 10 C       -6.8010     0.7940    -1.2300 C.2   1 <1>   0.5690 
 11 O       -6.7320     1.6480    -2.0810 O.2   1 <1>  -0.5700 
 12 C       -8.1020    -0.0170    -1.1210 C.3   1 <1>   0.2570 
 13 N       -9.1630     0.5480    -0.2370 N.am  1 <1>  -0.8490 
 14 S       -8.7040     0.7000     1.3920 S.o2  1 <1>   1.3330 
 15 C      -10.4840    -0.0160    -0.5580 C.3   1 <1>   0.2760 
 16 O       -9.8410     0.6240     2.2760 O.2   1 <1>  -0.6500 
 17 O       -7.5880    -0.1970     1.6090 O.2   1 <1>  -0.6500 
 18 C       -8.1180     2.3810     1.4620 C.3   1 <1>  -0.1350 
 19 C      -11.6240     0.9610    -0.2350 C.3   1 <1>  -0.1600 
 20 C      -10.7250    -1.4150     0.0360 C.3   1 <1>  -0.1600 
 21 C      -12.9730     0.3910    -0.7000 C.3   1 <1>  -0.1600 
 22 C      -12.0800    -1.9720    -0.4290 C.3   1 <1>  -0.1600 
 23 C      -13.2220    -1.0000    -0.1000 C.3   1 <1>  -0.1600 
 24 H       -0.8660     2.4050     0.0040 H     1 <1>   0.1500 
 25 H       -3.7780     0.2200     3.0070 H     1 <1>   0.0800 
 26 H       -4.8390    -0.6380     1.9460 H     1 <1>   0.0800 
 27 H       -5.2660     0.9630     2.5060 H     1 <1>   0.0800 
 28 H       -2.0670     2.4990    -2.1580 H     1 <1>   0.1500 
 29 H       -6.0640    -0.0610     0.4400 H     1 <1>   0.3700 
 30 H       -4.3310     1.6200    -2.3200 H     1 <1>   0.1500 
 31 H       -7.8600    -1.0140    -0.7970 H     1 <1>   0.0800 
 32 H       -8.4840    -0.0940    -2.1230 H     1 <1>   0.0800 
 33 H      -10.5270    -0.1330    -1.6290 H     1 <1>   0.0800 
 34 H       -8.9120     3.0540     1.2040 H     1 <1>   0.0800 
 35 H       -7.3050     2.5370     0.7820 H     1 <1>   0.0800 
 36 H       -7.7840     2.6120     2.4540 H     1 <1>   0.0800 
 37 H      -11.4430     1.8980    -0.7310 H     1 <1>   0.0800 
 38 H      -11.6900     1.1430     0.8200 H     1 <1>   0.0800 
 39 H      -10.7360    -1.3740     1.1090 H     1 <1>   0.0800 
 40 H       -9.9460    -2.0890    -0.2700 H     1 <1>   0.0800 
 41 H      -12.9850     0.3240    -1.7750 H     1 <1>   0.0800 
 42 H      -13.7650     1.0570    -0.4040 H     1 <1>   0.0800 
 43 H      -12.2630    -2.9170     0.0540 H     1 <1>   0.0800 
 44 H      -12.0540    -2.1450    -1.4910 H     1 <1>   0.0800 
 45 H      -14.1500    -1.3940    -0.4770 H     1 <1>   0.0800 
 46 H      -13.3150    -0.9120     0.9700 H     1 <1>   0.0800 
@<TRIPOS>BOND
  1   1   2  1   
  2   2   3  ar  
  3   2   4  ar  
  4   3   5  ar  
  5   3   6  1   
  6   4   7  ar  
  7   4  24  1   
  8   5   8  1   
  9   5   9  ar  
 10   6  25  1   
 11   6  26  1   
 12   6  27  1   
 13   7   9  ar  
 14   7  28  1   
 15   8  10  am  
 16   8  29  1   
 17   9  30  1   
 18  10  11  2   
 19  10  12  1   
 20  12  13  1   
 21  12  31  1   
 22  12  32  1   
 23  13  14  am  
 24  13  15  1   
 25  14  16  2   
 26  14  17  2   
 27  14  18  1   
 28  15  19  1   
 29  15  20  1   
 30  15  33  1   
 31  18  34  1   
 32  18  35  1   
 33  18  36  1   
 34  19  21  1   
 35  19  37  1   
 36  19  38  1   
 37  20  22  1   
 38  20  39  1   
 39  20  40  1   
 40  21  23  1   
 41  21  41  1   
 42  21  42  1   
 43  22  23  1   
 44  22  43  1   
 45  22  44  1   
 46  23  45  1   
 47  23  46  1   
@<TRIPOS>SUBSTRUCTURE
  1 ****  10 GROUP 4 **** **** 0

# MOE 2024.06 (io_trps.svl 2023.06)
