@<TRIPOS>MOLECULE
NONAME
50 52 1 0 0 
SMALL
USER_CHARGES


@<TRIPOS>ATOM
  1 S        0.1920     0.7690     1.8190 S.o2  1 <1>   1.4470 
  2 O        1.5150     1.3300     1.6680 O.2   1 <1>  -0.6500 
  3 O       -0.7620     1.3740     2.7220 O.2   1 <1>  -0.6500 
  4 N        0.3830    -0.8760     2.3480 N.am  1 <1>  -0.6930 
  5 C       -0.5730     0.5360     0.1900 C.ar  1 <1>  -0.0090 
  6 C        1.3580    -1.7000     1.8090 C.ar  1 <1>   0.1990 
  7 C       -0.7310    -1.4690     3.1270 C.3   1 <1>   0.1160 
  8 C       -1.9340     0.7460    -0.0070 C.ar  1 <1>  -0.1500 
  9 C        0.1830     0.1140    -0.8980 C.ar  1 <1>  -0.1500 
 10 C        1.0200    -2.7920     1.0170 C.ar  1 <1>  -0.1500 
 11 C        2.7060    -1.4560     2.0450 C.ar  1 <1>  -0.1500 
 12 C       -2.5200     0.5420    -1.2450 C.ar  1 <1>  -0.1500 
 13 C       -0.3950    -0.0920    -2.1390 C.ar  1 <1>  -0.1500 
 14 C        1.9980    -3.6050     0.4760 C.ar  1 <1>  -0.1500 
 15 C        3.6810    -2.2700     1.5040 C.ar  1 <1>  -0.1500 
 16 C       -1.7500     0.1220    -2.3130 C.ar  1 <1>  -0.1500 
 17 C        3.3540    -3.3610     0.6950 C.ar  1 <1>   0.0860 
 18 C        4.3690    -4.2150     0.1140 C.2   1 <1>   0.5440 
 19 O        4.2560    -5.4230     0.2190 O.2   1 <1>  -0.5700 
 20 N        5.4570    -3.7060    -0.5690 N.am  1 <1>  -0.6600 
 21 C        5.4850    -2.3580    -1.1990 C.3   1 <1>   0.1400 
 22 C        6.6390    -4.5530    -0.8920 C.3   1 <1>   0.1400 
 23 C        6.7540    -1.6140    -0.7710 C.3   1 <1>  -0.1600 
 24 C        7.9230    -3.8270    -0.4750 C.3   1 <1>  -0.1600 
 25 C        8.0170    -2.4260    -1.1010 C.3   1 <1>  -0.0800 
 26 C        9.2720    -1.6970    -0.6080 C.3   1 <1>  -0.2400 
 27 H       -0.8940    -0.8910     4.0210 H     1 <1>   0.0800 
 28 H       -0.4920    -2.4800     3.4100 H     1 <1>   0.0800 
 29 H       -1.6320    -1.4670     2.5390 H     1 <1>   0.0800 
 30 H       -2.5450     1.0750     0.8170 H     1 <1>   0.1500 
 31 H        1.2390    -0.0540    -0.7710 H     1 <1>   0.1500 
 32 H       -0.0160    -3.0010     0.8220 H     1 <1>   0.1500 
 33 H        2.9830    -0.6190     2.6620 H     1 <1>   0.1500 
 34 H       -3.5750     0.7130    -1.3770 H     1 <1>   0.1500 
 35 H        0.2090    -0.4180    -2.9690 H     1 <1>   0.1500 
 36 H        1.7210    -4.4510    -0.1300 H     1 <1>   0.1500 
 37 H        4.7180    -2.0690     1.7080 H     1 <1>   0.1500 
 38 H       -2.2030    -0.0350    -3.2770 H     1 <1>   0.1500 
 39 H        4.6150    -1.7850    -0.9310 H     1 <1>   0.0800 
 40 H        5.4820    -2.4770    -2.2690 H     1 <1>   0.0800 
 41 H        6.6500    -4.7490    -1.9500 H     1 <1>   0.0800 
 42 H        6.5800    -5.4970    -0.3770 H     1 <1>   0.0800 
 43 H        6.7050    -1.4210     0.2860 H     1 <1>   0.0800 
 44 H        6.7900    -0.6650    -1.2770 H     1 <1>   0.0800 
 45 H        8.7700    -4.4170    -0.7750 H     1 <1>   0.0800 
 46 H        7.9380    -3.7520     0.5980 H     1 <1>   0.0800 
 47 H        8.0840    -2.5340    -2.1710 H     1 <1>   0.0800 
 48 H        9.2420    -1.5700     0.4600 H     1 <1>   0.0800 
 49 H        9.3450    -0.7270    -1.0670 H     1 <1>   0.0800 
 50 H       10.1530    -2.2590    -0.8620 H     1 <1>   0.0800 
@<TRIPOS>BOND
  1   1   2  2   
  2   1   3  2   
  3   1   4  am  
  4   1   5  1   
  5   4   6  1   
  6   4   7  1   
  7   5   8  ar  
  8   5   9  ar  
  9   6  10  ar  
 10   6  11  ar  
 11   7  27  1   
 12   7  28  1   
 13   7  29  1   
 14   8  12  ar  
 15   8  30  1   
 16   9  13  ar  
 17   9  31  1   
 18  10  14  ar  
 19  10  32  1   
 20  11  15  ar  
 21  11  33  1   
 22  12  16  ar  
 23  12  34  1   
 24  13  16  ar  
 25  13  35  1   
 26  14  17  ar  
 27  14  36  1   
 28  15  17  ar  
 29  15  37  1   
 30  16  38  1   
 31  17  18  1   
 32  18  19  2   
 33  18  20  am  
 34  20  21  1   
 35  20  22  1   
 36  21  23  1   
 37  21  39  1   
 38  21  40  1   
 39  22  24  1   
 40  22  41  1   
 41  22  42  1   
 42  23  25  1   
 43  23  43  1   
 44  23  44  1   
 45  24  25  1   
 46  24  45  1   
 47  24  46  1   
 48  25  26  1   
 49  25  47  1   
 50  26  48  1   
 51  26  49  1   
 52  26  50  1   
@<TRIPOS>SUBSTRUCTURE
  1 ****  11 GROUP 4 **** **** 0

# MOE 2024.06 (io_trps.svl 2023.06)
