@<TRIPOS>MOLECULE
NONAME
43 44 1 0 0 
SMALL
USER_CHARGES


@<TRIPOS>ATOM
  1 CL      -1.0860    -0.0560    -1.3120 Cl    1 <1>  -0.1770 
  2 C       -0.4970     1.4250    -0.5820 C.ar  1 <1>   0.1770 
  3 C       -1.4120     2.4010    -0.1890 C.ar  1 <1>   0.1170 
  4 C        0.8670     1.5810    -0.4200 C.ar  1 <1>  -0.1500 
  5 N       -2.7870     2.1750    -0.3890 N.am  1 <1>  -0.5470 
  6 C       -0.8970     3.5670     0.3750 C.ar  1 <1>  -0.1500 
  7 C        1.3530     2.7460     0.1480 C.ar  1 <1>  -0.1500 
  8 C       -3.8940     2.7710     0.1330 C.2   1 <1>   0.6900 
  9 C        0.4680     3.7350     0.5430 C.ar  1 <1>  -0.1500 
 10 O       -3.8350     3.6410     0.9770 O.2   1 <1>  -0.5700 
 11 N       -5.1050     2.3630    -0.3220 N.am  1 <1>  -0.7300 
 12 C       -6.3750     2.8890     0.1970 C.3   1 <1>   0.2200 
 13 C       -7.4630     1.8250     0.0880 C.3   1 <1>  -0.1600 
 14 C       -6.7610     4.1420    -0.5850 C.3   1 <1>  -0.1600 
 15 C       -8.8000     2.3910     0.5640 C.3   1 <1>   0.3430 
 16 C       -8.1010     4.6760    -0.0930 C.3   1 <1>   0.3430 
 17 N       -9.1480     3.6180    -0.2200 N.4   1 <1>  -0.9590 
 18 C      -10.4770     4.1680     0.1680 C.3   1 <1>   0.3430 
 19 C      -11.6020     3.2600    -0.3330 C.3   1 <1>  -0.1600 
 20 C      -12.9740     3.8790    -0.0420 C.3   1 <1>  -0.2400 
 21 H        1.5370     0.8020    -0.7350 H     1 <1>   0.1500 
 22 H       -2.9810     1.3310    -0.9230 H     1 <1>   0.3700 
 23 H       -1.5570     4.3550     0.6860 H     1 <1>   0.1500 
 24 H        2.4130     2.8830     0.2820 H     1 <1>   0.1500 
 25 H        0.8420     4.6440     0.9840 H     1 <1>   0.1500 
 26 H       -5.1470     1.7520    -1.1350 H     1 <1>   0.3700 
 27 H       -6.2430     3.1500     1.2370 H     1 <1>   0.0800 
 28 H       -7.2010     0.9850     0.7070 H     1 <1>   0.0800 
 29 H       -7.5590     1.4820    -0.9270 H     1 <1>   0.0800 
 30 H       -6.8150     3.9330    -1.6380 H     1 <1>   0.0800 
 31 H       -6.0100     4.8980    -0.4300 H     1 <1>   0.0800 
 32 H       -8.7330     2.6360     1.6120 H     1 <1>   0.0800 
 33 H       -9.5650     1.6410     0.4420 H     1 <1>   0.0800 
 34 H       -8.3760     5.5420    -0.6760 H     1 <1>   0.0800 
 35 H       -8.0090     4.9780     0.9380 H     1 <1>   0.0800 
 36 H       -9.2020     3.3550    -1.2140 H     1 <1>   0.4500 
 37 H      -10.6050     5.1440    -0.2740 H     1 <1>   0.0800 
 38 H      -10.5390     4.2760     1.2390 H     1 <1>   0.0800 
 39 H      -11.5580     2.3010     0.1530 H     1 <1>   0.0800 
 40 H      -11.5120     3.1160    -1.3960 H     1 <1>   0.0800 
 41 H      -13.1160     4.0200     1.0160 H     1 <1>   0.0800 
 42 H      -13.7540     3.2300    -0.4020 H     1 <1>   0.0800 
 43 H      -13.0780     4.8310    -0.5350 H     1 <1>   0.0800 
@<TRIPOS>BOND
  1   1   2  1   
  2   2   3  ar  
  3   2   4  ar  
  4   3   5  1   
  5   3   6  ar  
  6   4   7  ar  
  7   4  21  1   
  8   5   8  am  
  9   5  22  1   
 10   6   9  ar  
 11   6  23  1   
 12   7   9  ar  
 13   7  24  1   
 14   8  10  2   
 15   8  11  am  
 16   9  25  1   
 17  11  12  1   
 18  11  26  1   
 19  12  13  1   
 20  12  14  1   
 21  12  27  1   
 22  13  15  1   
 23  13  28  1   
 24  13  29  1   
 25  14  16  1   
 26  14  30  1   
 27  14  31  1   
 28  15  17  1   
 29  15  32  1   
 30  15  33  1   
 31  16  17  1   
 32  16  34  1   
 33  16  35  1   
 34  17  18  1   
 35  17  36  1   
 36  18  19  1   
 37  18  37  1   
 38  18  38  1   
 39  19  20  1   
 40  19  39  1   
 41  19  40  1   
 42  20  41  1   
 43  20  42  1   
 44  20  43  1   
@<TRIPOS>SUBSTRUCTURE
  1 ****  11 GROUP 4 **** **** 0

# MOE 2024.06 (io_trps.svl 2023.06)
