@<TRIPOS>MOLECULE
NONAME
47 48 1 0 0 
SMALL
USER_CHARGES


@<TRIPOS>ATOM
  1 O        0.1640     0.1880     0.1910 O.3   1 <1>  -0.5600 
  2 C        0.1940     1.4770    -0.3470 C.3   1 <1>   0.1200 
  3 C        1.2510    -0.6190    -0.1490 C.3   1 <1>   0.1200 
  4 C        1.4550     2.2190     0.1360 C.3   1 <1>   0.3430 
  5 C        2.5610     0.0260     0.3430 C.3   1 <1>   0.3430 
  6 N        2.7180     1.4430    -0.1620 N.4   1 <1>  -0.9590 
  7 C        3.9060     2.1480     0.4030 C.3   1 <1>   0.3430 
  8 C        5.2190     1.5790    -0.1570 C.3   1 <1>  -0.1600 
  9 C        6.4240     2.3810     0.3520 C.3   1 <1>   0.3430 
 10 N        7.6840     1.8330    -0.2200 N.4   1 <1>  -0.9060 
 11 C        8.9020     2.5360     0.2420 C.3   1 <1>   0.4230 
 12 C        8.9780     3.9350    -0.3860 C.3   1 <1>  -0.1600 
 13 C       10.1170     1.6910    -0.1540 C.3   1 <1>  -0.1600 
 14 C       10.2870     4.6400    -0.0010 C.3   1 <1>  -0.1600 
 15 C       11.4270     2.3920     0.2350 C.3   1 <1>  -0.1600 
 16 C       11.5150     3.7970    -0.3800 C.3   1 <1>  -0.0800 
 17 C       12.8000     4.4970     0.0730 C.3   1 <1>  -0.2400 
 18 H       -0.6910     1.9900    -0.0110 H     1 <1>   0.0800 
 19 H        0.1620     1.4080    -1.4210 H     1 <1>   0.0800 
 20 H        1.2570    -0.7640    -1.2160 H     1 <1>   0.0800 
 21 H        1.1060    -1.5750     0.3240 H     1 <1>   0.0800 
 22 H        1.3630     2.3750     1.1990 H     1 <1>   0.0800 
 23 H        1.4930     3.1870    -0.3370 H     1 <1>   0.0800 
 24 H        3.3900    -0.5800     0.0180 H     1 <1>   0.0800 
 25 H        2.5500     0.0210     1.4210 H     1 <1>   0.0800 
 26 H        2.7900     1.3970    -1.1880 H     1 <1>   0.4500 
 27 H        3.8940     2.0670     1.4790 H     1 <1>   0.0800 
 28 H        3.8430     3.1960     0.1510 H     1 <1>   0.0800 
 29 H        5.1920     1.6320    -1.2320 H     1 <1>   0.0800 
 30 H        5.3270     0.5550     0.1520 H     1 <1>   0.0800 
 31 H        6.4670     2.3330     1.4300 H     1 <1>   0.0800 
 32 H        6.3170     3.4160     0.0660 H     1 <1>   0.0800 
 33 H        7.6820     1.8810    -1.2460 H     1 <1>   0.4500 
 34 H        7.7970     0.8430     0.0290 H     1 <1>   0.4500 
 35 H        8.8900     2.6320     1.3170 H     1 <1>   0.0800 
 36 H        8.1620     4.5470    -0.0490 H     1 <1>   0.0800 
 37 H        8.9360     3.8610    -1.4590 H     1 <1>   0.0800 
 38 H       10.1240     1.5260    -1.2180 H     1 <1>   0.0800 
 39 H       10.0830     0.7370     0.3430 H     1 <1>   0.0800 
 40 H       10.2970     4.8300     1.0600 H     1 <1>   0.0800 
 41 H       10.3400     5.5930    -0.5010 H     1 <1>   0.0800 
 42 H       12.2630     1.8010    -0.1020 H     1 <1>   0.0800 
 43 H       11.4940     2.4640     1.3080 H     1 <1>   0.0800 
 44 H       11.5510     3.7020    -1.4540 H     1 <1>   0.0800 
 45 H       12.8170     4.6170     1.1420 H     1 <1>   0.0800 
 46 H       12.8780     5.4690    -0.3820 H     1 <1>   0.0800 
 47 H       13.6620     3.9220    -0.2200 H     1 <1>   0.0800 
@<TRIPOS>BOND
  1   1   2  1   
  2   1   3  1   
  3   2   4  1   
  4   2  18  1   
  5   2  19  1   
  6   3   5  1   
  7   3  20  1   
  8   3  21  1   
  9   4   6  1   
 10   4  22  1   
 11   4  23  1   
 12   5   6  1   
 13   5  24  1   
 14   5  25  1   
 15   6   7  1   
 16   6  26  1   
 17   7   8  1   
 18   7  27  1   
 19   7  28  1   
 20   8   9  1   
 21   8  29  1   
 22   8  30  1   
 23   9  10  1   
 24   9  31  1   
 25   9  32  1   
 26  10  11  1   
 27  10  33  1   
 28  10  34  1   
 29  11  12  1   
 30  11  13  1   
 31  11  35  1   
 32  12  14  1   
 33  12  36  1   
 34  12  37  1   
 35  13  15  1   
 36  13  38  1   
 37  13  39  1   
 38  14  16  1   
 39  14  40  1   
 40  14  41  1   
 41  15  16  1   
 42  15  42  1   
 43  15  43  1   
 44  16  17  1   
 45  16  44  1   
 46  17  45  1   
 47  17  46  1   
 48  17  47  1   
@<TRIPOS>SUBSTRUCTURE
  1 ****   9 GROUP 4 **** **** 0

# MOE 2024.06 (io_trps.svl 2023.06)
