@<TRIPOS>MOLECULE
NONAME
33 34 1 0 0 
SMALL
USER_CHARGES


@<TRIPOS>ATOM
  1 BR      -0.6340    -0.0900     2.7440 Br    1 <1>  -0.0570 
  2 C       -0.9250    -1.5780     1.5510 C.2   1 <1>   0.0570 
  3 C        0.0530    -2.2360     0.9090 C.2   1 <1>  -0.1100 
  4 C       -2.2560    -2.0330     1.3150 C.2   1 <1>  -0.1500 
  5 S       -0.6680    -3.5100    -0.0650 S.3   1 <1>  -0.0800 
  6 C       -2.2980    -3.0720     0.4560 C.2   1 <1>  -0.1400 
  7 C       -3.4350    -3.9020    -0.1110 C.3   1 <1>   0.2900 
  8 N       -4.7110    -3.1600    -0.0480 N.3   1 <1>  -0.8100 
  9 C       -4.7330    -2.0230    -1.0050 C.3   1 <1>   0.1100 
 10 C       -5.8710    -4.0510    -0.2870 C.3   1 <1>   0.1100 
 11 C       -6.0610    -1.2290    -0.9470 C.3   1 <1>   0.3430 
 12 C       -7.2200    -3.2900    -0.2470 C.3   1 <1>   0.3430 
 13 N       -7.0150    -1.8300     0.0440 N.4   1 <1>  -0.9590 
 14 C       -8.2620    -1.0400     0.1940 C.3   1 <1>   0.3430 
 15 C       -8.9910    -1.4660     1.4620 C.3   1 <1>  -0.2400 
 16 H        1.1210    -2.1210     0.8950 H     1 <1>   0.1500 
 17 H       -3.0970    -1.5680     1.7960 H     1 <1>   0.1500 
 18 H       -3.5070    -4.8090     0.4650 H     1 <1>   0.0800 
 19 H       -3.2160    -4.1680    -1.1320 H     1 <1>   0.0800 
 20 H       -4.5840    -2.3860    -2.0080 H     1 <1>   0.0800 
 21 H       -3.9220    -1.3480    -0.7890 H     1 <1>   0.0800 
 22 H       -5.8880    -4.8210     0.4660 H     1 <1>   0.0800 
 23 H       -5.7700    -4.5380    -1.2430 H     1 <1>   0.0800 
 24 H       -6.5070    -1.2160    -1.9280 H     1 <1>   0.0800 
 25 H       -5.8430    -0.2100    -0.6730 H     1 <1>   0.0800 
 26 H       -7.8420    -3.7330     0.5120 H     1 <1>   0.0800 
 27 H       -7.7230    -3.4090    -1.1920 H     1 <1>   0.0800 
 28 H       -6.4850    -1.8240     0.9300 H     1 <1>   0.4500 
 29 H       -8.8980    -1.1790    -0.6660 H     1 <1>   0.0800 
 30 H       -8.0180     0.0080     0.2690 H     1 <1>   0.0800 
 31 H       -9.3470    -2.4780     1.3920 H     1 <1>   0.0800 
 32 H       -9.8470    -0.8300     1.6050 H     1 <1>   0.0800 
 33 H       -8.3550    -1.3620     2.3230 H     1 <1>   0.0800 
@<TRIPOS>BOND
  1   1   2  1   
  2   2   3  2   
  3   2   4  1   
  4   3   5  1   
  5   3  16  1   
  6   4   6  2   
  7   4  17  1   
  8   5   6  1   
  9   6   7  1   
 10   7   8  1   
 11   7  18  1   
 12   7  19  1   
 13   8   9  1   
 14   8  10  1   
 15   9  11  1   
 16   9  20  1   
 17   9  21  1   
 18  10  12  1   
 19  10  22  1   
 20  10  23  1   
 21  11  13  1   
 22  11  24  1   
 23  11  25  1   
 24  12  13  1   
 25  12  26  1   
 26  12  27  1   
 27  13  14  1   
 28  13  28  1   
 29  14  15  1   
 30  14  29  1   
 31  14  30  1   
 32  15  31  1   
 33  15  32  1   
 34  15  33  1   
@<TRIPOS>SUBSTRUCTURE
  1 ****   8 GROUP 4 **** **** 0

# MOE 2024.06 (io_trps.svl 2023.06)
