@<TRIPOS>MOLECULE
NONAME
56 58 1 0 0 
SMALL
USER_CHARGES


@<TRIPOS>ATOM
  1 BR      -0.1450    -0.4730     0.3260 Br    1 <1>  -0.1110 
  2 C        0.5300     1.2690    -0.1630 C.ar  1 <1>   0.1110 
  3 C       -0.3430     2.2130    -0.7270 C.ar  1 <1>   0.0830 
  4 C        1.8600     1.5290     0.0660 C.ar  1 <1>  -0.1500 
  5 O       -1.6430     1.8710    -0.9540 O.3   1 <1>  -0.3630 
  6 C        0.1450     3.4770    -1.0400 C.ar  1 <1>   0.0830 
  7 C        2.3490     2.7900    -0.2860 C.ar  1 <1>  -0.1520 
  8 C       -1.8790     1.2680    -2.2080 C.3   1 <1>   0.0400 
  9 O       -0.6200     4.4930    -1.5250 O.3   1 <1>  -0.3630 
 10 C        1.5070     3.7510    -0.8380 C.ar  1 <1>   0.0000 
 11 N        3.6270     3.3120    -0.1770 N.pl3 1 <1>   0.3260 
 12 C       -1.8770     4.7320    -0.9230 C.3   1 <1>   0.1200 
 13 C        2.3120     4.8860    -1.0790 C.2   1 <1>  -0.1500 
 14 C        4.7680     2.6250     0.2970 C.ar  1 <1>  -0.0230 
 15 C        3.5700     4.5980    -0.6740 C.2   1 <1>  -0.3320 
 16 C       -2.1430     6.2410    -0.9300 C.3   1 <1>   0.2000 
 17 C        5.3730     1.6450    -0.4810 C.ar  1 <1>  -0.1500 
 18 C        5.3030     2.9150     1.5480 C.ar  1 <1>  -0.1500 
 19 C        4.7930     5.4980    -0.7400 C.3   1 <1>  -0.0600 
 20 O       -1.0290     6.8990    -0.4020 O.3   1 <1>  -0.6800 
 21 C       -3.3810     6.6230    -0.0950 C.3   1 <1>   0.3430 
 22 C        6.4890     0.9700    -0.0210 C.ar  1 <1>  -0.1500 
 23 C        6.4200     2.2420     2.0090 C.ar  1 <1>  -0.1500 
 24 N       -3.2650     8.0420     0.3510 N.4   1 <1>  -0.9060 
 25 C        7.0140     1.2680     1.2250 C.ar  1 <1>  -0.1500 
 26 C       -4.0070     8.3880     1.5660 C.3   1 <1>   0.4230 
 27 C       -5.5010     8.3980     1.2560 C.3   1 <1>  -0.2400 
 28 C       -3.5330     9.7630     2.0140 C.3   1 <1>  -0.2400 
 29 H        2.5080     0.7880     0.5010 H     1 <1>   0.1500 
 30 H       -1.3010     0.3630    -2.2780 H     1 <1>   0.0800 
 31 H       -1.5930     1.9540    -2.9850 H     1 <1>   0.0800 
 32 H       -2.9270     1.0390    -2.2810 H     1 <1>   0.0800 
 33 H       -1.8560     4.3590     0.0870 H     1 <1>   0.0800 
 34 H       -2.6250     4.2010    -1.4850 H     1 <1>   0.0800 
 35 H        1.9490     5.7970    -1.5200 H     1 <1>   0.1500 
 36 H       -2.2690     6.5710    -1.9470 H     1 <1>   0.0800 
 37 H        4.9670     1.4120    -1.4510 H     1 <1>   0.1500 
 38 H        4.8420     3.6700     2.1610 H     1 <1>   0.1500 
 39 H        5.1750     5.6820     0.2480 H     1 <1>   0.0800 
 40 H        4.5410     6.4410    -1.1920 H     1 <1>   0.0800 
 41 H        5.5650     5.0320    -1.3280 H     1 <1>   0.0800 
 42 H       -0.2190     6.4390    -0.7310 H     1 <1>   0.4000 
 43 H       -3.4150     5.9800     0.7690 H     1 <1>   0.0800 
 44 H       -4.2830     6.4690    -0.6640 H     1 <1>   0.0800 
 45 H        6.9510     0.2130    -0.6310 H     1 <1>   0.1500 
 46 H        6.8270     2.4730     2.9780 H     1 <1>   0.1500 
 47 H       -3.4940     8.6910    -0.4060 H     1 <1>   0.4500 
 48 H       -2.2490     8.1640     0.5170 H     1 <1>   0.4500 
 49 H        7.8830     0.7440     1.5830 H     1 <1>   0.1500 
 50 H       -3.7980     7.6680     2.3430 H     1 <1>   0.0800 
 51 H       -5.7310     9.0960     0.4700 H     1 <1>   0.0800 
 52 H       -6.0460     8.6970     2.1340 H     1 <1>   0.0800 
 53 H       -5.8470     7.4190     0.9810 H     1 <1>   0.0800 
 54 H       -3.7290    10.5090     1.2640 H     1 <1>   0.0800 
 55 H       -2.4810     9.7470     2.2380 H     1 <1>   0.0800 
 56 H       -4.0530    10.0490     2.9110 H     1 <1>   0.0800 
@<TRIPOS>BOND
  1   1   2  1   
  2   2   3  ar  
  3   2   4  ar  
  4   3   5  1   
  5   3   6  ar  
  6   4   7  ar  
  7   4  29  1   
  8   5   8  1   
  9   6   9  1   
 10   6  10  ar  
 11   7  10  ar  
 12   7  11  1   
 13   8  30  1   
 14   8  31  1   
 15   8  32  1   
 16   9  12  1   
 17  10  13  1   
 18  11  14  1   
 19  11  15  1   
 20  12  16  1   
 21  12  33  1   
 22  12  34  1   
 23  13  15  2   
 24  13  35  1   
 25  14  17  ar  
 26  14  18  ar  
 27  15  19  1   
 28  16  20  1   
 29  16  21  1   
 30  16  36  1   
 31  17  22  ar  
 32  17  37  1   
 33  18  23  ar  
 34  18  38  1   
 35  19  39  1   
 36  19  40  1   
 37  19  41  1   
 38  20  42  1   
 39  21  24  1   
 40  21  43  1   
 41  21  44  1   
 42  22  25  ar  
 43  22  45  1   
 44  23  25  ar  
 45  23  46  1   
 46  24  26  1   
 47  24  47  1   
 48  24  48  1   
 49  25  49  1   
 50  26  27  1   
 51  26  28  1   
 52  26  50  1   
 53  27  51  1   
 54  27  52  1   
 55  27  53  1   
 56  28  54  1   
 57  28  55  1   
 58  28  56  1   
@<TRIPOS>SUBSTRUCTURE
  1 ****  10 GROUP 4 **** **** 0

# MOE 2024.06 (io_trps.svl 2023.06)
