@<TRIPOS>MOLECULE
NONAME
40 40 1 0 0 
SMALL
USER_CHARGES


@<TRIPOS>ATOM
  1 CL       0.2240     0.1450     0.9450 Cl    1 <1>  -0.1770 
  2 C        1.8320     0.7270     0.5920 C.ar  1 <1>   0.1770 
  3 C        1.9870     1.8650    -0.1760 C.ar  1 <1>  -0.1500 
  4 C        2.9250     0.0400     1.0880 C.ar  1 <1>  -0.1500 
  5 C        3.2640     2.3230    -0.4530 C.ar  1 <1>  -0.1500 
  6 C        4.2020     0.5000     0.8090 C.ar  1 <1>  -0.1500 
  7 C        4.3740     1.6470     0.0350 C.ar  1 <1>   0.0830 
  8 O        5.5860     2.1660    -0.2860 O.3   1 <1>  -0.3630 
  9 C        6.7810     1.5660     0.1480 C.3   1 <1>   0.1200 
 10 C        7.9390     2.4080    -0.3910 C.3   1 <1>  -0.1600 
 11 C        9.3040     1.8370     0.0200 C.3   1 <1>  -0.1600 
 12 C       10.4330     2.7150    -0.5260 C.3   1 <1>   0.3430 
 13 N       11.7580     2.2050    -0.0670 N.4   1 <1>  -0.9590 
 14 C       12.7990     3.2690    -0.1430 C.3   1 <1>   0.3430 
 15 C       12.1690     0.9960    -0.8330 C.3   1 <1>   0.3430 
 16 C       12.6220     4.2390     1.0190 C.3   1 <1>  -0.2400 
 17 C       13.1980     0.2100    -0.0280 C.3   1 <1>  -0.2400 
 18 H        1.1210     2.3820    -0.5500 H     1 <1>   0.1500 
 19 H        2.7720    -0.8420     1.6830 H     1 <1>   0.1500 
 20 H        3.4080     3.2060    -1.0490 H     1 <1>   0.1500 
 21 H        5.0400    -0.0440     1.2010 H     1 <1>   0.1500 
 22 H        6.8170     0.5630    -0.2410 H     1 <1>   0.0800 
 23 H        6.7810     1.5510     1.2250 H     1 <1>   0.0800 
 24 H        7.8350     3.4110    -0.0110 H     1 <1>   0.0800 
 25 H        7.8660     2.4390    -1.4650 H     1 <1>   0.0800 
 26 H        9.3870     0.8360    -0.3630 H     1 <1>   0.0800 
 27 H        9.3590     1.8080     1.0940 H     1 <1>   0.0800 
 28 H       10.2840     3.7200    -0.1690 H     1 <1>   0.0800 
 29 H       10.3970     2.7380    -1.6040 H     1 <1>   0.0800 
 30 H       11.6680     1.9340     0.9210 H     1 <1>   0.4500 
 31 H       12.7310     3.7930    -1.0830 H     1 <1>   0.0800 
 32 H       13.7810     2.8290    -0.0750 H     1 <1>   0.0800 
 33 H       12.5790     1.2800    -1.7890 H     1 <1>   0.0800 
 34 H       11.3150     0.3620    -1.0090 H     1 <1>   0.0800 
 35 H       11.6870     4.7660     0.9600 H     1 <1>   0.0800 
 36 H       12.6900     3.7240     1.9610 H     1 <1>   0.0800 
 37 H       13.4090     4.9710     0.9870 H     1 <1>   0.0800 
 38 H       13.4510    -0.6870    -0.5650 H     1 <1>   0.0800 
 39 H       14.1040     0.7700     0.1150 H     1 <1>   0.0800 
 40 H       12.7960    -0.0800     0.9270 H     1 <1>   0.0800 
@<TRIPOS>BOND
  1   1   2  1   
  2   2   3  ar  
  3   2   4  ar  
  4   3   5  ar  
  5   3  18  1   
  6   4   6  ar  
  7   4  19  1   
  8   5   7  ar  
  9   5  20  1   
 10   6   7  ar  
 11   6  21  1   
 12   7   8  1   
 13   8   9  1   
 14   9  10  1   
 15   9  22  1   
 16   9  23  1   
 17  10  11  1   
 18  10  24  1   
 19  10  25  1   
 20  11  12  1   
 21  11  26  1   
 22  11  27  1   
 23  12  13  1   
 24  12  28  1   
 25  12  29  1   
 26  13  14  1   
 27  13  15  1   
 28  13  30  1   
 29  14  16  1   
 30  14  31  1   
 31  14  32  1   
 32  15  17  1   
 33  15  33  1   
 34  15  34  1   
 35  16  35  1   
 36  16  36  1   
 37  16  37  1   
 38  17  38  1   
 39  17  39  1   
 40  17  40  1   
@<TRIPOS>SUBSTRUCTURE
  1 ****   9 GROUP 4 **** **** 0

# MOE 2024.06 (io_trps.svl 2023.06)
