@<TRIPOS>MOLECULE
NONAME
41 43 1 0 0 
SMALL
USER_CHARGES


@<TRIPOS>ATOM
  1 S        0.0220    -0.0230     0.2410 S.3   1 <1>  -0.0800 
  2 C        1.0460     1.4160     0.1410 C.2   1 <1>  -0.0450 
  3 C       -1.4480     0.9210     0.1500 C.2   1 <1>  -0.1100 
  4 C        2.4780     1.2540     0.1740 C.2   1 <1>   0.7150 
  5 C        0.2410     2.5080     0.0430 C.2   1 <1>  -0.1500 
  6 C       -1.1580     2.2310     0.0490 C.2   1 <1>  -0.1500 
  7 O        2.9950     0.1550     0.1540 O.2   1 <1>  -0.5700 
  8 N        3.2610     2.3820     0.2470 N.am  1 <1>  -0.5470 
  9 C        4.6470     2.5480     0.1880 C.ar  1 <1>   0.1170 
 10 C        5.2180     3.6690     0.7790 C.ar  1 <1>  -0.1500 
 11 C        5.4940     1.6530    -0.4600 C.ar  1 <1>  -0.1500 
 12 C        6.5830     3.8820     0.7360 C.ar  1 <1>  -0.1500 
 13 C        6.8580     1.8690    -0.5010 C.ar  1 <1>  -0.1500 
 14 C        7.4430     2.9830     0.1000 C.ar  1 <1>   0.0860 
 15 C        8.8780     3.1890     0.0570 C.2   1 <1>   0.5440 
 16 O        9.5400     2.7700    -0.8720 O.2   1 <1>  -0.5700 
 17 N        9.5200     3.8540     1.0650 N.am  1 <1>  -0.7300 
 18 C       10.9910     4.0930     1.1270 C.3   1 <1>   0.1400 
 19 C       11.4620     5.0860     0.0540 C.3   1 <1>   0.2000 
 20 O       12.7750     5.4580     0.3190 O.3   1 <1>  -0.5600 
 21 C       10.7090     6.4110     0.0180 C.3   1 <1>  -0.1600 
 22 C       13.0730     6.6350    -0.3580 C.3   1 <1>   0.1200 
 23 C       11.7530     7.3920    -0.4930 C.3   1 <1>  -0.1600 
 24 H       -2.3830     0.3910     0.1810 H     1 <1>   0.1500 
 25 H        0.5800     3.5250    -0.0410 H     1 <1>   0.1500 
 26 H       -1.8850     3.0220    -0.0230 H     1 <1>   0.1500 
 27 H        2.7310     3.2280     0.4320 H     1 <1>   0.3700 
 28 H        4.5890     4.3820     1.2810 H     1 <1>   0.1500 
 29 H        5.0890     0.7810    -0.9400 H     1 <1>   0.1500 
 30 H        6.9890     4.7650     1.1950 H     1 <1>   0.1500 
 31 H        7.4920     1.1620    -1.0090 H     1 <1>   0.1500 
 32 H        9.0030     4.0840     1.9140 H     1 <1>   0.3700 
 33 H       11.5050     3.1580     0.9840 H     1 <1>   0.0800 
 34 H       11.2410     4.4810     2.0990 H     1 <1>   0.0800 
 35 H       11.4480     4.6170    -0.9160 H     1 <1>   0.0800 
 36 H       10.3990     6.6820     1.0120 H     1 <1>   0.0800 
 37 H        9.8460     6.3510    -0.6220 H     1 <1>   0.0800 
 38 H       13.4730     6.3730    -1.3230 H     1 <1>   0.0800 
 39 H       13.8050     7.1840     0.2100 H     1 <1>   0.0800 
 40 H       11.7650     8.2940     0.0920 H     1 <1>   0.0800 
 41 H       11.5820     7.6430    -1.5250 H     1 <1>   0.0800 
@<TRIPOS>BOND
  1   1   2  1   
  2   1   3  1   
  3   2   4  1   
  4   2   5  2   
  5   3   6  2   
  6   3  24  1   
  7   4   7  2   
  8   4   8  am  
  9   5   6  1   
 10   5  25  1   
 11   6  26  1   
 12   8   9  1   
 13   8  27  1   
 14   9  10  ar  
 15   9  11  ar  
 16  10  12  ar  
 17  10  28  1   
 18  11  13  ar  
 19  11  29  1   
 20  12  14  ar  
 21  12  30  1   
 22  13  14  ar  
 23  13  31  1   
 24  14  15  1   
 25  15  16  2   
 26  15  17  am  
 27  17  18  1   
 28  17  32  1   
 29  18  19  1   
 30  18  33  1   
 31  18  34  1   
 32  19  20  1   
 33  19  21  1   
 34  19  35  1   
 35  20  22  1   
 36  21  23  1   
 37  21  36  1   
 38  21  37  1   
 39  22  23  1   
 40  22  38  1   
 41  22  39  1   
 42  23  40  1   
 43  23  41  1   
@<TRIPOS>SUBSTRUCTURE
  1 ****  12 GROUP 4 **** **** 0

# MOE 2024.06 (io_trps.svl 2023.06)
