@<TRIPOS>MOLECULE
NONAME
44 48 1 0 0 
SMALL
USER_CHARGES


@<TRIPOS>ATOM
  1 CL       0.4610     2.0500     1.6710 Cl    1 <1>  -0.1770 
  2 C       -0.4300     2.8100     0.3720 C.ar  1 <1>   0.1770 
  3 C       -1.4240     2.1150    -0.3020 C.ar  1 <1>  -0.1440 
  4 C       -0.1130     4.1160     0.0460 C.ar  1 <1>  -0.1500 
  5 C       -2.1080     2.7630    -1.3210 C.ar  1 <1>  -0.1500 
  6 C       -1.7740     0.6790     0.0570 C.3   1 <1>   0.2640 
  7 C       -0.8020     4.7500    -0.9740 C.ar  1 <1>  -0.1500 
  8 C       -1.7990     4.0720    -1.6540 C.ar  1 <1>  -0.1500 
  9 O       -2.7500     0.6940     1.0770 O.3   1 <1>  -0.4300 
 10 C       -4.0460     0.7740     0.8100 C.2   1 <1>   0.6590 
 11 O       -4.4710     0.7490    -0.3200 O.2   1 <1>  -0.5700 
 12 C       -4.9530     0.9060     2.0300 C.3   1 <1>   0.2010 
 13 N       -6.3910     0.9670     1.6660 N.am  1 <1>  -0.4200 
 14 C       -7.0580     2.1270     1.3590 C.2   1 <1>   0.5690 
 15 C       -7.1010    -0.1280     1.2400 C.2   1 <1>   0.5690 
 16 O       -6.6240     3.2470     1.4100 O.2   1 <1>  -0.5700 
 17 C       -8.4650     1.7360     1.0060 C.3   1 <1>  -0.0190 
 18 O       -6.8600    -1.2810     1.4830 O.2   1 <1>  -0.5700 
 19 C       -8.1850     0.3810     0.3320 C.3   1 <1>  -0.0190 
 20 C       -9.6550     2.4200     0.2820 C.3   1 <1>   0.1530 
 21 C       -9.5110    -0.2030    -0.2350 C.3   1 <1>   0.1530 
 22 C      -10.8070     1.5690     0.8400 C.2   1 <1>  -0.2880 
 23 C       -9.6180     2.1070    -1.2470 C.3   1 <1>  -0.1950 
 24 C      -10.7060     0.2470     0.6200 C.2   1 <1>  -0.2880 
 25 C       -9.6600     0.6170    -1.5570 C.3   1 <1>  -0.1950 
 26 C      -10.7640     1.5300    -2.0260 C.3   1 <1>  -0.2000 
 27 H        0.6620     4.6280     0.5860 H     1 <1>   0.1500 
 28 H       -2.8920     2.2530    -1.8570 H     1 <1>   0.1500 
 29 H       -0.9140     0.1520     0.4320 H     1 <1>   0.0800 
 30 H       -2.1530     0.1420    -0.7960 H     1 <1>   0.0800 
 31 H       -0.5650     5.7670    -1.2360 H     1 <1>   0.1500 
 32 H       -2.3390     4.5640    -2.4450 H     1 <1>   0.1500 
 33 H       -4.6840     1.7990     2.5630 H     1 <1>   0.0800 
 34 H       -4.7900     0.0610     2.6740 H     1 <1>   0.0800 
 35 H       -8.8430     1.5410     1.9990 H     1 <1>   0.0800 
 36 H       -7.5830     0.5700    -0.5440 H     1 <1>   0.0800 
 37 H       -9.7630     3.4640     0.5180 H     1 <1>   0.0800 
 38 H       -9.4760    -1.2650    -0.4110 H     1 <1>   0.0800 
 39 H      -11.5860     2.0850     1.3750 H     1 <1>   0.1500 
 40 H       -8.8890     2.6980    -1.7750 H     1 <1>   0.1000 
 41 H      -11.3860    -0.5210     0.9460 H     1 <1>   0.1500 
 42 H       -9.0160     0.2430    -2.3360 H     1 <1>   0.1000 
 43 H      -10.8250     1.7550    -3.0760 H     1 <1>   0.1000 
 44 H      -11.7430     1.4430    -1.5870 H     1 <1>   0.1000 
@<TRIPOS>BOND
  1   1   2  1   
  2   2   3  ar  
  3   2   4  ar  
  4   3   5  ar  
  5   3   6  1   
  6   4   7  ar  
  7   4  27  1   
  8   5   8  ar  
  9   5  28  1   
 10   6   9  1   
 11   6  29  1   
 12   6  30  1   
 13   7   8  ar  
 14   7  31  1   
 15   8  32  1   
 16   9  10  1   
 17  10  11  2   
 18  10  12  1   
 19  12  13  1   
 20  12  33  1   
 21  12  34  1   
 22  13  14  am  
 23  13  15  am  
 24  14  16  2   
 25  14  17  1   
 26  15  18  2   
 27  15  19  1   
 28  17  19  1   
 29  17  20  1   
 30  17  35  1   
 31  19  21  1   
 32  19  36  1   
 33  20  22  1   
 34  20  23  1   
 35  20  37  1   
 36  21  24  1   
 37  21  25  1   
 38  21  38  1   
 39  22  24  2   
 40  22  39  1   
 41  23  25  1   
 42  23  26  1   
 43  23  40  1   
 44  24  41  1   
 45  25  26  1   
 46  25  42  1   
 47  26  43  1   
 48  26  44  1   
@<TRIPOS>SUBSTRUCTURE
  1 ****  11 GROUP 4 **** **** 0

# MOE 2024.06 (io_trps.svl 2023.06)
