@<TRIPOS>MOLECULE
NONAME
52 53 1 0 0 
SMALL
USER_CHARGES


@<TRIPOS>ATOM
  1 S       -0.6430     0.7620    -0.2250 S.o2  1 <1>   1.3330 
  2 O        0.6940     1.1930     0.1040 O.2   1 <1>  -0.6500 
  3 O       -1.3590     1.3840    -1.3150 O.2   1 <1>  -0.6500 
  4 N       -0.5720    -0.9370    -0.5570 N.am  1 <1>  -0.6930 
  5 C       -1.6280     0.8580     1.2570 C.3   1 <1>  -0.1350 
  6 C        0.5430    -1.7060    -0.2530 C.ar  1 <1>   0.1990 
  7 C       -1.6480    -1.4810    -1.4170 C.3   1 <1>   0.3390 
  8 C        1.2250    -2.4110    -1.2410 C.ar  1 <1>  -0.1500 
  9 C        1.0140    -1.8060     1.0520 C.ar  1 <1>  -0.1500 
 10 C       -2.9920    -1.4600    -0.6940 C.ar  1 <1>  -0.1430 
 11 C        2.3200    -3.1960    -0.9340 C.ar  1 <1>  -0.1500 
 12 C        2.1080    -2.5910     1.3570 C.ar  1 <1>  -0.1500 
 13 C       -3.3100    -2.3520     0.3290 C.ar  1 <1>  -0.1430 
 14 C       -3.9270    -0.5080    -1.0800 C.ar  1 <1>  -0.1500 
 15 C        2.7940    -3.3070     0.3750 C.ar  1 <1>   0.0860 
 16 C       -4.5480    -2.2660     0.9480 C.ar  1 <1>  -0.1500 
 17 C       -2.3400    -3.4280     0.8020 C.3   1 <1>  -0.0970 
 18 C       -5.1580    -0.4310    -0.4580 C.ar  1 <1>  -0.1500 
 19 C        3.9420    -4.1250     0.7130 C.2   1 <1>   0.5440 
 20 C       -5.4690    -1.3120     0.5600 C.ar  1 <1>  -0.1500 
 21 O        4.0210    -4.6610     1.8020 O.2   1 <1>  -0.5700 
 22 N        4.9630    -4.2950    -0.1810 N.am  1 <1>  -0.7300 
 23 C        6.1720    -5.1020     0.0430 C.3   1 <1>   0.2200 
 24 C        7.3490    -4.1440     0.2740 C.3   1 <1>  -0.1600 
 25 C        6.3590    -5.9960    -1.1820 C.3   1 <1>  -0.2400 
 26 C        8.6590    -4.8630     0.6290 C.3   1 <1>  -0.2400 
 27 H       -1.7090     1.8790     1.5730 H     1 <1>   0.0800 
 28 H       -1.1750     0.2920     2.0450 H     1 <1>   0.0800 
 29 H       -2.6150     0.4790     1.0860 H     1 <1>   0.0800 
 30 H       -1.4200    -2.4930    -1.6990 H     1 <1>   0.0800 
 31 H       -1.7030    -0.9030    -2.3230 H     1 <1>   0.0800 
 32 H        0.8960    -2.3360    -2.2610 H     1 <1>   0.1500 
 33 H        0.5180    -1.2660     1.8350 H     1 <1>   0.1500 
 34 H        2.8140    -3.7370    -1.7210 H     1 <1>   0.1500 
 35 H        2.4500    -2.6580     2.3770 H     1 <1>   0.1500 
 36 H       -3.6980     0.1900    -1.8690 H     1 <1>   0.1500 
 37 H       -4.8060    -2.9460     1.7420 H     1 <1>   0.1500 
 38 H       -1.5550    -2.9820     1.3830 H     1 <1>   0.0800 
 39 H       -1.9080    -3.9490    -0.0320 H     1 <1>   0.0800 
 40 H       -2.8430    -4.1530     1.4160 H     1 <1>   0.0800 
 41 H       -5.8720     0.3130    -0.7660 H     1 <1>   0.1500 
 42 H       -6.4270    -1.2560     1.0470 H     1 <1>   0.1500 
 43 H        4.9770    -3.7330    -1.0300 H     1 <1>   0.3700 
 44 H        6.0360    -5.7190     0.9170 H     1 <1>   0.0800 
 45 H        7.0940    -3.4920     1.0920 H     1 <1>   0.0800 
 46 H        7.5040    -3.5380    -0.6010 H     1 <1>   0.0800 
 47 H        5.4770    -6.5900    -1.3370 H     1 <1>   0.0800 
 48 H        7.1840    -6.6670    -1.0280 H     1 <1>   0.0800 
 49 H        6.5540    -5.4060    -2.0590 H     1 <1>   0.0800 
 50 H        8.5150    -5.5010     1.4840 H     1 <1>   0.0800 
 51 H        9.4170    -4.1390     0.8700 H     1 <1>   0.0800 
 52 H        9.0100    -5.4560    -0.1960 H     1 <1>   0.0800 
@<TRIPOS>BOND
  1   1   2  2   
  2   1   3  2   
  3   1   4  am  
  4   1   5  1   
  5   4   6  1   
  6   4   7  1   
  7   5  27  1   
  8   5  28  1   
  9   5  29  1   
 10   6   8  ar  
 11   6   9  ar  
 12   7  10  1   
 13   7  30  1   
 14   7  31  1   
 15   8  11  ar  
 16   8  32  1   
 17   9  12  ar  
 18   9  33  1   
 19  10  13  ar  
 20  10  14  ar  
 21  11  15  ar  
 22  11  34  1   
 23  12  15  ar  
 24  12  35  1   
 25  13  16  ar  
 26  13  17  1   
 27  14  18  ar  
 28  14  36  1   
 29  15  19  1   
 30  16  20  ar  
 31  16  37  1   
 32  17  38  1   
 33  17  39  1   
 34  17  40  1   
 35  18  20  ar  
 36  18  41  1   
 37  19  21  2   
 38  19  22  am  
 39  20  42  1   
 40  22  23  1   
 41  22  43  1   
 42  23  24  1   
 43  23  25  1   
 44  23  44  1   
 45  24  26  1   
 46  24  45  1   
 47  24  46  1   
 48  25  47  1   
 49  25  48  1   
 50  25  49  1   
 51  26  50  1   
 52  26  51  1   
 53  26  52  1   
@<TRIPOS>SUBSTRUCTURE
  1 ****   6 GROUP 4 **** **** 0

# MOE 2024.06 (io_trps.svl 2023.06)
