@<TRIPOS>MOLECULE
NONAME
52 54 1 0 0 
SMALL
USER_CHARGES


@<TRIPOS>ATOM
  1 O        0.9550    -3.5080     1.8060 O.2   1 <1>  -0.5700 
  2 C        0.3940    -2.8680     0.9370 C.2   1 <1>   0.5440 
  3 N        1.0350    -1.8010     0.3650 N.am  1 <1>  -0.5470 
  4 C       -0.9290    -3.2550     0.4970 C.ar  1 <1>   0.0860 
  5 C        2.2220    -1.1590     0.7650 C.ar  1 <1>   0.1170 
  6 C       -1.3250    -3.2410    -0.8520 C.ar  1 <1>   0.0830 
  7 C       -1.8660    -3.6750     1.4440 C.ar  1 <1>  -0.1500 
  8 C        3.5160    -1.6760     0.5350 C.ar  1 <1>   0.1000 
  9 C        2.0850     0.0660     1.4020 C.ar  1 <1>  -0.1500 
 10 O       -0.4190    -2.8610    -1.7910 O.3   1 <1>  -0.3630 
 11 C       -2.6150    -3.6250    -1.2050 C.ar  1 <1>  -0.1500 
 12 C       -3.1440    -4.0570     1.0890 C.ar  1 <1>  -0.1500 
 13 N        3.8010    -2.9060    -0.0860 N.pl3 1 <1>  -0.8380 
 14 C        4.6090    -0.9280     0.9530 C.ar  1 <1>  -0.1500 
 15 C        3.1880     0.7910     1.8130 C.ar  1 <1>  -0.1500 
 16 C       -0.8060    -2.5430    -3.1150 C.3   1 <1>   0.0400 
 17 C       -3.5260    -4.0310    -0.2480 C.ar  1 <1>   0.0830 
 18 C        4.2910    -4.0120     0.7920 C.3   1 <1>   0.2090 
 19 C        3.1740    -3.2800    -1.3890 C.3   1 <1>   0.2090 
 20 C        4.4560     0.2920     1.5860 C.ar  1 <1>  -0.1500 
 21 O       -4.7530    -4.3880    -0.6870 O.3   1 <1>  -0.3630 
 22 C        3.3330    -5.2210     0.8300 C.3   1 <1>   0.3430 
 23 C        2.2520    -4.5130    -1.2740 C.3   1 <1>   0.3430 
 24 C       -5.7710    -4.8010     0.1990 C.3   1 <1>   0.0400 
 25 N        2.8800    -5.6690    -0.5380 N.4   1 <1>  -0.9590 
 26 C        1.9110    -6.7960    -0.4150 C.3   1 <1>   0.2630 
 27 H        0.4970    -1.3120    -0.3510 H     1 <1>   0.3700 
 28 H       -1.5790    -3.6980     2.4830 H     1 <1>   0.1500 
 29 H        1.1020     0.4600     1.5850 H     1 <1>   0.1500 
 30 H       -2.9500    -3.6260    -2.2240 H     1 <1>   0.1500 
 31 H       -3.8270    -4.3690     1.8570 H     1 <1>   0.1500 
 32 H        5.5970    -1.3070     0.7740 H     1 <1>   0.1500 
 33 H        3.0600     1.7390     2.3080 H     1 <1>   0.1500 
 34 H        0.0490    -2.1430    -3.6320 H     1 <1>   0.0800 
 35 H       -1.5880    -1.8040    -3.0850 H     1 <1>   0.0800 
 36 H       -1.1450    -3.4360    -3.6090 H     1 <1>   0.0800 
 37 H        4.4160    -3.6430     1.7960 H     1 <1>   0.0800 
 38 H        5.2570    -4.3310     0.4420 H     1 <1>   0.0800 
 39 H        3.9550    -3.4850    -2.0990 H     1 <1>   0.0800 
 40 H        2.6080    -2.4470    -1.7680 H     1 <1>   0.0800 
 41 H        5.3210     0.8500     1.9000 H     1 <1>   0.1500 
 42 H        2.4790    -4.9560     1.4240 H     1 <1>   0.0800 
 43 H        3.8270    -6.0340     1.3340 H     1 <1>   0.0800 
 44 H        1.9630    -4.8220    -2.2640 H     1 <1>   0.0800 
 45 H        1.3580    -4.2140    -0.7590 H     1 <1>   0.0800 
 46 H       -6.6490    -5.0210    -0.3820 H     1 <1>   0.0800 
 47 H       -5.9810    -4.0020     0.8880 H     1 <1>   0.0800 
 48 H       -5.4470    -5.6840     0.7190 H     1 <1>   0.0800 
 49 H        3.7120    -5.9660    -1.0640 H     1 <1>   0.4500 
 50 H        1.0450    -6.4800     0.1450 H     1 <1>   0.0800 
 51 H        2.3670    -7.6280     0.0980 H     1 <1>   0.0800 
 52 H        1.5920    -7.1260    -1.3900 H     1 <1>   0.0800 
@<TRIPOS>BOND
  1   1   2  2   
  2   2   3  am  
  3   2   4  1   
  4   3   5  1   
  5   3  27  1   
  6   4   6  ar  
  7   4   7  ar  
  8   5   8  ar  
  9   5   9  ar  
 10   6  10  1   
 11   6  11  ar  
 12   7  12  ar  
 13   7  28  1   
 14   8  13  1   
 15   8  14  ar  
 16   9  15  ar  
 17   9  29  1   
 18  10  16  1   
 19  11  17  ar  
 20  11  30  1   
 21  12  17  ar  
 22  12  31  1   
 23  13  18  1   
 24  13  19  1   
 25  14  20  ar  
 26  14  32  1   
 27  15  20  ar  
 28  15  33  1   
 29  16  34  1   
 30  16  35  1   
 31  16  36  1   
 32  17  21  1   
 33  18  22  1   
 34  18  37  1   
 35  18  38  1   
 36  19  23  1   
 37  19  39  1   
 38  19  40  1   
 39  20  41  1   
 40  21  24  1   
 41  22  25  1   
 42  22  42  1   
 43  22  43  1   
 44  23  25  1   
 45  23  44  1   
 46  23  45  1   
 47  24  46  1   
 48  24  47  1   
 49  24  48  1   
 50  25  26  1   
 51  25  49  1   
 52  26  50  1   
 53  26  51  1   
 54  26  52  1   
@<TRIPOS>SUBSTRUCTURE
  1 ****   2 GROUP 4 **** **** 0

# MOE 2024.06 (io_trps.svl 2023.06)
