@<TRIPOS>MOLECULE
NONAME
28 28 1 0 0 
SMALL
USER_CHARGES


@<TRIPOS>ATOM
  1 S        0.1250     0.0770     0.2450 S.o2  1 <1>   1.4590 
  2 O       -0.9410    -0.2750    -0.7290 O.co2 1 <1>  -0.8170 
  3 O        0.5980     1.4790     0.1250 O.co2 1 <1>  -0.8170 
  4 O       -0.2050    -0.3150     1.6360 O.co2 1 <1>  -0.8170 
  5 C        1.5670    -0.9650    -0.2160 C.ar  1 <1>  -0.0090 
  6 C        2.8710    -0.5390     0.0140 C.ar  1 <1>  -0.1500 
  7 C        1.3990    -2.2230    -0.7850 C.ar  1 <1>  -0.1500 
  8 C        3.9590    -1.3310    -0.3080 C.ar  1 <1>  -0.1500 
  9 C        2.4810    -3.0210    -1.1100 C.ar  1 <1>  -0.1500 
 10 C        3.7790    -2.5880    -0.8680 C.ar  1 <1>   0.1000 
 11 N        4.8790    -3.3770    -1.1780 N.pl3 1 <1>  -0.8690 
 12 C        4.9030    -4.7770    -0.7060 C.3   1 <1>   0.2090 
 13 C        6.3310    -5.1410    -0.3110 C.3   1 <1>  -0.1600 
 14 C        6.4200    -6.5890     0.2030 C.3   1 <1>  -0.2660 
 15 C        7.8290    -6.9600     0.6010 C.2   1 <1>   0.9060 
 16 O        8.2290    -6.6300     1.7210 O.co2 1 <1>  -0.9000 
 17 O        8.5270    -7.5740    -0.2110 O.co2 1 <1>  -0.9000 
 18 H        3.0160     0.4330     0.4530 H     1 <1>   0.1500 
 19 H        0.3940    -2.5640    -0.9720 H     1 <1>   0.1500 
 20 H        4.9530    -0.9740    -0.1190 H     1 <1>   0.1500 
 21 H        2.3240    -3.9840    -1.5570 H     1 <1>   0.1500 
 22 H        5.7780    -2.9280    -0.9790 H     1 <1>   0.4000 
 23 H        4.5620    -5.4250    -1.4950 H     1 <1>   0.0800 
 24 H        4.2500    -4.8890     0.1440 H     1 <1>   0.0800 
 25 H        6.6730    -4.4810     0.4670 H     1 <1>   0.0800 
 26 H        6.9810    -5.0380    -1.1630 H     1 <1>   0.0800 
 27 H        6.1020    -7.2760    -0.5570 H     1 <1>   0.0800 
 28 H        5.7960    -6.7170     1.0670 H     1 <1>   0.0800 
@<TRIPOS>BOND
  1   1   2  ar  
  2   1   3  ar  
  3   1   4  ar  
  4   1   5  1   
  5   5   6  ar  
  6   5   7  ar  
  7   6   8  ar  
  8   6  18  1   
  9   7   9  ar  
 10   7  19  1   
 11   8  10  ar  
 12   8  20  1   
 13   9  10  ar  
 14   9  21  1   
 15  10  11  1   
 16  11  12  1   
 17  11  22  1   
 18  12  13  1   
 19  12  23  1   
 20  12  24  1   
 21  13  14  1   
 22  13  25  1   
 23  13  26  1   
 24  14  15  1   
 25  14  27  1   
 26  14  28  1   
 27  15  16  ar  
 28  15  17  ar  
@<TRIPOS>SUBSTRUCTURE
  1 ****  10 GROUP 4 **** **** 0

# MOE 2024.06 (io_trps.svl 2023.06)
