@<TRIPOS>MOLECULE
NONAME
40 41 1 0 0 
SMALL
USER_CHARGES


@<TRIPOS>ATOM
  1 O       -2.8350     1.3040     1.7390 O.2   1 <1>  -0.5700 
  2 C       -1.8870     1.3300     0.9940 C.2   1 <1>   0.6590 
  3 O       -1.1680     0.2390     0.7480 O.3   1 <1>  -0.4300 
  4 C       -1.4440     2.5700     0.2460 C.3   1 <1>   0.0420 
  5 C       -1.4440    -0.9910     1.3840 C.3   1 <1>   0.0400 
  6 C       -0.0910     2.9540     0.8090 C.2   1 <1>   0.5690 
  7 C       -2.4480     3.7470     0.2920 C.3   1 <1>  -0.0800 
  8 O       -0.0140     3.3010     1.9620 O.2   1 <1>  -0.5700 
  9 N        0.9860     2.9090    -0.0290 N.am  1 <1>  -0.5470 
 10 C       -3.7830     3.4550    -0.3960 C.3   1 <1>  -0.1600 
 11 C       -1.9510     5.0030    -0.4260 C.3   1 <1>  -0.1600 
 12 C        2.3190     3.2120     0.1310 C.ar  1 <1>   0.4270 
 13 C       -4.3750     4.8260    -0.7300 C.3   1 <1>  -0.1600 
 14 C       -3.2110     5.8230    -0.7010 C.3   1 <1>  -0.1600 
 15 N        3.0000     3.0630    -0.9940 N.ar  1 <1>  -0.6200 
 16 C        2.9000     3.6280     1.3280 C.ar  1 <1>  -0.1500 
 17 C        4.2930     3.3320    -0.9400 C.ar  1 <1>   0.1670 
 18 C        4.2460     3.9060     1.3750 C.ar  1 <1>  -0.1500 
 19 C        4.9550     3.7510     0.2020 C.ar  1 <1>  -0.1500 
 20 C        5.0570     3.1570    -2.2360 C.3   1 <1>  -0.0970 
 21 H       -1.3180     2.2830    -0.7800 H     1 <1>   0.0800 
 22 H       -1.3500    -0.8590     2.4490 H     1 <1>   0.0800 
 23 H       -0.7350    -1.7220     1.0380 H     1 <1>   0.0800 
 24 H       -2.4460    -1.2960     1.1360 H     1 <1>   0.0800 
 25 H       -2.6440     4.0040     1.3210 H     1 <1>   0.0800 
 26 H        0.8210     2.6020    -0.9840 H     1 <1>   0.3700 
 27 H       -4.4430     2.8830     0.2350 H     1 <1>   0.0800 
 28 H       -3.6180     2.9130    -1.3110 H     1 <1>   0.0800 
 29 H       -1.4940     4.7380    -1.3650 H     1 <1>   0.0800 
 30 H       -1.2420     5.5550     0.1680 H     1 <1>   0.0800 
 31 H       -5.1030     5.1010     0.0140 H     1 <1>   0.0800 
 32 H       -4.8540     4.8100    -1.6940 H     1 <1>   0.0800 
 33 H       -3.1290     6.3640    -1.6280 H     1 <1>   0.0800 
 34 H       -3.3650     6.5270     0.0990 H     1 <1>   0.0800 
 35 H        2.3090     3.7330     2.2160 H     1 <1>   0.1500 
 36 H        4.7240     4.2290     2.2850 H     1 <1>   0.1500 
 37 H        6.0100     3.9550     0.1830 H     1 <1>   0.1500 
 38 H        4.6420     3.8030    -2.9880 H     1 <1>   0.0800 
 39 H        4.9700     2.1380    -2.5690 H     1 <1>   0.0800 
 40 H        6.0970     3.3930    -2.1100 H     1 <1>   0.0800 
@<TRIPOS>BOND
  1   1   2  2   
  2   2   3  1   
  3   2   4  1   
  4   3   5  1   
  5   4   6  1   
  6   4   7  1   
  7   4  21  1   
  8   5  22  1   
  9   5  23  1   
 10   5  24  1   
 11   6   8  2   
 12   6   9  am  
 13   7  10  1   
 14   7  11  1   
 15   7  25  1   
 16   9  12  1   
 17   9  26  1   
 18  10  13  1   
 19  10  27  1   
 20  10  28  1   
 21  11  14  1   
 22  11  29  1   
 23  11  30  1   
 24  12  15  ar  
 25  12  16  ar  
 26  13  14  1   
 27  13  31  1   
 28  13  32  1   
 29  14  33  1   
 30  14  34  1   
 31  15  17  ar  
 32  16  18  ar  
 33  16  35  1   
 34  17  19  ar  
 35  17  20  1   
 36  18  19  ar  
 37  18  36  1   
 38  19  37  1   
 39  20  38  1   
 40  20  39  1   
 41  20  40  1   
@<TRIPOS>SUBSTRUCTURE
  1 ****   6 GROUP 4 **** **** 0

# MOE 2024.06 (io_trps.svl 2023.06)
