@<TRIPOS>MOLECULE
NONAME
54 56 1 0 0 
SMALL
USER_CHARGES


@<TRIPOS>ATOM
  1 O       -1.3120    -0.1010    -3.0610 O.2   1 <1>  -0.5700 
  2 C       -0.4410    -0.4680    -2.3090 C.2   1 <1>   0.5690 
  3 N       -0.6170    -0.7330    -0.9820 N.am  1 <1>  -0.5470 
  4 C        0.9790    -0.6550    -2.8480 C.3   1 <1>   0.1710 
  5 C       -1.7250    -0.6760    -0.1220 C.ar  1 <1>   0.1170 
  6 N        2.0310    -0.5820    -1.7900 N.3   1 <1>  -0.8100 
  7 C       -1.5100    -0.8340     1.2420 C.ar  1 <1>  -0.1500 
  8 C       -3.0270    -0.4730    -0.5670 C.ar  1 <1>  -0.1500 
  9 C        2.2560     0.8240    -1.3610 C.3   1 <1>   0.1100 
 10 C        3.3100    -1.1530    -2.2750 C.3   1 <1>   0.1100 
 11 C       -2.5600    -0.7890     2.1430 C.ar  1 <1>  -0.1500 
 12 C       -4.0810    -0.4260     0.3280 C.ar  1 <1>  -0.1500 
 13 C        3.3550     0.9390    -0.2870 C.3   1 <1>   0.2090 
 14 C        4.4250    -1.0700    -1.2150 C.3   1 <1>   0.2090 
 15 C       -3.8590    -0.5830     1.6860 C.ar  1 <1>   0.0820 
 16 N        4.6300     0.3390    -0.7710 N.pl3 1 <1>  -0.8380 
 17 O       -4.9490    -0.5240     2.4960 O.3   1 <1>  -0.3620 
 18 C        5.7480     0.5600     0.0450 C.ar  1 <1>   0.1000 
 19 C       -4.8270    -0.6810     3.8900 C.3   1 <1>   0.1200 
 20 C        5.9030     0.0400     1.3450 C.ar  1 <1>   0.0820 
 21 C        6.7620     1.3470    -0.4810 C.ar  1 <1>  -0.1500 
 22 C       -6.2210    -0.5680     4.5000 C.3   1 <1>  -0.2400 
 23 O        4.9010    -0.7380     1.8630 O.3   1 <1>  -0.3620 
 24 C        7.0580     0.3280     2.0670 C.ar  1 <1>  -0.1500 
 25 C        7.9070     1.6270     0.2420 C.ar  1 <1>  -0.1500 
 26 C        5.0390    -1.3840     3.1090 C.3   1 <1>   0.0400 
 27 C        8.0550     1.1170     1.5180 C.ar  1 <1>  -0.1500 
 28 H        0.2820    -0.9640    -0.5440 H     1 <1>   0.3700 
 29 H        1.1660     0.0840    -3.6070 H     1 <1>   0.0800 
 30 H        1.0110    -1.6230    -3.3140 H     1 <1>   0.0800 
 31 H       -0.5110    -0.9940     1.6050 H     1 <1>   0.1500 
 32 H       -3.2290    -0.3510    -1.6150 H     1 <1>   0.1500 
 33 H        1.3450     1.2360    -0.9630 H     1 <1>   0.0800 
 34 H        2.5480     1.4230    -2.2070 H     1 <1>   0.0800 
 35 H        3.6370    -0.6260    -3.1550 H     1 <1>   0.0800 
 36 H        3.1640    -2.1860    -2.5370 H     1 <1>   0.0800 
 37 H       -2.3490    -0.9160     3.1870 H     1 <1>   0.1500 
 38 H       -5.0840    -0.2680    -0.0230 H     1 <1>   0.1500 
 39 H        3.0310     0.4370     0.6070 H     1 <1>   0.0800 
 40 H        3.5210     1.9750    -0.0490 H     1 <1>   0.0800 
 41 H        5.3450    -1.4470    -1.6270 H     1 <1>   0.0800 
 42 H        4.1590    -1.6830    -0.3720 H     1 <1>   0.0800 
 43 H       -4.1840     0.0960     4.2650 H     1 <1>   0.0800 
 44 H       -4.4030    -1.6500     4.0880 H     1 <1>   0.0800 
 45 H        6.6400     1.7400    -1.4730 H     1 <1>   0.1500 
 46 H       -6.6420     0.3970     4.2810 H     1 <1>   0.0800 
 47 H       -6.1620    -0.6830     5.5670 H     1 <1>   0.0800 
 48 H       -6.8600    -1.3370     4.1050 H     1 <1>   0.0800 
 49 H        7.2070    -0.0470     3.0600 H     1 <1>   0.1500 
 50 H        8.6780     2.2400    -0.1900 H     1 <1>   0.1500 
 51 H        4.1560    -1.9730     3.2790 H     1 <1>   0.0800 
 52 H        5.1350    -0.6390     3.8790 H     1 <1>   0.0800 
 53 H        5.9040    -2.0220     3.0770 H     1 <1>   0.0800 
 54 H        8.9440     1.3340     2.0830 H     1 <1>   0.1500 
@<TRIPOS>BOND
  1   1   2  2   
  2   2   3  am  
  3   2   4  1   
  4   3   5  1   
  5   3  28  1   
  6   4   6  1   
  7   4  29  1   
  8   4  30  1   
  9   5   7  ar  
 10   5   8  ar  
 11   6   9  1   
 12   6  10  1   
 13   7  11  ar  
 14   7  31  1   
 15   8  12  ar  
 16   8  32  1   
 17   9  13  1   
 18   9  33  1   
 19   9  34  1   
 20  10  14  1   
 21  10  35  1   
 22  10  36  1   
 23  11  15  ar  
 24  11  37  1   
 25  12  15  ar  
 26  12  38  1   
 27  13  16  1   
 28  13  39  1   
 29  13  40  1   
 30  14  16  1   
 31  14  41  1   
 32  14  42  1   
 33  15  17  1   
 34  16  18  1   
 35  17  19  1   
 36  18  20  ar  
 37  18  21  ar  
 38  19  22  1   
 39  19  43  1   
 40  19  44  1   
 41  20  23  1   
 42  20  24  ar  
 43  21  25  ar  
 44  21  45  1   
 45  22  46  1   
 46  22  47  1   
 47  22  48  1   
 48  23  26  1   
 49  24  27  ar  
 50  24  49  1   
 51  25  27  ar  
 52  25  50  1   
 53  26  51  1   
 54  26  52  1   
 55  26  53  1   
 56  27  54  1   
@<TRIPOS>SUBSTRUCTURE
  1 ****   9 GROUP 4 **** **** 0

# MOE 2024.06 (io_trps.svl 2023.06)
