@<TRIPOS>MOLECULE
NONAME
43 44 1 0 0 
SMALL
USER_CHARGES


@<TRIPOS>ATOM
  1 O       -4.8210    -0.9510     1.3650 O.co2 1 <1>  -0.9000 
  2 C       -4.7770     0.2140     1.7680 C.2   1 <1>   0.9060 
  3 O       -5.7820     0.6820     2.3120 O.co2 1 <1>  -0.9000 
  4 C       -3.6020     1.1280     1.4590 C.3   1 <1>  -0.1860 
  5 C       -3.7240     1.8270     0.0670 C.3   1 <1>  -0.0190 
  6 C       -2.2340     0.4350     1.6130 C.3   1 <1>  -0.1600 
  7 C       -4.4130     0.9580    -1.0140 C.2   1 <1>   0.5690 
  8 C       -2.3540     2.3840    -0.4180 C.3   1 <1>  -0.1600 
  9 C       -1.0790     1.4550     1.5600 C.3   1 <1>  -0.1600 
 10 O       -3.7120     0.2890    -1.7420 O.2   1 <1>  -0.5700 
 11 N       -5.7840     0.9270    -1.1840 N.am  1 <1>  -0.6600 
 12 C       -1.4160     2.7200     0.7480 C.3   1 <1>  -0.1600 
 13 C       -6.8000     1.6310    -0.3290 C.3   1 <1>   0.1400 
 14 C       -6.3860    -0.2190    -1.9300 C.3   1 <1>   0.1400 
 15 C       -7.8440     0.6650     0.2910 C.3   1 <1>   0.3430 
 16 C       -6.8460    -1.3100    -0.9410 C.3   1 <1>   0.3430 
 17 N       -7.3670    -0.7530     0.3540 N.4   1 <1>  -0.9590 
 18 C       -8.2320    -1.6310     1.1640 C.3   1 <1>   0.3430 
 19 C       -7.5400    -2.9600     1.4440 C.3   1 <1>  -0.2400 
 20 H       -3.6440     1.8930     2.2120 H     1 <1>   0.0800 
 21 H       -4.3390     2.6910     0.2180 H     1 <1>   0.0800 
 22 H       -2.1260    -0.2810     0.8160 H     1 <1>   0.0800 
 23 H       -2.1980    -0.1090     2.5420 H     1 <1>   0.0800 
 24 H       -2.5180     3.2550    -1.0270 H     1 <1>   0.0800 
 25 H       -1.8480     1.6570    -1.0300 H     1 <1>   0.0800 
 26 H       -0.2200     0.9690     1.1290 H     1 <1>   0.0800 
 27 H       -0.8160     1.7500     2.5610 H     1 <1>   0.0800 
 28 H       -1.8950     3.4420     1.3860 H     1 <1>   0.0800 
 29 H       -0.5080     3.1610     0.3760 H     1 <1>   0.0800 
 30 H       -7.3130     2.3640    -0.9250 H     1 <1>   0.0800 
 31 H       -6.3280     2.1630     0.4730 H     1 <1>   0.0800 
 32 H       -5.6860    -0.6440    -2.6280 H     1 <1>   0.0800 
 33 H       -7.2270     0.1330    -2.4980 H     1 <1>   0.0800 
 34 H       -8.7510     0.7110    -0.2860 H     1 <1>   0.0800 
 35 H       -8.0650     1.0090     1.2890 H     1 <1>   0.0800 
 36 H       -5.9980    -1.9380    -0.7170 H     1 <1>   0.0800 
 37 H       -7.5960    -1.9210    -1.4120 H     1 <1>   0.0800 
 38 H       -6.4820    -0.6720     0.9350 H     1 <1>   0.4500 
 39 H       -9.1660    -1.8000     0.6560 H     1 <1>   0.0800 
 40 H       -8.4340    -1.1440     2.1060 H     1 <1>   0.0800 
 41 H       -7.3920    -3.5260     0.5440 H     1 <1>   0.0800 
 42 H       -8.1480    -3.5440     2.1110 H     1 <1>   0.0800 
 43 H       -6.5910    -2.7890     1.9230 H     1 <1>   0.0800 
@<TRIPOS>BOND
  1   1   2  ar  
  2   2   3  ar  
  3   2   4  1   
  4   4   5  1   
  5   4   6  1   
  6   4  20  1   
  7   5   7  1   
  8   5   8  1   
  9   5  21  1   
 10   6   9  1   
 11   6  22  1   
 12   6  23  1   
 13   7  10  2   
 14   7  11  am  
 15   8  12  1   
 16   8  24  1   
 17   8  25  1   
 18   9  12  1   
 19   9  26  1   
 20   9  27  1   
 21  11  13  1   
 22  11  14  1   
 23  12  28  1   
 24  12  29  1   
 25  13  15  1   
 26  13  30  1   
 27  13  31  1   
 28  14  16  1   
 29  14  32  1   
 30  14  33  1   
 31  15  17  1   
 32  15  34  1   
 33  15  35  1   
 34  16  17  1   
 35  16  36  1   
 36  16  37  1   
 37  17  18  1   
 38  17  38  1   
 39  18  19  1   
 40  18  39  1   
 41  18  40  1   
 42  19  41  1   
 43  19  42  1   
 44  19  43  1   
@<TRIPOS>SUBSTRUCTURE
  1 ****   2 GROUP 4 **** **** 0

# MOE 2024.06 (io_trps.svl 2023.06)
