@<TRIPOS>MOLECULE
NONAME
39 40 1 0 0 
SMALL
USER_CHARGES


@<TRIPOS>ATOM
  1 O        0.1860     0.1990     0.6100 O.2   1 <1>  -0.5700 
  2 C        1.2490     0.7610     0.4320 C.2   1 <1>   0.6900 
  3 N        1.4520     2.0320     0.9170 N.am  1 <1>  -0.4200 
  4 N        2.2680     0.1210    -0.2370 N.am  1 <1>  -0.4200 
  5 C        2.5960     2.7380     0.6320 C.2   1 <1>   0.5690 
  6 C        0.4600     2.5990     1.8810 C.3   1 <1>   0.0600 
  7 C        3.3930     0.7890    -0.6630 C.2   1 <1>   0.5690 
  8 C        2.1310    -1.3430    -0.5140 C.3   1 <1>   0.0600 
  9 O        2.9050     3.7030     1.2870 O.2   1 <1>  -0.5700 
 10 C        3.4550     2.3070    -0.5510 C.3   1 <1>   0.0420 
 11 O        4.3110     0.1970    -1.1760 O.2   1 <1>  -0.5700 
 12 C        4.9130     2.8380    -0.4960 C.3   1 <1>  -0.0160 
 13 C        5.1480     4.3380    -0.7280 C.ar  1 <1>  -0.1430 
 14 C        6.4440     4.8320    -0.5700 C.ar  1 <1>   0.0820 
 15 C        4.1380     5.2200    -1.0960 C.ar  1 <1>  -0.1500 
 16 O        7.4170     3.9480    -0.2140 O.3   1 <1>  -0.3630 
 17 C        6.7070     6.1840    -0.7820 C.ar  1 <1>  -0.1500 
 18 C        4.4050     6.5620    -1.3030 C.ar  1 <1>  -0.1500 
 19 C        8.6580     4.3340     0.3370 C.3   1 <1>   0.1200 
 20 C        5.6900     7.0450    -1.1460 C.ar  1 <1>  -0.1500 
 21 C        8.4480     4.8340     1.7680 C.3   1 <1>  -0.2400 
 22 H        0.6180     2.1650     2.8530 H     1 <1>   0.0800 
 23 H       -0.5420     2.3790     1.5560 H     1 <1>   0.0800 
 24 H        0.5640     3.6670     1.9540 H     1 <1>   0.0800 
 25 H        1.6030    -1.8260     0.2900 H     1 <1>   0.0800 
 26 H        3.0970    -1.8090    -0.6090 H     1 <1>   0.0800 
 27 H        1.5820    -1.4840    -1.4280 H     1 <1>   0.0800 
 28 H        2.9990     2.6820    -1.4460 H     1 <1>   0.0800 
 29 H        5.4970     2.3340    -1.2470 H     1 <1>   0.0800 
 30 H        5.3320     2.5680     0.4570 H     1 <1>   0.0800 
 31 H        3.1240     4.8920    -1.2220 H     1 <1>   0.1500 
 32 H        7.6950     6.5840    -0.6710 H     1 <1>   0.1500 
 33 H        3.6100     7.2310    -1.5830 H     1 <1>   0.1500 
 34 H        9.1180     5.0720    -0.2940 H     1 <1>   0.0800 
 35 H        9.2830     3.4590     0.3450 H     1 <1>   0.0800 
 36 H        5.8960     8.0880    -1.3080 H     1 <1>   0.1500 
 37 H        7.8340     5.7160     1.7790 H     1 <1>   0.0800 
 38 H        9.3970     5.0740     2.2110 H     1 <1>   0.0800 
 39 H        7.9780     4.0680     2.3580 H     1 <1>   0.0800 
@<TRIPOS>BOND
  1   1   2  2   
  2   2   3  am  
  3   2   4  am  
  4   3   5  am  
  5   3   6  1   
  6   4   7  am  
  7   4   8  1   
  8   5   9  2   
  9   5  10  1   
 10   6  22  1   
 11   6  23  1   
 12   6  24  1   
 13   7  10  1   
 14   7  11  2   
 15   8  25  1   
 16   8  26  1   
 17   8  27  1   
 18  10  12  1   
 19  10  28  1   
 20  12  13  1   
 21  12  29  1   
 22  12  30  1   
 23  13  14  ar  
 24  13  15  ar  
 25  14  16  1   
 26  14  17  ar  
 27  15  18  ar  
 28  15  31  1   
 29  16  19  1   
 30  17  20  ar  
 31  17  32  1   
 32  18  20  ar  
 33  18  33  1   
 34  19  21  1   
 35  19  34  1   
 36  19  35  1   
 37  20  36  1   
 38  21  37  1   
 39  21  38  1   
 40  21  39  1   
@<TRIPOS>SUBSTRUCTURE
  1 ****  12 GROUP 4 **** **** 0

# MOE 2024.06 (io_trps.svl 2023.06)
