@<TRIPOS>MOLECULE
NONAME
47 50 1 0 0 
SMALL
USER_CHARGES


@<TRIPOS>ATOM
  1 S        0.9170     0.4870     0.8640 S.o2  1 <1>   1.3330 
  2 O        2.1840     0.5130     1.5590 O.2   1 <1>  -0.6500 
  3 O       -0.0600    -0.5280     1.1690 O.2   1 <1>  -0.6500 
  4 N        0.1900     2.0400     1.0970 N.am  1 <1>  -0.6930 
  5 C        1.2230     0.4900    -0.8900 C.3   1 <1>  -0.1350 
  6 C       -1.0870     2.3470     0.6260 C.ar  1 <1>   0.1990 
  7 C        1.0510     3.1280     1.6580 C.3   1 <1>   0.2570 
  8 C       -2.2000     1.6510     1.0970 C.ar  1 <1>  -0.1500 
  9 C       -1.2670     3.3610    -0.3220 C.ar  1 <1>  -0.1500 
 10 C        2.1500     3.6180     0.7090 C.2   1 <1>   0.5690 
 11 C       -3.4450     1.9870     0.6070 C.ar  1 <1>   0.0830 
 12 C       -2.5270     3.6860    -0.8060 C.ar  1 <1>  -0.1500 
 13 O        1.9570     4.6230     0.0660 O.2   1 <1>  -0.5700 
 14 N        3.3120     2.9210     0.6060 N.am  1 <1>  -0.7300 
 15 O       -4.6310     1.4530     0.9190 O.3   1 <1>  -0.3630 
 16 C       -3.6050     2.9750    -0.3190 C.ar  1 <1>   0.0830 
 17 C        4.4810     3.3170    -0.2020 C.3   1 <1>   0.2200 
 18 C       -5.6070     2.1410     0.1400 C.3   1 <1>   0.4000 
 19 O       -4.9010     3.1090    -0.6350 O.3   1 <1>  -0.3630 
 20 C        4.8510     2.2850    -1.2880 C.3   1 <1>  -0.0800 
 21 C        5.7530     3.3850     0.6570 C.3   1 <1>  -0.1600 
 22 C        6.3120     2.6420    -1.5240 C.3   1 <1>  -0.1600 
 23 C        5.0060     0.8700    -0.6930 C.3   1 <1>  -0.1600 
 24 C        6.7240     2.4410    -0.0740 C.3   1 <1>  -0.0800 
 25 C        6.2710     0.9930     0.1740 C.3   1 <1>  -0.1600 
 26 H        1.7120    -0.4190    -1.1790 H     1 <1>   0.0800 
 27 H        1.8460     1.3190    -1.1610 H     1 <1>   0.0800 
 28 H        0.2970     0.5670    -1.4240 H     1 <1>   0.0800 
 29 H        1.5080     2.7800     2.5670 H     1 <1>   0.0800 
 30 H        0.4310     3.9690     1.9140 H     1 <1>   0.0800 
 31 H       -2.0990     0.8700     1.8280 H     1 <1>   0.1500 
 32 H       -0.4140     3.9010    -0.6910 H     1 <1>   0.1500 
 33 H       -2.6720     4.4640    -1.5340 H     1 <1>   0.1500 
 34 H        3.4080     2.0260     1.1090 H     1 <1>   0.3700 
 35 H        4.3060     4.2760    -0.6620 H     1 <1>   0.0800 
 36 H       -6.3030     2.6390     0.7920 H     1 <1>   0.0800 
 37 H       -6.1010     1.4450    -0.5140 H     1 <1>   0.0800 
 38 H        4.2320     2.3410    -2.1650 H     1 <1>   0.0800 
 39 H        5.5880     3.0830     1.6760 H     1 <1>   0.0800 
 40 H        6.1400     4.3890     0.6440 H     1 <1>   0.0800 
 41 H        6.4480     3.6570    -1.8590 H     1 <1>   0.0800 
 42 H        6.8080     1.9620    -2.1970 H     1 <1>   0.0800 
 43 H        5.1720     0.1570    -1.4820 H     1 <1>   0.0800 
 44 H        4.1570     0.5530    -0.1190 H     1 <1>   0.0800 
 45 H        7.7640     2.6200     0.1430 H     1 <1>   0.0800 
 46 H        7.0220     0.3010    -0.1650 H     1 <1>   0.0800 
 47 H        6.0660     0.8080     1.2140 H     1 <1>   0.0800 
@<TRIPOS>BOND
  1   1   2  2   
  2   1   3  2   
  3   1   4  am  
  4   1   5  1   
  5   4   6  1   
  6   4   7  1   
  7   5  26  1   
  8   5  27  1   
  9   5  28  1   
 10   6   8  ar  
 11   6   9  ar  
 12   7  10  1   
 13   7  29  1   
 14   7  30  1   
 15   8  11  ar  
 16   8  31  1   
 17   9  12  ar  
 18   9  32  1   
 19  10  13  2   
 20  10  14  am  
 21  11  15  1   
 22  11  16  ar  
 23  12  16  ar  
 24  12  33  1   
 25  14  17  1   
 26  14  34  1   
 27  15  18  1   
 28  16  19  1   
 29  17  20  1   
 30  17  21  1   
 31  17  35  1   
 32  18  19  1   
 33  18  36  1   
 34  18  37  1   
 35  20  22  1   
 36  20  23  1   
 37  20  38  1   
 38  21  24  1   
 39  21  39  1   
 40  21  40  1   
 41  22  24  1   
 42  22  41  1   
 43  22  42  1   
 44  23  25  1   
 45  23  43  1   
 46  23  44  1   
 47  24  25  1   
 48  24  45  1   
 49  25  46  1   
 50  25  47  1   
@<TRIPOS>SUBSTRUCTURE
  1 ****   4 GROUP 4 **** **** 0

# MOE 2024.06 (io_trps.svl 2023.06)
