@<TRIPOS>MOLECULE
NONAME
48 51 1 0 0 
SMALL
USER_CHARGES


@<TRIPOS>ATOM
  1 O       -0.2990     0.0030     1.8670 O.2   1 <1>  -0.5700 
  2 C        0.0440     1.1400     1.6700 C.2   1 <1>   0.5690 
  3 N        1.3050     1.3740     1.2100 N.am  1 <1>  -0.5470 
  4 C       -0.9420     2.2670     1.9500 C.3   1 <1>  -0.0990 
  5 C        1.9790     2.5620     0.9420 C.ar  1 <1>   0.1170 
  6 C       -1.8620     2.6550     0.7700 C.3   1 <1>   0.0000 
  7 C        2.4610     2.8140    -0.3350 C.ar  1 <1>  -0.1500 
  8 C        2.2010     3.5150     1.9270 C.ar  1 <1>  -0.1500 
  9 C       -2.7990     3.7990     1.2260 C.3   1 <1>  -0.1600 
 10 C       -1.0520     3.1520    -0.4510 C.3   1 <1>  -0.1600 
 11 C       -2.7380     1.4610     0.3210 C.3   1 <1>  -0.1600 
 12 C        3.1230     3.9920    -0.6250 C.ar  1 <1>  -0.1500 
 13 C        2.8610     4.6920     1.6340 C.ar  1 <1>  -0.1500 
 14 C       -3.7460     4.2260     0.0900 C.3   1 <1>  -0.0800 
 15 C       -1.9890     3.5760    -1.5970 C.3   1 <1>  -0.0800 
 16 C       -3.6840     1.8750    -0.8220 C.3   1 <1>  -0.0800 
 17 C        3.3400     4.9730     0.3500 C.ar  1 <1>   0.0860 
 18 C       -2.9090     4.7090    -1.1090 C.3   1 <1>  -0.1600 
 19 C       -4.5970     3.0160    -0.3370 C.3   1 <1>  -0.1600 
 20 C       -2.8490     2.3690    -2.0170 C.3   1 <1>  -0.1600 
 21 C        4.0200     6.2240     0.0840 C.2   1 <1>   0.4230 
 22 O        4.1880     7.0730     0.9210 O.2   1 <1>  -0.5700 
 23 C        4.5640     6.5260    -1.2990 C.3   1 <1>  -0.1790 
 24 H        1.7950     0.5080     0.9860 H     1 <1>   0.3700 
 25 H       -0.4090     3.1360     2.2800 H     1 <1>   0.0800 
 26 H       -1.5560     1.9520     2.7740 H     1 <1>   0.0800 
 27 H        2.3070     2.0810    -1.1070 H     1 <1>   0.1500 
 28 H        1.8590     3.3290     2.9300 H     1 <1>   0.1500 
 29 H       -2.2160     4.6490     1.5380 H     1 <1>   0.0800 
 30 H       -3.3830     3.4790     2.0710 H     1 <1>   0.0800 
 31 H       -0.4080     2.3690    -0.8080 H     1 <1>   0.0800 
 32 H       -0.4330     3.9850    -0.1670 H     1 <1>   0.0800 
 33 H       -3.3160     1.0970     1.1530 H     1 <1>   0.0800 
 34 H       -2.1170     0.6500    -0.0170 H     1 <1>   0.0800 
 35 H        3.4710     4.1440    -1.6300 H     1 <1>   0.1500 
 36 H        3.0160     5.4170     2.4150 H     1 <1>   0.1500 
 37 H       -4.3880     5.0200     0.4290 H     1 <1>   0.0800 
 38 H       -1.4070     3.9170    -2.4360 H     1 <1>   0.0800 
 39 H       -4.2830     1.0320    -1.1200 H     1 <1>   0.0800 
 40 H       -2.3180     5.5610    -0.8210 H     1 <1>   0.0800 
 41 H       -3.5610     5.0180    -1.9070 H     1 <1>   0.0800 
 42 H       -5.2700     3.3040    -1.1260 H     1 <1>   0.0800 
 43 H       -5.1920     2.6780     0.4930 H     1 <1>   0.0800 
 44 H       -2.2150     1.5740    -2.3700 H     1 <1>   0.0800 
 45 H       -3.5010     2.6500    -2.8250 H     1 <1>   0.0800 
 46 H        5.2880     5.7850    -1.5810 H     1 <1>   0.0800 
 47 H        5.0440     7.4890    -1.3000 H     1 <1>   0.0800 
 48 H        3.7620     6.5450    -2.0140 H     1 <1>   0.0800 
@<TRIPOS>BOND
  1   1   2  2   
  2   2   3  am  
  3   2   4  1   
  4   3   5  1   
  5   3  24  1   
  6   4   6  1   
  7   4  25  1   
  8   4  26  1   
  9   5   7  ar  
 10   5   8  ar  
 11   6   9  1   
 12   6  10  1   
 13   6  11  1   
 14   7  12  ar  
 15   7  27  1   
 16   8  13  ar  
 17   8  28  1   
 18   9  14  1   
 19   9  29  1   
 20   9  30  1   
 21  10  15  1   
 22  10  31  1   
 23  10  32  1   
 24  11  16  1   
 25  11  33  1   
 26  11  34  1   
 27  12  17  ar  
 28  12  35  1   
 29  13  17  ar  
 30  13  36  1   
 31  14  18  1   
 32  14  19  1   
 33  14  37  1   
 34  15  18  1   
 35  15  20  1   
 36  15  38  1   
 37  16  19  1   
 38  16  20  1   
 39  16  39  1   
 40  17  21  1   
 41  18  40  1   
 42  18  41  1   
 43  19  42  1   
 44  19  43  1   
 45  20  44  1   
 46  20  45  1   
 47  21  22  2   
 48  21  23  1   
 49  23  46  1   
 50  23  47  1   
 51  23  48  1   
@<TRIPOS>SUBSTRUCTURE
  1 ****  10 GROUP 4 **** **** 0

# MOE 2024.06 (io_trps.svl 2023.06)
