@<TRIPOS>MOLECULE
NONAME
25 25 1 0 0 
SMALL
USER_CHARGES


@<TRIPOS>ATOM
  1 BR      -0.0970     0.1640     0.0890 Br    1 <1>  -0.1110 
  2 C        1.8290     0.0520     0.0040 C.ar  1 <1>   0.1110 
  3 C        2.4640    -1.1630     0.2140 C.ar  1 <1>  -0.1440 
  4 C        2.5260     1.2120    -0.2700 C.ar  1 <1>  -0.1500 
  5 C        3.8480    -1.1900     0.1410 C.ar  1 <1>  -0.1500 
  6 C        1.6780    -2.4310     0.5140 C.3   1 <1>  -0.0960 
  7 C        3.9070     1.1600    -0.3360 C.ar  1 <1>  -0.1500 
  8 C        4.5860    -0.0400    -0.1350 C.ar  1 <1>   0.1170 
  9 N        5.9850    -0.1430    -0.1810 N.am  1 <1>  -0.5470 
 10 C        6.9350     0.6670    -0.7390 C.2   1 <1>   0.5690 
 11 O        6.6910     1.6780    -1.3490 O.2   1 <1>  -0.5700 
 12 C        8.3870     0.2480    -0.5870 C.3   1 <1>  -0.0990 
 13 C        8.8860     0.3290     0.8650 C.3   1 <1>  -0.2400 
 14 H        2.0000     2.1360    -0.4270 H     1 <1>   0.1500 
 15 H        4.3670    -2.1170     0.2970 H     1 <1>   0.1500 
 16 H        1.0080    -2.6480    -0.2990 H     1 <1>   0.0800 
 17 H        1.1020    -2.3020     1.4140 H     1 <1>   0.0800 
 18 H        2.3340    -3.2710     0.6470 H     1 <1>   0.0800 
 19 H        4.4520     2.0630    -0.5430 H     1 <1>   0.1500 
 20 H        6.3590    -0.9790     0.2610 H     1 <1>   0.3700 
 21 H        8.9920     0.8910    -1.2020 H     1 <1>   0.0800 
 22 H        8.5000    -0.7540    -0.9580 H     1 <1>   0.0800 
 23 H        8.7790     1.3350     1.2340 H     1 <1>   0.0800 
 24 H        9.9260     0.0560     0.9130 H     1 <1>   0.0800 
 25 H        8.3270    -0.3330     1.5020 H     1 <1>   0.0800 
@<TRIPOS>BOND
  1   1   2  1   
  2   2   3  ar  
  3   2   4  ar  
  4   3   5  ar  
  5   3   6  1   
  6   4   7  ar  
  7   4  14  1   
  8   5   8  ar  
  9   5  15  1   
 10   6  16  1   
 11   6  17  1   
 12   6  18  1   
 13   7   8  ar  
 14   7  19  1   
 15   8   9  1   
 16   9  10  am  
 17   9  20  1   
 18  10  11  2   
 19  10  12  1   
 20  12  13  1   
 21  12  21  1   
 22  12  22  1   
 23  13  23  1   
 24  13  24  1   
 25  13  25  1   
@<TRIPOS>SUBSTRUCTURE
  1 ****   8 GROUP 4 **** **** 0

# MOE 2024.06 (io_trps.svl 2023.06)
