@<TRIPOS>MOLECULE
NONAME
32 32 1 0 0 
SMALL
USER_CHARGES


@<TRIPOS>ATOM
  1 O        0.3160    -0.0100    -0.6580 O.2   1 <1>  -0.5700 
  2 C        1.2610     0.6670    -0.3310 C.2   1 <1>   0.5690 
  3 N        1.1760     1.9960    -0.0100 N.am  1 <1>  -0.5470 
  4 C        2.6300     0.0070    -0.2710 C.3   1 <1>   0.1810 
  5 C        0.1120     2.9110     0.0420 C.ar  1 <1>   0.1170 
  6 O        3.6570     0.9820    -0.2160 O.3   1 <1>  -0.2170 
  7 C        0.3930     4.2790     0.0980 C.ar  1 <1>  -0.1440 
  8 C       -1.2180     2.5030     0.0520 C.ar  1 <1>  -0.1500 
  9 N        4.8660     0.5130    -0.0010 N.2   1 <1>  -0.5130 
 10 C       -0.6440     5.1970     0.1600 C.ar  1 <1>  -0.1500 
 11 C        1.8290     4.7930     0.0900 C.3   1 <1>  -0.0970 
 12 C       -2.2470     3.4230     0.1120 C.ar  1 <1>  -0.1500 
 13 C        5.8540     1.3000    -0.0050 C.2   1 <1>   0.3280 
 14 C       -1.9610     4.7740     0.1660 C.ar  1 <1>  -0.1500 
 15 C        7.2530     0.7800     0.2450 C.3   1 <1>  -0.1790 
 16 C        5.7980     2.8020    -0.2480 C.3   1 <1>  -0.1790 
 17 H        2.0880     2.4100     0.1840 H     1 <1>   0.3700 
 18 H        2.7880    -0.5960    -1.1450 H     1 <1>   0.0800 
 19 H        2.6980    -0.6060     0.6080 H     1 <1>   0.0800 
 20 H       -1.4620     1.4580     0.0150 H     1 <1>   0.1500 
 21 H       -0.4360     6.2520     0.2030 H     1 <1>   0.1500 
 22 H        1.8530     5.8680     0.0970 H     1 <1>   0.0800 
 23 H        2.3360     4.4530    -0.7950 H     1 <1>   0.0800 
 24 H        2.3530     4.4390     0.9600 H     1 <1>   0.0800 
 25 H       -3.2690     3.0870     0.1160 H     1 <1>   0.1500 
 26 H       -2.7600     5.4930     0.2130 H     1 <1>   0.1500 
 27 H        7.8780     0.9800    -0.6060 H     1 <1>   0.0800 
 28 H        7.2290    -0.2820     0.4120 H     1 <1>   0.0800 
 29 H        7.6720     1.2550     1.1130 H     1 <1>   0.0800 
 30 H        6.1580     3.3210     0.6210 H     1 <1>   0.0800 
 31 H        4.7990     3.1360    -0.4540 H     1 <1>   0.0800 
 32 H        6.4170     3.0540    -1.0880 H     1 <1>   0.0800 
@<TRIPOS>BOND
  1   1   2  2   
  2   2   3  am  
  3   2   4  1   
  4   3   5  1   
  5   3  17  1   
  6   4   6  1   
  7   4  18  1   
  8   4  19  1   
  9   5   7  ar  
 10   5   8  ar  
 11   6   9  1   
 12   7  10  ar  
 13   7  11  1   
 14   8  12  ar  
 15   8  20  1   
 16   9  13  2   
 17  10  14  ar  
 18  10  21  1   
 19  11  22  1   
 20  11  23  1   
 21  11  24  1   
 22  12  14  ar  
 23  12  25  1   
 24  13  15  1   
 25  13  16  1   
 26  14  26  1   
 27  15  27  1   
 28  15  28  1   
 29  15  29  1   
 30  16  30  1   
 31  16  31  1   
 32  16  32  1   
@<TRIPOS>SUBSTRUCTURE
  1 ****   3 GROUP 4 **** **** 0

# MOE 2024.06 (io_trps.svl 2023.06)
