@<TRIPOS>MOLECULE
NONAME
46 48 1 0 0 
SMALL
USER_CHARGES


@<TRIPOS>ATOM
  1 O       -2.1170     2.0520     2.9980 O.2   1 <1>  -0.5700 
  2 C       -1.4110     2.2190     2.0200 C.2   1 <1>   0.5440 
  3 N       -1.6570     1.4680     0.8870 N.am  1 <1>  -0.6600 
  4 C       -0.3500     3.2090     2.0780 C.ar  1 <1>   0.0860 
  5 C       -1.0890     1.8120    -0.4560 C.3   1 <1>   0.1400 
  6 C       -2.6240     0.3300     0.9420 C.3   1 <1>   0.1400 
  7 C        0.9320     2.9350     1.6090 C.ar  1 <1>  -0.1500 
  8 C       -0.5800     4.4760     2.6120 C.ar  1 <1>  -0.1500 
  9 C       -2.0800     1.4570    -1.5670 C.3   1 <1>  -0.1600 
 10 C       -2.3420    -0.6770    -0.1770 C.3   1 <1>  -0.1600 
 11 C        1.9420     3.8870     1.6090 C.ar  1 <1>   0.1170 
 12 C        0.4180     5.4320     2.6480 C.ar  1 <1>  -0.1500 
 13 C       -2.4370    -0.0400    -1.5750 C.3   1 <1>  -0.1600 
 14 N        3.2160     3.6160     1.0940 N.am  1 <1>  -0.5470 
 15 C        1.6720     5.1390     2.1450 C.ar  1 <1>  -0.1500 
 16 C        3.5840     2.8330     0.0220 C.2   1 <1>   0.5440 
 17 O        2.7350     2.2490    -0.6230 O.2   1 <1>  -0.5700 
 18 C        4.9870     2.7110    -0.3270 C.ar  1 <1>   0.0860 
 19 C        5.4950     1.5130    -0.8290 C.ar  1 <1>  -0.1500 
 20 C        5.8840     3.7710    -0.1770 C.ar  1 <1>  -0.1500 
 21 C        6.8330     1.3720    -1.1500 C.ar  1 <1>  -0.1500 
 22 C        7.2230     3.6340    -0.4960 C.ar  1 <1>  -0.1500 
 23 C        7.7060     2.4330    -0.9840 C.ar  1 <1>  -0.1440 
 24 C        9.1760     2.2780    -1.3330 C.3   1 <1>  -0.0970 
 25 H       -0.1720     1.2670    -0.6030 H     1 <1>   0.0800 
 26 H       -0.8670     2.8650    -0.5040 H     1 <1>   0.0800 
 27 H       -3.6230     0.7180     0.8460 H     1 <1>   0.0800 
 28 H       -2.5450    -0.1610     1.8980 H     1 <1>   0.0800 
 29 H        1.1410     1.9500     1.2350 H     1 <1>   0.1500 
 30 H       -1.5590     4.7020     3.0010 H     1 <1>   0.1500 
 31 H       -1.6670     1.7350    -2.5210 H     1 <1>   0.0800 
 32 H       -2.9720     2.0400    -1.4190 H     1 <1>   0.0800 
 33 H       -3.0320    -1.4990    -0.1060 H     1 <1>   0.0800 
 34 H       -1.3520    -1.0730    -0.0270 H     1 <1>   0.0800 
 35 H        0.2160     6.4040     3.0660 H     1 <1>   0.1500 
 36 H       -1.7720    -0.5670    -2.2380 H     1 <1>   0.0800 
 37 H       -3.4360    -0.1530    -1.9580 H     1 <1>   0.0800 
 38 H        3.9840     4.0840     1.5690 H     1 <1>   0.3700 
 39 H        2.4410     5.8900     2.1640 H     1 <1>   0.1500 
 40 H        4.8250     0.6820    -0.9680 H     1 <1>   0.1500 
 41 H        5.5330     4.7220     0.1830 H     1 <1>   0.1500 
 42 H        7.1920     0.4310    -1.5310 H     1 <1>   0.1500 
 43 H        7.8900     4.4690    -0.3670 H     1 <1>   0.1500 
 44 H        9.2980     1.5800    -2.1420 H     1 <1>   0.0800 
 45 H        9.7180     1.9170    -0.4780 H     1 <1>   0.0800 
 46 H        9.5930     3.2220    -1.6360 H     1 <1>   0.0800 
@<TRIPOS>BOND
  1   1   2  2   
  2   2   3  am  
  3   2   4  1   
  4   3   5  1   
  5   3   6  1   
  6   4   7  ar  
  7   4   8  ar  
  8   5   9  1   
  9   5  25  1   
 10   5  26  1   
 11   6  10  1   
 12   6  27  1   
 13   6  28  1   
 14   7  11  ar  
 15   7  29  1   
 16   8  12  ar  
 17   8  30  1   
 18   9  13  1   
 19   9  31  1   
 20   9  32  1   
 21  10  13  1   
 22  10  33  1   
 23  10  34  1   
 24  11  14  1   
 25  11  15  ar  
 26  12  15  ar  
 27  12  35  1   
 28  13  36  1   
 29  13  37  1   
 30  14  16  am  
 31  14  38  1   
 32  15  39  1   
 33  16  17  2   
 34  16  18  1   
 35  18  19  ar  
 36  18  20  ar  
 37  19  21  ar  
 38  19  40  1   
 39  20  22  ar  
 40  20  41  1   
 41  21  23  ar  
 42  21  42  1   
 43  22  23  ar  
 44  22  43  1   
 45  23  24  1   
 46  24  44  1   
 47  24  45  1   
 48  24  46  1   
@<TRIPOS>SUBSTRUCTURE
  1 ****  17 GROUP 4 **** **** 0

# MOE 2024.06 (io_trps.svl 2023.06)
