@<TRIPOS>MOLECULE
NONAME
50 53 1 0 0 
SMALL
USER_CHARGES


@<TRIPOS>ATOM
  1 S        0.1450     0.4800    -1.6580 S.o2  1 <1>   1.4470 
  2 O        0.4250     1.8390    -2.0650 O.2   1 <1>  -0.6500 
  3 O        0.6950    -0.6210    -2.4190 O.2   1 <1>  -0.6500 
  4 N        0.7030     0.3230    -0.0680 N.am  1 <1>  -0.8490 
  5 C       -1.6500     0.2820    -1.4700 C.ar  1 <1>  -0.0090 
  6 C        0.6650    -1.0310     0.4600 C.3   1 <1>   0.1960 
  7 C        2.0780     0.7610     0.0920 C.3   1 <1>   0.1960 
  8 C       -2.3570    -0.6810    -2.1790 C.ar  1 <1>  -0.1500 
  9 C       -2.3670     1.0940    -0.6010 C.ar  1 <1>  -0.1500 
 10 C        1.5480    -0.9720     1.7000 C.3   1 <1>  -0.1600 
 11 C        2.5110     0.1860     1.4370 C.3   1 <1>  -0.1600 
 12 C       -3.7250    -0.8220    -2.0280 C.ar  1 <1>  -0.1500 
 13 C       -3.7350     0.9550    -0.4470 C.ar  1 <1>  -0.1500 
 14 C       -4.4510    -0.0040    -1.1650 C.ar  1 <1>   0.0860 
 15 C       -5.8870    -0.1530    -1.0280 C.2   1 <1>   0.5440 
 16 O       -6.3980    -1.2490    -1.1210 O.2   1 <1>  -0.5700 
 17 N       -6.6590     0.9660    -0.8300 N.am  1 <1>  -0.4940 
 18 C       -7.9830     1.0690    -0.4740 C.2   1 <1>   0.4420 
 19 S       -8.6600     2.6920    -0.4770 S.3   1 <1>  -0.0800 
 20 N       -8.8120     0.1650    -0.1200 N.2   1 <1>  -0.5650 
 21 C      -10.2000     2.0430     0.0410 C.ar  1 <1>   0.0400 
 22 C      -10.0800     0.6690     0.1730 C.ar  1 <1>   0.2270 
 23 C      -11.3570     2.7570     0.2850 C.ar  1 <1>  -0.1500 
 24 C      -11.2290    -0.0400     0.5810 C.ar  1 <1>   0.0820 
 25 C      -12.4720     2.0460     0.6880 C.ar  1 <1>  -0.1500 
 26 O      -11.3190    -1.3870     0.7600 O.3   1 <1>  -0.3620 
 27 C      -12.4000     0.6650     0.8310 C.ar  1 <1>  -0.1500 
 28 C      -10.2530    -2.2670     0.4790 C.3   1 <1>   0.1200 
 29 C      -10.7360    -3.6920     0.7330 C.3   1 <1>  -0.2400 
 30 H        1.0920    -1.7240    -0.2480 H     1 <1>   0.0800 
 31 H       -0.3420    -1.3310     0.6970 H     1 <1>   0.0800 
 32 H        2.1450     1.8370     0.0710 H     1 <1>   0.0800 
 33 H        2.6890     0.3490    -0.6960 H     1 <1>   0.0800 
 34 H       -1.8290    -1.3300    -2.8600 H     1 <1>   0.1500 
 35 H       -1.8360     1.8430    -0.0360 H     1 <1>   0.1500 
 36 H        2.0630    -1.9040     1.8520 H     1 <1>   0.0800 
 37 H        0.9410    -0.7610     2.5630 H     1 <1>   0.0800 
 38 H        2.4130     0.9370     2.2020 H     1 <1>   0.0800 
 39 H        3.5350    -0.1410     1.3950 H     1 <1>   0.0800 
 40 H       -4.2470    -1.5820    -2.5870 H     1 <1>   0.1500 
 41 H       -4.2450     1.5950     0.2520 H     1 <1>   0.1500 
 42 H       -6.1940     1.8530    -0.9930 H     1 <1>   0.3700 
 43 H      -11.3840     3.8260     0.1640 H     1 <1>   0.1500 
 44 H      -13.3980     2.5580     0.8910 H     1 <1>   0.1500 
 45 H      -13.2710     0.1170     1.1440 H     1 <1>   0.1500 
 46 H       -9.4280    -2.0240     1.1260 H     1 <1>   0.0800 
 47 H       -9.9640    -2.1410    -0.5510 H     1 <1>   0.0800 
 48 H      -11.0310    -3.8030     1.7600 H     1 <1>   0.0800 
 49 H       -9.9390    -4.3830     0.5260 H     1 <1>   0.0800 
 50 H      -11.5660    -3.9200     0.0900 H     1 <1>   0.0800 
@<TRIPOS>BOND
  1   1   2  2   
  2   1   3  2   
  3   1   4  am  
  4   1   5  1   
  5   4   6  1   
  6   4   7  1   
  7   5   8  ar  
  8   5   9  ar  
  9   6  10  1   
 10   6  30  1   
 11   6  31  1   
 12   7  11  1   
 13   7  32  1   
 14   7  33  1   
 15   8  12  ar  
 16   8  34  1   
 17   9  13  ar  
 18   9  35  1   
 19  10  11  1   
 20  10  36  1   
 21  10  37  1   
 22  11  38  1   
 23  11  39  1   
 24  12  14  ar  
 25  12  40  1   
 26  13  14  ar  
 27  13  41  1   
 28  14  15  1   
 29  15  16  2   
 30  15  17  am  
 31  17  18  1   
 32  17  42  1   
 33  18  19  1   
 34  18  20  2   
 35  19  21  1   
 36  20  22  1   
 37  21  22  ar  
 38  21  23  ar  
 39  22  24  ar  
 40  23  25  ar  
 41  23  43  1   
 42  24  26  1   
 43  24  27  ar  
 44  25  27  ar  
 45  25  44  1   
 46  26  28  1   
 47  27  45  1   
 48  28  29  1   
 49  28  46  1   
 50  28  47  1   
 51  29  48  1   
 52  29  49  1   
 53  29  50  1   
@<TRIPOS>SUBSTRUCTURE
  1 ****  15 GROUP 4 **** **** 0

# MOE 2024.06 (io_trps.svl 2023.06)
