@<TRIPOS>MOLECULE
NONAME
49 50 1 0 0 
SMALL
USER_CHARGES


@<TRIPOS>ATOM
  1 O        0.6190    -2.3800     0.7240 O.2   1 <1>  -0.5700 
  2 C        0.8510    -3.5060     0.3590 C.2   1 <1>   0.5690 
  3 N        2.0900    -3.9750     0.0410 N.am  1 <1>  -0.5470 
  4 C       -0.3130    -4.4630     0.2470 C.3   1 <1>  -0.0990 
  5 C        3.3670    -3.3800     0.0120 C.ar  1 <1>   0.1170 
  6 C       -1.6170    -3.6650     0.1820 C.3   1 <1>   0.3430 
  7 C        4.4350    -4.1660    -0.4330 C.ar  1 <1>   0.0830 
  8 C        3.6150    -2.0680     0.4010 C.ar  1 <1>  -0.1500 
  9 N       -2.8090    -4.5520     0.0330 N.4   1 <1>  -0.9590 
 10 O        4.1490    -5.4520    -0.8040 O.3   1 <1>  -0.3630 
 11 C        5.7190    -3.6330    -0.4830 C.ar  1 <1>  -0.1500 
 12 C        4.8930    -1.5410     0.3490 C.ar  1 <1>  -0.1500 
 13 C       -3.9960    -3.7440    -0.4000 C.3   1 <1>   0.3430 
 14 C       -3.1230    -5.3220     1.2710 C.3   1 <1>   0.3430 
 15 C        5.1660    -6.3140    -1.2690 C.3   1 <1>   0.0400 
 16 C        5.9530    -2.3250    -0.0960 C.ar  1 <1>   0.0830 
 17 C       -5.3150    -4.5450    -0.3320 C.3   1 <1>  -0.0800 
 18 C       -4.1630    -6.4040     0.9500 C.3   1 <1>  -0.1600 
 19 O        7.2370    -1.8870    -0.1780 O.3   1 <1>  -0.3620 
 20 C       -5.0810    -6.0620    -0.2380 C.3   1 <1>  -0.1600 
 21 C       -6.2070    -4.2180    -1.5370 C.3   1 <1>  -0.2400 
 22 C        7.5780    -0.5690     0.1920 C.3   1 <1>   0.0400 
 23 H        2.1570    -4.9520    -0.2530 H     1 <1>   0.3700 
 24 H       -0.2970    -5.1020     1.1100 H     1 <1>   0.0800 
 25 H       -0.1970    -5.0510    -0.6450 H     1 <1>   0.0800 
 26 H       -1.5580    -2.9920    -0.6590 H     1 <1>   0.0800 
 27 H       -1.7130    -3.0630     1.0720 H     1 <1>   0.0800 
 28 H        2.8160    -1.4420     0.7500 H     1 <1>   0.1500 
 29 H       -2.6330    -5.2380    -0.7120 H     1 <1>   0.4500 
 30 H        6.5610    -4.2050    -0.8190 H     1 <1>   0.1500 
 31 H        5.0400    -0.5240     0.6580 H     1 <1>   0.1500 
 32 H       -3.8410    -3.4110    -1.4140 H     1 <1>   0.0800 
 33 H       -4.0920    -2.8680     0.2200 H     1 <1>   0.0800 
 34 H       -3.5210    -4.6510     2.0160 H     1 <1>   0.0800 
 35 H       -2.2370    -5.7850     1.6730 H     1 <1>   0.0800 
 36 H        4.7220    -7.2650    -1.5030 H     1 <1>   0.0800 
 37 H        5.9030    -6.4370    -0.4940 H     1 <1>   0.0800 
 38 H        5.6070    -5.8910    -2.1540 H     1 <1>   0.0800 
 39 H       -5.8420    -4.2310     0.5540 H     1 <1>   0.0800 
 40 H       -4.7620    -6.5550     1.8320 H     1 <1>   0.0800 
 41 H       -3.6620    -7.3360     0.7540 H     1 <1>   0.0800 
 42 H       -4.6270    -6.4090    -1.1520 H     1 <1>   0.0800 
 43 H       -6.0190    -6.5800    -0.1300 H     1 <1>   0.0800 
 44 H       -5.7360    -4.5150    -2.4590 H     1 <1>   0.0800 
 45 H       -6.4150    -3.1630    -1.5820 H     1 <1>   0.0800 
 46 H       -7.1470    -4.7370    -1.4570 H     1 <1>   0.0800 
 47 H        8.6350    -0.4440     0.0450 H     1 <1>   0.0800 
 48 H        7.3320    -0.4220     1.2290 H     1 <1>   0.0800 
 49 H        7.0380     0.1200    -0.4340 H     1 <1>   0.0800 
@<TRIPOS>BOND
  1   1   2  2   
  2   2   3  am  
  3   2   4  1   
  4   3   5  1   
  5   3  23  1   
  6   4   6  1   
  7   4  24  1   
  8   4  25  1   
  9   5   7  ar  
 10   5   8  ar  
 11   6   9  1   
 12   6  26  1   
 13   6  27  1   
 14   7  10  1   
 15   7  11  ar  
 16   8  12  ar  
 17   8  28  1   
 18   9  13  1   
 19   9  14  1   
 20   9  29  1   
 21  10  15  1   
 22  11  16  ar  
 23  11  30  1   
 24  12  16  ar  
 25  12  31  1   
 26  13  17  1   
 27  13  32  1   
 28  13  33  1   
 29  14  18  1   
 30  14  34  1   
 31  14  35  1   
 32  15  36  1   
 33  15  37  1   
 34  15  38  1   
 35  16  19  1   
 36  17  20  1   
 37  17  21  1   
 38  17  39  1   
 39  18  20  1   
 40  18  40  1   
 41  18  41  1   
 42  19  22  1   
 43  20  42  1   
 44  20  43  1   
 45  21  44  1   
 46  21  45  1   
 47  21  46  1   
 48  22  47  1   
 49  22  48  1   
 50  22  49  1   
@<TRIPOS>SUBSTRUCTURE
  1 ****   2 GROUP 4 **** **** 0

# MOE 2024.06 (io_trps.svl 2023.06)
