@<TRIPOS>MOLECULE
NONAME
49 51 1 0 0 
SMALL
USER_CHARGES


@<TRIPOS>ATOM
  1 F       -0.2960    -0.1210    -1.2430 F     1 <1>  -0.3400 
  2 C       -0.8320     1.0480    -0.9050 C.3   1 <1>   1.0200 
  3 F        0.1990     1.8370    -0.6070 F     1 <1>  -0.3400 
  4 F       -1.3440     1.5510    -2.0280 F     1 <1>  -0.3400 
  5 C       -1.8940     0.9760     0.2710 C.3   1 <1>   0.5800 
  6 O       -1.4280     0.3350     1.4250 O.3   1 <1>  -0.6800 
  7 N       -3.1670     0.2920    -0.0990 N.am  1 <1>  -0.2980 
  8 C       -2.3860     2.3740     0.6860 C.3   1 <1>  -0.0990 
  9 N       -4.2360     1.1640    -0.0470 N.2   1 <1>  -0.5120 
 10 C       -3.2390    -1.0670    -0.3240 C.2   1 <1>   0.5690 
 11 C       -3.8600     2.2880     0.3760 C.2   1 <1>   0.3280 
 12 O       -2.2960    -1.7960    -0.1240 O.2   1 <1>  -0.5700 
 13 C       -4.5440    -1.6800    -0.7960 C.3   1 <1>  -0.0990 
 14 C       -4.7360     3.5220     0.5990 C.3   1 <1>  -0.0190 
 15 C       -5.4800    -1.9720     0.3810 C.3   1 <1>  -0.0160 
 16 C       -6.2340     3.1630     0.6710 C.3   1 <1>  -0.1600 
 17 C       -4.4940     4.5780    -0.4970 C.3   1 <1>  -0.1600 
 18 C       -6.8070    -2.5140    -0.1230 C.ar  1 <1>  -0.1440 
 19 C       -7.1060     4.4070     0.8880 C.3   1 <1>  -0.1600 
 20 C       -5.3690     5.8220    -0.2890 C.3   1 <1>  -0.1600 
 21 C       -7.8200    -1.6390    -0.4830 C.ar  1 <1>  -0.1500 
 22 C       -7.0140    -3.8800    -0.2340 C.ar  1 <1>  -0.1500 
 23 C       -6.8550     5.4520    -0.2060 C.3   1 <1>  -0.1600 
 24 C       -9.0300    -2.1250    -0.9480 C.ar  1 <1>  -0.1500 
 25 C       -8.2240    -4.3670    -0.6980 C.ar  1 <1>  -0.1500 
 26 C       -9.2330    -3.4900    -1.0550 C.ar  1 <1>  -0.1500 
 27 H       -1.4140    -0.6310     1.2290 H     1 <1>   0.4000 
 28 H       -1.9290     3.1520     0.1050 H     1 <1>   0.0800 
 29 H       -2.2260     2.5620     1.7320 H     1 <1>   0.0800 
 30 H       -4.3310    -2.5930    -1.3210 H     1 <1>   0.0800 
 31 H       -5.0230    -1.0090    -1.4850 H     1 <1>   0.0800 
 32 H       -4.4600     3.9480     1.5480 H     1 <1>   0.0800 
 33 H       -5.6540    -1.0700     0.9420 H     1 <1>   0.0800 
 34 H       -5.0190    -2.6840     1.0430 H     1 <1>   0.0800 
 35 H       -6.3990     2.4650     1.4740 H     1 <1>   0.0800 
 36 H       -6.5320     2.6820    -0.2460 H     1 <1>   0.0800 
 37 H       -4.7170     4.1460    -1.4590 H     1 <1>   0.0800 
 38 H       -3.4610     4.8790    -0.5030 H     1 <1>   0.0800 
 39 H       -6.8860     4.8360     1.8510 H     1 <1>   0.0800 
 40 H       -8.1440     4.1230     0.8840 H     1 <1>   0.0800 
 41 H       -5.2170     6.5100    -1.1030 H     1 <1>   0.0800 
 42 H       -5.0760     6.3190     0.6200 H     1 <1>   0.0800 
 43 H       -7.6690    -0.5770    -0.4040 H     1 <1>   0.1500 
 44 H       -6.2350    -4.5690     0.0400 H     1 <1>   0.1500 
 45 H       -7.4370     6.3340    -0.0020 H     1 <1>   0.0800 
 46 H       -7.1780     5.0570    -1.1550 H     1 <1>   0.0800 
 47 H       -9.8130    -1.4410    -1.2250 H     1 <1>   0.1500 
 48 H       -8.3790    -5.4280    -0.7820 H     1 <1>   0.1500 
 49 H      -10.1730    -3.8680    -1.4160 H     1 <1>   0.1500 
@<TRIPOS>BOND
  1   1   2  1   
  2   2   3  1   
  3   2   4  1   
  4   2   5  1   
  5   5   6  1   
  6   5   7  1   
  7   5   8  1   
  8   6  27  1   
  9   7   9  1   
 10   7  10  am  
 11   8  11  1   
 12   8  28  1   
 13   8  29  1   
 14   9  11  2   
 15  10  12  2   
 16  10  13  1   
 17  11  14  1   
 18  13  15  1   
 19  13  30  1   
 20  13  31  1   
 21  14  16  1   
 22  14  17  1   
 23  14  32  1   
 24  15  18  1   
 25  15  33  1   
 26  15  34  1   
 27  16  19  1   
 28  16  35  1   
 29  16  36  1   
 30  17  20  1   
 31  17  37  1   
 32  17  38  1   
 33  18  21  ar  
 34  18  22  ar  
 35  19  23  1   
 36  19  39  1   
 37  19  40  1   
 38  20  23  1   
 39  20  41  1   
 40  20  42  1   
 41  21  24  ar  
 42  21  43  1   
 43  22  25  ar  
 44  22  44  1   
 45  23  45  1   
 46  23  46  1   
 47  24  26  ar  
 48  24  47  1   
 49  25  26  ar  
 50  25  48  1   
 51  26  49  1   
@<TRIPOS>SUBSTRUCTURE
  1 ****   9 GROUP 4 **** **** 0

# MOE 2024.06 (io_trps.svl 2023.06)
