@<TRIPOS>MOLECULE
NONAME
43 45 1 0 0 
SMALL
USER_CHARGES


@<TRIPOS>ATOM
  1 O        0.7740    -3.2850    -1.9410 O.2   1 <1>  -0.5700 
  2 C        0.4220    -2.6570    -0.9540 C.2   1 <1>   0.5440 
  3 N        1.2720    -1.6950    -0.4480 N.am  1 <1>  -0.6600 
  4 C       -0.8500    -2.9670    -0.3290 C.ar  1 <1>   0.0860 
  5 C        2.4350    -1.1850    -1.2310 C.3   1 <1>   0.1400 
  6 C        1.2740    -1.2780     0.9820 C.3   1 <1>   0.1400 
  7 C       -1.2100    -4.2950    -0.0420 C.ar  1 <1>   0.1170 
  8 C       -1.7440    -1.9470     0.0050 C.ar  1 <1>  -0.1500 
  9 C        3.7510    -1.6530    -0.5890 C.3   1 <1>  -0.0800 
 10 C        2.5730    -1.7420     1.6490 C.3   1 <1>  -0.1600 
 11 N       -0.3420    -5.3250    -0.4250 N.am  1 <1>  -0.5470 
 12 C       -2.4250    -4.5500     0.5880 C.ar  1 <1>  -0.1500 
 13 C       -2.9460    -2.2170     0.6280 C.ar  1 <1>  -0.1500 
 14 C        3.8130    -1.2440     0.8930 C.3   1 <1>  -0.1600 
 15 C        4.9580    -1.0900    -1.3500 C.3   1 <1>  -0.2400 
 16 C       -0.1370    -6.6130     0.0070 C.2   1 <1>   0.7150 
 17 C       -3.2850    -3.5250     0.9250 C.ar  1 <1>  -0.1500 
 18 O       -0.8010    -7.0560     0.9250 O.2   1 <1>  -0.5700 
 19 C        0.8920    -7.3910    -0.6470 C.2   1 <1>   0.0550 
 20 O        1.1420    -8.6500    -0.2940 O.3   1 <1>  -0.2800 
 21 C        1.7480    -7.0570    -1.6580 C.2   1 <1>  -0.1500 
 22 C        2.1160    -9.1190    -1.0380 C.2   1 <1>  -0.0100 
 23 C        2.5390    -8.1790    -1.9090 C.2   1 <1>  -0.1500 
 24 H        2.3980    -0.1090    -1.2450 H     1 <1>   0.0800 
 25 H        2.3850    -1.5290    -2.2500 H     1 <1>   0.0800 
 26 H        0.4400    -1.7010     1.5120 H     1 <1>   0.0800 
 27 H        1.1990    -0.2050     1.0350 H     1 <1>   0.0800 
 28 H       -1.4840    -0.9300    -0.2310 H     1 <1>   0.1500 
 29 H        3.7840    -2.7280    -0.6560 H     1 <1>   0.0800 
 30 H        2.5790    -2.8180     1.6840 H     1 <1>   0.0800 
 31 H        2.6010    -1.3830     2.6620 H     1 <1>   0.0800 
 32 H        0.3250    -5.0230    -1.1460 H     1 <1>   0.3700 
 33 H       -2.7100    -5.5620     0.8140 H     1 <1>   0.1500 
 34 H       -3.6200    -1.4160     0.8820 H     1 <1>   0.1500 
 35 H        3.8660    -0.1710     0.9690 H     1 <1>   0.0800 
 36 H        4.6990    -1.6530     1.3470 H     1 <1>   0.0800 
 37 H        4.9620    -0.0140    -1.3170 H     1 <1>   0.0800 
 38 H        4.9270    -1.4030    -2.3790 H     1 <1>   0.0800 
 39 H        5.8730    -1.4500    -0.9150 H     1 <1>   0.0800 
 40 H       -4.2200    -3.7430     1.4120 H     1 <1>   0.1500 
 41 H        1.8280    -6.1210    -2.1850 H     1 <1>   0.1500 
 42 H        2.4490   -10.1310    -0.8840 H     1 <1>   0.1500 
 43 H        3.3170    -8.2500    -2.6480 H     1 <1>   0.1500 
@<TRIPOS>BOND
  1   1   2  2   
  2   2   3  am  
  3   2   4  1   
  4   3   5  1   
  5   3   6  1   
  6   4   7  ar  
  7   4   8  ar  
  8   5   9  1   
  9   5  24  1   
 10   5  25  1   
 11   6  10  1   
 12   6  26  1   
 13   6  27  1   
 14   7  11  1   
 15   7  12  ar  
 16   8  13  ar  
 17   8  28  1   
 18   9  14  1   
 19   9  15  1   
 20   9  29  1   
 21  10  14  1   
 22  10  30  1   
 23  10  31  1   
 24  11  16  am  
 25  11  32  1   
 26  12  17  ar  
 27  12  33  1   
 28  13  17  ar  
 29  13  34  1   
 30  14  35  1   
 31  14  36  1   
 32  15  37  1   
 33  15  38  1   
 34  15  39  1   
 35  16  18  2   
 36  16  19  1   
 37  17  40  1   
 38  19  20  1   
 39  19  21  2   
 40  20  22  1   
 41  21  23  1   
 42  21  41  1   
 43  22  23  2   
 44  22  42  1   
 45  23  43  1   
@<TRIPOS>SUBSTRUCTURE
  1 ****  11 GROUP 4 **** **** 0

# MOE 2024.06 (io_trps.svl 2023.06)
