@<TRIPOS>MOLECULE
NONAME
42 43 1 0 0 
SMALL
USER_CHARGES


@<TRIPOS>ATOM
  1 CL      -0.5030    -0.2570    -1.2040 Cl    1 <1>  -0.1770 
  2 C        0.9990    -1.0300    -0.7310 C.ar  1 <1>   0.1770 
  3 C        1.0510    -2.3980    -0.4770 C.ar  1 <1>   0.0820 
  4 C        2.1260    -0.2430    -0.6200 C.ar  1 <1>  -0.1500 
  5 O       -0.0690    -3.1560    -0.5840 O.3   1 <1>  -0.3630 
  6 C        2.2640    -2.9910    -0.1250 C.ar  1 <1>  -0.1440 
  7 C        3.3250    -0.8280    -0.2530 C.ar  1 <1>  -0.1500 
  8 C       -1.0460    -3.0060     0.4160 C.3   1 <1>   0.1200 
  9 C        3.4010    -2.1920    -0.0050 C.ar  1 <1>  -0.1440 
 10 C        2.3490    -4.4970     0.1270 C.3   1 <1>  -0.0960 
 11 C       -2.4070    -3.1640    -0.2620 C.3   1 <1>  -0.1600 
 12 C        4.7500    -2.7760     0.3950 C.3   1 <1>  -0.0970 
 13 C       -3.5370    -2.8370     0.7100 C.3   1 <1>   0.3430 
 14 N       -4.8380    -2.7880    -0.0130 N.4   1 <1>  -0.9590 
 15 C       -5.9100    -2.1750     0.8490 C.3   1 <1>   0.3430 
 16 C       -5.2810    -4.1410    -0.5080 C.3   1 <1>   0.3430 
 17 C       -7.2850    -2.2060     0.1550 C.3   1 <1>   0.1200 
 18 C       -6.6860    -4.0840    -1.1380 C.3   1 <1>   0.1200 
 19 O       -7.5950    -3.5090    -0.2440 O.3   1 <1>  -0.5600 
 20 H        2.0680     0.8120    -0.8200 H     1 <1>   0.1500 
 21 H        4.2020    -0.2110    -0.1660 H     1 <1>   0.1500 
 22 H       -0.9450    -2.0330     0.8670 H     1 <1>   0.0800 
 23 H       -0.8760    -3.7650     1.1610 H     1 <1>   0.0800 
 24 H        1.4830    -5.0160    -0.2380 H     1 <1>   0.0800 
 25 H        2.4400    -4.6850     1.1820 H     1 <1>   0.0800 
 26 H        3.2030    -4.9120    -0.3760 H     1 <1>   0.0800 
 27 H       -2.4920    -4.1750    -0.6170 H     1 <1>   0.0800 
 28 H       -2.4460    -2.4850    -1.0960 H     1 <1>   0.0800 
 29 H        4.6540    -3.3580     1.2930 H     1 <1>   0.0800 
 30 H        5.4690    -1.9990     0.5790 H     1 <1>   0.0800 
 31 H        5.1260    -3.4040    -0.3930 H     1 <1>   0.0800 
 32 H       -3.3400    -1.8740     1.1560 H     1 <1>   0.0800 
 33 H       -3.5730    -3.5730     1.4970 H     1 <1>   0.0800 
 34 H       -4.7210    -2.1800    -0.8360 H     1 <1>   0.4500 
 35 H       -5.6550    -1.1550     1.0860 H     1 <1>   0.0800 
 36 H       -5.9880    -2.7200     1.7760 H     1 <1>   0.0800 
 37 H       -5.3080    -4.8390     0.3120 H     1 <1>   0.0800 
 38 H       -4.5830    -4.5150    -1.2390 H     1 <1>   0.0800 
 39 H       -7.3030    -1.5640    -0.7090 H     1 <1>   0.0800 
 40 H       -8.0520    -1.8830     0.8370 H     1 <1>   0.0800 
 41 H       -7.0330    -5.0780    -1.3630 H     1 <1>   0.0800 
 42 H       -6.6830    -3.5090    -2.0490 H     1 <1>   0.0800 
@<TRIPOS>BOND
  1   1   2  1   
  2   2   3  ar  
  3   2   4  ar  
  4   3   5  1   
  5   3   6  ar  
  6   4   7  ar  
  7   4  20  1   
  8   5   8  1   
  9   6   9  ar  
 10   6  10  1   
 11   7   9  ar  
 12   7  21  1   
 13   8  11  1   
 14   8  22  1   
 15   8  23  1   
 16   9  12  1   
 17  10  24  1   
 18  10  25  1   
 19  10  26  1   
 20  11  13  1   
 21  11  27  1   
 22  11  28  1   
 23  12  29  1   
 24  12  30  1   
 25  12  31  1   
 26  13  14  1   
 27  13  32  1   
 28  13  33  1   
 29  14  15  1   
 30  14  16  1   
 31  14  34  1   
 32  15  17  1   
 33  15  35  1   
 34  15  36  1   
 35  16  18  1   
 36  16  37  1   
 37  16  38  1   
 38  17  19  1   
 39  17  39  1   
 40  17  40  1   
 41  18  19  1   
 42  18  41  1   
 43  18  42  1   
@<TRIPOS>SUBSTRUCTURE
  1 ****   8 GROUP 4 **** **** 0

# MOE 2024.06 (io_trps.svl 2023.06)
