@<TRIPOS>MOLECULE
NONAME
44 46 1 0 0 
SMALL
USER_CHARGES


@<TRIPOS>ATOM
  1 CL       2.4540    -0.3860    -1.2960 Cl    1 <1>  -0.1770 
  2 C        1.5870    -1.9040    -1.2190 C.ar  1 <1>   0.1770 
  3 C        2.2260    -3.0690    -0.7970 C.ar  1 <1>   0.0820 
  4 C        0.2580    -1.9180    -1.5980 C.ar  1 <1>  -0.1500 
  5 O        3.5270    -3.0810    -0.4240 O.3   1 <1>  -0.3630 
  6 C        1.5240    -4.2660    -0.7780 C.ar  1 <1>  -0.1500 
  7 C       -0.4270    -3.1180    -1.5590 C.ar  1 <1>   0.1770 
  8 C        3.8660    -2.4880     0.8250 C.3   1 <1>   0.2610 
  9 C        0.1910    -4.2910    -1.1570 C.ar  1 <1>  -0.1500 
 10 CL      -2.1060    -3.1580    -2.0310 Cl    1 <1>  -0.1770 
 11 C        5.2470    -1.7970     0.8020 C.2   1 <1>   0.5690 
 12 C        3.7610    -3.5660     1.9130 C.3   1 <1>  -0.2400 
 13 O        5.3070    -0.7230     1.3590 O.2   1 <1>  -0.5700 
 14 N        6.3760    -2.3550     0.2380 N.am  1 <1>  -0.6600 
 15 C        6.4060    -3.6620    -0.5030 C.3   1 <1>   0.1400 
 16 C        7.7160    -1.7010     0.3970 C.3   1 <1>   0.1400 
 17 C        7.7860    -4.0050    -1.0960 C.3   1 <1>   0.2090 
 18 C        8.7860    -2.7190     0.8290 C.3   1 <1>   0.2090 
 19 N        8.8870    -3.9020    -0.0890 N.pl3 1 <1>  -0.8380 
 20 C       10.1460    -4.1520    -0.5850 C.ar  1 <1>   0.4100 
 21 N       10.6260    -3.2870    -1.4700 N.ar  1 <1>  -0.6200 
 22 C       10.8440    -5.2730    -0.1460 C.ar  1 <1>  -0.1500 
 23 C       11.8380    -3.5520    -1.9290 C.ar  1 <1>   0.1600 
 24 C       12.1030    -5.5350    -0.6330 C.ar  1 <1>  -0.1500 
 25 C       12.6070    -4.6390    -1.5540 C.ar  1 <1>  -0.1500 
 26 H       -0.2320    -1.0170    -1.9180 H     1 <1>   0.1500 
 27 H        2.0210    -5.1690    -0.4680 H     1 <1>   0.1500 
 28 H        3.1400    -1.7220     1.0340 H     1 <1>   0.0800 
 29 H       -0.3690    -5.2100    -1.1440 H     1 <1>   0.1500 
 30 H        4.4480    -4.3690     1.7200 H     1 <1>   0.0800 
 31 H        4.0060    -3.1330     2.8660 H     1 <1>   0.0800 
 32 H        2.7590    -3.9500     1.9640 H     1 <1>   0.0800 
 33 H        5.7010    -3.6280    -1.3140 H     1 <1>   0.0800 
 34 H        6.1180    -4.4530     0.1640 H     1 <1>   0.0800 
 35 H        7.6710    -0.9160     1.1310 H     1 <1>   0.0800 
 36 H        8.0090    -1.2560    -0.5380 H     1 <1>   0.0800 
 37 H        7.9890    -3.3380    -1.9160 H     1 <1>   0.0800 
 38 H        7.7650    -5.0060    -1.4900 H     1 <1>   0.0800 
 39 H        8.5480    -3.0700     1.8170 H     1 <1>   0.0800 
 40 H        9.7380    -2.2180     0.8830 H     1 <1>   0.0800 
 41 H       10.3780    -5.9180     0.5730 H     1 <1>   0.1500 
 42 H       12.2420    -2.8600    -2.6480 H     1 <1>   0.1500 
 43 H       12.6680    -6.3940    -0.3120 H     1 <1>   0.1500 
 44 H       13.5850    -4.7820    -1.9760 H     1 <1>   0.1500 
@<TRIPOS>BOND
  1   1   2  1   
  2   2   3  ar  
  3   2   4  ar  
  4   3   5  1   
  5   3   6  ar  
  6   4   7  ar  
  7   4  26  1   
  8   5   8  1   
  9   6   9  ar  
 10   6  27  1   
 11   7   9  ar  
 12   7  10  1   
 13   8  11  1   
 14   8  12  1   
 15   8  28  1   
 16   9  29  1   
 17  11  13  2   
 18  11  14  am  
 19  12  30  1   
 20  12  31  1   
 21  12  32  1   
 22  14  15  1   
 23  14  16  1   
 24  15  17  1   
 25  15  33  1   
 26  15  34  1   
 27  16  18  1   
 28  16  35  1   
 29  16  36  1   
 30  17  19  1   
 31  17  37  1   
 32  17  38  1   
 33  18  19  1   
 34  18  39  1   
 35  18  40  1   
 36  19  20  1   
 37  20  21  ar  
 38  20  22  ar  
 39  21  23  ar  
 40  22  24  ar  
 41  22  41  1   
 42  23  25  ar  
 43  23  42  1   
 44  24  25  ar  
 45  24  43  1   
 46  25  44  1   
@<TRIPOS>SUBSTRUCTURE
  1 ****  15 GROUP 4 **** **** 0

# MOE 2024.06 (io_trps.svl 2023.06)
