@<TRIPOS>MOLECULE
NONAME
41 41 1 0 0 
SMALL
USER_CHARGES


@<TRIPOS>ATOM
  1 N       -2.6630     3.4670     1.6690 N.ar  1 <1>  -0.6200 
  2 C       -3.6010     2.5610     1.4720 C.ar  1 <1>   0.1600 
  3 C       -2.2750     4.1360     0.5950 C.ar  1 <1>   0.1600 
  4 C       -4.1970     2.2940     0.2480 C.ar  1 <1>  -0.1440 
  5 C       -2.7920     3.9420    -0.6740 C.ar  1 <1>  -0.1500 
  6 C       -3.7800     2.9990    -0.8660 C.ar  1 <1>  -0.1500 
  7 C       -5.2830     1.2530     0.1490 C.3   1 <1>   0.4870 
  8 N       -6.5790     1.9700     0.2290 N.4   1 <1>  -0.9060 
  9 C       -7.8300     1.1980     0.1440 C.3   1 <1>   0.5030 
 10 C       -8.9570     2.2660     0.2070 C.3   1 <1>  -0.1600 
 11 C       -7.8480     0.2070     1.3090 C.3   1 <1>  -0.2400 
 12 C       -7.8200     0.4490    -1.1950 C.3   1 <1>  -0.2400 
 13 C      -10.4530     1.9400     0.4980 C.3   1 <1>   0.0000 
 14 C      -11.2660     3.2000     0.1520 C.3   1 <1>  -0.2400 
 15 C      -10.7120     1.6490     1.9880 C.3   1 <1>  -0.2400 
 16 C      -11.0190     0.7900    -0.3450 C.3   1 <1>  -0.2400 
 17 H       -3.9050     2.0090     2.3470 H     1 <1>   0.1500 
 18 H       -1.5040     4.8760     0.7340 H     1 <1>   0.1500 
 19 H       -2.4180     4.5250    -1.4980 H     1 <1>   0.1500 
 20 H       -4.1880     2.8340    -1.8500 H     1 <1>   0.1500 
 21 H       -5.1880     0.5450     0.9560 H     1 <1>   0.0800 
 22 H       -5.1960     0.7260    -0.7880 H     1 <1>   0.0800 
 23 H       -6.5890     2.6750    -0.5130 H     1 <1>   0.4500 
 24 H       -6.5920     2.4980     1.1070 H     1 <1>   0.4500 
 25 H       -8.9350     2.7810    -0.7380 H     1 <1>   0.0800 
 26 H       -8.6790     2.9960     0.9470 H     1 <1>   0.0800 
 27 H       -7.8620     0.7210     2.2540 H     1 <1>   0.0800 
 28 H       -7.0100    -0.4650     1.2830 H     1 <1>   0.0800 
 29 H       -8.7240    -0.4110     1.2500 H     1 <1>   0.0800 
 30 H       -7.7510     1.1330    -2.0220 H     1 <1>   0.0800 
 31 H       -8.7210    -0.1180    -1.3200 H     1 <1>   0.0800 
 32 H       -7.0150    -0.2590    -1.2520 H     1 <1>   0.0800 
 33 H      -11.1750     3.4450    -0.8920 H     1 <1>   0.0800 
 34 H      -10.9320     4.0450     0.7280 H     1 <1>   0.0800 
 35 H      -12.3120     3.0520     0.3610 H     1 <1>   0.0800 
 36 H      -10.3020     2.4260     2.6100 H     1 <1>   0.0800 
 37 H      -10.3050     0.7090     2.3000 H     1 <1>   0.0800 
 38 H      -11.7710     1.6060     2.1780 H     1 <1>   0.0800 
 39 H      -10.5910    -0.1540    -0.0680 H     1 <1>   0.0800 
 40 H      -10.8500     0.9640    -1.3930 H     1 <1>   0.0800 
 41 H      -12.0830     0.7090    -0.1960 H     1 <1>   0.0800 
@<TRIPOS>BOND
  1   1   2  ar  
  2   1   3  ar  
  3   2   4  ar  
  4   2  17  1   
  5   3   5  ar  
  6   3  18  1   
  7   4   6  ar  
  8   4   7  1   
  9   5   6  ar  
 10   5  19  1   
 11   6  20  1   
 12   7   8  1   
 13   7  21  1   
 14   7  22  1   
 15   8   9  1   
 16   8  23  1   
 17   8  24  1   
 18   9  10  1   
 19   9  11  1   
 20   9  12  1   
 21  10  13  1   
 22  10  25  1   
 23  10  26  1   
 24  11  27  1   
 25  11  28  1   
 26  11  29  1   
 27  12  30  1   
 28  12  31  1   
 29  12  32  1   
 30  13  14  1   
 31  13  15  1   
 32  13  16  1   
 33  14  33  1   
 34  14  34  1   
 35  14  35  1   
 36  15  36  1   
 37  15  37  1   
 38  15  38  1   
 39  16  39  1   
 40  16  40  1   
 41  16  41  1   
@<TRIPOS>SUBSTRUCTURE
  1 ****   8 GROUP 4 **** **** 0

# MOE 2024.06 (io_trps.svl 2023.06)
