@<TRIPOS>MOLECULE
NONAME
36 37 1 0 0 
SMALL
USER_CHARGES


@<TRIPOS>ATOM
  1 CL       0.3670    -0.1660    -0.9860 Cl    1 <1>  -0.1770 
  2 C        1.8850    -0.9140    -0.5910 C.ar  1 <1>   0.7970 
  3 N        2.9080    -0.1160    -0.5480 N.ar  1 <1>  -0.6200 
  4 N        1.8430    -2.1930    -0.3780 N.ar  1 <1>  -0.6200 
  5 C        4.0260    -0.7320    -0.2460 C.ar  1 <1>   0.7200 
  6 C        3.0150    -2.6800    -0.0870 C.ar  1 <1>   0.7200 
  7 N        4.1330    -2.0140    -0.0060 N.ar  1 <1>  -0.6200 
  8 N        5.1700     0.0310    -0.1810 N.pl3 1 <1>  -0.8380 
  9 N        3.0260    -4.0090     0.1400 N.pl3 1 <1>  -0.8690 
 10 C        5.2110     1.4970    -0.4910 C.3   1 <1>   0.2090 
 11 C        6.5260    -0.5380     0.1080 C.3   1 <1>   0.2090 
 12 C        4.1930    -4.8580     0.4010 C.3   1 <1>   0.2890 
 13 C        6.0580     2.2550     0.5470 C.3   1 <1>   0.1200 
 14 C        7.2920     0.3460     1.1080 C.3   1 <1>   0.1200 
 15 C        4.5950    -5.5330    -0.9170 C.3   1 <1>  -0.1600 
 16 C        3.7910    -5.8540     1.4850 C.3   1 <1>  -0.2400 
 17 O        7.3280     1.6790     0.6810 O.3   1 <1>  -0.5600 
 18 C        5.8750    -6.3760    -0.8090 C.3   1 <1>  -0.2400 
 19 H        2.1370    -4.4840    -0.0030 H     1 <1>   0.4000 
 20 H        4.2250     1.9250    -0.5030 H     1 <1>   0.0800 
 21 H        5.6420     1.6380    -1.4670 H     1 <1>   0.0800 
 22 H        7.0850    -0.5970    -0.8100 H     1 <1>   0.0800 
 23 H        6.4560    -1.5310     0.5140 H     1 <1>   0.0800 
 24 H        5.0100    -4.2540     0.7610 H     1 <1>   0.0800 
 25 H        5.5700     2.2440     1.5060 H     1 <1>   0.0800 
 26 H        6.1920     3.2770     0.2390 H     1 <1>   0.0800 
 27 H        8.3070     0.0040     1.2010 H     1 <1>   0.0800 
 28 H        6.8230     0.3060     2.0760 H     1 <1>   0.0800 
 29 H        4.7610    -4.7630    -1.6500 H     1 <1>   0.0800 
 30 H        3.7890    -6.1560    -1.2640 H     1 <1>   0.0800 
 31 H        3.0150    -6.5080     1.1320 H     1 <1>   0.0800 
 32 H        3.4440    -5.3250     2.3550 H     1 <1>   0.0800 
 33 H        4.6370    -6.4490     1.7760 H     1 <1>   0.0800 
 34 H        6.6870    -5.7790    -0.4330 H     1 <1>   0.0800 
 35 H        6.1480    -6.7470    -1.7810 H     1 <1>   0.0800 
 36 H        5.7290    -7.2190    -0.1580 H     1 <1>   0.0800 
@<TRIPOS>BOND
  1   1   2  1   
  2   2   3  ar  
  3   2   4  ar  
  4   3   5  ar  
  5   4   6  ar  
  6   5   7  ar  
  7   5   8  1   
  8   6   7  ar  
  9   6   9  1   
 10   8  10  1   
 11   8  11  1   
 12   9  12  1   
 13   9  19  1   
 14  10  13  1   
 15  10  20  1   
 16  10  21  1   
 17  11  14  1   
 18  11  22  1   
 19  11  23  1   
 20  12  15  1   
 21  12  16  1   
 22  12  24  1   
 23  13  17  1   
 24  13  25  1   
 25  13  26  1   
 26  14  17  1   
 27  14  27  1   
 28  14  28  1   
 29  15  18  1   
 30  15  29  1   
 31  15  30  1   
 32  16  31  1   
 33  16  32  1   
 34  16  33  1   
 35  18  34  1   
 36  18  35  1   
 37  18  36  1   
@<TRIPOS>SUBSTRUCTURE
  1 ****   7 GROUP 4 **** **** 0

# MOE 2024.06 (io_trps.svl 2023.06)
