@<TRIPOS>MOLECULE
NONAME
35 36 1 0 0 
SMALL
USER_CHARGES


@<TRIPOS>ATOM
  1 F       -0.6290    -0.4780     1.4890 F     1 <1>  -0.3400 
  2 C       -1.4900    -1.1420     0.7200 C.3   1 <1>   1.0200 
  3 F       -2.5640    -1.3260     1.4880 F     1 <1>  -0.3400 
  4 F       -1.8690    -0.2900    -0.2280 F     1 <1>  -0.3400 
  5 C       -0.9010    -2.4990     0.1850 C.3   1 <1>   0.6410 
  6 O       -1.6700    -3.1760    -0.7970 O.3   1 <1>  -0.5600 
  7 N       -0.5610    -3.5300     1.2010 N.am  1 <1>  -0.7300 
  8 C        0.4930    -2.1820    -0.3620 C.2   1 <1>   0.5690 
  9 C       -2.9330    -3.6650    -0.4560 C.3   1 <1>   0.1200 
 10 C        0.7720    -3.6800     1.2620 C.2   1 <1>   0.6900 
 11 O        0.7280    -1.3800    -1.2380 O.2   1 <1>  -0.5700 
 12 N        1.4300    -2.9260     0.3170 N.am  1 <1>  -0.2370 
 13 C       -3.9760    -2.8720    -1.2370 C.3   1 <1>  -0.2400 
 14 O        1.2910    -4.3710     2.1080 O.2   1 <1>  -0.5700 
 15 C        2.8310    -2.8860     0.1310 C.ar  1 <1>   0.1170 
 16 C        3.5760    -4.0600     0.0840 C.ar  1 <1>  -0.1500 
 17 C        3.5010    -1.6730    -0.0090 C.ar  1 <1>  -0.1500 
 18 C        4.9470    -4.0230    -0.0970 C.ar  1 <1>  -0.1500 
 19 C        4.8720    -1.6310    -0.1910 C.ar  1 <1>  -0.1500 
 20 C        5.6050    -2.8130    -0.2360 C.ar  1 <1>   0.0820 
 21 O        6.9510    -2.8640    -0.4110 O.3   1 <1>  -0.3630 
 22 C        7.7100    -1.6850    -0.5580 C.3   1 <1>   0.0400 
 23 H       -1.1800    -3.8100     1.9600 H     1 <1>   0.3700 
 24 H       -3.1060    -3.6020     0.6040 H     1 <1>   0.0800 
 25 H       -2.9670    -4.7010    -0.7500 H     1 <1>   0.0800 
 26 H       -3.9760    -1.8380    -0.9440 H     1 <1>   0.0800 
 27 H       -4.9540    -3.2750    -1.0460 H     1 <1>   0.0800 
 28 H       -3.7800    -2.9440    -2.2930 H     1 <1>   0.0800 
 29 H        3.0850    -5.0110     0.1950 H     1 <1>   0.1500 
 30 H        2.9480    -0.7510     0.0210 H     1 <1>   0.1500 
 31 H        5.5170    -4.9340    -0.1300 H     1 <1>   0.1500 
 32 H        5.3470    -0.6740    -0.2970 H     1 <1>   0.1500 
 33 H        8.7410    -1.9660    -0.6820 H     1 <1>   0.0800 
 34 H        7.5990    -1.0850     0.3270 H     1 <1>   0.0800 
 35 H        7.3680    -1.1560    -1.4300 H     1 <1>   0.0800 
@<TRIPOS>BOND
  1   1   2  1   
  2   2   3  1   
  3   2   4  1   
  4   2   5  1   
  5   5   6  1   
  6   5   7  1   
  7   5   8  1   
  8   6   9  1   
  9   7  10  am  
 10   7  23  1   
 11   8  11  2   
 12   8  12  am  
 13   9  13  1   
 14   9  24  1   
 15   9  25  1   
 16  10  12  am  
 17  10  14  2   
 18  12  15  1   
 19  13  26  1   
 20  13  27  1   
 21  13  28  1   
 22  15  16  ar  
 23  15  17  ar  
 24  16  18  ar  
 25  16  29  1   
 26  17  19  ar  
 27  17  30  1   
 28  18  20  ar  
 29  18  31  1   
 30  19  20  ar  
 31  19  32  1   
 32  20  21  1   
 33  21  22  1   
 34  22  33  1   
 35  22  34  1   
 36  22  35  1   
@<TRIPOS>SUBSTRUCTURE
  1 ****  12 GROUP 4 **** **** 0

# MOE 2024.06 (io_trps.svl 2023.06)
