@<TRIPOS>MOLECULE
NONAME
34 35 1 0 0 
SMALL
USER_CHARGES


@<TRIPOS>ATOM
  1 O      -14.1740     2.0780    -0.8050 O.3   1 <1>  -0.5600 
  2 C      -13.6310     2.8700     0.2160 C.3   1 <1>   0.1200 
  3 C      -14.2880     0.7190    -0.4780 C.3   1 <1>   0.1200 
  4 C      -12.2080     2.3920     0.5900 C.3   1 <1>   0.3430 
  5 C      -12.9240     0.1260    -0.0520 C.3   1 <1>   0.3430 
  6 N      -11.8260     1.1460    -0.1650 N.4   1 <1>  -0.9590 
  7 C      -10.4920     0.5780     0.2140 C.3   1 <1>   0.3430 
  8 C       -9.3230     1.4940    -0.1650 C.3   1 <1>   0.1200 
  9 O       -8.1430     0.8560     0.2560 O.3   1 <1>  -0.3630 
 10 C       -6.9220     1.4100     0.0620 C.ar  1 <1>   0.0820 
 11 C       -6.7120     2.6250    -0.5840 C.ar  1 <1>  -0.1500 
 12 C       -5.8330     0.7030     0.5450 C.ar  1 <1>  -0.1500 
 13 C       -5.4260     3.1140    -0.7350 C.ar  1 <1>  -0.1500 
 14 C       -4.5510     1.1980     0.3900 C.ar  1 <1>  -0.1500 
 15 C       -4.3260     2.4110    -0.2520 C.ar  1 <1>   0.0730 
 16 C       -2.9950     2.9240    -0.4120 C.1   1 <1>   0.4840 
 17 N       -1.9390     3.3330    -0.5410 N.1   1 <1>  -0.5570 
 18 H      -14.2860     2.8300     1.0690 H     1 <1>   0.0800 
 19 H      -13.6010     3.8870    -0.1360 H     1 <1>   0.0800 
 20 H      -14.6610     0.2040    -1.3470 H     1 <1>   0.0800 
 21 H      -15.0140     0.6130     0.3110 H     1 <1>   0.0800 
 22 H      -12.1710     2.2090     1.6520 H     1 <1>   0.0800 
 23 H      -11.5100     3.1840     0.3750 H     1 <1>   0.0800 
 24 H      -12.7040    -0.7270    -0.6740 H     1 <1>   0.0800 
 25 H      -12.9980    -0.2250     0.9640 H     1 <1>   0.0800 
 26 H      -11.8310     1.4170    -1.1610 H     1 <1>   0.4500 
 27 H      -10.3510    -0.3650    -0.2890 H     1 <1>   0.0800 
 28 H      -10.4640     0.4010     1.2770 H     1 <1>   0.0800 
 29 H       -9.3850     2.4400     0.3430 H     1 <1>   0.0800 
 30 H       -9.2710     1.6280    -1.2310 H     1 <1>   0.0800 
 31 H       -7.5260     3.2040    -0.9760 H     1 <1>   0.1500 
 32 H       -5.9930    -0.2360     1.0440 H     1 <1>   0.1500 
 33 H       -5.2700     4.0550    -1.2360 H     1 <1>   0.1500 
 34 H       -3.7150     0.6350     0.7730 H     1 <1>   0.1500 
@<TRIPOS>BOND
  1   1   2  1   
  2   1   3  1   
  3   2   4  1   
  4   2  18  1   
  5   2  19  1   
  6   3   5  1   
  7   3  20  1   
  8   3  21  1   
  9   4   6  1   
 10   4  22  1   
 11   4  23  1   
 12   5   6  1   
 13   5  24  1   
 14   5  25  1   
 15   6   7  1   
 16   6  26  1   
 17   7   8  1   
 18   7  27  1   
 19   7  28  1   
 20   8   9  1   
 21   8  29  1   
 22   8  30  1   
 23   9  10  1   
 24  10  11  ar  
 25  10  12  ar  
 26  11  13  ar  
 27  11  31  1   
 28  12  14  ar  
 29  12  32  1   
 30  13  15  ar  
 31  13  33  1   
 32  14  15  ar  
 33  14  34  1   
 34  15  16  1   
 35  16  17  3   
@<TRIPOS>SUBSTRUCTURE
  1 ****   8 GROUP 4 **** **** 0

# MOE 2024.06 (io_trps.svl 2023.06)
