@<TRIPOS>MOLECULE
NONAME
50 51 1 0 0 
SMALL
USER_CHARGES


@<TRIPOS>ATOM
  1 O        0.2350     2.0400     2.6110 O.2   1 <1>  -0.5700 
  2 C        0.0510     2.3050     1.4380 C.2   1 <1>   0.5440 
  3 N        1.0770     2.1510     0.5350 N.am  1 <1>  -0.5470 
  4 C       -1.2350     2.8130     0.9980 C.ar  1 <1>   0.0860 
  5 C        2.4170     1.7600     0.6630 C.ar  1 <1>   0.1170 
  6 C       -1.7300     2.6660    -0.3070 C.ar  1 <1>   0.0830 
  7 C       -2.0500     3.5040     1.8970 C.ar  1 <1>  -0.1500 
  8 C        3.4540     2.3080    -0.1220 C.ar  1 <1>  -0.1440 
  9 C        2.7120     0.7600     1.5880 C.ar  1 <1>  -0.1500 
 10 O       -1.0410     1.9960    -1.2560 O.3   1 <1>  -0.3630 
 11 C       -2.9460     3.2080    -0.6890 C.ar  1 <1>  -0.1500 
 12 C       -3.2670     4.0470     1.5340 C.ar  1 <1>   0.0830 
 13 C        4.7390     1.8060     0.0870 C.ar  1 <1>  -0.1500 
 14 C        3.3340     3.4330    -1.1990 C.3   1 <1>   0.1440 
 15 C        3.9940     0.2890     1.7680 C.ar  1 <1>  -0.1500 
 16 C       -1.1980     0.5930    -1.2710 C.3   1 <1>   0.0400 
 17 C       -3.7370     3.8980     0.2200 C.ar  1 <1>   0.0830 
 18 O       -3.9400     4.7010     2.5210 O.3   1 <1>  -0.3630 
 19 C        5.0150     0.8160     1.0110 C.ar  1 <1>  -0.1500 
 20 C        3.8510     2.9050    -2.5510 C.3   1 <1>  -0.2400 
 21 C        1.9300     4.0000    -1.4820 C.3   1 <1>  -0.2400 
 22 C        4.1950     4.6330    -0.7650 C.3   1 <1>  -0.2400 
 23 O       -4.9500     4.4090    -0.1260 O.3   1 <1>  -0.3620 
 24 C       -4.5280     5.9540     2.2490 C.3   1 <1>   0.0400 
 25 C       -5.5220     4.2070    -1.4000 C.3   1 <1>   0.0400 
 26 H        0.8160     2.4270    -0.4120 H     1 <1>   0.3700 
 27 H       -1.7200     3.6260     2.9140 H     1 <1>   0.1500 
 28 H        1.9230     0.3360     2.1810 H     1 <1>   0.1500 
 29 H       -3.2530     3.0690    -1.7070 H     1 <1>   0.1500 
 30 H        5.5730     2.1850    -0.4740 H     1 <1>   0.1500 
 31 H        4.1920    -0.4810     2.4920 H     1 <1>   0.1500 
 32 H       -0.6060     0.1960    -2.0770 H     1 <1>   0.0800 
 33 H       -2.2360     0.3580    -1.4260 H     1 <1>   0.0800 
 34 H       -0.8590     0.1880    -0.3340 H     1 <1>   0.0800 
 35 H        6.0220     0.4610     1.1390 H     1 <1>   0.1500 
 36 H        3.2930     2.0330    -2.8400 H     1 <1>   0.0800 
 37 H        4.8900     2.6380    -2.5050 H     1 <1>   0.0800 
 38 H        3.7440     3.6490    -3.3190 H     1 <1>   0.0800 
 39 H        1.9820     4.7870    -2.2150 H     1 <1>   0.0800 
 40 H        1.2840     3.2410    -1.8820 H     1 <1>   0.0800 
 41 H        1.5020     4.4250    -0.5920 H     1 <1>   0.0800 
 42 H        3.8610     4.9910     0.1930 H     1 <1>   0.0800 
 43 H        5.2320     4.3690    -0.6810 H     1 <1>   0.0800 
 44 H        4.1200     5.4370    -1.4750 H     1 <1>   0.0800 
 45 H       -4.6190     6.4900     3.1760 H     1 <1>   0.0800 
 46 H       -5.5040     5.7970     1.8260 H     1 <1>   0.0800 
 47 H       -3.9000     6.5000     1.5660 H     1 <1>   0.0800 
 48 H       -6.4890     4.6760    -1.4090 H     1 <1>   0.0800 
 49 H       -5.6280     3.1510    -1.5720 H     1 <1>   0.0800 
 50 H       -4.8910     4.6600    -2.1440 H     1 <1>   0.0800 
@<TRIPOS>BOND
  1   1   2  2   
  2   2   3  am  
  3   2   4  1   
  4   3   5  1   
  5   3  26  1   
  6   4   6  ar  
  7   4   7  ar  
  8   5   8  ar  
  9   5   9  ar  
 10   6  10  1   
 11   6  11  ar  
 12   7  12  ar  
 13   7  27  1   
 14   8  13  ar  
 15   8  14  1   
 16   9  15  ar  
 17   9  28  1   
 18  10  16  1   
 19  11  17  ar  
 20  11  29  1   
 21  12  17  ar  
 22  12  18  1   
 23  13  19  ar  
 24  13  30  1   
 25  14  20  1   
 26  14  21  1   
 27  14  22  1   
 28  15  19  ar  
 29  15  31  1   
 30  16  32  1   
 31  16  33  1   
 32  16  34  1   
 33  17  23  1   
 34  18  24  1   
 35  19  35  1   
 36  20  36  1   
 37  20  37  1   
 38  20  38  1   
 39  21  39  1   
 40  21  40  1   
 41  21  41  1   
 42  22  42  1   
 43  22  43  1   
 44  22  44  1   
 45  23  25  1   
 46  24  45  1   
 47  24  46  1   
 48  24  47  1   
 49  25  48  1   
 50  25  49  1   
 51  25  50  1   
@<TRIPOS>SUBSTRUCTURE
  1 ****   2 GROUP 4 **** **** 0

# MOE 2024.06 (io_trps.svl 2023.06)
