@<TRIPOS>MOLECULE
NONAME
47 48 1 0 0 
SMALL
USER_CHARGES


@<TRIPOS>ATOM
  1 O        0.7880    -3.1210    -2.0970 O.2   1 <1>  -0.5700 
  2 C        0.2140    -3.5220    -1.1160 C.2   1 <1>   0.5690 
  3 N        0.8150    -3.7090     0.0990 N.am  1 <1>  -0.5470 
  4 C       -1.2610    -3.8560    -1.2310 C.3   1 <1>  -0.0990 
  5 C        2.1370    -3.4980     0.5210 C.ar  1 <1>   0.1170 
  6 C       -2.1420    -2.9020    -0.4080 C.3   1 <1>  -0.1600 
  7 C        3.0240    -2.6630    -0.1500 C.ar  1 <1>  -0.1500 
  8 C        2.5750    -4.1420     1.6700 C.ar  1 <1>  -0.1500 
  9 C       -3.6260    -3.2250    -0.5810 C.3   1 <1>   0.1200 
 10 C        4.3380    -2.4630     0.2800 C.ar  1 <1>   0.0860 
 11 C        3.8650    -3.9600     2.1290 C.ar  1 <1>  -0.1500 
 12 O       -4.3520    -2.3710     0.2670 O.3   1 <1>  -0.3630 
 13 C        5.2770    -1.6050    -0.4200 C.2   1 <1>   0.4230 
 14 C        4.7310    -3.1330     1.4410 C.ar  1 <1>  -0.1500 
 15 C       -5.7070    -2.4410     0.3640 C.ar  1 <1>   0.0830 
 16 O        6.3730    -1.3470     0.0040 O.2   1 <1>  -0.5700 
 17 C        4.9050    -0.9860    -1.7540 C.3   1 <1>  -0.1790 
 18 C       -6.3310    -1.5870     1.2690 C.ar  1 <1>  -0.1430 
 19 C       -6.4760    -3.3210    -0.3960 C.ar  1 <1>  -0.1500 
 20 C       -7.7090    -1.6260     1.4040 C.ar  1 <1>  -0.1500 
 21 C       -5.5160    -0.6150     2.1080 C.3   1 <1>  -0.0970 
 22 C       -7.8530    -3.3560    -0.2540 C.ar  1 <1>  -0.1430 
 23 C       -8.4650    -2.5040     0.6480 C.ar  1 <1>  -0.1500 
 24 C       -8.6900    -4.3150    -1.0830 C.3   1 <1>  -0.0970 
 25 H        0.2030    -4.0940     0.8150 H     1 <1>   0.3700 
 26 H       -1.4110    -4.8710    -0.9110 H     1 <1>   0.0800 
 27 H       -1.5400    -3.7950    -2.2680 H     1 <1>   0.0800 
 28 H       -1.9660    -1.8900    -0.7300 H     1 <1>   0.0800 
 29 H       -1.8890    -2.9790     0.6350 H     1 <1>   0.0800 
 30 H        2.6800    -2.1520    -1.0260 H     1 <1>   0.1500 
 31 H        1.9100    -4.7910     2.2100 H     1 <1>   0.1500 
 32 H       -3.8340    -4.2410    -0.2940 H     1 <1>   0.0800 
 33 H       -3.9420    -3.0480    -1.5950 H     1 <1>   0.0800 
 34 H        4.1990    -4.4630     3.0210 H     1 <1>   0.1500 
 35 H        5.7360    -2.9990     1.8050 H     1 <1>   0.1500 
 36 H        4.5970    -1.7510    -2.4440 H     1 <1>   0.0800 
 37 H        5.7540    -0.4740    -2.1690 H     1 <1>   0.0800 
 38 H        4.1090    -0.2780    -1.6210 H     1 <1>   0.0800 
 39 H       -6.0190    -3.9850    -1.1030 H     1 <1>   0.1500 
 40 H       -8.2040    -0.9710     2.0990 H     1 <1>   0.1500 
 41 H       -4.8170    -1.1590     2.7180 H     1 <1>   0.0800 
 42 H       -6.1480    -0.0280     2.7490 H     1 <1>   0.0800 
 43 H       -4.9680     0.0490     1.4640 H     1 <1>   0.0800 
 44 H       -9.5340    -2.5180     0.7660 H     1 <1>   0.1500 
 45 H       -8.1160    -5.1830    -1.3540 H     1 <1>   0.0800 
 46 H       -9.0220    -3.8240    -1.9800 H     1 <1>   0.0800 
 47 H       -9.5490    -4.6390    -0.5250 H     1 <1>   0.0800 
@<TRIPOS>BOND
  1   1   2  2   
  2   2   3  am  
  3   2   4  1   
  4   3   5  1   
  5   3  25  1   
  6   4   6  1   
  7   4  26  1   
  8   4  27  1   
  9   5   7  ar  
 10   5   8  ar  
 11   6   9  1   
 12   6  28  1   
 13   6  29  1   
 14   7  10  ar  
 15   7  30  1   
 16   8  11  ar  
 17   8  31  1   
 18   9  12  1   
 19   9  32  1   
 20   9  33  1   
 21  10  13  1   
 22  10  14  ar  
 23  11  14  ar  
 24  11  34  1   
 25  12  15  1   
 26  13  16  2   
 27  13  17  1   
 28  14  35  1   
 29  15  18  ar  
 30  15  19  ar  
 31  17  36  1   
 32  17  37  1   
 33  17  38  1   
 34  18  20  ar  
 35  18  21  1   
 36  19  22  ar  
 37  19  39  1   
 38  20  23  ar  
 39  20  40  1   
 40  21  41  1   
 41  21  42  1   
 42  21  43  1   
 43  22  23  ar  
 44  22  24  1   
 45  23  44  1   
 46  24  45  1   
 47  24  46  1   
 48  24  47  1   
@<TRIPOS>SUBSTRUCTURE
  1 ****   6 GROUP 4 **** **** 0

# MOE 2024.06 (io_trps.svl 2023.06)
