@<TRIPOS>MOLECULE
NONAME
37 38 1 0 0 
SMALL
USER_CHARGES


@<TRIPOS>ATOM
  1 CL      -0.3330    -0.2410     0.4290 Cl    1 <1>  -0.1770 
  2 C       -1.6890     0.7690    -0.0170 C.ar  1 <1>   0.1770 
  3 C       -1.4870     1.9990    -0.6220 C.ar  1 <1>   0.1770 
  4 C       -2.9700     0.3210     0.2440 C.ar  1 <1>  -0.1500 
  5 CL       0.1300     2.5780    -0.9580 Cl    1 <1>  -0.1770 
  6 C       -2.5650     2.7920    -0.9720 C.ar  1 <1>  -0.1500 
  7 C       -4.0580     1.1090    -0.1020 C.ar  1 <1>   0.0830 
  8 C       -3.8530     2.3470    -0.7130 C.ar  1 <1>  -0.1500 
  9 O       -5.2840     0.6050     0.1840 O.3   1 <1>  -0.3630 
 10 C       -6.4640     1.3260    -0.0960 C.3   1 <1>   0.1200 
 11 C       -7.6560     0.4630     0.3290 C.3   1 <1>   0.1100 
 12 N       -8.9470     1.1380     0.0690 N.3   1 <1>  -0.8100 
 13 C      -10.0540     0.1490     0.0550 C.3   1 <1>   0.1100 
 14 C       -9.2340     2.2060     1.0630 C.3   1 <1>   0.1100 
 15 C      -11.4350     0.7980    -0.2130 C.3   1 <1>   0.3430 
 16 C      -10.6210     2.8650     0.8540 C.3   1 <1>   0.3430 
 17 N      -11.3230     2.2880    -0.3400 N.4   1 <1>  -0.9590 
 18 C      -12.6210     2.9560    -0.6480 C.3   1 <1>   0.2630 
 19 H       -3.1230    -0.6330     0.7130 H     1 <1>   0.1500 
 20 H       -2.3940     3.7440    -1.4420 H     1 <1>   0.1500 
 21 H       -4.6770     2.9760    -0.9930 H     1 <1>   0.1500 
 22 H       -6.5020     1.5170    -1.1530 H     1 <1>   0.0800 
 23 H       -6.4310     2.2440     0.4600 H     1 <1>   0.0800 
 24 H       -7.5700     0.2140     1.3730 H     1 <1>   0.0800 
 25 H       -7.6100    -0.4490    -0.2430 H     1 <1>   0.0800 
 26 H      -10.0890    -0.3740     0.9970 H     1 <1>   0.0800 
 27 H       -9.8670    -0.5850    -0.7110 H     1 <1>   0.0800 
 28 H       -8.4810     2.9730     0.9960 H     1 <1>   0.0800 
 29 H       -9.1890     1.8000     2.0600 H     1 <1>   0.0800 
 30 H      -12.1050     0.5450     0.5920 H     1 <1>   0.0800 
 31 H      -11.8430     0.3830    -1.1200 H     1 <1>   0.0800 
 32 H      -10.4870     3.9260     0.7240 H     1 <1>   0.0800 
 33 H      -11.2190     2.7160     1.7380 H     1 <1>   0.0800 
 34 H      -10.6490     2.4190    -1.1120 H     1 <1>   0.4500 
 35 H      -13.3170     2.8130     0.1620 H     1 <1>   0.0800 
 36 H      -13.0470     2.5440    -1.5490 H     1 <1>   0.0800 
 37 H      -12.4710     4.0140    -0.7940 H     1 <1>   0.0800 
@<TRIPOS>BOND
  1   1   2  1   
  2   2   3  ar  
  3   2   4  ar  
  4   3   5  1   
  5   3   6  ar  
  6   4   7  ar  
  7   4  19  1   
  8   6   8  ar  
  9   6  20  1   
 10   7   8  ar  
 11   7   9  1   
 12   8  21  1   
 13   9  10  1   
 14  10  11  1   
 15  10  22  1   
 16  10  23  1   
 17  11  12  1   
 18  11  24  1   
 19  11  25  1   
 20  12  13  1   
 21  12  14  1   
 22  13  15  1   
 23  13  26  1   
 24  13  27  1   
 25  14  16  1   
 26  14  28  1   
 27  14  29  1   
 28  15  17  1   
 29  15  30  1   
 30  15  31  1   
 31  16  17  1   
 32  16  32  1   
 33  16  33  1   
 34  17  18  1   
 35  17  34  1   
 36  18  35  1   
 37  18  36  1   
 38  18  37  1   
@<TRIPOS>SUBSTRUCTURE
  1 ****  10 GROUP 4 **** **** 0

# MOE 2024.06 (io_trps.svl 2023.06)
