@<TRIPOS>MOLECULE
NONAME
62 65 1 0 0 
SMALL
USER_CHARGES


@<TRIPOS>ATOM
  1 S        1.2930     0.8920     0.0960 S.o2  1 <1>   1.4470 
  2 O        1.8300     0.5390    -1.1970 O.2   1 <1>  -0.6500 
  3 O        1.8770     2.0490     0.7440 O.2   1 <1>  -0.6500 
  4 N        1.7070    -0.4310     1.1340 N.am  1 <1>  -0.6930 
  5 C       -0.5180     0.9360     0.1430 C.ar  1 <1>  -0.0090 
  6 C        1.1750    -1.6990     0.9340 C.ar  1 <1>   0.1990 
  7 C        2.9370    -0.3090     1.9510 C.3   1 <1>   0.1960 
  8 C       -1.2790    -0.0050    -0.5070 C.ar  1 <1>  -0.1500 
  9 C       -1.1910     1.9300     0.8760 C.ar  1 <1>  -0.1500 
 10 C        1.4500    -2.4300    -0.2160 C.ar  1 <1>  -0.1500 
 11 C        0.3450    -2.2570     1.8970 C.ar  1 <1>  -0.1500 
 12 C        4.1970    -0.4370     1.0690 C.3   1 <1>   0.2000 
 13 C       -2.6860    -0.0090    -0.4580 C.ar  1 <1>   0.0000 
 14 C       -2.5560     1.9610     0.9410 C.ar  1 <1>  -0.1500 
 15 C        0.9030    -3.6860    -0.4000 C.ar  1 <1>  -0.1500 
 16 C       -0.2030    -3.5130     1.7140 C.ar  1 <1>  -0.1500 
 17 O        4.9080    -1.5620     1.4610 O.3   1 <1>  -0.6800 
 18 C        5.1430     0.7760     1.1820 C.3   1 <1>   0.3430 
 19 C       -3.3410     0.9970     0.2800 C.ar  1 <1>   0.0000 
 20 C       -3.4630    -0.9830    -1.1160 C.ar  1 <1>  -0.1500 
 21 C        0.0720    -4.2340     0.5640 C.ar  1 <1>  -0.1430 
 22 N        4.6700     1.9950     0.4410 N.4   1 <1>  -0.9590 
 23 C       -4.7490     0.9950     0.3290 C.ar  1 <1>  -0.1500 
 24 C       -4.8290    -0.9630    -1.0510 C.ar  1 <1>  -0.1500 
 25 C       -0.5340    -5.6120     0.3680 C.3   1 <1>  -0.0970 
 26 C        4.7520     1.8180    -1.0430 C.3   1 <1>   0.3430 
 27 C        5.4100     3.2060     0.8900 C.3   1 <1>   0.3430 
 28 C       -5.4790     0.0380    -0.3210 C.ar  1 <1>  -0.1500 
 29 C        4.1640     3.0410    -1.7500 C.3   1 <1>  -0.1600 
 30 C        4.8110     4.4500     0.2320 C.3   1 <1>  -0.1600 
 31 C        4.8340     4.3440    -1.2980 C.3   1 <1>  -0.1600 
 32 H        2.9350    -1.0770     2.7070 H     1 <1>   0.0800 
 33 H        2.9260     0.6380     2.4640 H     1 <1>   0.0800 
 34 H       -0.8020    -0.7820    -1.0770 H     1 <1>   0.1500 
 35 H       -0.6120     2.6780     1.3930 H     1 <1>   0.1500 
 36 H        2.0880    -2.0180    -0.9760 H     1 <1>   0.1500 
 37 H        0.1210    -1.7010     2.7890 H     1 <1>   0.1500 
 38 H        3.9310    -0.5970     0.0400 H     1 <1>   0.0800 
 39 H       -3.0590     2.7280     1.5030 H     1 <1>   0.1500 
 40 H        1.1250    -4.2390    -1.2970 H     1 <1>   0.1500 
 41 H       -0.8470    -3.9280     2.4700 H     1 <1>   0.1500 
 42 H        4.3790    -2.3780     1.3240 H     1 <1>   0.4000 
 43 H        6.1080     0.4880     0.7980 H     1 <1>   0.0800 
 44 H        5.2580     1.0130     2.2260 H     1 <1>   0.0800 
 45 H       -2.9580    -1.7510    -1.6740 H     1 <1>   0.1500 
 46 H        3.6670     2.1710     0.6570 H     1 <1>   0.4500 
 47 H       -5.2450     1.7650     0.8910 H     1 <1>   0.1500 
 48 H       -5.4170    -1.7090    -1.5560 H     1 <1>   0.1500 
 49 H        0.0540    -6.3460     0.8890 H     1 <1>   0.0800 
 50 H       -0.5640    -5.8700    -0.6760 H     1 <1>   0.0800 
 51 H       -1.5380    -5.6360     0.7510 H     1 <1>   0.0800 
 52 H        4.2020     0.9420    -1.3470 H     1 <1>   0.0800 
 53 H        5.7810     1.6930    -1.3390 H     1 <1>   0.0800 
 54 H        6.4510     3.1210     0.6200 H     1 <1>   0.0800 
 55 H        5.3430     3.3040     1.9620 H     1 <1>   0.0800 
 56 H       -6.5550     0.0400    -0.2810 H     1 <1>   0.1500 
 57 H        3.1070     3.0880    -1.5570 H     1 <1>   0.0800 
 58 H        4.2880     2.9250    -2.8130 H     1 <1>   0.0800 
 59 H        5.3710     5.3160     0.5380 H     1 <1>   0.0800 
 60 H        3.7990     4.5810     0.5760 H     1 <1>   0.0800 
 61 H        4.3230     5.1880    -1.7310 H     1 <1>   0.0800 
 62 H        5.8540     4.3640    -1.6450 H     1 <1>   0.0800 
@<TRIPOS>BOND
  1   1   2  2   
  2   1   3  2   
  3   1   4  am  
  4   1   5  1   
  5   4   6  1   
  6   4   7  1   
  7   5   8  ar  
  8   5   9  ar  
  9   6  10  ar  
 10   6  11  ar  
 11   7  12  1   
 12   7  32  1   
 13   7  33  1   
 14   8  13  ar  
 15   8  34  1   
 16   9  14  ar  
 17   9  35  1   
 18  10  15  ar  
 19  10  36  1   
 20  11  16  ar  
 21  11  37  1   
 22  12  17  1   
 23  12  18  1   
 24  12  38  1   
 25  13  19  ar  
 26  13  20  ar  
 27  14  19  ar  
 28  14  39  1   
 29  15  21  ar  
 30  15  40  1   
 31  16  21  ar  
 32  16  41  1   
 33  17  42  1   
 34  18  22  1   
 35  18  43  1   
 36  18  44  1   
 37  19  23  ar  
 38  20  24  ar  
 39  20  45  1   
 40  21  25  1   
 41  22  26  1   
 42  22  27  1   
 43  22  46  1   
 44  23  28  ar  
 45  23  47  1   
 46  24  28  ar  
 47  24  48  1   
 48  25  49  1   
 49  25  50  1   
 50  25  51  1   
 51  26  29  1   
 52  26  52  1   
 53  26  53  1   
 54  27  30  1   
 55  27  54  1   
 56  27  55  1   
 57  28  56  1   
 58  29  31  1   
 59  29  57  1   
 60  29  58  1   
 61  30  31  1   
 62  30  59  1   
 63  30  60  1   
 64  31  61  1   
 65  31  62  1   
@<TRIPOS>SUBSTRUCTURE
  1 ****   1 GROUP 4 **** **** 0

# MOE 2024.06 (io_trps.svl 2023.06)
