@<TRIPOS>MOLECULE
NONAME
29 30 1 0 0 
SMALL
USER_CHARGES


@<TRIPOS>ATOM
  1 S        0.0280     0.0790    -0.3210 S.3   1 <1>  -0.0800 
  2 C       -0.3350    -1.6400    -0.3020 C.2   1 <1>   0.4620 
  3 C        1.7300    -0.2700    -0.0330 C.2   1 <1>  -0.0450 
  4 N        0.7010    -2.3730    -0.1030 N.2   1 <1>  -0.5650 
  5 N       -1.6240    -2.0720    -0.4940 N.pl3 1 <1>  -0.8220 
  6 C        1.8260    -1.6250     0.0500 C.2   1 <1>   0.3100 
  7 C        2.6660     0.7860     0.0610 C.2   1 <1>   0.8050 
  8 C       -2.8190    -1.1910    -0.6670 C.3   1 <1>   0.2090 
  9 C       -1.9580    -3.5270    -0.5170 C.3   1 <1>   0.2090 
 10 N        2.9550    -2.3480     0.2730 N.pl3 1 <1>  -0.8830 
 11 O        2.3700     1.9690    -0.0080 O.2   1 <1>  -0.5700 
 12 O        3.9630     0.4710     0.2290 O.3   1 <1>  -0.4300 
 13 C       -3.9600    -1.6340     0.2680 C.3   1 <1>   0.1200 
 14 C       -3.1490    -3.8290     0.4100 C.3   1 <1>   0.1200 
 15 C        4.9570     1.4720     0.3370 C.3   1 <1>   0.0400 
 16 O       -4.2400    -2.9990     0.1160 O.3   1 <1>  -0.5600 
 17 H       -3.1570    -1.2520    -1.6870 H     1 <1>   0.0800 
 18 H       -2.5820    -0.1650    -0.4580 H     1 <1>   0.0800 
 19 H       -1.1120    -4.1150    -0.2060 H     1 <1>   0.0800 
 20 H       -2.2090    -3.8160    -1.5220 H     1 <1>   0.0800 
 21 H        2.8970    -3.3620     0.1510 H     1 <1>   0.4000 
 22 H        3.8830    -1.9250     0.1980 H     1 <1>   0.4000 
 23 H       -4.8580    -1.0880     0.0410 H     1 <1>   0.0800 
 24 H       -3.6940    -1.4500     1.2940 H     1 <1>   0.0800 
 25 H       -2.8670    -3.6780     1.4370 H     1 <1>   0.0800 
 26 H       -3.4670    -4.8480     0.2840 H     1 <1>   0.0800 
 27 H        5.9110     0.9940     0.4680 H     1 <1>   0.0800 
 28 H        4.7350     2.0950     1.1870 H     1 <1>   0.0800 
 29 H        4.9590     2.0620    -0.5640 H     1 <1>   0.0800 
@<TRIPOS>BOND
  1   1   2  1   
  2   1   3  1   
  3   2   4  2   
  4   2   5  1   
  5   3   6  2   
  6   3   7  1   
  7   4   6  1   
  8   5   8  1   
  9   5   9  1   
 10   6  10  1   
 11   7  11  2   
 12   7  12  1   
 13   8  13  1   
 14   8  17  1   
 15   8  18  1   
 16   9  14  1   
 17   9  19  1   
 18   9  20  1   
 19  10  21  1   
 20  10  22  1   
 21  12  15  1   
 22  13  16  1   
 23  13  23  1   
 24  13  24  1   
 25  14  16  1   
 26  14  25  1   
 27  14  26  1   
 28  15  27  1   
 29  15  28  1   
 30  15  29  1   
@<TRIPOS>SUBSTRUCTURE
  1 ****   2 GROUP 4 **** **** 0

# MOE 2024.06 (io_trps.svl 2023.06)
