@<TRIPOS>MOLECULE
NONAME
56 58 1 0 0 
SMALL
USER_CHARGES


@<TRIPOS>ATOM
  1 O        0.4050    -0.8480     1.7960 O.2   1 <1>  -0.5700 
  2 C       -0.2280    -1.3190     0.8820 C.2   1 <1>   0.5690 
  3 N        0.0730    -1.1200    -0.4300 N.am  1 <1>  -0.7300 
  4 C       -1.4500    -2.1770     1.2270 C.3   1 <1>   0.1710 
  5 C        1.2710    -0.5080    -1.0470 C.3   1 <1>   0.3640 
  6 N       -2.7590    -1.4610     1.1330 N.3   1 <1>  -0.8100 
  7 C        2.3330    -1.5840    -1.2480 C.ar  1 <1>  -0.1430 
  8 C        1.7990     0.7070    -0.2840 C.3   1 <1>  -0.2400 
  9 C       -3.8860    -2.3720     1.4520 C.3   1 <1>   0.1100 
 10 C       -2.7760    -0.2810     2.0390 C.3   1 <1>   0.1100 
 11 C        2.7210    -1.9450    -2.5310 C.ar  1 <1>  -0.1500 
 12 C        2.9210    -2.2210    -0.1640 C.ar  1 <1>  -0.1500 
 13 C       -5.2600    -1.6590     1.3960 C.3   1 <1>   0.3430 
 14 C       -4.1420     0.4470     2.0590 C.3   1 <1>   0.3430 
 15 C        3.6790    -2.9250    -2.7270 C.ar  1 <1>  -0.1500 
 16 C        3.8790    -3.2020    -0.3580 C.ar  1 <1>  -0.1500 
 17 N       -5.1030    -0.1940     1.1090 N.4   1 <1>  -0.9590 
 18 C        4.2580    -3.5550    -1.6400 C.ar  1 <1>  -0.1500 
 19 C       -6.3860     0.5340     0.9450 C.3   1 <1>   0.4860 
 20 C       -7.1890    -0.1350    -0.1550 C.ar  1 <1>  -0.1430 
 21 C       -6.8560     0.0050    -1.5010 C.ar  1 <1>  -0.1430 
 22 C       -8.2790    -0.9160     0.2070 C.ar  1 <1>  -0.1500 
 23 C       -7.6110    -0.6580    -2.4570 C.ar  1 <1>  -0.1500 
 24 C       -5.6910     0.8650    -1.9780 C.3   1 <1>  -0.0970 
 25 C       -9.0250    -1.5690    -0.7560 C.ar  1 <1>  -0.1500 
 26 C       -8.6890    -1.4420    -2.0890 C.ar  1 <1>  -0.1500 
 27 H       -0.5010    -1.6090    -1.1150 H     1 <1>   0.3700 
 28 H       -1.3160    -2.5540     2.2270 H     1 <1>   0.0800 
 29 H       -1.4600    -3.0220     0.5610 H     1 <1>   0.0800 
 30 H        0.9710    -0.1510    -2.0170 H     1 <1>   0.0800 
 31 H        2.2360     0.4200     0.6540 H     1 <1>   0.0800 
 32 H        1.0070     1.4110    -0.1100 H     1 <1>   0.0800 
 33 H        2.5640     1.1860    -0.8670 H     1 <1>   0.0800 
 34 H       -3.7500    -2.7910     2.4350 H     1 <1>   0.0800 
 35 H       -3.8940    -3.1900     0.7510 H     1 <1>   0.0800 
 36 H       -2.0230     0.4240     1.7250 H     1 <1>   0.0800 
 37 H       -2.5240    -0.5830     3.0430 H     1 <1>   0.0800 
 38 H        2.2830    -1.4660    -3.3890 H     1 <1>   0.1500 
 39 H        2.6350    -1.9560     0.8390 H     1 <1>   0.1500 
 40 H       -5.7740    -1.8020     2.3320 H     1 <1>   0.0800 
 41 H       -5.8560    -2.1200     0.6240 H     1 <1>   0.0800 
 42 H       -3.9890     1.4790     1.7920 H     1 <1>   0.0800 
 43 H       -4.5400     0.4210     3.0600 H     1 <1>   0.0800 
 44 H        3.9730    -3.1990    -3.7250 H     1 <1>   0.1500 
 45 H        4.3270    -3.6870     0.4910 H     1 <1>   0.1500 
 46 H       -4.6200    -0.1910     0.2000 H     1 <1>   0.4500 
 47 H        5.0020    -4.3170    -1.7910 H     1 <1>   0.1500 
 48 H       -6.2010     1.5620     0.6790 H     1 <1>   0.0800 
 49 H       -6.9440     0.5160     1.8670 H     1 <1>   0.0800 
 50 H       -8.5650    -1.0260     1.2390 H     1 <1>   0.1500 
 51 H       -7.3710    -0.5670    -3.5030 H     1 <1>   0.1500 
 52 H       -4.7600     0.3480    -1.8360 H     1 <1>   0.0800 
 53 H       -5.6660     1.8040    -1.4560 H     1 <1>   0.0800 
 54 H       -5.7920     1.0850    -3.0270 H     1 <1>   0.0800 
 55 H       -9.8710    -2.1740    -0.4730 H     1 <1>   0.1500 
 56 H       -9.2680    -1.9490    -2.8420 H     1 <1>   0.1500 
@<TRIPOS>BOND
  1   1   2  2   
  2   2   3  am  
  3   2   4  1   
  4   3   5  1   
  5   3  27  1   
  6   4   6  1   
  7   4  28  1   
  8   4  29  1   
  9   5   7  1   
 10   5   8  1   
 11   5  30  1   
 12   6   9  1   
 13   6  10  1   
 14   7  11  ar  
 15   7  12  ar  
 16   8  31  1   
 17   8  32  1   
 18   8  33  1   
 19   9  13  1   
 20   9  34  1   
 21   9  35  1   
 22  10  14  1   
 23  10  36  1   
 24  10  37  1   
 25  11  15  ar  
 26  11  38  1   
 27  12  16  ar  
 28  12  39  1   
 29  13  17  1   
 30  13  40  1   
 31  13  41  1   
 32  14  17  1   
 33  14  42  1   
 34  14  43  1   
 35  15  18  ar  
 36  15  44  1   
 37  16  18  ar  
 38  16  45  1   
 39  17  19  1   
 40  17  46  1   
 41  18  47  1   
 42  19  20  1   
 43  19  48  1   
 44  19  49  1   
 45  20  21  ar  
 46  20  22  ar  
 47  21  23  ar  
 48  21  24  1   
 49  22  25  ar  
 50  22  50  1   
 51  23  26  ar  
 52  23  51  1   
 53  24  52  1   
 54  24  53  1   
 55  24  54  1   
 56  25  26  ar  
 57  25  55  1   
 58  26  56  1   
@<TRIPOS>SUBSTRUCTURE
  1 ****   6 GROUP 4 **** **** 0

# MOE 2024.06 (io_trps.svl 2023.06)
