@<TRIPOS>MOLECULE
NONAME
43 44 1 0 0 
SMALL
USER_CHARGES


@<TRIPOS>ATOM
  1 O        1.6710    -0.0180    -1.9000 O.2   1 <1>  -0.5700 
  2 C        1.8020    -1.1190    -1.4160 C.2   1 <1>   0.6900 
  3 N        2.8980    -1.8650    -1.6940 N.am  1 <1>  -0.5390 
  4 N        0.8640    -1.6330    -0.6070 N.am  1 <1>  -0.7300 
  5 C        3.1100    -3.1460    -1.2270 C.2   1 <1>  -0.0290 
  6 C        0.8660    -3.0290    -0.1250 C.3   1 <1>   0.5020 
  7 C        2.1670    -3.7700    -0.4660 C.2   1 <1>  -0.1240 
  8 C        4.4540    -3.7230    -1.6460 C.3   1 <1>  -0.1020 
  9 C       -0.3420    -3.7210    -0.7540 C.ar  1 <1>  -0.1440 
 10 C        2.2070    -5.0960     0.0740 C.2   1 <1>   0.7060 
 11 C       -1.4310    -4.1110     0.0220 C.ar  1 <1>   0.0830 
 12 C       -0.3550    -3.9670    -2.1220 C.ar  1 <1>  -0.1500 
 13 O        2.8730    -6.0000    -0.3940 O.2   1 <1>  -0.5700 
 14 O        1.4690    -5.3600     1.1580 O.3   1 <1>  -0.4300 
 15 O       -1.3930    -3.8140     1.3510 O.3   1 <1>  -0.3630 
 16 C       -2.5000    -4.7900    -0.5790 C.ar  1 <1>   0.0830 
 17 C       -1.4280    -4.6040    -2.7180 C.ar  1 <1>  -0.1500 
 18 C        1.3970    -6.6530     1.7240 C.3   1 <1>   0.0400 
 19 C       -2.5430    -3.2900     1.9800 C.3   1 <1>   0.0400 
 20 O       -3.5510    -5.2500     0.1460 O.3   1 <1>  -0.3630 
 21 C       -2.4980    -5.0150    -1.9470 C.ar  1 <1>  -0.1500 
 22 C       -3.6730    -6.6490     0.2970 C.3   1 <1>   0.1200 
 23 C       -2.6390    -7.1460     1.3090 C.3   1 <1>  -0.2400 
 24 H        3.5750    -1.3910    -2.2910 H     1 <1>   0.3700 
 25 H       -0.0200    -1.1360    -0.5410 H     1 <1>   0.3700 
 26 H        0.7740    -2.9910     0.9460 H     1 <1>   0.0800 
 27 H        4.4200    -4.0100    -2.6810 H     1 <1>   0.0800 
 28 H        4.7280    -4.5810    -1.0630 H     1 <1>   0.0800 
 29 H        5.2280    -2.9880    -1.5140 H     1 <1>   0.0800 
 30 H        0.4760    -3.6570    -2.7340 H     1 <1>   0.1500 
 31 H       -1.4270    -4.7810    -3.7800 H     1 <1>   0.1500 
 32 H        0.7240    -6.6200     2.5620 H     1 <1>   0.0800 
 33 H        2.3800    -6.9480     2.0460 H     1 <1>   0.0800 
 34 H        1.0280    -7.3370     0.9790 H     1 <1>   0.0800 
 35 H       -3.1730    -4.1030     2.2910 H     1 <1>   0.0800 
 36 H       -3.0650    -2.6510     1.2900 H     1 <1>   0.0800 
 37 H       -2.2290    -2.7270     2.8400 H     1 <1>   0.0800 
 38 H       -3.3330    -5.5110    -2.4070 H     1 <1>   0.1500 
 39 H       -3.5400    -7.1220    -0.6600 H     1 <1>   0.0800 
 40 H       -4.6690    -6.8480     0.6520 H     1 <1>   0.0800 
 41 H       -1.6430    -6.9740     0.9410 H     1 <1>   0.0800 
 42 H       -2.7650    -8.2010     1.4680 H     1 <1>   0.0800 
 43 H       -2.7660    -6.6380     2.2480 H     1 <1>   0.0800 
@<TRIPOS>BOND
  1   1   2  2   
  2   2   3  am  
  3   2   4  am  
  4   3   5  1   
  5   3  24  1   
  6   4   6  1   
  7   4  25  1   
  8   5   7  2   
  9   5   8  1   
 10   6   7  1   
 11   6   9  1   
 12   6  26  1   
 13   7  10  1   
 14   8  27  1   
 15   8  28  1   
 16   8  29  1   
 17   9  11  ar  
 18   9  12  ar  
 19  10  13  2   
 20  10  14  1   
 21  11  15  1   
 22  11  16  ar  
 23  12  17  ar  
 24  12  30  1   
 25  14  18  1   
 26  15  19  1   
 27  16  20  1   
 28  16  21  ar  
 29  17  21  ar  
 30  17  31  1   
 31  18  32  1   
 32  18  33  1   
 33  18  34  1   
 34  19  35  1   
 35  19  36  1   
 36  19  37  1   
 37  20  22  1   
 38  21  38  1   
 39  22  23  1   
 40  22  39  1   
 41  22  40  1   
 42  23  41  1   
 43  23  42  1   
 44  23  43  1   
@<TRIPOS>SUBSTRUCTURE
  1 ****   9 GROUP 4 **** **** 0

# MOE 2024.06 (io_trps.svl 2023.06)
