@<TRIPOS>MOLECULE
NONAME
37 37 1 0 0 
SMALL
USER_CHARGES


@<TRIPOS>ATOM
  1 S        0.0270     0.1390    -1.3460 S.o2  1 <1>   1.5760 
  2 O        0.1660    -1.1100    -2.0640 O.2   1 <1>  -0.6500 
  3 O       -0.6200     1.2780    -1.9600 O.2   1 <1>  -0.6500 
  4 N        1.5570     0.6260    -0.8170 N.am  1 <1>  -0.8490 
  5 N       -0.7210    -0.1720     0.1490 N.am  1 <1>  -0.8490 
  6 C        2.2910    -0.4420    -0.1300 C.3   1 <1>   0.1960 
  7 C        1.5160     1.8590    -0.0320 C.3   1 <1>   0.1960 
  8 C       -1.9630     0.5810     0.3430 C.3   1 <1>   0.1160 
  9 C       -0.9400    -1.5980     0.4100 C.3   1 <1>   0.1160 
 10 C        3.7500    -0.0250     0.0960 C.3   1 <1>  -0.0190 
 11 C        2.9400     2.3620     0.2300 C.3   1 <1>  -0.1600 
 12 C        4.5130    -1.1500     0.7990 C.2   1 <1>   0.6590 
 13 C        3.8070     1.2880     0.9030 C.3   1 <1>  -0.1600 
 14 O        3.9400    -1.9080     1.5350 O.2   1 <1>  -0.5700 
 15 O        5.8240    -1.2830     0.6170 O.3   1 <1>  -0.4300 
 16 C        6.6180    -0.5730    -0.3050 C.3   1 <1>   0.1200 
 17 C        8.0600    -1.0400    -0.1360 C.3   1 <1>  -0.2400 
 18 H        2.2740    -1.3380    -0.7280 H     1 <1>   0.0800 
 19 H        1.8200    -0.6580     0.8160 H     1 <1>   0.0800 
 20 H        1.0110     1.6820     0.9040 H     1 <1>   0.0800 
 21 H        0.9720     2.6170    -0.5710 H     1 <1>   0.0800 
 22 H       -1.7690     1.6380     0.2690 H     1 <1>   0.0800 
 23 H       -2.3730     0.3800     1.3180 H     1 <1>   0.0800 
 24 H       -2.6860     0.3090    -0.4090 H     1 <1>   0.0800 
 25 H       -0.0100    -2.1370     0.3380 H     1 <1>   0.0800 
 26 H       -1.6300    -2.0090    -0.3080 H     1 <1>   0.0800 
 27 H       -1.3350    -1.7390     1.4010 H     1 <1>   0.0800 
 28 H        4.1720     0.1340    -0.8780 H     1 <1>   0.0800 
 29 H        2.8980     3.2370     0.8530 H     1 <1>   0.0800 
 30 H        3.3790     2.6500    -0.7100 H     1 <1>   0.0800 
 31 H        4.8210     1.6370     0.9860 H     1 <1>   0.0800 
 32 H        3.4360     1.1070     1.8990 H     1 <1>   0.0800 
 33 H        6.5370     0.4800    -0.1000 H     1 <1>   0.0800 
 34 H        6.2660    -0.7880    -1.3000 H     1 <1>   0.0800 
 35 H        8.4010    -0.8370     0.8630 H     1 <1>   0.0800 
 36 H        8.6970    -0.5200    -0.8280 H     1 <1>   0.0800 
 37 H        8.1330    -2.0960    -0.3300 H     1 <1>   0.0800 
@<TRIPOS>BOND
  1   1   2  2   
  2   1   3  2   
  3   1   4  am  
  4   1   5  am  
  5   4   6  1   
  6   4   7  1   
  7   5   8  1   
  8   5   9  1   
  9   6  10  1   
 10   6  18  1   
 11   6  19  1   
 12   7  11  1   
 13   7  20  1   
 14   7  21  1   
 15   8  22  1   
 16   8  23  1   
 17   8  24  1   
 18   9  25  1   
 19   9  26  1   
 20   9  27  1   
 21  10  12  1   
 22  10  13  1   
 23  10  28  1   
 24  11  13  1   
 25  11  29  1   
 26  11  30  1   
 27  12  14  2   
 28  12  15  1   
 29  13  31  1   
 30  13  32  1   
 31  15  16  1   
 32  16  17  1   
 33  16  33  1   
 34  16  34  1   
 35  17  35  1   
 36  17  36  1   
 37  17  37  1   
@<TRIPOS>SUBSTRUCTURE
  1 ****   6 GROUP 4 **** **** 0

# MOE 2024.06 (io_trps.svl 2023.06)
