@<TRIPOS>MOLECULE
NONAME
53 54 1 0 0 
SMALL
USER_CHARGES


@<TRIPOS>ATOM
  1 S        0.1840    -0.8880     1.8440 S.3   1 <1>  -0.3710 
  2 C       -0.9740     0.3170     1.1960 C.2   1 <1>   0.6510 
  3 C        1.6400     0.1030     2.4680 C.3   1 <1>   0.1310 
  4 N       -0.7080     1.5200     1.5210 N.2   1 <1>  -0.6210 
  5 N       -2.0320    -0.1040     0.4030 N.am  1 <1>  -0.4200 
  6 C        2.8290     0.0010     1.5130 C.2   1 <1>   0.5690 
  7 C       -1.4650     2.5240     1.0110 C.2   1 <1>   0.0210 
  8 C       -2.8920     0.9080    -0.0330 C.2   1 <1>   0.6160 
  9 C       -2.2590    -1.5040    -0.0990 C.3   1 <1>   0.2200 
 10 O        3.5960    -0.9160     1.7180 O.2   1 <1>  -0.5700 
 11 N        3.0640     0.9020     0.4950 N.am  1 <1>  -0.6600 
 12 O       -1.0660     3.6680     1.2540 O.3   1 <1>  -0.8500 
 13 C       -2.5880     2.2380     0.2490 C.2   1 <1>  -0.1240 
 14 O       -3.9130     0.5930    -0.6770 O.2   1 <1>  -0.5700 
 15 C       -2.6230    -2.4980     1.0180 C.3   1 <1>  -0.1600 
 16 C       -1.1250    -2.0090    -1.0100 C.3   1 <1>  -0.1600 
 17 C        2.1830     2.0620     0.1610 C.3   1 <1>   0.1400 
 18 C        4.2740     0.7720    -0.3580 C.3   1 <1>   0.1400 
 19 C       -3.4590     3.3770    -0.2720 C.3   1 <1>  -0.0220 
 20 C       -2.9410    -3.8810     0.4310 C.3   1 <1>  -0.1600 
 21 C       -1.4610    -3.3980    -1.5750 C.3   1 <1>  -0.1600 
 22 C        1.3280     1.7300    -1.0620 C.3   1 <1>  -0.2400 
 23 C        5.4090     1.6050     0.2340 C.3   1 <1>  -0.2400 
 24 C       -3.0450     3.7690    -1.6930 C.3   1 <1>  -0.2400 
 25 C       -1.7890    -4.3900    -0.4490 C.3   1 <1>  -0.1600 
 26 H        1.9110    -0.3410     3.4060 H     1 <1>   0.0800 
 27 H        1.3520     1.1170     2.6540 H     1 <1>   0.0800 
 28 H       -3.1220    -1.4990    -0.7390 H     1 <1>   0.0800 
 29 H       -3.4840    -2.1300     1.5490 H     1 <1>   0.0800 
 30 H       -1.8190    -2.6100     1.7170 H     1 <1>   0.0800 
 31 H       -0.1980    -2.0850    -0.4770 H     1 <1>   0.0800 
 32 H       -0.9900    -1.3170    -1.8230 H     1 <1>   0.0800 
 33 H        2.7850     2.9280    -0.0480 H     1 <1>   0.0800 
 34 H        1.5510     2.3250     0.9880 H     1 <1>   0.0800 
 35 H        4.0570     1.1010    -1.3590 H     1 <1>   0.0800 
 36 H        4.5730    -0.2620    -0.4120 H     1 <1>   0.0800 
 37 H       -3.3520     4.2280     0.3780 H     1 <1>   0.0800 
 38 H       -4.4940     3.0840    -0.2570 H     1 <1>   0.0800 
 39 H       -3.8400    -3.8210    -0.1590 H     1 <1>   0.0800 
 40 H       -3.1180    -4.5780     1.2320 H     1 <1>   0.0800 
 41 H       -0.6250    -3.7640    -2.1460 H     1 <1>   0.0800 
 42 H       -2.3050    -3.3190    -2.2380 H     1 <1>   0.0800 
 43 H        1.9260     1.6750    -1.9510 H     1 <1>   0.0800 
 44 H        0.5920     2.5060    -1.1880 H     1 <1>   0.0800 
 45 H        0.8100     0.8020    -0.9140 H     1 <1>   0.0800 
 46 H        5.1350     2.6430     0.2730 H     1 <1>   0.0800 
 47 H        6.2880     1.5020    -0.3750 H     1 <1>   0.0800 
 48 H        5.6370     1.2570     1.2260 H     1 <1>   0.0800 
 49 H       -2.0120     4.0700    -1.6870 H     1 <1>   0.0800 
 50 H       -3.6470     4.5880    -2.0410 H     1 <1>   0.0800 
 51 H       -3.1630     2.9330    -2.3570 H     1 <1>   0.0800 
 52 H       -2.0550    -5.3420    -0.8750 H     1 <1>   0.0800 
 53 H       -0.9130    -4.5350     0.1620 H     1 <1>   0.0800 
@<TRIPOS>BOND
  1   1   2  1   
  2   1   3  1   
  3   2   4  2   
  4   2   5  1   
  5   3   6  1   
  6   3  26  1   
  7   3  27  1   
  8   4   7  1   
  9   5   8  am  
 10   5   9  1   
 11   6  10  2   
 12   6  11  am  
 13   7  12  1   
 14   7  13  2   
 15   8  13  1   
 16   8  14  2   
 17   9  15  1   
 18   9  16  1   
 19   9  28  1   
 20  11  17  1   
 21  11  18  1   
 22  13  19  1   
 23  15  20  1   
 24  15  29  1   
 25  15  30  1   
 26  16  21  1   
 27  16  31  1   
 28  16  32  1   
 29  17  22  1   
 30  17  33  1   
 31  17  34  1   
 32  18  23  1   
 33  18  35  1   
 34  18  36  1   
 35  19  24  1   
 36  19  37  1   
 37  19  38  1   
 38  20  25  1   
 39  20  39  1   
 40  20  40  1   
 41  21  25  1   
 42  21  41  1   
 43  21  42  1   
 44  22  43  1   
 45  22  44  1   
 46  22  45  1   
 47  23  46  1   
 48  23  47  1   
 49  23  48  1   
 50  24  49  1   
 51  24  50  1   
 52  24  51  1   
 53  25  52  1   
 54  25  53  1   
@<TRIPOS>SUBSTRUCTURE
  1 ****   2 GROUP 4 **** **** 0

# MOE 2024.06 (io_trps.svl 2023.06)
