@<TRIPOS>MOLECULE
NONAME
55 57 1 0 0 
SMALL
USER_CHARGES


@<TRIPOS>ATOM
  1 S        0.2460     0.2430     1.0150 S.o2  1 <1>   1.4470 
  2 O        0.7420     0.4180     2.3630 O.2   1 <1>  -0.6500 
  3 O       -0.5900     1.2680     0.4290 O.2   1 <1>  -0.6500 
  4 N        1.6080     0.0860     0.0160 N.am  1 <1>  -0.8490 
  5 C       -0.5780    -1.3650     0.8450 C.ar  1 <1>  -0.0090 
  6 C        2.5780    -0.8830     0.5540 C.3   1 <1>   0.1960 
  7 C        2.2480     1.3870    -0.2010 C.3   1 <1>   0.1960 
  8 C       -0.6000    -2.2830     1.8890 C.ar  1 <1>  -0.1500 
  9 C       -1.1900    -1.7280    -0.3500 C.ar  1 <1>  -0.1500 
 10 C        3.7150    -1.1210    -0.4500 C.3   1 <1>  -0.0190 
 11 C        3.3890     1.2560    -1.2180 C.3   1 <1>  -0.1600 
 12 C       -1.2100    -3.5170     1.7460 C.ar  1 <1>  -0.1500 
 13 C       -1.8040    -2.9600    -0.5040 C.ar  1 <1>  -0.1500 
 14 C        4.6990    -2.1500     0.0860 C.2   1 <1>   0.5690 
 15 C        4.4200     0.2060    -0.7830 C.3   1 <1>  -0.1600 
 16 C       -1.8150    -3.8660     0.5510 C.ar  1 <1>   0.0830 
 17 O        4.9250    -2.1980     1.2710 O.2   1 <1>  -0.5700 
 18 N        5.3150    -2.9800    -0.7960 N.am  1 <1>  -0.7300 
 19 O       -2.3890    -5.0920     0.4910 O.3   1 <1>  -0.3630 
 20 C        6.2950    -4.0400    -0.4240 C.3   1 <1>   0.1400 
 21 C       -3.0570    -5.5370    -0.6660 C.3   1 <1>   0.1200 
 22 C        7.7390    -3.5850    -0.6840 C.3   1 <1>   0.2000 
 23 C       -3.5910    -6.9400    -0.3940 C.3   1 <1>  -0.2400 
 24 O        8.6120    -4.6390    -0.4120 O.3   1 <1>  -0.5600 
 25 C        8.2040    -2.4280     0.1920 C.3   1 <1>  -0.1600 
 26 C        9.7820    -4.2000     0.2090 C.3   1 <1>   0.1200 
 27 C        9.6930    -2.6820     0.2940 C.3   1 <1>  -0.1600 
 28 H        2.0900    -1.8230     0.7490 H     1 <1>   0.0800 
 29 H        2.9830    -0.5190     1.4860 H     1 <1>   0.0800 
 30 H        2.6260     1.7690     0.7340 H     1 <1>   0.0800 
 31 H        1.5260     2.0910    -0.5820 H     1 <1>   0.0800 
 32 H       -0.1350    -2.0300     2.8280 H     1 <1>   0.1500 
 33 H       -1.1830    -1.0300    -1.1710 H     1 <1>   0.1500 
 34 H        3.2740    -1.5190    -1.3460 H     1 <1>   0.0800 
 35 H        3.8710     2.2100    -1.3340 H     1 <1>   0.0800 
 36 H        2.9690     0.9840    -2.1710 H     1 <1>   0.0800 
 37 H       -1.2200    -4.2180     2.5610 H     1 <1>   0.1500 
 38 H       -2.2640    -3.1930    -1.4460 H     1 <1>   0.1500 
 39 H        5.1450     0.0560    -1.5640 H     1 <1>   0.0800 
 40 H        4.9410     0.5590     0.0920 H     1 <1>   0.0800 
 41 H        5.1190    -2.8930    -1.7940 H     1 <1>   0.3700 
 42 H        6.0930    -4.9240    -1.0040 H     1 <1>   0.0800 
 43 H        6.1860    -4.2850     0.6190 H     1 <1>   0.0800 
 44 H       -2.3550    -5.5490    -1.4820 H     1 <1>   0.0800 
 45 H       -3.8650    -4.8570    -0.8770 H     1 <1>   0.0800 
 46 H        7.8690    -3.3400    -1.7240 H     1 <1>   0.0800 
 47 H       -2.7780    -7.6080    -0.1690 H     1 <1>   0.0800 
 48 H       -4.1080    -7.3090    -1.2610 H     1 <1>   0.0800 
 49 H       -4.2780    -6.9200     0.4330 H     1 <1>   0.0800 
 50 H        7.7460    -2.4980     1.1640 H     1 <1>   0.0800 
 51 H        7.9690    -1.4730    -0.2420 H     1 <1>   0.0800 
 52 H       10.6300    -4.5270    -0.3670 H     1 <1>   0.0800 
 53 H        9.8120    -4.6400     1.1910 H     1 <1>   0.0800 
 54 H       10.1170    -2.3030     1.2070 H     1 <1>   0.0800 
 55 H       10.2080    -2.2470    -0.5450 H     1 <1>   0.0800 
@<TRIPOS>BOND
  1   1   2  2   
  2   1   3  2   
  3   1   4  am  
  4   1   5  1   
  5   4   6  1   
  6   4   7  1   
  7   5   8  ar  
  8   5   9  ar  
  9   6  10  1   
 10   6  28  1   
 11   6  29  1   
 12   7  11  1   
 13   7  30  1   
 14   7  31  1   
 15   8  12  ar  
 16   8  32  1   
 17   9  13  ar  
 18   9  33  1   
 19  10  14  1   
 20  10  15  1   
 21  10  34  1   
 22  11  15  1   
 23  11  35  1   
 24  11  36  1   
 25  12  16  ar  
 26  12  37  1   
 27  13  16  ar  
 28  13  38  1   
 29  14  17  2   
 30  14  18  am  
 31  15  39  1   
 32  15  40  1   
 33  16  19  1   
 34  18  20  1   
 35  18  41  1   
 36  19  21  1   
 37  20  22  1   
 38  20  42  1   
 39  20  43  1   
 40  21  23  1   
 41  21  44  1   
 42  21  45  1   
 43  22  24  1   
 44  22  25  1   
 45  22  46  1   
 46  23  47  1   
 47  23  48  1   
 48  23  49  1   
 49  24  26  1   
 50  25  27  1   
 51  25  50  1   
 52  25  51  1   
 53  26  27  1   
 54  26  52  1   
 55  26  53  1   
 56  27  54  1   
 57  27  55  1   
@<TRIPOS>SUBSTRUCTURE
  1 ****   6 GROUP 4 **** **** 0

# MOE 2024.06 (io_trps.svl 2023.06)
