@<TRIPOS>MOLECULE
NONAME
45 47 1 0 0 
SMALL
USER_CHARGES


@<TRIPOS>ATOM
  1 O       -1.9500    -0.3390     1.3610 O.2   1 <1>  -0.5750 
  2 C       -2.5450     0.6260     1.7600 C.2   1 <1>   0.8490 
  3 N       -3.8940     0.7050     1.6590 N.pl3 1 <1>  -0.7340 
  4 C       -1.7950     1.7920     2.3830 C.3   1 <1>  -0.1080 
  5 C       -4.7150    -0.1610     1.0770 C.cat 1 <1>   1.0690 
  6 C       -2.1630     3.1660     1.7930 C.3   1 <1>  -0.2480 
  7 N       -5.6760     0.2520     0.2720 N.pl3 1 <1>  -0.7040 
  8 N       -4.7580    -1.4960     1.2130 N.pl3 1 <1>  -0.7680 
  9 C       -6.4040    -0.8410    -0.1490 C.ar  1 <1>   0.3020 
 10 C       -5.8350    -1.9490     0.4530 C.ar  1 <1>   0.3020 
 11 C       -4.0080    -2.3790     2.1680 C.3   1 <1>   0.3470 
 12 C       -7.5000    -0.9590    -0.9940 C.ar  1 <1>  -0.1180 
 13 C       -6.3700    -3.2170     0.2340 C.ar  1 <1>  -0.1180 
 14 C       -3.1060    -3.4580     1.5000 C.3   1 <1>   0.3360 
 15 C       -8.0210    -2.2180    -1.2180 C.ar  1 <1>  -0.1580 
 16 C       -7.4600    -3.3400    -0.6050 C.ar  1 <1>  -0.1580 
 17 N       -2.1890    -2.9590     0.4220 N.4   1 <1>  -0.9610 
 18 C       -2.7890    -2.8890    -0.9310 C.3   1 <1>   0.3360 
 19 C       -0.9690    -3.7880     0.2640 C.3   1 <1>   0.3360 
 20 C       -1.5950    -2.7900    -1.8660 C.3   1 <1>  -0.1680 
 21 C       -0.4160    -3.3890    -1.0970 C.3   1 <1>  -0.1680 
 22 H       -4.2740     1.6180     1.8780 H     1 <1>   0.4440 
 23 H       -0.7400     1.6300     2.2420 H     1 <1>   0.0710 
 24 H       -1.9790     1.7970     3.4430 H     1 <1>   0.0710 
 25 H       -2.0050     3.1770     0.7280 H     1 <1>   0.0710 
 26 H       -1.5330     3.9240     2.2280 H     1 <1>   0.0710 
 27 H       -3.1850     3.4300     2.0020 H     1 <1>   0.0710 
 28 H       -5.8740     1.2080    -0.0190 H     1 <1>   0.4440 
 29 H       -4.7220    -2.8840     2.7980 H     1 <1>   0.0710 
 30 H       -3.4010    -1.7810     2.8230 H     1 <1>   0.0710 
 31 H       -7.9330    -0.0910    -1.4600 H     1 <1>   0.1420 
 32 H       -5.9550    -4.0870     0.7070 H     1 <1>   0.1420 
 33 H       -3.7290    -4.2390     1.0980 H     1 <1>   0.0710 
 34 H       -2.5100    -3.9040     2.2800 H     1 <1>   0.0710 
 35 H       -8.8730    -2.3440    -1.8680 H     1 <1>   0.1420 
 36 H       -7.8950    -4.3100    -0.7930 H     1 <1>   0.1420 
 37 H       -1.8570    -2.0030     0.6600 H     1 <1>   0.4440 
 38 H       -3.4450    -2.0410    -1.0350 H     1 <1>   0.0710 
 39 H       -3.3310    -3.7970    -1.1370 H     1 <1>   0.0710 
 40 H       -1.2340    -4.8320     0.2510 H     1 <1>   0.0710 
 41 H       -0.2550    -3.6040     1.0510 H     1 <1>   0.0710 
 42 H       -1.4000    -1.7580    -2.1030 H     1 <1>   0.0710 
 43 H       -1.7860    -3.3210    -2.7830 H     1 <1>   0.0710 
 44 H       -0.0050    -4.2470    -1.6000 H     1 <1>   0.0710 
 45 H        0.3640    -2.6580    -0.9750 H     1 <1>   0.0710 
@<TRIPOS>BOND
  1   1   2  2   
  2   2   3  1   
  3   2   4  1   
  4   3   5  ar  
  5   3  22  1   
  6   4   6  1   
  7   4  23  1   
  8   4  24  1   
  9   5   7  ar  
 10   5   8  ar  
 11   6  25  1   
 12   6  26  1   
 13   6  27  1   
 14   7   9  1   
 15   7  28  1   
 16   8  10  1   
 17   8  11  1   
 18   9  10  ar  
 19   9  12  ar  
 20  10  13  ar  
 21  11  14  1   
 22  11  29  1   
 23  11  30  1   
 24  12  15  ar  
 25  12  31  1   
 26  13  16  ar  
 27  13  32  1   
 28  14  17  1   
 29  14  33  1   
 30  14  34  1   
 31  15  16  ar  
 32  15  35  1   
 33  16  36  1   
 34  17  18  1   
 35  17  19  1   
 36  17  37  1   
 37  18  20  1   
 38  18  38  1   
 39  18  39  1   
 40  19  21  1   
 41  19  40  1   
 42  19  41  1   
 43  20  21  1   
 44  20  42  1   
 45  20  43  1   
 46  21  44  1   
 47  21  45  1   
@<TRIPOS>SUBSTRUCTURE
  1 ****   8 GROUP 4 **** **** 0

# MOE 2024.06 (io_trps.svl 2023.06)
