@<TRIPOS>MOLECULE
NONAME
47 49 1 0 0 
SMALL
USER_CHARGES


@<TRIPOS>ATOM
  1 F        0.4910     1.5480    -0.0210 F     1 <1>  -0.3400 
  2 C        1.4900     1.0960    -0.7710 C.3   1 <1>   1.1640 
  3 F        1.3900    -0.2280    -0.7580 F     1 <1>  -0.3400 
  4 F        1.2260     1.4790    -2.0140 F     1 <1>  -0.3400 
  5 C        2.8670     1.5880    -0.2970 C.ar  1 <1>  -0.1440 
  6 C        4.0130     0.8520    -0.5760 C.ar  1 <1>  -0.1500 
  7 C        3.0000     2.7800     0.4090 C.ar  1 <1>  -0.1500 
  8 C        5.2710     1.2730    -0.1640 C.ar  1 <1>   0.1000 
  9 C        4.2470     3.2150     0.8240 C.ar  1 <1>  -0.1500 
 10 N        6.3860     0.4930    -0.4590 N.pl3 1 <1>  -0.8380 
 11 C        5.3730     2.4670     0.5400 C.ar  1 <1>  -0.1500 
 12 C        7.6420     1.1160    -0.9810 C.3   1 <1>   0.2090 
 13 C        6.5280    -0.8380     0.2030 C.3   1 <1>   0.2090 
 14 C        8.7780     1.0720     0.0630 C.3   1 <1>   0.3430 
 15 C        7.6770    -0.8360     1.2340 C.3   1 <1>   0.3430 
 16 N        8.9610    -0.2990     0.6630 N.4   1 <1>  -0.9590 
 17 C       10.0850    -0.3480     1.6280 C.3   1 <1>   0.4860 
 18 C       11.3680    -0.0370     0.8830 C.ar  1 <1>  -0.1430 
 19 C       11.7810    -0.8500    -0.1690 C.ar  1 <1>   0.0830 
 20 C       12.1310     1.0620     1.2490 C.ar  1 <1>  -0.1500 
 21 O       10.9940    -1.9120    -0.4930 O.3   1 <1>  -0.3630 
 22 C       12.9600    -0.5490    -0.8470 C.ar  1 <1>  -0.1500 
 23 C       13.3000     1.3540     0.5700 C.ar  1 <1>  -0.1500 
 24 C       11.4540    -2.9150    -1.3800 C.3   1 <1>   0.0400 
 25 C       13.7130     0.5500    -0.4760 C.ar  1 <1>  -0.1500 
 26 H        3.9450    -0.0660    -1.1330 H     1 <1>   0.1500 
 27 H        2.1350     3.3810     0.6380 H     1 <1>   0.1500 
 28 H        4.3350     4.1400     1.3690 H     1 <1>   0.1500 
 29 H        6.3310     2.8160     0.8730 H     1 <1>   0.1500 
 30 H        7.4520     2.1370    -1.2660 H     1 <1>   0.0800 
 31 H        7.9500     0.5890    -1.8680 H     1 <1>   0.0800 
 32 H        6.7140    -1.5870    -0.5470 H     1 <1>   0.0800 
 33 H        5.6080    -1.0960     0.7010 H     1 <1>   0.0800 
 34 H        8.5440     1.7760     0.8430 H     1 <1>   0.0800 
 35 H        9.6940     1.3920    -0.4060 H     1 <1>   0.0800 
 36 H        7.8260    -1.8400     1.5930 H     1 <1>   0.0800 
 37 H        7.3730    -0.2270     2.0690 H     1 <1>   0.0800 
 38 H        9.2700    -0.9240    -0.1020 H     1 <1>   0.4500 
 39 H       10.1620    -1.3350     2.0550 H     1 <1>   0.0800 
 40 H        9.9310     0.3630     2.4230 H     1 <1>   0.0800 
 41 H       11.8330     1.7000     2.0640 H     1 <1>   0.1500 
 42 H       13.3110    -1.1510    -1.6640 H     1 <1>   0.1500 
 43 H       13.8950     2.2070     0.8560 H     1 <1>   0.1500 
 44 H       11.5750    -2.4910    -2.3610 H     1 <1>   0.0800 
 45 H       10.7220    -3.7020    -1.4130 H     1 <1>   0.0800 
 46 H       12.3880    -3.3050    -1.0140 H     1 <1>   0.0800 
 47 H       14.6250     0.7800    -1.0010 H     1 <1>   0.1500 
@<TRIPOS>BOND
  1   1   2  1   
  2   2   3  1   
  3   2   4  1   
  4   2   5  1   
  5   5   6  ar  
  6   5   7  ar  
  7   6   8  ar  
  8   6  26  1   
  9   7   9  ar  
 10   7  27  1   
 11   8  10  1   
 12   8  11  ar  
 13   9  11  ar  
 14   9  28  1   
 15  10  12  1   
 16  10  13  1   
 17  11  29  1   
 18  12  14  1   
 19  12  30  1   
 20  12  31  1   
 21  13  15  1   
 22  13  32  1   
 23  13  33  1   
 24  14  16  1   
 25  14  34  1   
 26  14  35  1   
 27  15  16  1   
 28  15  36  1   
 29  15  37  1   
 30  16  17  1   
 31  16  38  1   
 32  17  18  1   
 33  17  39  1   
 34  17  40  1   
 35  18  19  ar  
 36  18  20  ar  
 37  19  21  1   
 38  19  22  ar  
 39  20  23  ar  
 40  20  41  1   
 41  21  24  1   
 42  22  25  ar  
 43  22  42  1   
 44  23  25  ar  
 45  23  43  1   
 46  24  44  1   
 47  24  45  1   
 48  24  46  1   
 49  25  47  1   
@<TRIPOS>SUBSTRUCTURE
  1 ****  10 GROUP 4 **** **** 0

# MOE 2024.06 (io_trps.svl 2023.06)
