@<TRIPOS>MOLECULE
NONAME
28 30 1 0 0 
SMALL
USER_CHARGES


@<TRIPOS>ATOM
  1 N       -0.4340    -0.0680     0.0580 N.2   1 <1>  -0.6520 
  2 N       -0.2970     1.3100     0.0670 N.pl3 1 <1>   0.5050 
  3 C       -1.5690    -0.4900    -0.4060 C.2   1 <1>   0.4860 
  4 C       -1.2210     2.2080    -0.3520 C.2   1 <1>   0.1420 
  5 C        0.7080     2.0940     0.4630 C.2   1 <1>   0.0060 
  6 N       -1.8040    -1.8510    -0.4500 N.pl3 1 <1>  -0.7880 
  7 C       -2.6050     0.3680    -0.8700 C.2   1 <1>  -0.1360 
  8 N       -0.7850     3.4370    -0.2100 N.2   1 <1>  -0.3380 
  9 C       -2.4430     1.7170    -0.8490 C.2   1 <1>  -0.1050 
 10 N        0.4360     3.3530     0.3060 N.2   1 <1>  -0.3380 
 11 C        2.0100     1.5620     1.0290 C.3   1 <1>  -0.0600 
 12 C       -2.0190    -2.5040     0.8670 C.3   1 <1>   0.2090 
 13 C       -0.8340    -2.6580    -1.2380 C.3   1 <1>   0.2090 
 14 C       -1.3630    -3.8740     0.7630 C.3   1 <1>  -0.1600 
 15 C       -0.2600    -3.6810    -0.2670 C.3   1 <1>  -0.1600 
 16 H       -3.5020    -0.0980    -1.2320 H     1 <1>   0.1500 
 17 H       -3.1870     2.4160    -1.1860 H     1 <1>   0.1500 
 18 H        1.8150     0.9860     1.9150 H     1 <1>   0.0800 
 19 H        2.6650     2.3770     1.2780 H     1 <1>   0.0800 
 20 H        2.4940     0.9340     0.3030 H     1 <1>   0.0800 
 21 H       -3.0720    -2.5910     1.0770 H     1 <1>   0.0800 
 22 H       -1.5460    -1.9280     1.6460 H     1 <1>   0.0800 
 23 H       -0.0560    -2.0470    -1.6650 H     1 <1>   0.0800 
 24 H       -1.3650    -3.1570    -2.0300 H     1 <1>   0.0800 
 25 H       -2.0860    -4.5830     0.4000 H     1 <1>   0.0800 
 26 H       -0.9850    -4.2090     1.7130 H     1 <1>   0.0800 
 27 H        0.6120    -3.2600     0.2030 H     1 <1>   0.0800 
 28 H        0.0110    -4.5960    -0.7610 H     1 <1>   0.0800 
@<TRIPOS>BOND
  1   1   2  1   
  2   1   3  2   
  3   2   4  1   
  4   2   5  1   
  5   3   6  1   
  6   3   7  1   
  7   4   8  2   
  8   4   9  1   
  9   5  10  2   
 10   5  11  1   
 11   6  12  1   
 12   6  13  1   
 13   7   9  2   
 14   7  16  1   
 15   8  10  1   
 16   9  17  1   
 17  11  18  1   
 18  11  19  1   
 19  11  20  1   
 20  12  14  1   
 21  12  21  1   
 22  12  22  1   
 23  13  15  1   
 24  13  23  1   
 25  13  24  1   
 26  14  15  1   
 27  14  25  1   
 28  14  26  1   
 29  15  27  1   
 30  15  28  1   
@<TRIPOS>SUBSTRUCTURE
  1 ****   1 GROUP 4 **** **** 0

# MOE 2024.06 (io_trps.svl 2023.06)
