@<TRIPOS>MOLECULE
NONAME
30 30 1 0 0 
SMALL
USER_CHARGES


@<TRIPOS>ATOM
  1 P        0.1150    -0.1560     0.6930 P.3   1 <1>   0.8390 
  2 O       -0.8370     0.5150     1.5640 O.2   1 <1>  -0.7000 
  3 C        1.5560     0.8190     0.2940 C.ar  1 <1>  -0.1390 
  4 C        0.7310    -1.6580     1.3870 C.3   1 <1>  -0.2400 
  5 C       -0.5950    -0.6140    -0.8590 C.3   1 <1>  -0.2400 
  6 C        2.5790     0.3550    -0.5250 C.ar  1 <1>  -0.1500 
  7 C        1.7050     2.1030     0.8010 C.ar  1 <1>  -0.1500 
  8 C        3.6860     1.1300    -0.8190 C.ar  1 <1>  -0.1500 
  9 C        2.8090     2.8840     0.5110 C.ar  1 <1>  -0.1500 
 10 C        3.8360     2.4190    -0.3100 C.ar  1 <1>   0.0860 
 11 C        5.0030     3.2230    -0.6270 C.2   1 <1>   0.6340 
 12 O        5.9040     2.8320    -1.3400 O.2   1 <1>  -0.5700 
 13 O        5.0820     4.4500    -0.1050 O.3   1 <1>  -0.4300 
 14 C        6.1800     5.2950    -0.3610 C.3   1 <1>   0.1200 
 15 C        5.9510     6.6070     0.3820 C.3   1 <1>  -0.2400 
 16 H        1.2510    -1.4690     2.3070 H     1 <1>   0.0800 
 17 H        1.4120    -2.1630     0.7300 H     1 <1>   0.0800 
 18 H       -0.0700    -2.3380     1.6110 H     1 <1>   0.0800 
 19 H       -0.9330     0.2530    -1.3940 H     1 <1>   0.0800 
 20 H       -1.4460    -1.2530    -0.7210 H     1 <1>   0.0800 
 21 H        0.1020    -1.1310    -1.4890 H     1 <1>   0.0800 
 22 H        2.5200    -0.6330    -0.9470 H     1 <1>   0.1500 
 23 H        0.9330     2.5020     1.4400 H     1 <1>   0.1500 
 24 H        4.4570     0.7310    -1.4580 H     1 <1>   0.1500 
 25 H        2.8710     3.8730     0.9320 H     1 <1>   0.1500 
 26 H        6.2440     5.4580    -1.4240 H     1 <1>   0.0800 
 27 H        7.0760     4.8060    -0.0160 H     1 <1>   0.0800 
 28 H        5.0490     7.0780     0.0340 H     1 <1>   0.0800 
 29 H        6.7760     7.2730     0.2040 H     1 <1>   0.0800 
 30 H        5.8790     6.4260     1.4400 H     1 <1>   0.0800 
@<TRIPOS>BOND
  1   1   2  2   
  2   1   3  1   
  3   1   4  1   
  4   1   5  1   
  5   3   6  ar  
  6   3   7  ar  
  7   4  16  1   
  8   4  17  1   
  9   4  18  1   
 10   5  19  1   
 11   5  20  1   
 12   5  21  1   
 13   6   8  ar  
 14   6  22  1   
 15   7   9  ar  
 16   7  23  1   
 17   8  10  ar  
 18   8  24  1   
 19   9  10  ar  
 20   9  25  1   
 21  10  11  1   
 22  11  12  2   
 23  11  13  1   
 24  13  14  1   
 25  14  15  1   
 26  14  26  1   
 27  14  27  1   
 28  15  28  1   
 29  15  29  1   
 30  15  30  1   
@<TRIPOS>SUBSTRUCTURE
  1 ****   9 GROUP 4 **** **** 0

# MOE 2024.06 (io_trps.svl 2023.06)
