@<TRIPOS>MOLECULE
NONAME
34 35 1 0 0 
SMALL
USER_CHARGES


@<TRIPOS>ATOM
  1 F       -0.1500    -0.8630    -1.8760 F     1 <1>  -0.1900 
  2 C        0.0010    -1.9750    -1.2080 C.ar  1 <1>   0.1900 
  3 C        0.9540    -2.0310    -0.2120 C.ar  1 <1>  -0.1500 
  4 C       -0.8000    -3.0530    -1.5200 C.ar  1 <1>  -0.1500 
  5 C        1.1250    -3.2080     0.5030 C.ar  1 <1>  -0.1440 
  6 C       -0.6280    -4.2250    -0.8070 C.ar  1 <1>  -0.1500 
  7 C        0.3320    -4.3190     0.1970 C.ar  1 <1>  -0.1430 
  8 C        2.1720    -3.2220     1.6090 C.3   1 <1>  -0.0960 
  9 C        0.4590    -5.6580     0.9220 C.3   1 <1>  -0.0160 
 10 C        1.0770    -6.7460     0.0190 C.3   1 <1>  -0.0800 
 11 C        1.1360    -8.0990     0.7490 C.3   1 <1>  -0.1600 
 12 C        2.4840    -6.3600    -0.4760 C.3   1 <1>  -0.1600 
 13 C        1.7850    -9.1820    -0.1160 C.3   1 <1>   0.3430 
 14 C        3.1080    -7.4670    -1.3250 C.3   1 <1>   0.3430 
 15 N        3.1390    -8.7350    -0.5450 N.4   1 <1>  -0.9060 
 16 H        1.5440    -1.1570    -0.0070 H     1 <1>   0.1500 
 17 H       -1.5370    -2.9700    -2.2980 H     1 <1>   0.1500 
 18 H       -1.2550    -5.0680    -1.0400 H     1 <1>   0.1500 
 19 H        2.6930    -2.2820     1.6580 H     1 <1>   0.0800 
 20 H        2.8970    -3.9940     1.4340 H     1 <1>   0.0800 
 21 H        1.6990    -3.3880     2.5600 H     1 <1>   0.0800 
 22 H       -0.5260    -5.9670     1.2260 H     1 <1>   0.0800 
 23 H        1.0380    -5.5590     1.8220 H     1 <1>   0.0800 
 24 H        0.4390    -6.8580    -0.8420 H     1 <1>   0.0800 
 25 H        0.1370    -8.4130     1.0000 H     1 <1>   0.0800 
 26 H        1.6820    -8.0030     1.6710 H     1 <1>   0.0800 
 27 H        3.1280    -6.1450     0.3590 H     1 <1>   0.0800 
 28 H        2.4240    -5.4670    -1.0740 H     1 <1>   0.0800 
 29 H        1.1700    -9.3640    -0.9830 H     1 <1>   0.0800 
 30 H        1.8580   -10.1000     0.4470 H     1 <1>   0.0800 
 31 H        4.1080    -7.1820    -1.6130 H     1 <1>   0.0800 
 32 H        2.5240    -7.6030    -2.2210 H     1 <1>   0.0800 
 33 H        3.5890    -9.4730    -1.1010 H     1 <1>   0.4500 
 34 H        3.7200    -8.5920     0.2900 H     1 <1>   0.4500 
@<TRIPOS>BOND
  1   1   2  1   
  2   2   3  ar  
  3   2   4  ar  
  4   3   5  ar  
  5   3  16  1   
  6   4   6  ar  
  7   4  17  1   
  8   5   7  ar  
  9   5   8  1   
 10   6   7  ar  
 11   6  18  1   
 12   7   9  1   
 13   8  19  1   
 14   8  20  1   
 15   8  21  1   
 16   9  10  1   
 17   9  22  1   
 18   9  23  1   
 19  10  11  1   
 20  10  12  1   
 21  10  24  1   
 22  11  13  1   
 23  11  25  1   
 24  11  26  1   
 25  12  14  1   
 26  12  27  1   
 27  12  28  1   
 28  13  15  1   
 29  13  29  1   
 30  13  30  1   
 31  14  15  1   
 32  14  31  1   
 33  14  32  1   
 34  15  33  1   
 35  15  34  1   
@<TRIPOS>SUBSTRUCTURE
  1 ****   7 GROUP 4 **** **** 0

# MOE 2024.06 (io_trps.svl 2023.06)
