@<TRIPOS>MOLECULE
NONAME
49 51 1 0 0 
SMALL
USER_CHARGES


@<TRIPOS>ATOM
  1 S        0.3640    -1.1070    -1.4520 S.o2  1 <1>   1.4470 
  2 O        1.2130    -1.7460    -2.4340 O.2   1 <1>  -0.6500 
  3 O       -0.4100     0.0470    -1.8530 O.2   1 <1>  -0.6500 
  4 N        1.3720    -0.5900    -0.1910 N.am  1 <1>  -0.8490 
  5 C       -0.7160    -2.3380    -0.6460 C.ar  1 <1>  -0.0090 
  6 C        0.6540     0.2060     0.8190 C.3   1 <1>   0.1960 
  7 C        2.5060     0.1930    -0.7040 C.3   1 <1>   0.1960 
  8 C       -0.2700    -3.5920    -0.2190 C.ar  1 <1>  -0.1440 
  9 C       -2.0470    -2.0140    -0.4130 C.ar  1 <1>  -0.1500 
 10 C        1.6080     0.6710     1.9340 C.3   1 <1>   0.1200 
 11 C        3.4160     0.6700     0.4430 C.3   1 <1>   0.1200 
 12 C       -1.1460    -4.4660     0.4070 C.ar  1 <1>  -0.1500 
 13 C        1.1730    -4.0420    -0.4160 C.3   1 <1>  -0.0960 
 14 C       -2.9460    -2.8730     0.2140 C.ar  1 <1>   0.0860 
 15 O        2.6810     1.3900     1.3930 O.3   1 <1>  -0.5600 
 16 C       -2.4620    -4.1120     0.6240 C.ar  1 <1>  -0.1500 
 17 C       -4.3220    -2.4740     0.4320 C.2   1 <1>   0.5440 
 18 O       -4.5710    -1.3380     0.7810 O.2   1 <1>  -0.5700 
 19 N       -5.3300    -3.3910     0.2440 N.am  1 <1>  -0.5470 
 20 C       -6.7240    -3.2780     0.3720 C.ar  1 <1>   0.1170 
 21 C       -7.4100    -2.0780     0.2200 C.ar  1 <1>  -0.1500 
 22 C       -7.4590    -4.4270     0.6420 C.ar  1 <1>  -0.1500 
 23 C       -8.7880    -2.0180     0.3360 C.ar  1 <1>   0.0820 
 24 C       -8.8370    -4.3800     0.7610 C.ar  1 <1>  -0.1500 
 25 O       -9.3660    -0.8010     0.1690 O.3   1 <1>  -0.3630 
 26 C       -9.5060    -3.1790     0.6100 C.ar  1 <1>  -0.1500 
 27 C      -10.7560    -0.6200     0.3210 C.3   1 <1>   0.0400 
 28 H       -0.1320    -0.3850     1.2580 H     1 <1>   0.0800 
 29 H        0.2050     1.0750     0.3650 H     1 <1>   0.0800 
 30 H        2.1480     1.0500    -1.2510 H     1 <1>   0.0800 
 31 H        3.0880    -0.4120    -1.3790 H     1 <1>   0.0800 
 32 H       -2.4150    -1.0490    -0.7270 H     1 <1>   0.1500 
 33 H        1.9970    -0.1730     2.4760 H     1 <1>   0.0800 
 34 H        1.0930     1.3190     2.6200 H     1 <1>   0.0800 
 35 H        4.1860     1.3170     0.0640 H     1 <1>   0.0800 
 36 H        3.8780    -0.1710     0.9310 H     1 <1>   0.0800 
 37 H       -0.8020    -5.4320     0.7370 H     1 <1>   0.1500 
 38 H        1.3750    -4.1900    -1.4630 H     1 <1>   0.0800 
 39 H        1.3660    -4.9690     0.0940 H     1 <1>   0.0800 
 40 H        1.8570    -3.3070    -0.0310 H     1 <1>   0.0800 
 41 H       -3.1150    -4.8020     1.1280 H     1 <1>   0.1500 
 42 H       -5.0130    -4.3130    -0.0450 H     1 <1>   0.3700 
 43 H       -6.8760    -1.1720     0.0040 H     1 <1>   0.1500 
 44 H       -6.9540    -5.3670     0.7650 H     1 <1>   0.1500 
 45 H       -9.3900    -5.2790     0.9730 H     1 <1>   0.1500 
 46 H      -10.5740    -3.1660     0.7060 H     1 <1>   0.1500 
 47 H      -10.9750     0.4210     0.1660 H     1 <1>   0.0800 
 48 H      -11.0380    -0.9080     1.3190 H     1 <1>   0.0800 
 49 H      -11.2680    -1.2150    -0.4130 H     1 <1>   0.0800 
@<TRIPOS>BOND
  1   1   2  2   
  2   1   3  2   
  3   1   4  am  
  4   1   5  1   
  5   4   6  1   
  6   4   7  1   
  7   5   8  ar  
  8   5   9  ar  
  9   6  10  1   
 10   6  28  1   
 11   6  29  1   
 12   7  11  1   
 13   7  30  1   
 14   7  31  1   
 15   8  12  ar  
 16   8  13  1   
 17   9  14  ar  
 18   9  32  1   
 19  10  15  1   
 20  10  33  1   
 21  10  34  1   
 22  11  15  1   
 23  11  35  1   
 24  11  36  1   
 25  12  16  ar  
 26  12  37  1   
 27  13  38  1   
 28  13  39  1   
 29  13  40  1   
 30  14  16  ar  
 31  14  17  1   
 32  16  41  1   
 33  17  18  2   
 34  17  19  am  
 35  19  20  1   
 36  19  42  1   
 37  20  21  ar  
 38  20  22  ar  
 39  21  23  ar  
 40  21  43  1   
 41  22  24  ar  
 42  22  44  1   
 43  23  25  1   
 44  23  26  ar  
 45  24  26  ar  
 46  24  45  1   
 47  25  27  1   
 48  26  46  1   
 49  27  47  1   
 50  27  48  1   
 51  27  49  1   
@<TRIPOS>SUBSTRUCTURE
  1 ****  14 GROUP 4 **** **** 0

# MOE 2024.06 (io_trps.svl 2023.06)
