@<TRIPOS>MOLECULE
NONAME
46 48 1 0 0 
SMALL
USER_CHARGES


@<TRIPOS>ATOM
  1 O       -2.1280    -0.3790    -1.1500 O.co2 1 <1>  -0.9000 
  2 C       -2.1820     0.7820    -1.5960 C.2   1 <1>   0.9790 
  3 O       -1.2440     1.1920    -2.3050 O.co2 1 <1>  -0.9000 
  4 C       -3.3170     1.6430    -1.2920 C.ar  1 <1>  -0.1790 
  5 C       -4.3710     1.2040    -0.4870 C.ar  1 <1>  -0.1500 
  6 C       -3.4060     2.9460    -1.7870 C.ar  1 <1>  -0.1500 
  7 C       -5.4470     2.0180    -0.1930 C.ar  1 <1>  -0.1500 
  8 C       -4.4810     3.7640    -1.4950 C.ar  1 <1>  -0.1500 
  9 C       -5.5220     3.3130    -0.6910 C.ar  1 <1>   0.1170 
 10 N       -6.6290     4.0950    -0.3400 N.am  1 <1>  -0.5470 
 11 C       -7.1500     5.2570    -0.8520 C.2   1 <1>   0.5690 
 12 O       -6.6970     5.7950    -1.8350 O.2   1 <1>  -0.5700 
 13 C       -8.3670     5.8680    -0.1110 C.3   1 <1>   0.2040 
 14 C       -9.2310     4.6950     0.4220 C.ar  1 <1>  -0.1430 
 15 C       -9.2550     6.7480    -1.0300 C.3   1 <1>  -0.1600 
 16 C       -7.8410     6.7780     1.0250 C.3   1 <1>  -0.1600 
 17 C       -9.8030     3.8190    -0.4960 C.ar  1 <1>  -0.1500 
 18 C       -9.4430     4.4460     1.7760 C.ar  1 <1>  -0.1500 
 19 C       -8.6160     8.0970    -1.3960 C.3   1 <1>   0.1200 
 20 C       -7.2200     8.0660     0.4790 C.3   1 <1>   0.1200 
 21 C      -10.5620     2.7370    -0.0880 C.ar  1 <1>  -0.1500 
 22 C      -10.2010     3.3650     2.1890 C.ar  1 <1>  -0.1500 
 23 O       -8.1990     8.7460    -0.2370 O.3   1 <1>  -0.5600 
 24 C      -10.7660     2.5030     1.2660 C.ar  1 <1>   0.0830 
 25 O      -11.4920     1.4680     1.7570 O.3   1 <1>  -0.3630 
 26 C      -12.1450     0.5590     0.8990 C.3   1 <1>   0.0400 
 27 H       -4.3260     0.2010    -0.0950 H     1 <1>   0.1500 
 28 H       -2.6070     3.3080    -2.4120 H     1 <1>   0.1500 
 29 H       -6.2340     1.6360     0.4290 H     1 <1>   0.1500 
 30 H       -4.5000     4.7590    -1.8970 H     1 <1>   0.1500 
 31 H       -7.2170     3.6760     0.3820 H     1 <1>   0.3700 
 32 H      -10.1870     6.9500    -0.5310 H     1 <1>   0.0800 
 33 H       -9.4830     6.2250    -1.9400 H     1 <1>   0.0800 
 34 H       -7.1090     6.2550     1.6140 H     1 <1>   0.0800 
 35 H       -8.6490     7.0720     1.6700 H     1 <1>   0.0800 
 36 H       -9.6540     3.9650    -1.5530 H     1 <1>   0.1500 
 37 H       -9.0310     5.0740     2.5440 H     1 <1>   0.1500 
 38 H       -9.3350     8.7300    -1.8840 H     1 <1>   0.0800 
 39 H       -7.7680     7.9800    -2.0480 H     1 <1>   0.0800 
 40 H       -6.3800     7.8740    -0.1680 H     1 <1>   0.0800 
 41 H       -6.9030     8.7050     1.2850 H     1 <1>   0.0800 
 42 H      -10.9820     2.0900    -0.8340 H     1 <1>   0.1500 
 43 H      -10.3620     3.1810     3.2360 H     1 <1>   0.1500 
 44 H      -12.6680    -0.1560     1.5070 H     1 <1>   0.0800 
 45 H      -11.4100     0.0570     0.2960 H     1 <1>   0.0800 
 46 H      -12.8450     1.0990     0.2860 H     1 <1>   0.0800 
@<TRIPOS>BOND
  1   1   2  ar  
  2   2   3  ar  
  3   2   4  1   
  4   4   5  ar  
  5   4   6  ar  
  6   5   7  ar  
  7   5  27  1   
  8   6   8  ar  
  9   6  28  1   
 10   7   9  ar  
 11   7  29  1   
 12   8   9  ar  
 13   8  30  1   
 14   9  10  1   
 15  10  11  am  
 16  10  31  1   
 17  11  12  2   
 18  11  13  1   
 19  13  14  1   
 20  13  15  1   
 21  13  16  1   
 22  14  17  ar  
 23  14  18  ar  
 24  15  19  1   
 25  15  32  1   
 26  15  33  1   
 27  16  20  1   
 28  16  34  1   
 29  16  35  1   
 30  17  21  ar  
 31  17  36  1   
 32  18  22  ar  
 33  18  37  1   
 34  19  23  1   
 35  19  38  1   
 36  19  39  1   
 37  20  23  1   
 38  20  40  1   
 39  20  41  1   
 40  21  24  ar  
 41  21  42  1   
 42  22  24  ar  
 43  22  43  1   
 44  24  25  1   
 45  25  26  1   
 46  26  44  1   
 47  26  45  1   
 48  26  46  1   
@<TRIPOS>SUBSTRUCTURE
  1 ****  10 GROUP 4 **** **** 0

# MOE 2024.06 (io_trps.svl 2023.06)
