@<TRIPOS>MOLECULE
NONAME
67 68 1 0 0 
SMALL
USER_CHARGES


@<TRIPOS>ATOM
  1 O        0.0650     0.0300     1.5260 O.2   1 <1>  -0.5700 
  2 C        0.2680    -0.6120     0.5280 C.2   1 <1>   0.6590 
  3 O        1.4140    -0.5380    -0.1350 O.3   1 <1>  -0.4300 
  4 C       -0.7860    -1.4940    -0.0640 C.3   1 <1>  -0.0380 
  5 C        2.4280     0.3640     0.2300 C.3   1 <1>   0.2000 
  6 C       -1.8190    -0.5550    -0.6000 C.2   1 <1>   0.6590 
  7 C        2.0670     1.7420    -0.3270 C.3   1 <1>  -0.1600 
  8 C        3.7280    -0.1240    -0.4010 C.3   1 <1>  -0.1600 
  9 O       -1.6010     0.1430    -1.5570 O.2   1 <1>  -0.5700 
 10 O       -2.9640    -0.4960     0.0680 O.3   1 <1>  -0.4300 
 11 C        3.1770     2.7700    -0.0870 C.3   1 <1>   0.5030 
 12 C        4.8870     0.8530    -0.1690 C.3   1 <1>   0.5030 
 13 C       -3.9570     0.4500    -0.2400 C.3   1 <1>   0.2000 
 14 N        4.4910     2.2360    -0.4830 N.4   1 <1>  -0.9060 
 15 C        3.2150     3.2440     1.3690 C.3   1 <1>  -0.2400 
 16 C        2.9460     3.9900    -0.9770 C.3   1 <1>  -0.2400 
 17 C        5.4310     0.7720     1.2600 C.3   1 <1>  -0.2400 
 18 C        6.0290     0.5270    -1.1300 C.3   1 <1>  -0.2400 
 19 C       -3.5660     1.7830     0.3990 C.3   1 <1>  -0.1600 
 20 C       -5.2680    -0.0470     0.3610 C.3   1 <1>  -0.1600 
 21 C       -4.6520     2.8490     0.2240 C.3   1 <1>   0.5030 
 22 C       -6.4050     0.9690     0.1910 C.3   1 <1>   0.5030 
 23 N       -5.9770     2.3210     0.5880 N.4   1 <1>  -0.9060 
 24 C       -4.3930     4.0050     1.1870 C.3   1 <1>  -0.2400 
 25 C       -4.6780     3.4110    -1.2000 C.3   1 <1>  -0.2400 
 26 C       -6.9490     0.9870    -1.2400 C.3   1 <1>  -0.2400 
 27 C       -7.5540     0.6100     1.1310 C.3   1 <1>  -0.2400 
 28 H       -1.2040    -2.1280     0.6930 H     1 <1>   0.0800 
 29 H       -0.3810    -2.0890    -0.8590 H     1 <1>   0.0800 
 30 H        2.5050     0.3740     1.3050 H     1 <1>   0.0800 
 31 H        1.1600     2.0920     0.1330 H     1 <1>   0.0800 
 32 H        1.8810     1.6510    -1.3830 H     1 <1>   0.0800 
 33 H        3.5720    -0.2540    -1.4580 H     1 <1>   0.0800 
 34 H        3.9830    -1.0860     0.0090 H     1 <1>   0.0800 
 35 H       -4.0330     0.5280    -1.3130 H     1 <1>   0.0800 
 36 H        5.2090     2.8630    -0.1180 H     1 <1>   0.4500 
 37 H        4.5320     2.3180    -1.5010 H     1 <1>   0.4500 
 38 H        3.2160     2.4300     2.0650 H     1 <1>   0.0800 
 39 H        2.3300     3.8190     1.5830 H     1 <1>   0.0800 
 40 H        4.0650     3.8750     1.5550 H     1 <1>   0.0800 
 41 H        2.9340     3.7200    -2.0190 H     1 <1>   0.0800 
 42 H        3.7000     4.7400    -0.8160 H     1 <1>   0.0800 
 43 H        1.9920     4.4340    -0.7490 H     1 <1>   0.0800 
 44 H        4.6570     0.8420     1.9980 H     1 <1>   0.0800 
 45 H        6.1670     1.5340     1.4430 H     1 <1>   0.0800 
 46 H        5.9060    -0.1810     1.4110 H     1 <1>   0.0800 
 47 H        5.7110     0.5930    -2.1560 H     1 <1>   0.0800 
 48 H        6.3730    -0.4800    -0.9630 H     1 <1>   0.0800 
 49 H        6.8670     1.1850    -0.9780 H     1 <1>   0.0800 
 50 H       -2.6500     2.1400    -0.0390 H     1 <1>   0.0800 
 51 H       -3.3810     1.6240     1.4480 H     1 <1>   0.0800 
 52 H       -5.1150    -0.2440     1.4080 H     1 <1>   0.0800 
 53 H       -5.5440    -0.9760    -0.1070 H     1 <1>   0.0800 
 54 H       -6.6810     2.9850     0.2630 H     1 <1>   0.4500 
 55 H       -6.0170     2.3410     1.6090 H     1 <1>   0.4500 
 56 H       -4.3880     3.6720     2.2100 H     1 <1>   0.0800 
 57 H       -5.1310     4.7810     1.0730 H     1 <1>   0.0800 
 58 H       -3.4300     4.4410     0.9860 H     1 <1>   0.0800 
 59 H       -4.6980     2.6410    -1.9450 H     1 <1>   0.0800 
 60 H       -3.7820     3.9780    -1.3790 H     1 <1>   0.0800 
 61 H       -5.5150     4.0710    -1.3460 H     1 <1>   0.0800 
 62 H       -6.1740     1.0850    -1.9730 H     1 <1>   0.0800 
 63 H       -7.6690     1.7750    -1.3750 H     1 <1>   0.0800 
 64 H       -7.4460     0.0560    -1.4490 H     1 <1>   0.0800 
 65 H       -7.2350     0.6060     2.1580 H     1 <1>   0.0800 
 66 H       -7.9200    -0.3770     0.9040 H     1 <1>   0.0800 
 67 H       -8.3770     1.2950     1.0200 H     1 <1>   0.0800 
@<TRIPOS>BOND
  1   1   2  2   
  2   2   3  1   
  3   2   4  1   
  4   3   5  1   
  5   4   6  1   
  6   4  28  1   
  7   4  29  1   
  8   5   7  1   
  9   5   8  1   
 10   5  30  1   
 11   6   9  2   
 12   6  10  1   
 13   7  11  1   
 14   7  31  1   
 15   7  32  1   
 16   8  12  1   
 17   8  33  1   
 18   8  34  1   
 19  10  13  1   
 20  11  14  1   
 21  11  15  1   
 22  11  16  1   
 23  12  14  1   
 24  12  17  1   
 25  12  18  1   
 26  13  19  1   
 27  13  20  1   
 28  13  35  1   
 29  14  36  1   
 30  14  37  1   
 31  15  38  1   
 32  15  39  1   
 33  15  40  1   
 34  16  41  1   
 35  16  42  1   
 36  16  43  1   
 37  17  44  1   
 38  17  45  1   
 39  17  46  1   
 40  18  47  1   
 41  18  48  1   
 42  18  49  1   
 43  19  21  1   
 44  19  50  1   
 45  19  51  1   
 46  20  22  1   
 47  20  52  1   
 48  20  53  1   
 49  21  23  1   
 50  21  24  1   
 51  21  25  1   
 52  22  23  1   
 53  22  26  1   
 54  22  27  1   
 55  23  54  1   
 56  23  55  1   
 57  24  56  1   
 58  24  57  1   
 59  24  58  1   
 60  25  59  1   
 61  25  60  1   
 62  25  61  1   
 63  26  62  1   
 64  26  63  1   
 65  26  64  1   
 66  27  65  1   
 67  27  66  1   
 68  27  67  1   
@<TRIPOS>SUBSTRUCTURE
  1 ****   1 GROUP 4 **** **** 0

# MOE 2024.06 (io_trps.svl 2023.06)
