@<TRIPOS>MOLECULE
NONAME
45 47 1 0 0 
SMALL
USER_CHARGES


@<TRIPOS>ATOM
  1 O        0.8430    -0.0620     0.2620 O.3   1 <1>  -0.5600 
  2 C        1.6430    -1.2120     0.2500 C.3   1 <1>   0.1200 
  3 C        1.5220     1.0850     0.6930 C.3   1 <1>   0.1200 
  4 C        2.8420    -1.0440    -0.7000 C.3   1 <1>   0.2090 
  5 C        2.7170     1.4040    -0.2240 C.3   1 <1>   0.2090 
  6 N        3.6020     0.2070    -0.3830 N.pl3 1 <1>  -0.8380 
  7 C        4.9780     0.2790    -0.3680 C.ar  1 <1>   0.7200 
  8 N        5.6380    -0.8490    -0.4490 N.ar  1 <1>  -0.6200 
  9 N        5.5190     1.4650    -0.2720 N.ar  1 <1>  -0.6200 
 10 C        6.9330    -0.7110    -0.4250 C.ar  1 <1>   0.7030 
 11 C        6.8270     1.4800    -0.2600 C.ar  1 <1>   0.7200 
 12 O        7.6250    -1.8570    -0.5000 O.3   1 <1>  -0.1650 
 13 N        7.5830     0.4160    -0.3280 N.ar  1 <1>  -0.6200 
 14 N        7.4650     2.7010    -0.1610 N.pl3 1 <1>  -0.8380 
 15 C        8.9640    -1.9110    -0.2740 C.ar  1 <1>   0.3930 
 16 C        6.7290     3.9900    -0.2050 C.3   1 <1>   0.2090 
 17 C        8.9500     2.8090    -0.0710 C.3   1 <1>   0.2090 
 18 N        9.7080    -2.3730    -1.2740 N.ar  1 <1>  -0.3100 
 19 C        9.4690    -1.5270     0.9610 C.ar  1 <1>  -0.1500 
 20 C        6.4020     4.4260     1.2200 C.3   1 <1>  -0.2400 
 21 C        9.5380     2.9030    -1.4750 C.3   1 <1>  -0.2400 
 22 N       11.0110    -2.4560    -1.1160 N.ar  1 <1>  -0.3100 
 23 C       10.8200    -1.6120     1.1280 C.ar  1 <1>  -0.1500 
 24 C       11.5760    -2.0800     0.0570 C.ar  1 <1>   0.1390 
 25 O       12.8190    -2.1550     0.1900 O.3   1 <1>  -0.8290 
 26 H        1.0300    -2.0350    -0.0700 H     1 <1>   0.0800 
 27 H        1.9860    -1.4040     1.2520 H     1 <1>   0.0800 
 28 H        1.8600     0.9270     1.7030 H     1 <1>   0.0800 
 29 H        0.8230     1.9020     0.6870 H     1 <1>   0.0800 
 30 H        2.4830    -0.9890    -1.7120 H     1 <1>   0.0800 
 31 H        3.4660    -1.9150    -0.6200 H     1 <1>   0.0800 
 32 H        3.2560     2.2340     0.1970 H     1 <1>   0.0800 
 33 H        2.3510     1.7030    -1.1900 H     1 <1>   0.0800 
 34 H        5.8210     3.8850    -0.7760 H     1 <1>   0.0800 
 35 H        7.3330     4.7370    -0.6900 H     1 <1>   0.0800 
 36 H        9.3620     1.9530     0.4390 H     1 <1>   0.0800 
 37 H        9.2170     3.6830     0.4980 H     1 <1>   0.0800 
 38 H        8.8240    -1.1750     1.7400 H     1 <1>   0.1500 
 39 H        5.7850     3.6850     1.6950 H     1 <1>   0.0800 
 40 H        5.8670     5.3570     1.2000 H     1 <1>   0.0800 
 41 H        7.3040     4.5570     1.7880 H     1 <1>   0.0800 
 42 H        9.2940     2.0150    -2.0320 H     1 <1>   0.0800 
 43 H       10.6080     2.9760    -1.4130 H     1 <1>   0.0800 
 44 H        9.1590     3.7650    -1.9910 H     1 <1>   0.0800 
 45 H       11.3300    -1.3400     2.0310 H     1 <1>   0.1500 
@<TRIPOS>BOND
  1   1   2  1   
  2   1   3  1   
  3   2   4  1   
  4   2  26  1   
  5   2  27  1   
  6   3   5  1   
  7   3  28  1   
  8   3  29  1   
  9   4   6  1   
 10   4  30  1   
 11   4  31  1   
 12   5   6  1   
 13   5  32  1   
 14   5  33  1   
 15   6   7  1   
 16   7   8  ar  
 17   7   9  ar  
 18   8  10  ar  
 19   9  11  ar  
 20  10  12  1   
 21  10  13  ar  
 22  11  13  ar  
 23  11  14  1   
 24  12  15  1   
 25  14  16  1   
 26  14  17  1   
 27  15  18  ar  
 28  15  19  ar  
 29  16  20  1   
 30  16  34  1   
 31  16  35  1   
 32  17  21  1   
 33  17  36  1   
 34  17  37  1   
 35  18  22  ar  
 36  19  23  ar  
 37  19  38  1   
 38  20  39  1   
 39  20  40  1   
 40  20  41  1   
 41  21  42  1   
 42  21  43  1   
 43  21  44  1   
 44  22  24  ar  
 45  23  24  ar  
 46  23  45  1   
 47  24  25  1   
@<TRIPOS>SUBSTRUCTURE
  1 ****  13 GROUP 4 **** **** 0

# MOE 2024.06 (io_trps.svl 2023.06)
