@<TRIPOS>MOLECULE
NONAME
30 30 1 0 0 
SMALL
USER_CHARGES


@<TRIPOS>ATOM
  1 BR      -0.0040    -0.4780    -0.1620 Br    1 <1>  -0.1110 
  2 C       -1.8440    -1.0140    -0.3140 C.ar  1 <1>   0.1110 
  3 C       -2.9550    -0.1610    -0.2290 C.ar  1 <1>  -0.0090 
  4 C       -1.9410    -2.3820    -0.5220 C.ar  1 <1>  -0.1500 
  5 S       -3.0660     1.6440     0.0340 S.o2  1 <1>   1.2040 
  6 C       -4.1710    -0.8370    -0.3730 C.ar  1 <1>   0.1110 
  7 C       -3.1720    -2.9900    -0.6600 C.ar  1 <1>  -0.1430 
  8 O       -3.7750     1.8030     1.2870 O.2   1 <1>  -0.6500 
  9 O       -3.6970     2.1640    -1.1620 O.2   1 <1>  -0.6500 
 10 C       -1.5540     2.6830     0.2340 C.3   1 <1>   0.1050 
 11 BR      -5.8680     0.0840    -0.2940 Br    1 <1>  -0.1110 
 12 C       -4.2990    -2.1990    -0.5820 C.ar  1 <1>  -0.1500 
 13 C       -3.2840    -4.4870    -0.8870 C.3   1 <1>  -0.0960 
 14 C       -1.9810     4.1600     0.4310 C.3   1 <1>  -0.2400 
 15 C       -0.6550     2.7220    -1.0260 C.3   1 <1>  -0.2400 
 16 C       -0.7420     2.3590     1.5130 C.3   1 <1>  -0.2400 
 17 H       -1.0440    -2.9740    -0.5760 H     1 <1>   0.1500 
 18 H       -5.2800    -2.6300    -0.6810 H     1 <1>   0.1500 
 19 H       -2.4350    -4.8500    -1.4380 H     1 <1>   0.0800 
 20 H       -4.1730    -4.7180    -1.4470 H     1 <1>   0.0800 
 21 H       -3.3280    -4.9970     0.0580 H     1 <1>   0.0800 
 22 H       -2.6090     4.2610     1.2990 H     1 <1>   0.0800 
 23 H       -2.5480     4.5060    -0.4160 H     1 <1>   0.0800 
 24 H       -1.1270     4.8030     0.5530 H     1 <1>   0.0800 
 25 H       -1.1700     3.2240    -1.8280 H     1 <1>   0.0800 
 26 H       -0.4100     1.7510    -1.3950 H     1 <1>   0.0800 
 27 H        0.2580     3.2560    -0.8330 H     1 <1>   0.0800 
 28 H       -0.5170     1.3220     1.6130 H     1 <1>   0.0800 
 29 H       -1.3120     2.6260     2.3860 H     1 <1>   0.0800 
 30 H        0.1790     2.9140     1.5360 H     1 <1>   0.0800 
@<TRIPOS>BOND
  1   1   2  1   
  2   2   3  ar  
  3   2   4  ar  
  4   3   5  1   
  5   3   6  ar  
  6   4   7  ar  
  7   4  17  1   
  8   5   8  2   
  9   5   9  2   
 10   5  10  1   
 11   6  11  1   
 12   6  12  ar  
 13   7  12  ar  
 14   7  13  1   
 15  10  14  1   
 16  10  15  1   
 17  10  16  1   
 18  12  18  1   
 19  13  19  1   
 20  13  20  1   
 21  13  21  1   
 22  14  22  1   
 23  14  23  1   
 24  14  24  1   
 25  15  25  1   
 26  15  26  1   
 27  15  27  1   
 28  16  28  1   
 29  16  29  1   
 30  16  30  1   
@<TRIPOS>SUBSTRUCTURE
  1 ****   3 GROUP 4 **** **** 0

# MOE 2024.06 (io_trps.svl 2023.06)
