@<TRIPOS>MOLECULE
ka-06749
31 32 1 0 0 
SMALL
USER_CHARGES


@<TRIPOS>ATOM
  1 O       -2.1470     0.9870     2.6140 O.co2 1 <1>  -0.9000 
  2 C       -2.2480     0.7900     1.3990 C.2   1 <1>   0.9060 
  3 O       -1.5740     1.4090     0.5630 O.co2 1 <1>  -0.9000 
  4 C       -3.2110    -0.2760     0.9210 C.3   1 <1>  -0.1860 
  5 C       -4.1590     0.2890    -0.1590 C.3   1 <1>   0.4240 
  6 C       -2.4530    -1.5450     0.4620 C.3   1 <1>  -0.1600 
  7 O       -3.3690     0.7020    -1.2140 O.3   1 <1>  -0.6800 
  8 C       -5.0380     1.4890     0.2670 C.ar  1 <1>  -0.1440 
  9 C       -5.0760    -0.8330    -0.6880 C.3   1 <1>  -0.1600 
 10 C       -3.4210    -2.6320    -0.0210 C.3   1 <1>  -0.1600 
 11 C       -5.2450     1.8490     1.5960 C.ar  1 <1>  -0.1500 
 12 C       -5.6780     2.2430    -0.7130 C.ar  1 <1>  -0.1500 
 13 C       -4.3220    -2.0970    -1.1390 C.3   1 <1>  -0.1600 
 14 C       -6.0640     2.9140     1.9300 C.ar  1 <1>  -0.1500 
 15 C       -6.4990     3.3070    -0.3850 C.ar  1 <1>  -0.1500 
 16 C       -6.6960     3.6440     0.9410 C.ar  1 <1>  -0.1500 
 17 H       -3.8050    -0.5620     1.7660 H     1 <1>   0.0800 
 18 H       -1.7750    -1.2840    -0.3330 H     1 <1>   0.0800 
 19 H       -1.8640    -1.9180     1.2820 H     1 <1>   0.0800 
 20 H       -2.5830     1.1430    -0.7780 H     1 <1>   0.4000 
 21 H       -5.7580    -1.1000     0.0980 H     1 <1>   0.0800 
 22 H       -5.6620    -0.4560    -1.5050 H     1 <1>   0.0800 
 23 H       -2.8600    -3.4760    -0.3810 H     1 <1>   0.0800 
 24 H       -4.0280    -2.9610     0.8050 H     1 <1>   0.0800 
 25 H       -4.7650     1.3160     2.3980 H     1 <1>   0.1500 
 26 H       -5.5260     1.9970    -1.7500 H     1 <1>   0.1500 
 27 H       -5.0270    -2.8540    -1.4320 H     1 <1>   0.0800 
 28 H       -3.7170    -1.8570    -1.9970 H     1 <1>   0.0800 
 29 H       -6.1990     3.1730     2.9650 H     1 <1>   0.1500 
 30 H       -6.9790     3.8720    -1.1640 H     1 <1>   0.1500 
 31 H       -7.3300     4.4720     1.2020 H     1 <1>   0.1500 
@<TRIPOS>BOND
  1   1   2  ar  
  2   2   3  ar  
  3   2   4  1   
  4   4   5  1   
  5   4   6  1   
  6   4  17  1   
  7   5   7  1   
  8   5   8  1   
  9   5   9  1   
 10   6  10  1   
 11   6  18  1   
 12   6  19  1   
 13   7  20  1   
 14   8  11  ar  
 15   8  12  ar  
 16   9  13  1   
 17   9  21  1   
 18   9  22  1   
 19  10  13  1   
 20  10  23  1   
 21  10  24  1   
 22  11  14  ar  
 23  11  25  1   
 24  12  15  ar  
 25  12  26  1   
 26  13  27  1   
 27  13  28  1   
 28  14  16  ar  
 29  14  29  1   
 30  15  16  ar  
 31  15  30  1   
 32  16  31  1   
@<TRIPOS>SUBSTRUCTURE
  1 ****   5 GROUP 4 **** **** 0

# MOE 2024.06 (io_trps.svl 2023.06)
