@<TRIPOS>MOLECULE
NONAME
33 33 1 0 0 
SMALL
USER_CHARGES


@<TRIPOS>ATOM
  1 O       -3.5530    -0.5200     0.1490 O.3   1 <1>  -0.6800 
  2 C       -4.4600    -1.4540    -0.3640 C.3   1 <1>   0.1200 
  3 C       -3.9970    -2.8830     0.0060 C.3   1 <1>   0.4230 
  4 N       -2.5220    -2.9170    -0.0260 N.4   1 <1>  -0.9060 
  5 C       -4.5540    -3.9600    -0.9360 C.3   1 <1>  -0.1600 
  6 C       -1.8870    -3.8650     0.8980 C.3   1 <1>   0.5430 
  7 C       -6.0860    -4.0600    -0.8820 C.3   1 <1>  -0.2400 
  8 C       -0.4310    -3.7680     0.6510 C.1   1 <1>  -0.2000 
  9 C        0.7380    -3.6870     0.4390 C.1   1 <1>  -0.0730 
 10 C        2.1420    -3.5890     0.1760 C.ar  1 <1>   0.0730 
 11 C        2.8470    -4.6740    -0.3290 C.ar  1 <1>  -0.1500 
 12 C        2.8280    -2.4050     0.4190 C.ar  1 <1>  -0.1500 
 13 C        4.2030    -4.5800    -0.5870 C.ar  1 <1>  -0.1500 
 14 C        4.1840    -2.3060     0.1630 C.ar  1 <1>  -0.1500 
 15 C        4.8730    -3.3950    -0.3410 C.ar  1 <1>  -0.1500 
 16 H       -3.8730     0.3990     0.0010 H     1 <1>   0.4000 
 17 H       -4.5010    -1.3290    -1.4330 H     1 <1>   0.0800 
 18 H       -5.4350    -1.2560     0.0490 H     1 <1>   0.0800 
 19 H       -4.3350    -3.0850     1.0100 H     1 <1>   0.0800 
 20 H       -2.2380    -1.9550     0.2330 H     1 <1>   0.4500 
 21 H       -2.1660    -3.0620    -0.9740 H     1 <1>   0.4500 
 22 H       -4.1530    -4.9200    -0.6610 H     1 <1>   0.0800 
 23 H       -4.2580    -3.7500    -1.9500 H     1 <1>   0.0800 
 24 H       -2.2250    -4.8700     0.7040 H     1 <1>   0.0800 
 25 H       -2.1090    -3.6050     1.9210 H     1 <1>   0.0800 
 26 H       -6.4240    -4.2630     0.1200 H     1 <1>   0.0800 
 27 H       -6.4210    -4.8650    -1.5140 H     1 <1>   0.0800 
 28 H       -6.5530    -3.1550    -1.2290 H     1 <1>   0.0800 
 29 H        2.3340    -5.5990    -0.5210 H     1 <1>   0.1500 
 30 H        2.3000    -1.5550     0.8130 H     1 <1>   0.1500 
 31 H        4.7390    -5.4280    -0.9780 H     1 <1>   0.1500 
 32 H        4.7040    -1.3840     0.3550 H     1 <1>   0.1500 
 33 H        5.9280    -3.3200    -0.5420 H     1 <1>   0.1500 
@<TRIPOS>BOND
  1   1   2  1   
  2   1  16  1   
  3   2   3  1   
  4   2  17  1   
  5   2  18  1   
  6   3   4  1   
  7   3   5  1   
  8   3  19  1   
  9   4   6  1   
 10   4  20  1   
 11   4  21  1   
 12   5   7  1   
 13   5  22  1   
 14   5  23  1   
 15   6   8  1   
 16   6  24  1   
 17   6  25  1   
 18   7  26  1   
 19   7  27  1   
 20   7  28  1   
 21   8   9  3   
 22   9  10  1   
 23  10  11  ar  
 24  10  12  ar  
 25  11  13  ar  
 26  11  29  1   
 27  12  14  ar  
 28  12  30  1   
 29  13  15  ar  
 30  13  31  1   
 31  14  15  ar  
 32  14  32  1   
 33  15  33  1   
@<TRIPOS>SUBSTRUCTURE
  1 ****   8 GROUP 4 **** **** 0

# MOE 2024.06 (io_trps.svl 2023.06)
