@<TRIPOS>MOLECULE
NONAME
31 31 1 0 0 
SMALL
USER_CHARGES


@<TRIPOS>ATOM
  1 O       -0.2270     0.0100     0.0910 O.2   1 <1>  -0.5700 
  2 C       -0.1370    -1.1990     0.1140 C.2   1 <1>   0.8700 
  3 O        1.0220    -1.8590     0.1570 O.3   1 <1>  -0.2330 
  4 O       -1.2160    -1.9770     0.1060 O.3   1 <1>  -0.4300 
  5 C        2.2720    -1.3300     0.1040 C.ar  1 <1>   0.0830 
  6 C       -2.5130    -1.4200     0.0670 C.3   1 <1>   0.1200 
  7 C        2.5900    -0.1980    -0.6370 C.ar  1 <1>  -0.1500 
  8 C        3.2680    -1.9810     0.8150 C.ar  1 <1>  -0.1500 
  9 C       -3.5560    -2.5470     0.0350 C.3   1 <1>  -0.0800 
 10 C        3.8890     0.2790    -0.6500 C.ar  1 <1>  -0.1500 
 11 C        4.5660    -1.5020     0.7990 C.ar  1 <1>  -0.1500 
 12 C       -3.3940    -3.4400    -1.2030 C.3   1 <1>  -0.2400 
 13 C       -4.9710    -1.9560     0.0640 C.3   1 <1>  -0.2400 
 14 C        4.8820    -0.3670     0.0680 C.ar  1 <1>  -0.1430 
 15 C        6.3050     0.1600     0.0500 C.3   1 <1>  -0.0970 
 16 H       -2.5910    -0.8030    -0.8130 H     1 <1>   0.0800 
 17 H       -2.6410    -0.8070     0.9430 H     1 <1>   0.0800 
 18 H        1.8390     0.3160    -1.2100 H     1 <1>   0.1500 
 19 H        3.0250    -2.8630     1.3810 H     1 <1>   0.1500 
 20 H       -3.4270    -3.1490     0.9200 H     1 <1>   0.0800 
 21 H        4.1230     1.1580    -1.2250 H     1 <1>   0.1500 
 22 H        5.3290    -2.0160     1.3560 H     1 <1>   0.1500 
 23 H       -3.4990    -2.8630    -2.1050 H     1 <1>   0.0800 
 24 H       -4.1370    -4.2180    -1.2040 H     1 <1>   0.0800 
 25 H       -2.4240    -3.9060    -1.2060 H     1 <1>   0.0800 
 26 H       -5.1460    -1.3440    -0.8040 H     1 <1>   0.0800 
 27 H       -5.1080    -1.3530     0.9440 H     1 <1>   0.0800 
 28 H       -5.7040    -2.7440     0.0800 H     1 <1>   0.0800 
 29 H        6.3070     1.2300    -0.0620 H     1 <1>   0.0800 
 30 H        6.8440    -0.2770    -0.7710 H     1 <1>   0.0800 
 31 H        6.8090    -0.0840     0.9680 H     1 <1>   0.0800 
@<TRIPOS>BOND
  1   1   2  2   
  2   2   3  1   
  3   2   4  1   
  4   3   5  1   
  5   4   6  1   
  6   5   7  ar  
  7   5   8  ar  
  8   6   9  1   
  9   6  16  1   
 10   6  17  1   
 11   7  10  ar  
 12   7  18  1   
 13   8  11  ar  
 14   8  19  1   
 15   9  12  1   
 16   9  13  1   
 17   9  20  1   
 18  10  14  ar  
 19  10  21  1   
 20  11  14  ar  
 21  11  22  1   
 22  12  23  1   
 23  12  24  1   
 24  12  25  1   
 25  13  26  1   
 26  13  27  1   
 27  13  28  1   
 28  14  15  1   
 29  15  29  1   
 30  15  30  1   
 31  15  31  1   
@<TRIPOS>SUBSTRUCTURE
  1 ****   3 GROUP 4 **** **** 0

# MOE 2024.06 (io_trps.svl 2023.06)
