@<TRIPOS>MOLECULE
NONAME
42 43 1 0 0 
SMALL
USER_CHARGES


@<TRIPOS>ATOM
  1 CL      -3.4680     0.5960    -3.7930 Cl    1 <1>  -0.1770 
  2 C       -3.9560     1.3990    -2.3220 C.ar  1 <1>   0.1770 
  3 C       -3.7060     0.7950    -1.1050 C.ar  1 <1>  -0.1500 
  4 C       -4.5850     2.6270    -2.3960 C.ar  1 <1>  -0.1500 
  5 C       -4.0920     1.4350     0.0610 C.ar  1 <1>  -0.1500 
  6 C       -4.9670     3.2630    -1.2270 C.ar  1 <1>  -0.1500 
  7 C       -4.7220     2.6710     0.0050 C.ar  1 <1>  -0.1430 
  8 C       -5.1530     3.3710     1.2920 C.3   1 <1>   0.0450 
  9 C       -6.6020     3.1110     1.6740 C.2   1 <1>   0.5690 
 10 O       -6.9820     3.4480     2.7690 O.2   1 <1>  -0.5700 
 11 N       -7.4410     2.5260     0.7870 N.am  1 <1>  -0.7300 
 12 C       -8.9090     2.3450     0.9690 C.3   1 <1>   0.2010 
 13 C       -9.6970     2.3850    -0.3500 C.2   1 <1>   0.5690 
 14 O       -9.0510     2.2580    -1.3670 O.2   1 <1>  -0.5700 
 15 N      -11.0720     2.5380    -0.3370 N.am  1 <1>  -0.6600 
 16 C      -11.9640     2.7090    -1.5320 C.3   1 <1>   0.2200 
 17 C      -11.8880     2.3120     0.8930 C.3   1 <1>   0.1400 
 18 C      -12.7150     1.3920    -1.7650 C.3   1 <1>  -0.1600 
 19 C      -11.2830     3.2000    -2.8120 C.3   1 <1>  -0.2400 
 20 C      -12.6610     0.9960     0.7390 C.3   1 <1>  -0.1600 
 21 C      -13.5330     0.9910    -0.5260 C.3   1 <1>  -0.1600 
 22 H       -3.2180    -0.1620    -1.0750 H     1 <1>   0.1500 
 23 H       -4.7740     3.0750    -3.3550 H     1 <1>   0.1500 
 24 H       -3.9010     0.9640     1.0100 H     1 <1>   0.1500 
 25 H       -5.4610     4.2190    -1.2830 H     1 <1>   0.1500 
 26 H       -5.0220     4.4320     1.1860 H     1 <1>   0.0800 
 27 H       -4.5300     3.0520     2.1060 H     1 <1>   0.0800 
 28 H       -7.1120     2.2930    -0.1600 H     1 <1>   0.3700 
 29 H       -9.2720     3.1220     1.6180 H     1 <1>   0.0800 
 30 H       -9.0810     1.3950     1.4400 H     1 <1>   0.0800 
 31 H      -12.6920     3.4620    -1.2770 H     1 <1>   0.0800 
 32 H      -12.5800     3.1290     1.0140 H     1 <1>   0.0800 
 33 H      -11.2830     2.2660     1.7790 H     1 <1>   0.0800 
 34 H      -12.0020     0.6210    -2.0000 H     1 <1>   0.0800 
 35 H      -13.3760     1.4970    -2.6070 H     1 <1>   0.0800 
 36 H      -10.6670     2.4300    -3.2400 H     1 <1>   0.0800 
 37 H      -10.6840     4.0680    -2.6060 H     1 <1>   0.0800 
 38 H      -12.0280     3.4660    -3.5390 H     1 <1>   0.0800 
 39 H      -13.2810     0.8420     1.6040 H     1 <1>   0.0800 
 40 H      -11.9560     0.1830     0.6930 H     1 <1>   0.0800 
 41 H      -13.9600     0.0130    -0.6720 H     1 <1>   0.0800 
 42 H      -14.3430     1.6890    -0.3990 H     1 <1>   0.0800 
@<TRIPOS>BOND
  1   1   2  1   
  2   2   3  ar  
  3   2   4  ar  
  4   3   5  ar  
  5   3  22  1   
  6   4   6  ar  
  7   4  23  1   
  8   5   7  ar  
  9   5  24  1   
 10   6   7  ar  
 11   6  25  1   
 12   7   8  1   
 13   8   9  1   
 14   8  26  1   
 15   8  27  1   
 16   9  10  2   
 17   9  11  am  
 18  11  12  1   
 19  11  28  1   
 20  12  13  1   
 21  12  29  1   
 22  12  30  1   
 23  13  14  2   
 24  13  15  am  
 25  15  16  1   
 26  15  17  1   
 27  16  18  1   
 28  16  19  1   
 29  16  31  1   
 30  17  20  1   
 31  17  32  1   
 32  17  33  1   
 33  18  21  1   
 34  18  34  1   
 35  18  35  1   
 36  19  36  1   
 37  19  37  1   
 38  19  38  1   
 39  20  21  1   
 40  20  39  1   
 41  20  40  1   
 42  21  41  1   
 43  21  42  1   
@<TRIPOS>SUBSTRUCTURE
  1 ****  14 GROUP 4 **** **** 0

# MOE 2024.06 (io_trps.svl 2023.06)
