@<TRIPOS>MOLECULE
NONAME
36 36 1 0 0 
SMALL
USER_CHARGES


@<TRIPOS>ATOM
  1 S       -0.2440     0.2260     0.1740 S.o2  1 <1>   1.4470 
  2 O       -0.1860     0.8490     1.4780 O.2   1 <1>  -0.6500 
  3 O       -0.7240     0.9680    -0.9700 O.2   1 <1>  -0.6500 
  4 N        1.3160    -0.1720    -0.3170 N.am  1 <1>  -0.9140 
  5 C       -1.0630    -1.3870     0.3080 C.ar  1 <1>  -0.0090 
  6 C        2.4280     0.6820     0.0100 C.3   1 <1>   0.3560 
  7 C       -2.4530    -1.4640     0.3370 C.ar  1 <1>   0.0830 
  8 C       -0.3390    -2.5720     0.4120 C.ar  1 <1>  -0.1500 
  9 C        3.5570     0.2160    -0.9070 C.3   1 <1>  -0.2400 
 10 C        2.8640     0.4590     1.4590 C.3   1 <1>  -0.2400 
 11 C        2.1410     2.1570    -0.2820 C.3   1 <1>  -0.2400 
 12 O       -3.1440    -0.2990     0.2680 O.3   1 <1>  -0.3630 
 13 C       -3.0890    -2.7000     0.4400 C.ar  1 <1>  -0.1500 
 14 C       -0.9640    -3.8030     0.5180 C.ar  1 <1>  -0.1430 
 15 C       -4.5530    -0.2510     0.2770 C.3   1 <1>   0.0400 
 16 C       -2.3460    -3.8610     0.5270 C.ar  1 <1>  -0.1500 
 17 C       -0.1420    -5.0750     0.6220 C.3   1 <1>  -0.0970 
 18 H        1.2270    -0.1070    -1.3260 H     1 <1>   0.4200 
 19 H        0.7360    -2.5360     0.4130 H     1 <1>   0.1500 
 20 H        3.2950     0.3570    -1.9400 H     1 <1>   0.0800 
 21 H        3.7750    -0.8240    -0.7380 H     1 <1>   0.0800 
 22 H        4.4510     0.7800    -0.7120 H     1 <1>   0.0800 
 23 H        2.9880    -0.5910     1.6560 H     1 <1>   0.0800 
 24 H        2.1540     0.8630     2.1540 H     1 <1>   0.0800 
 25 H        3.8010     0.9520     1.6410 H     1 <1>   0.0800 
 26 H        1.7810     2.2860    -1.2870 H     1 <1>   0.0800 
 27 H        3.0400     2.7340    -0.1700 H     1 <1>   0.0800 
 28 H        1.4190     2.5590     0.4040 H     1 <1>   0.0800 
 29 H       -4.1590    -2.7780     0.4560 H     1 <1>   0.1500 
 30 H       -4.8500     0.7800     0.2060 H     1 <1>   0.0800 
 31 H       -4.9110    -0.6720     1.1990 H     1 <1>   0.0800 
 32 H       -4.9260    -0.7970    -0.5720 H     1 <1>   0.0800 
 33 H       -2.8470    -4.8100     0.6050 H     1 <1>   0.1500 
 34 H        0.7950    -4.8790     1.1110 H     1 <1>   0.0800 
 35 H        0.0540    -5.4640    -0.3610 H     1 <1>   0.0800 
 36 H       -0.6700    -5.8190     1.1910 H     1 <1>   0.0800 
@<TRIPOS>BOND
  1   1   2  2   
  2   1   3  2   
  3   1   4  am  
  4   1   5  1   
  5   4   6  1   
  6   4  18  1   
  7   5   7  ar  
  8   5   8  ar  
  9   6   9  1   
 10   6  10  1   
 11   6  11  1   
 12   7  12  1   
 13   7  13  ar  
 14   8  14  ar  
 15   8  19  1   
 16   9  20  1   
 17   9  21  1   
 18   9  22  1   
 19  10  23  1   
 20  10  24  1   
 21  10  25  1   
 22  11  26  1   
 23  11  27  1   
 24  11  28  1   
 25  12  15  1   
 26  13  16  ar  
 27  13  29  1   
 28  14  16  ar  
 29  14  17  1   
 30  15  30  1   
 31  15  31  1   
 32  15  32  1   
 33  16  33  1   
 34  17  34  1   
 35  17  35  1   
 36  17  36  1   
@<TRIPOS>SUBSTRUCTURE
  1 ****   5 GROUP 4 **** **** 0

# MOE 2024.06 (io_trps.svl 2023.06)
