@<TRIPOS>MOLECULE
NONAME
52 55 1 0 0 
SMALL
USER_CHARGES


@<TRIPOS>ATOM
  1 O        0.0220     0.4140    -0.0300 O.3   1 <1>  -0.3630 
  2 C        0.1190     1.7680    -0.0230 C.ar  1 <1>   0.0830 
  3 C       -1.2110    -0.2720     0.0050 C.3   1 <1>   0.0400 
  4 C        1.4170     2.3590    -0.0690 C.ar  1 <1>   0.0000 
  5 C       -1.0130     2.5520     0.0280 C.ar  1 <1>  -0.1500 
  6 C        1.4840     3.7790    -0.0540 C.ar  1 <1>   0.3100 
  7 C        2.6620     1.6740    -0.1310 C.ar  1 <1>  -0.1440 
  8 C       -0.9280     3.9410     0.0390 C.ar  1 <1>   0.0830 
  9 N        2.6360     4.4900    -0.0840 N.ar  1 <1>  -0.6200 
 10 C        0.3070     4.5340    -0.0010 C.ar  1 <1>  -0.1500 
 11 C        3.7980     2.4250    -0.1590 C.ar  1 <1>  -0.1500 
 12 C        2.8050     0.1570    -0.1730 C.3   1 <1>  -0.0970 
 13 O       -2.1020     4.6160     0.0910 O.3   1 <1>  -0.3630 
 14 C        3.7530     3.8260    -0.1250 C.ar  1 <1>   0.4100 
 15 C       -2.1310     6.0260     0.1150 C.3   1 <1>   0.0400 
 16 N        4.9360     4.5350    -0.1320 N.pl3 1 <1>  -0.8380 
 17 C        4.9410     5.9400    -0.6510 C.3   1 <1>   0.2090 
 18 C        5.8690     4.3700     1.0250 C.3   1 <1>   0.2090 
 19 C        6.3650     6.4140    -0.9990 C.3   1 <1>   0.2090 
 20 C        7.2960     4.8340     0.6740 C.3   1 <1>   0.2090 
 21 N        7.3130     6.2340     0.1470 N.pl3 1 <1>  -0.8380 
 22 C        8.5670     6.8140     0.0010 C.ar  1 <1>   0.1000 
 23 C        8.9340     7.8670     0.8270 C.ar  1 <1>  -0.1500 
 24 C        9.4740     6.3660    -0.9540 C.ar  1 <1>  -0.1500 
 25 C       10.1770     8.4630     0.7070 C.ar  1 <1>  -0.1500 
 26 C       10.7180     6.9580    -1.0790 C.ar  1 <1>  -0.1500 
 27 C       11.0710     8.0080    -0.2480 C.ar  1 <1>  -0.1500 
 28 H       -1.0060    -1.3270    -0.0120 H     1 <1>   0.0800 
 29 H       -1.7880     0.0030    -0.8600 H     1 <1>   0.0800 
 30 H       -1.7280    -0.0160     0.9130 H     1 <1>   0.0800 
 31 H       -2.0020     2.1390     0.0620 H     1 <1>   0.1500 
 32 H        0.4250     5.6000     0.0060 H     1 <1>   0.1500 
 33 H        4.7680     1.9730    -0.2170 H     1 <1>   0.1500 
 34 H        2.2980    -0.2350    -1.0360 H     1 <1>   0.0800 
 35 H        2.3820    -0.2770     0.7140 H     1 <1>   0.0800 
 36 H        3.8370    -0.1370    -0.2310 H     1 <1>   0.0800 
 37 H       -3.1590     6.3390     0.1590 H     1 <1>   0.0800 
 38 H       -1.6730     6.4000    -0.7840 H     1 <1>   0.0800 
 39 H       -1.6050     6.3720     0.9870 H     1 <1>   0.0800 
 40 H        4.5240     6.5940     0.0940 H     1 <1>   0.0800 
 41 H        4.3230     5.9990    -1.5290 H     1 <1>   0.0800 
 42 H        5.8960     3.3410     1.3340 H     1 <1>   0.0800 
 43 H        5.5070     4.9550     1.8530 H     1 <1>   0.0800 
 44 H        6.3360     7.4540    -1.2720 H     1 <1>   0.0800 
 45 H        6.7180     5.8550    -1.8470 H     1 <1>   0.0800 
 46 H        7.7070     4.1680    -0.0640 H     1 <1>   0.0800 
 47 H        7.9140     4.7820     1.5530 H     1 <1>   0.0800 
 48 H        8.2310     8.2110     1.5630 H     1 <1>   0.1500 
 49 H        9.1990     5.5520    -1.5970 H     1 <1>   0.1500 
 50 H       10.4470     9.2780     1.3540 H     1 <1>   0.1500 
 51 H       11.4120     6.6040    -1.8210 H     1 <1>   0.1500 
 52 H       12.0390     8.4700    -0.3430 H     1 <1>   0.1500 
@<TRIPOS>BOND
  1   1   2  1   
  2   1   3  1   
  3   2   4  ar  
  4   2   5  ar  
  5   3  28  1   
  6   3  29  1   
  7   3  30  1   
  8   4   6  ar  
  9   4   7  ar  
 10   5   8  ar  
 11   5  31  1   
 12   6   9  ar  
 13   6  10  ar  
 14   7  11  ar  
 15   7  12  1   
 16   8  10  ar  
 17   8  13  1   
 18   9  14  ar  
 19  10  32  1   
 20  11  14  ar  
 21  11  33  1   
 22  12  34  1   
 23  12  35  1   
 24  12  36  1   
 25  13  15  1   
 26  14  16  1   
 27  15  37  1   
 28  15  38  1   
 29  15  39  1   
 30  16  17  1   
 31  16  18  1   
 32  17  19  1   
 33  17  40  1   
 34  17  41  1   
 35  18  20  1   
 36  18  42  1   
 37  18  43  1   
 38  19  21  1   
 39  19  44  1   
 40  19  45  1   
 41  20  21  1   
 42  20  46  1   
 43  20  47  1   
 44  21  22  1   
 45  22  23  ar  
 46  22  24  ar  
 47  23  25  ar  
 48  23  48  1   
 49  24  26  ar  
 50  24  49  1   
 51  25  27  ar  
 52  25  50  1   
 53  26  27  ar  
 54  26  51  1   
 55  27  52  1   
@<TRIPOS>SUBSTRUCTURE
  1 ****  14 GROUP 4 **** **** 0

# MOE 2024.06 (io_trps.svl 2023.06)
