@<TRIPOS>MOLECULE
NONAME
46 47 1 0 0 
SMALL
USER_CHARGES


@<TRIPOS>ATOM
  1 O        0.7660    -7.5470    -0.3300 O.3   1 <1>  -0.3630 
  2 C       -0.4700    -7.0200    -0.1420 C.ar  1 <1>   0.0830 
  3 C        1.9170    -6.9030     0.1660 C.3   1 <1>   0.1200 
  4 C       -1.5300    -7.6790    -0.7390 C.ar  1 <1>  -0.1500 
  5 C       -0.7200    -5.8760     0.6040 C.ar  1 <1>  -0.1500 
  6 C        3.1340    -7.7380    -0.2390 C.3   1 <1>   0.1100 
  7 C       -2.8320    -7.2190    -0.6100 C.ar  1 <1>  -0.1440 
  8 C       -2.0150    -5.4120     0.7360 C.ar  1 <1>  -0.1500 
  9 N        4.4040    -7.1200     0.2080 N.3   1 <1>  -0.8100 
 10 C       -3.0860    -6.0670     0.1370 C.ar  1 <1>  -0.1430 
 11 C       -3.9350    -8.0090    -1.3030 C.3   1 <1>  -0.0970 
 12 C        5.4770    -8.1320     0.2770 C.3   1 <1>   0.1100 
 13 C        4.7940    -5.9720    -0.6410 C.3   1 <1>   0.1100 
 14 C       -4.4970    -5.4940     0.3260 C.3   1 <1>   0.0630 
 15 C        6.7970    -7.5190     0.7880 C.3   1 <1>   0.3430 
 16 C        6.1060    -5.3290    -0.1470 C.3   1 <1>   0.3430 
 17 C       -4.6000    -4.0820    -0.2630 C.3   1 <1>  -0.2400 
 18 C       -4.8970    -5.4960     1.8050 C.3   1 <1>  -0.2400 
 19 N        7.2110    -6.3390    -0.0410 N.4   1 <1>  -0.9060 
 20 H        1.8400    -6.8490     1.2370 H     1 <1>   0.0800 
 21 H        1.9550    -5.9200    -0.2660 H     1 <1>   0.0800 
 22 H       -1.3170    -8.5640    -1.3090 H     1 <1>   0.1500 
 23 H        0.0700    -5.3360     1.0880 H     1 <1>   0.1500 
 24 H        3.1420    -7.8720    -1.3070 H     1 <1>   0.0800 
 25 H        3.0240    -8.7050     0.2240 H     1 <1>   0.0800 
 26 H       -2.1860    -4.5240     1.3170 H     1 <1>   0.1500 
 27 H       -3.5340    -8.8600    -1.8230 H     1 <1>   0.0800 
 28 H       -4.4380    -7.3860    -2.0200 H     1 <1>   0.0800 
 29 H       -4.6440    -8.3630    -0.5780 H     1 <1>   0.0800 
 30 H        5.6300    -8.5760    -0.6930 H     1 <1>   0.0800 
 31 H        5.1800    -8.9160     0.9540 H     1 <1>   0.0800 
 32 H        4.0200    -5.2240    -0.6140 H     1 <1>   0.0800 
 33 H        4.9070    -6.2910    -1.6640 H     1 <1>   0.0800 
 34 H       -5.2170    -6.1000    -0.1920 H     1 <1>   0.0800 
 35 H        7.5690    -8.2710     0.7740 H     1 <1>   0.0800 
 36 H        6.6510    -7.2110     1.8100 H     1 <1>   0.0800 
 37 H        5.9220    -4.8910     0.8210 H     1 <1>   0.0800 
 38 H        6.3910    -4.5370    -0.8210 H     1 <1>   0.0800 
 39 H       -3.9630    -3.3960     0.2640 H     1 <1>   0.0800 
 40 H       -5.6130    -3.7260    -0.2010 H     1 <1>   0.0800 
 41 H       -4.3060    -4.0980    -1.2970 H     1 <1>   0.0800 
 42 H       -4.2660    -4.8410     2.3780 H     1 <1>   0.0800 
 43 H       -4.8090    -6.4910     2.2040 H     1 <1>   0.0800 
 44 H       -5.9160    -5.1720     1.9160 H     1 <1>   0.0800 
 45 H        7.4540    -6.6650    -0.9830 H     1 <1>   0.4500 
 46 H        8.0480    -5.9020     0.3640 H     1 <1>   0.4500 
@<TRIPOS>BOND
  1   1   2  1   
  2   1   3  1   
  3   2   4  ar  
  4   2   5  ar  
  5   3   6  1   
  6   3  20  1   
  7   3  21  1   
  8   4   7  ar  
  9   4  22  1   
 10   5   8  ar  
 11   5  23  1   
 12   6   9  1   
 13   6  24  1   
 14   6  25  1   
 15   7  10  ar  
 16   7  11  1   
 17   8  10  ar  
 18   8  26  1   
 19   9  12  1   
 20   9  13  1   
 21  10  14  1   
 22  11  27  1   
 23  11  28  1   
 24  11  29  1   
 25  12  15  1   
 26  12  30  1   
 27  12  31  1   
 28  13  16  1   
 29  13  32  1   
 30  13  33  1   
 31  14  17  1   
 32  14  18  1   
 33  14  34  1   
 34  15  19  1   
 35  15  35  1   
 36  15  36  1   
 37  16  19  1   
 38  16  37  1   
 39  16  38  1   
 40  17  39  1   
 41  17  40  1   
 42  17  41  1   
 43  18  42  1   
 44  18  43  1   
 45  18  44  1   
 46  19  45  1   
 47  19  46  1   
@<TRIPOS>SUBSTRUCTURE
  1 ****   1 GROUP 4 **** **** 0

# MOE 2024.06 (io_trps.svl 2023.06)
