@<TRIPOS>MOLECULE
NONAME
46 47 1 0 0 
SMALL
USER_CHARGES


@<TRIPOS>ATOM
  1 O        1.5860     0.9450     0.0140 O.2   1 <1>  -0.5700 
  2 C        0.9270     1.6020    -0.7530 C.2   1 <1>   0.5950 
  3 C        0.1990     2.7880    -0.3800 C.2   1 <1>  -0.0860 
  4 C        0.9190     1.1490    -2.1960 C.3   1 <1>  -0.1790 
  5 C        0.7440     3.8440     0.3970 C.2   1 <1>  -0.0860 
  6 C       -1.0810     3.1740    -0.7050 C.2   1 <1>  -0.3320 
  7 C       -0.2180     4.8200     0.4480 C.2   1 <1>  -0.3320 
  8 C        2.0570     3.8750     0.9870 C.2   1 <1>   0.5950 
  9 N       -1.3380     4.4220    -0.2150 N.pl3 1 <1>   0.0480 
 10 C       -2.1100     2.3500    -1.4760 C.3   1 <1>  -0.0600 
 11 C       -0.0750     6.1700     1.1410 C.3   1 <1>  -0.0600 
 12 O        2.9020     4.6790     0.6800 O.2   1 <1>  -0.5700 
 13 C        2.3960     2.9100     2.1000 C.3   1 <1>  -0.1790 
 14 C       -2.5750     5.2630    -0.3710 C.3   1 <1>   0.3190 
 15 C       -3.8470     4.5030     0.0330 C.ar  1 <1>  -0.1440 
 16 C       -2.5970     5.8890    -1.7730 C.3   1 <1>  -0.2400 
 17 C       -4.9550     4.3640    -0.7980 C.ar  1 <1>  -0.1500 
 18 C       -3.8920     3.9280     1.2970 C.ar  1 <1>  -0.1500 
 19 C       -6.0740     3.6660    -0.3780 C.ar  1 <1>  -0.1500 
 20 C       -5.0080     3.2300     1.7190 C.ar  1 <1>  -0.1500 
 21 C       -6.1060     3.0920     0.8890 C.ar  1 <1>   0.0820 
 22 O       -7.1600     2.3920     1.3770 O.3   1 <1>  -0.3620 
 23 C       -8.3320     2.2060     0.6160 C.3   1 <1>   0.0400 
 24 H        0.4910     1.9060    -2.8260 H     1 <1>   0.0800 
 25 H        0.3550     0.2410    -2.2850 H     1 <1>   0.0800 
 26 H        1.9290     0.9650    -2.5140 H     1 <1>   0.0800 
 27 H       -1.7280     1.3800    -1.7280 H     1 <1>   0.0800 
 28 H       -2.3950     2.8480    -2.3830 H     1 <1>   0.0800 
 29 H       -2.9860     2.1880    -0.8740 H     1 <1>   0.0800 
 30 H        0.9070     6.2830     1.5650 H     1 <1>   0.0800 
 31 H       -0.7940     6.2610     1.9350 H     1 <1>   0.0800 
 32 H       -0.2220     6.9670     0.4350 H     1 <1>   0.0800 
 33 H        1.5330     2.3280     2.3660 H     1 <1>   0.0800 
 34 H        2.7320     3.4580     2.9590 H     1 <1>   0.0800 
 35 H        3.1790     2.2510     1.7740 H     1 <1>   0.0800 
 36 H       -2.4990     6.0780     0.3230 H     1 <1>   0.0800 
 37 H       -2.7090     5.1350    -2.5290 H     1 <1>   0.0800 
 38 H       -1.6800     6.4220    -1.9470 H     1 <1>   0.0800 
 39 H       -3.4110     6.5860    -1.8510 H     1 <1>   0.0800 
 40 H       -4.9690     4.7910    -1.7840 H     1 <1>   0.1500 
 41 H       -3.0480     4.0150     1.9610 H     1 <1>   0.1500 
 42 H       -6.9080     3.5800    -1.0470 H     1 <1>   0.1500 
 43 H       -5.0340     2.7850     2.6980 H     1 <1>   0.1500 
 44 H       -9.0240     1.6310     1.2050 H     1 <1>   0.0800 
 45 H       -8.0840     1.6690    -0.2820 H     1 <1>   0.0800 
 46 H       -8.7570     3.1670     0.3880 H     1 <1>   0.0800 
@<TRIPOS>BOND
  1   1   2  2   
  2   2   3  1   
  3   2   4  1   
  4   3   5  1   
  5   3   6  2   
  6   4  24  1   
  7   4  25  1   
  8   4  26  1   
  9   5   7  2   
 10   5   8  1   
 11   6   9  1   
 12   6  10  1   
 13   7   9  1   
 14   7  11  1   
 15   8  12  2   
 16   8  13  1   
 17   9  14  1   
 18  10  27  1   
 19  10  28  1   
 20  10  29  1   
 21  11  30  1   
 22  11  31  1   
 23  11  32  1   
 24  13  33  1   
 25  13  34  1   
 26  13  35  1   
 27  14  15  1   
 28  14  16  1   
 29  14  36  1   
 30  15  17  ar  
 31  15  18  ar  
 32  16  37  1   
 33  16  38  1   
 34  16  39  1   
 35  17  19  ar  
 36  17  40  1   
 37  18  20  ar  
 38  18  41  1   
 39  19  21  ar  
 40  19  42  1   
 41  20  21  ar  
 42  20  43  1   
 43  21  22  1   
 44  22  23  1   
 45  23  44  1   
 46  23  45  1   
 47  23  46  1   
@<TRIPOS>SUBSTRUCTURE
  1 ****   9 GROUP 4 **** **** 0

# MOE 2024.06 (io_trps.svl 2023.06)
