@<TRIPOS>MOLECULE
NONAME
36 37 1 0 0 
SMALL
USER_CHARGES


@<TRIPOS>ATOM
  1 O       -1.3740     0.7200     0.8770 O.2   1 <1>  -0.5700 
  2 C       -1.3470     1.6240     0.0630 C.2   1 <1>   0.5440 
  3 N       -2.4000     1.6970    -0.8210 N.am  1 <1>  -0.6600 
  4 C       -0.2910     2.6230     0.0830 C.ar  1 <1>   0.0860 
  5 C       -3.1440     0.4490    -1.1560 C.3   1 <1>   0.1400 
  6 C       -3.2660     2.9090    -0.8110 C.3   1 <1>   0.1400 
  7 C        0.4000     2.9170     1.2600 C.ar  1 <1>  -0.1500 
  8 C        0.0720     3.3310    -1.0650 C.ar  1 <1>  -0.1500 
  9 C       -4.2780     0.2360    -0.1370 C.3   1 <1>   0.3430 
 10 C       -4.4270     2.7110     0.1880 C.3   1 <1>   0.3430 
 11 C        1.3890     3.8820     1.2960 C.ar  1 <1>  -0.1500 
 12 C        1.0590     4.2980    -1.0360 C.ar  1 <1>  -0.1500 
 13 N       -5.1940     1.4320    -0.0550 N.4   1 <1>  -0.9590 
 14 C        1.7180     4.5780     0.1470 C.ar  1 <1>  -0.1500 
 15 C       -6.2410     1.2160     0.9660 C.3   1 <1>   0.4810 
 16 C       -7.3440     2.2090     0.6880 C.2   1 <1>  -0.2880 
 17 C       -8.5170     1.9180     0.1160 C.2   1 <1>  -0.3000 
 18 H       -2.4720    -0.3930    -1.1230 H     1 <1>   0.0800 
 19 H       -3.5400     0.5150    -2.1540 H     1 <1>   0.0800 
 20 H       -3.6520     3.0860    -1.8000 H     1 <1>   0.0800 
 21 H       -2.6930     3.7730    -0.5210 H     1 <1>   0.0800 
 22 H        0.1570     2.3760     2.1590 H     1 <1>   0.1500 
 23 H       -0.4220     3.1170    -1.9970 H     1 <1>   0.1500 
 24 H       -3.8270     0.0550     0.8260 H     1 <1>   0.0800 
 25 H       -4.8390    -0.6430    -0.4110 H     1 <1>   0.0800 
 26 H       -5.0920     3.5560     0.1240 H     1 <1>   0.0800 
 27 H       -4.0110     2.6930     1.1820 H     1 <1>   0.0800 
 28 H        1.9060     4.0920     2.2170 H     1 <1>   0.1500 
 29 H        1.3220     4.8330    -1.9330 H     1 <1>   0.1500 
 30 H       -5.6900     1.5260    -0.9500 H     1 <1>   0.4500 
 31 H        2.4880     5.3300     0.1730 H     1 <1>   0.1500 
 32 H       -5.8470     1.3410     1.9620 H     1 <1>   0.0800 
 33 H       -6.6370     0.2170     0.8740 H     1 <1>   0.0800 
 34 H       -7.1050     3.2090     1.0100 H     1 <1>   0.1500 
 35 H       -9.2930     2.6460    -0.0650 H     1 <1>   0.1500 
 36 H       -8.8200     0.9380    -0.2190 H     1 <1>   0.1500 
@<TRIPOS>BOND
  1   1   2  2   
  2   2   3  am  
  3   2   4  1   
  4   3   5  1   
  5   3   6  1   
  6   4   7  ar  
  7   4   8  ar  
  8   5   9  1   
  9   5  18  1   
 10   5  19  1   
 11   6  10  1   
 12   6  20  1   
 13   6  21  1   
 14   7  11  ar  
 15   7  22  1   
 16   8  12  ar  
 17   8  23  1   
 18   9  13  1   
 19   9  24  1   
 20   9  25  1   
 21  10  13  1   
 22  10  26  1   
 23  10  27  1   
 24  11  14  ar  
 25  11  28  1   
 26  12  14  ar  
 27  12  29  1   
 28  13  15  1   
 29  13  30  1   
 30  14  31  1   
 31  15  16  1   
 32  15  32  1   
 33  15  33  1   
 34  16  17  2   
 35  16  34  1   
 36  17  35  1   
 37  17  36  1   
@<TRIPOS>SUBSTRUCTURE
  1 ****   3 GROUP 4 **** **** 0

# MOE 2024.06 (io_trps.svl 2023.06)
