@<TRIPOS>MOLECULE
NONAME
50 52 1 0 0 
SMALL
USER_CHARGES


@<TRIPOS>ATOM
  1 O       -3.0630     0.6280    -2.3330 O.2   1 <1>  -0.5700 
  2 C       -3.7190     0.4580    -1.3180 C.2   1 <1>   0.6900 
  3 N       -4.4800    -0.6980    -1.1840 N.am  1 <1>  -0.4200 
  4 N       -3.7070     1.4080    -0.3140 N.am  1 <1>  -0.4230 
  5 C       -5.2760    -0.8910    -0.0700 C.2   1 <1>   0.7150 
  6 C       -4.4600    -1.7120    -2.2800 C.3   1 <1>   0.0600 
  7 C       -4.4950     1.2080     0.8130 C.2   1 <1>   0.2900 
  8 C       -2.9070     2.6590    -0.4020 C.3   1 <1>   0.0600 
  9 O       -5.9880    -1.8780     0.0310 O.2   1 <1>  -0.5700 
 10 C       -5.2540     0.1000     0.9420 C.2   1 <1>  -0.2370 
 11 N       -4.6170     2.0330     1.8600 N.2   1 <1>  -0.5650 
 12 N       -5.8930     0.2300     2.1350 N.pl3 1 <1>   0.0480 
 13 C       -5.4650     1.4140     2.6230 C.2   1 <1>   0.0360 
 14 C       -6.8530    -0.7010     2.7660 C.3   1 <1>   0.1570 
 15 C       -8.2360    -0.4860     2.1920 C.2   1 <1>   0.5690 
 16 O       -9.0270     0.1700     2.8250 O.2   1 <1>  -0.5700 
 17 N       -8.5350    -1.0280     0.9840 N.am  1 <1>  -0.7300 
 18 C       -9.7650    -0.7850     0.2130 C.3   1 <1>   0.2200 
 19 C      -10.3210    -2.1480    -0.2210 C.3   1 <1>  -0.1600 
 20 C       -9.4070     0.1400    -0.9680 C.3   1 <1>  -0.1600 
 21 C      -11.8380    -2.1650    -0.4750 C.3   1 <1>  -0.1600 
 22 C      -10.2630     1.4140    -1.0130 C.3   1 <1>  -0.1600 
 23 C      -12.3290    -1.2230    -1.5850 C.3   1 <1>  -0.1600 
 24 C      -11.6080     1.2560    -1.7400 C.3   1 <1>  -0.1600 
 25 C      -12.5700     0.2290    -1.1220 C.3   1 <1>  -0.1600 
 26 H       -3.4600    -1.8180    -2.6630 H     1 <1>   0.0800 
 27 H       -5.1070    -1.3890    -3.0770 H     1 <1>   0.0800 
 28 H       -4.7890    -2.6720    -1.9240 H     1 <1>   0.0800 
 29 H       -2.2920     2.6650    -1.2850 H     1 <1>   0.0800 
 30 H       -2.2740     2.7400     0.4640 H     1 <1>   0.0800 
 31 H       -3.5700     3.5050    -0.4300 H     1 <1>   0.0800 
 32 H       -5.8120     1.8010     3.5670 H     1 <1>   0.1500 
 33 H       -6.8770    -0.5200     3.8240 H     1 <1>   0.0800 
 34 H       -6.5390    -1.7120     2.5940 H     1 <1>   0.0800 
 35 H       -7.8090    -1.5530     0.4760 H     1 <1>   0.3700 
 36 H      -10.4800    -0.3070     0.8630 H     1 <1>   0.0800 
 37 H      -10.1350    -2.8580     0.5660 H     1 <1>   0.0800 
 38 H       -9.8030    -2.4960    -1.0970 H     1 <1>   0.0800 
 39 H       -9.4850    -0.3770    -1.9070 H     1 <1>   0.0800 
 40 H       -8.3820     0.4550    -0.8740 H     1 <1>   0.0800 
 41 H      -12.3620    -1.9530     0.4420 H     1 <1>   0.0800 
 42 H      -12.1030    -3.1700    -0.7550 H     1 <1>   0.0800 
 43 H       -9.7040     2.1720    -1.5350 H     1 <1>   0.0800 
 44 H      -10.4250     1.7830    -0.0140 H     1 <1>   0.0800 
 45 H      -13.2760    -1.6070    -1.9270 H     1 <1>   0.0800 
 46 H      -11.6650    -1.2630    -2.4310 H     1 <1>   0.0800 
 47 H      -11.4370     1.0230    -2.7770 H     1 <1>   0.0800 
 48 H      -12.0950     2.2160    -1.7160 H     1 <1>   0.0800 
 49 H      -12.5600     0.3100    -0.0490 H     1 <1>   0.0800 
 50 H      -13.5630     0.5010    -1.4350 H     1 <1>   0.0800 
@<TRIPOS>BOND
  1   1   2  2   
  2   2   3  am  
  3   2   4  am  
  4   3   5  am  
  5   3   6  1   
  6   4   7  1   
  7   4   8  1   
  8   5   9  2   
  9   5  10  1   
 10   6  26  1   
 11   6  27  1   
 12   6  28  1   
 13   7  10  2   
 14   7  11  1   
 15   8  29  1   
 16   8  30  1   
 17   8  31  1   
 18  10  12  1   
 19  11  13  2   
 20  12  13  1   
 21  12  14  1   
 22  13  32  1   
 23  14  15  1   
 24  14  33  1   
 25  14  34  1   
 26  15  16  2   
 27  15  17  am  
 28  17  18  1   
 29  17  35  1   
 30  18  19  1   
 31  18  20  1   
 32  18  36  1   
 33  19  21  1   
 34  19  37  1   
 35  19  38  1   
 36  20  22  1   
 37  20  39  1   
 38  20  40  1   
 39  21  23  1   
 40  21  41  1   
 41  21  42  1   
 42  22  24  1   
 43  22  43  1   
 44  22  44  1   
 45  23  25  1   
 46  23  45  1   
 47  23  46  1   
 48  24  25  1   
 49  24  47  1   
 50  24  48  1   
 51  25  49  1   
 52  25  50  1   
@<TRIPOS>SUBSTRUCTURE
  1 ****  17 GROUP 4 **** **** 0

# MOE 2024.06 (io_trps.svl 2023.06)
