@<TRIPOS>MOLECULE
NONAME
53 55 1 0 0 
SMALL
USER_CHARGES


@<TRIPOS>ATOM
  1 O        0.6580    -0.7530    -2.8540 O.2   1 <1>  -0.5700 
  2 C        0.0610    -1.1630    -1.8880 C.2   1 <1>   0.5690 
  3 N        0.6370    -1.3200    -0.6520 N.am  1 <1>  -0.5470 
  4 C       -1.4010    -1.6010    -2.0560 C.3   1 <1>   0.1710 
  5 C        1.9190    -1.0070    -0.1730 C.ar  1 <1>   0.1170 
  6 N       -2.4420    -0.6590    -1.5540 N.3   1 <1>  -0.8100 
  7 C        2.3550    -1.6180     0.9970 C.ar  1 <1>  -0.1500 
  8 C        2.7660    -0.1010    -0.8010 C.ar  1 <1>  -0.1500 
  9 C       -3.7970    -1.1590    -1.8970 C.3   1 <1>   0.1100 
 10 C       -2.3500    -0.3720    -0.1000 C.3   1 <1>   0.1100 
 11 C        3.6020    -1.3390     1.5300 C.ar  1 <1>  -0.1430 
 12 C        4.0180     0.1840    -0.2820 C.ar  1 <1>  -0.1430 
 13 C       -4.9200    -0.2270    -1.4030 C.3   1 <1>   0.2090 
 14 C       -3.4740     0.5590     0.3940 C.3   1 <1>   0.2090 
 15 C        4.4300    -0.4370     0.8840 C.ar  1 <1>  -0.1500 
 16 C        4.0710    -2.0140     2.8070 C.3   1 <1>  -0.0970 
 17 C        4.9340     1.1720    -0.9810 C.3   1 <1>  -0.0970 
 18 N       -4.8090    -0.0130     0.0670 N.pl3 1 <1>  -0.8380 
 19 C       -5.9050     0.6170     0.6730 C.ar  1 <1>   0.1000 
 20 C       -6.3030     1.9440     0.4220 C.ar  1 <1>   0.0830 
 21 C       -6.6350    -0.1350     1.5820 C.ar  1 <1>  -0.1500 
 22 O       -5.5810     2.6840    -0.4760 O.3   1 <1>  -0.3630 
 23 C       -7.4100     2.4670     1.0860 C.ar  1 <1>  -0.1500 
 24 C       -7.7330     0.3910     2.2370 C.ar  1 <1>  -0.1500 
 25 C       -5.9300     4.0130    -0.7910 C.3   1 <1>   0.0400 
 26 C       -8.1210     1.6940     1.9890 C.ar  1 <1>  -0.1500 
 27 H        0.0240    -1.7320     0.0440 H     1 <1>   0.3700 
 28 H       -1.5260    -2.5560    -1.5780 H     1 <1>   0.0800 
 29 H       -1.5600    -1.7470    -3.1090 H     1 <1>   0.0800 
 30 H        1.7140    -2.3220     1.4940 H     1 <1>   0.1500 
 31 H        2.4450     0.3900    -1.7000 H     1 <1>   0.1500 
 32 H       -3.9480    -2.1300    -1.4590 H     1 <1>   0.0800 
 33 H       -3.8790    -1.2550    -2.9650 H     1 <1>   0.0800 
 34 H       -1.4130     0.1120     0.1110 H     1 <1>   0.0800 
 35 H       -2.4000    -1.2890     0.4590 H     1 <1>   0.0800 
 36 H       -5.8780    -0.6620    -1.6270 H     1 <1>   0.0800 
 37 H       -4.8490     0.7150    -1.9180 H     1 <1>   0.0800 
 38 H       -3.3630     1.5230    -0.0730 H     1 <1>   0.0800 
 39 H       -3.3950     0.6910     1.4590 H     1 <1>   0.0800 
 40 H        5.4020    -0.2170     1.2900 H     1 <1>   0.1500 
 41 H        3.2430    -2.4450     3.3390 H     1 <1>   0.0800 
 42 H        4.5510    -1.2970     3.4490 H     1 <1>   0.0800 
 43 H        4.7730    -2.7920     2.5680 H     1 <1>   0.0800 
 44 H        4.6080     1.3450    -1.9910 H     1 <1>   0.0800 
 45 H        5.9380     0.7880    -1.0110 H     1 <1>   0.0800 
 46 H        4.9330     2.1070    -0.4520 H     1 <1>   0.0800 
 47 H       -6.3280    -1.1470     1.7690 H     1 <1>   0.1500 
 48 H       -7.7400     3.4730     0.9190 H     1 <1>   0.1500 
 49 H       -8.2820    -0.2140     2.9370 H     1 <1>   0.1500 
 50 H       -5.2270     4.3780    -1.5180 H     1 <1>   0.0800 
 51 H       -5.8730     4.6100     0.1030 H     1 <1>   0.0800 
 52 H       -6.9230     4.0260    -1.2040 H     1 <1>   0.0800 
 53 H       -8.9750     2.1070     2.4970 H     1 <1>   0.1500 
@<TRIPOS>BOND
  1   1   2  2   
  2   2   3  am  
  3   2   4  1   
  4   3   5  1   
  5   3  27  1   
  6   4   6  1   
  7   4  28  1   
  8   4  29  1   
  9   5   7  ar  
 10   5   8  ar  
 11   6   9  1   
 12   6  10  1   
 13   7  11  ar  
 14   7  30  1   
 15   8  12  ar  
 16   8  31  1   
 17   9  13  1   
 18   9  32  1   
 19   9  33  1   
 20  10  14  1   
 21  10  34  1   
 22  10  35  1   
 23  11  15  ar  
 24  11  16  1   
 25  12  15  ar  
 26  12  17  1   
 27  13  18  1   
 28  13  36  1   
 29  13  37  1   
 30  14  18  1   
 31  14  38  1   
 32  14  39  1   
 33  15  40  1   
 34  16  41  1   
 35  16  42  1   
 36  16  43  1   
 37  17  44  1   
 38  17  45  1   
 39  17  46  1   
 40  18  19  1   
 41  19  20  ar  
 42  19  21  ar  
 43  20  22  1   
 44  20  23  ar  
 45  21  24  ar  
 46  21  47  1   
 47  22  25  1   
 48  23  26  ar  
 49  23  48  1   
 50  24  26  ar  
 51  24  49  1   
 52  25  50  1   
 53  25  51  1   
 54  25  52  1   
 55  26  53  1   
@<TRIPOS>SUBSTRUCTURE
  1 ****  10 GROUP 4 **** **** 0

# MOE 2024.06 (io_trps.svl 2023.06)
