@<TRIPOS>MOLECULE
NONAME
45 46 1 0 0 
SMALL
USER_CHARGES


@<TRIPOS>ATOM
  1 O        0.1670    -0.4850     0.7460 O.3   1 <1>  -0.3630 
  2 C       -1.0160    -0.8550     0.2060 C.ar  1 <1>   0.0830 
  3 C        1.3010    -0.6950    -0.0640 C.3   1 <1>   0.1200 
  4 C       -1.7530     0.0660    -0.5340 C.ar  1 <1>  -0.1440 
  5 C       -1.4890    -2.1510     0.4060 C.ar  1 <1>  -0.1440 
  6 C        2.5300    -0.2410     0.7160 C.3   1 <1>   0.1200 
  7 C       -2.9520    -0.3310    -1.1030 C.ar  1 <1>  -0.1500 
  8 C       -1.2750     1.4980    -0.7280 C.3   1 <1>  -0.0960 
  9 C       -2.6900    -2.5260    -0.1720 C.ar  1 <1>  -0.1500 
 10 C       -0.7190    -3.1590     1.2470 C.3   1 <1>  -0.0960 
 11 O        3.6650    -0.4440    -0.0730 O.3   1 <1>  -0.5600 
 12 C       -3.4170    -1.6220    -0.9270 C.ar  1 <1>  -0.1500 
 13 C        4.8570    -0.0740     0.5350 C.3   1 <1>   0.1200 
 14 C        5.9880    -0.3820    -0.4550 C.3   1 <1>   0.3430 
 15 N        7.3440    -0.0530     0.0930 N.4   1 <1>  -0.9590 
 16 C        7.5770     1.3970     0.3140 C.3   1 <1>   0.3430 
 17 C        8.4320    -0.4980    -0.8120 C.3   1 <1>   0.3430 
 18 C        9.0930     1.5360     0.3560 C.3   1 <1>  -0.1600 
 19 C        9.6470     0.3040    -0.3650 C.3   1 <1>  -0.1600 
 20 H        1.1850    -0.1200    -0.9650 H     1 <1>   0.0800 
 21 H        1.3620    -1.7430    -0.2970 H     1 <1>   0.0800 
 22 H        2.6240    -0.8210     1.6190 H     1 <1>   0.0800 
 23 H        2.4490     0.8070     0.9480 H     1 <1>   0.0800 
 24 H       -3.5320     0.3620    -1.6860 H     1 <1>   0.1500 
 25 H       -0.5310     1.5340    -1.5020 H     1 <1>   0.0800 
 26 H       -0.8490     1.8730     0.1860 H     1 <1>   0.0800 
 27 H       -2.0920     2.1390    -1.0040 H     1 <1>   0.0800 
 28 H       -3.0680    -3.5240    -0.0380 H     1 <1>   0.1500 
 29 H        0.0790    -3.5860     0.6680 H     1 <1>   0.0800 
 30 H       -1.3660    -3.9500     1.5800 H     1 <1>   0.0800 
 31 H       -0.3040    -2.6780     2.1150 H     1 <1>   0.0800 
 32 H       -4.3480    -1.9230    -1.3730 H     1 <1>   0.1500 
 33 H        4.9720    -0.6500     1.4370 H     1 <1>   0.0800 
 34 H        4.8110     0.9780     0.7570 H     1 <1>   0.0800 
 35 H        5.8170     0.1780    -1.3590 H     1 <1>   0.0800 
 36 H        5.9450    -1.4320    -0.6940 H     1 <1>   0.0800 
 37 H        7.4820    -0.5370     0.9900 H     1 <1>   0.4500 
 38 H        7.1200     1.7440     1.2280 H     1 <1>   0.0800 
 39 H        7.1890     1.9620    -0.5190 H     1 <1>   0.0800 
 40 H        8.1890    -0.2420    -1.8310 H     1 <1>   0.0800 
 41 H        8.6060    -1.5600    -0.7410 H     1 <1>   0.0800 
 42 H        9.4310     1.5580     1.3780 H     1 <1>   0.0800 
 43 H        9.3990     2.4510    -0.1230 H     1 <1>   0.0800 
 44 H       10.2510     0.5750    -1.2140 H     1 <1>   0.0800 
 45 H       10.2470    -0.2860     0.3060 H     1 <1>   0.0800 
@<TRIPOS>BOND
  1   1   2  1   
  2   1   3  1   
  3   2   4  ar  
  4   2   5  ar  
  5   3   6  1   
  6   3  20  1   
  7   3  21  1   
  8   4   7  ar  
  9   4   8  1   
 10   5   9  ar  
 11   5  10  1   
 12   6  11  1   
 13   6  22  1   
 14   6  23  1   
 15   7  12  ar  
 16   7  24  1   
 17   8  25  1   
 18   8  26  1   
 19   8  27  1   
 20   9  12  ar  
 21   9  28  1   
 22  10  29  1   
 23  10  30  1   
 24  10  31  1   
 25  11  13  1   
 26  12  32  1   
 27  13  14  1   
 28  13  33  1   
 29  13  34  1   
 30  14  15  1   
 31  14  35  1   
 32  14  36  1   
 33  15  16  1   
 34  15  17  1   
 35  15  37  1   
 36  16  18  1   
 37  16  38  1   
 38  16  39  1   
 39  17  19  1   
 40  17  40  1   
 41  17  41  1   
 42  18  19  1   
 43  18  42  1   
 44  18  43  1   
 45  19  44  1   
 46  19  45  1   
@<TRIPOS>SUBSTRUCTURE
  1 ****   6 GROUP 4 **** **** 0

# MOE 2024.06 (io_trps.svl 2023.06)
