@<TRIPOS>MOLECULE
NONAME
49 50 1 0 0 
SMALL
USER_CHARGES


@<TRIPOS>ATOM
  1 S       -0.1030    -0.1510     1.2210 S.o2  1 <1>   1.4470 
  2 O        0.0790    -1.4770     1.7740 O.2   1 <1>  -0.6500 
  3 O        0.4710     0.9760     1.9270 O.2   1 <1>  -0.6500 
  4 N        0.5370    -0.1440    -0.3600 N.am  1 <1>  -0.8490 
  5 C       -1.8820     0.1020     0.9680 C.ar  1 <1>  -0.0090 
  6 C        1.6630    -1.0680    -0.5200 C.3   1 <1>   0.1960 
  7 C        0.8730     1.1870    -0.8790 C.3   1 <1>   0.1960 
  8 C       -2.5890     1.0520     1.6970 C.ar  1 <1>  -0.1500 
  9 C       -2.5870    -0.6530     0.0400 C.ar  1 <1>  -0.1500 
 10 C        1.1420    -2.3860    -1.0860 C.3   1 <1>  -0.2400 
 11 C       -0.3800     2.0200    -1.1430 C.3   1 <1>  -0.2400 
 12 C       -3.9440     1.2650     1.5070 C.ar  1 <1>  -0.1430 
 13 C       -3.9380    -0.4520    -0.1650 C.ar  1 <1>  -0.1500 
 14 C       -4.6310     0.5150     0.5500 C.ar  1 <1>   0.1170 
 15 C       -4.6340     2.3180     2.3660 C.3   1 <1>  -0.0970 
 16 N       -5.9890     0.6950     0.2730 N.am  1 <1>  -0.5470 
 17 C       -6.6450     1.7730    -0.2520 C.2   1 <1>   0.5440 
 18 O       -7.8440     1.6450    -0.3880 O.2   1 <1>  -0.5700 
 19 C       -5.9560     2.9950    -0.6420 C.ar  1 <1>   0.0860 
 20 C       -6.3580     4.2670    -0.2060 C.ar  1 <1>  -0.1440 
 21 C       -4.8420     2.9250    -1.4820 C.ar  1 <1>  -0.1500 
 22 C       -5.6600     5.3980    -0.5980 C.ar  1 <1>  -0.1500 
 23 C       -7.5660     4.4410     0.7080 C.3   1 <1>  -0.0970 
 24 C       -4.1460     4.0550    -1.8680 C.ar  1 <1>  -0.1500 
 25 C       -4.5560     5.2960    -1.4240 C.ar  1 <1>  -0.1500 
 26 H        2.1680    -1.2290     0.4200 H     1 <1>   0.0800 
 27 H        2.3890    -0.6750    -1.2120 H     1 <1>   0.0800 
 28 H        1.3850     1.0800    -1.8220 H     1 <1>   0.0800 
 29 H        1.5360     1.7040    -0.2020 H     1 <1>   0.0800 
 30 H       -2.0560     1.6360     2.4290 H     1 <1>   0.1500 
 31 H       -2.0640    -1.4040    -0.5280 H     1 <1>   0.1500 
 32 H        0.4520    -2.8480    -0.4030 H     1 <1>   0.0800 
 33 H        1.9630    -3.0610    -1.2410 H     1 <1>   0.0800 
 34 H        0.6540    -2.2170    -2.0290 H     1 <1>   0.0800 
 35 H       -1.0920     1.4550    -1.7180 H     1 <1>   0.0800 
 36 H       -0.1110     2.8970    -1.7020 H     1 <1>   0.0800 
 37 H       -0.8280     2.3480    -0.2240 H     1 <1>   0.0800 
 38 H       -4.4610    -1.0450    -0.8940 H     1 <1>   0.1500 
 39 H       -4.1400     2.4100     3.3170 H     1 <1>   0.0800 
 40 H       -5.6590     2.0540     2.5510 H     1 <1>   0.0800 
 41 H       -4.6000     3.2720     1.8720 H     1 <1>   0.0800 
 42 H       -6.6020    -0.1110     0.3980 H     1 <1>   0.3700 
 43 H       -4.5160     1.9640    -1.8390 H     1 <1>   0.1500 
 44 H       -5.9720     6.3720    -0.2640 H     1 <1>   0.1500 
 45 H       -7.5030     3.7720     1.5470 H     1 <1>   0.0800 
 46 H       -8.4680     4.2220     0.1630 H     1 <1>   0.0800 
 47 H       -7.6310     5.4460     1.0820 H     1 <1>   0.0800 
 48 H       -3.2900     3.9690    -2.5140 H     1 <1>   0.1500 
 49 H       -4.0210     6.1820    -1.7220 H     1 <1>   0.1500 
@<TRIPOS>BOND
  1   1   2  2   
  2   1   3  2   
  3   1   4  am  
  4   1   5  1   
  5   4   6  1   
  6   4   7  1   
  7   5   8  ar  
  8   5   9  ar  
  9   6  10  1   
 10   6  26  1   
 11   6  27  1   
 12   7  11  1   
 13   7  28  1   
 14   7  29  1   
 15   8  12  ar  
 16   8  30  1   
 17   9  13  ar  
 18   9  31  1   
 19  10  32  1   
 20  10  33  1   
 21  10  34  1   
 22  11  35  1   
 23  11  36  1   
 24  11  37  1   
 25  12  14  ar  
 26  12  15  1   
 27  13  14  ar  
 28  13  38  1   
 29  14  16  1   
 30  15  39  1   
 31  15  40  1   
 32  15  41  1   
 33  16  17  am  
 34  16  42  1   
 35  17  18  2   
 36  17  19  1   
 37  19  20  ar  
 38  19  21  ar  
 39  20  22  ar  
 40  20  23  1   
 41  21  24  ar  
 42  21  43  1   
 43  22  25  ar  
 44  22  44  1   
 45  23  45  1   
 46  23  46  1   
 47  23  47  1   
 48  24  25  ar  
 49  24  48  1   
 50  25  49  1   
@<TRIPOS>SUBSTRUCTURE
  1 ****  12 GROUP 4 **** **** 0

# MOE 2024.06 (io_trps.svl 2023.06)
