@<TRIPOS>MOLECULE
NONAME
27 27 1 0 0 
SMALL
USER_CHARGES


@<TRIPOS>ATOM
  1 S        0.0000     0.3090     0.0150 S.o2  1 <1>   1.4470 
  2 O        0.2030     1.1870    -1.1130 O.2   1 <1>  -0.6500 
  3 O        0.0630     0.8210     1.3640 O.2   1 <1>  -0.6500 
  4 N        1.2220    -0.8270    -0.1440 N.am  1 <1>  -0.9140 
  5 C       -1.5080    -0.6750    -0.2050 C.ar  1 <1>  -0.0090 
  6 C        2.4650    -0.4020     0.4650 C.3   1 <1>   0.1960 
  7 C       -2.4010    -0.4080    -1.2360 C.ar  1 <1>  -0.1500 
  8 C       -1.8060    -1.7270     0.6580 C.ar  1 <1>  -0.1500 
  9 C        3.5350    -1.4300     0.1220 C.3   1 <1>  -0.2400 
 10 C       -3.5390    -1.1770    -1.3790 C.ar  1 <1>   0.1900 
 11 C       -2.9510    -2.4970     0.5110 C.ar  1 <1>  -0.1500 
 12 F       -4.3490    -0.8880    -2.3660 F     1 <1>  -0.1900 
 13 C       -3.8440    -2.2290    -0.5220 C.ar  1 <1>   0.0830 
 14 O       -4.9850    -2.9400    -0.7300 O.3   1 <1>  -0.3630 
 15 C       -5.3550    -4.0110     0.1100 C.3   1 <1>   0.0400 
 16 H        1.3850    -0.8580    -1.1480 H     1 <1>   0.4200 
 17 H        2.3460    -0.3410     1.5350 H     1 <1>   0.0800 
 18 H        2.7510     0.5700     0.0930 H     1 <1>   0.0800 
 19 H       -2.2160     0.3960    -1.9280 H     1 <1>   0.1500 
 20 H       -1.1230    -1.9460     1.4630 H     1 <1>   0.1500 
 21 H        3.2510    -2.3990     0.4930 H     1 <1>   0.0800 
 22 H        4.4640    -1.1480     0.5830 H     1 <1>   0.0800 
 23 H        3.6850    -1.4810    -0.9420 H     1 <1>   0.0800 
 24 H       -3.1270    -3.2950     1.2080 H     1 <1>   0.1500 
 25 H       -6.2860    -4.4100    -0.2500 H     1 <1>   0.0800 
 26 H       -5.4780    -3.6430     1.1130 H     1 <1>   0.0800 
 27 H       -4.5930    -4.7690     0.0660 H     1 <1>   0.0800 
@<TRIPOS>BOND
  1   1   2  2   
  2   1   3  2   
  3   1   4  am  
  4   1   5  1   
  5   4   6  1   
  6   4  16  1   
  7   5   7  ar  
  8   5   8  ar  
  9   6   9  1   
 10   6  17  1   
 11   6  18  1   
 12   7  10  ar  
 13   7  19  1   
 14   8  11  ar  
 15   8  20  1   
 16   9  21  1   
 17   9  22  1   
 18   9  23  1   
 19  10  12  1   
 20  10  13  ar  
 21  11  13  ar  
 22  11  24  1   
 23  13  14  1   
 24  14  15  1   
 25  15  25  1   
 26  15  26  1   
 27  15  27  1   
@<TRIPOS>SUBSTRUCTURE
  1 ****   5 GROUP 4 **** **** 0

# MOE 2024.06 (io_trps.svl 2023.06)
