@<TRIPOS>MOLECULE
NONAME
40 41 1 0 0 
SMALL
USER_CHARGES


@<TRIPOS>ATOM
  1 O        0.6820    -0.2350     1.7380 O.2   1 <1>  -0.5700 
  2 C        1.5220    -0.8240     1.0730 C.2   1 <1>   0.7060 
  3 O        2.7040    -0.2130     0.9410 O.3   1 <1>  -0.2320 
  4 C        1.3480    -2.1330     0.5100 C.2   1 <1>   0.1230 
  5 C        3.7620    -0.7920     0.3390 C.ar  1 <1>   0.0830 
  6 N        0.0900    -2.7930     0.6110 N.am  1 <1>  -0.5390 
  7 C        2.4000    -2.7720    -0.0930 C.2   1 <1>   0.0720 
  8 C        3.6570    -2.0780    -0.2050 C.ar  1 <1>   0.0280 
  9 C        4.9470    -0.0750     0.2720 C.ar  1 <1>  -0.1500 
 10 C       -1.0660    -2.3670     0.0500 C.2   1 <1>   0.6900 
 11 N        2.2690    -4.0630    -0.6110 N.pl3 1 <1>  -0.8690 
 12 C        4.7870    -2.5940    -0.8480 C.ar  1 <1>  -0.1500 
 13 C        6.0530    -0.6180    -0.3510 C.ar  1 <1>  -0.1500 
 14 O       -1.0570    -1.4690    -0.7690 O.2   1 <1>  -0.5700 
 15 N       -2.2050    -3.0090     0.4170 N.am  1 <1>  -0.7300 
 16 C        2.9310    -5.2130     0.0350 C.3   1 <1>   0.2090 
 17 C        5.9680    -1.8810    -0.9160 C.ar  1 <1>  -0.1500 
 18 C       -3.5800    -2.7410    -0.0460 C.3   1 <1>   0.2200 
 19 C        1.8920    -5.9760     0.8450 C.3   1 <1>  -0.2400 
 20 C       -3.6910    -2.9570    -1.5540 C.3   1 <1>  -0.2400 
 21 C       -4.0110    -1.3360     0.3710 C.3   1 <1>  -0.2400 
 22 H        0.1300    -3.7830     0.8230 H     1 <1>   0.3700 
 23 H        4.9960     0.9080     0.7070 H     1 <1>   0.1500 
 24 H        1.3540    -4.2940    -1.0180 H     1 <1>   0.4000 
 25 H        4.7330    -3.5650    -1.3060 H     1 <1>   0.1500 
 26 H        6.9740    -0.0640    -0.4050 H     1 <1>   0.1500 
 27 H       -2.1700    -3.4790     1.3170 H     1 <1>   0.3700 
 28 H        3.7240    -4.8680     0.6800 H     1 <1>   0.0800 
 29 H        3.3570    -5.8500    -0.7220 H     1 <1>   0.0800 
 30 H        6.8250    -2.3030    -1.4120 H     1 <1>   0.1500 
 31 H       -4.2320    -3.4490     0.4380 H     1 <1>   0.0800 
 32 H        1.4990    -5.3530     1.6280 H     1 <1>   0.0800 
 33 H        2.3550    -6.8340     1.3000 H     1 <1>   0.0800 
 34 H        1.0950    -6.3180     0.2100 H     1 <1>   0.0800 
 35 H       -3.1100    -2.2290    -2.0900 H     1 <1>   0.0800 
 36 H       -4.7160    -2.8570    -1.8610 H     1 <1>   0.0800 
 37 H       -3.3520    -3.9420    -1.8140 H     1 <1>   0.0800 
 38 H       -3.4160    -0.5910    -0.1280 H     1 <1>   0.0800 
 39 H       -3.9090    -1.2140     1.4330 H     1 <1>   0.0800 
 40 H       -5.0400    -1.1760     0.1060 H     1 <1>   0.0800 
@<TRIPOS>BOND
  1   1   2  2   
  2   2   3  1   
  3   2   4  1   
  4   3   5  1   
  5   4   6  1   
  6   4   7  2   
  7   5   8  ar  
  8   5   9  ar  
  9   6  10  am  
 10   6  22  1   
 11   7   8  1   
 12   7  11  1   
 13   8  12  ar  
 14   9  13  ar  
 15   9  23  1   
 16  10  14  2   
 17  10  15  am  
 18  11  16  1   
 19  11  24  1   
 20  12  17  ar  
 21  12  25  1   
 22  13  17  ar  
 23  13  26  1   
 24  15  18  1   
 25  15  27  1   
 26  16  19  1   
 27  16  28  1   
 28  16  29  1   
 29  17  30  1   
 30  18  20  1   
 31  18  21  1   
 32  18  31  1   
 33  19  32  1   
 34  19  33  1   
 35  19  34  1   
 36  20  35  1   
 37  20  36  1   
 38  20  37  1   
 39  21  38  1   
 40  21  39  1   
 41  21  40  1   
@<TRIPOS>SUBSTRUCTURE
  1 ****   4 GROUP 4 **** **** 0

# MOE 2024.06 (io_trps.svl 2023.06)
