@<TRIPOS>MOLECULE
NONAME
41 43 1 0 0 
SMALL
USER_CHARGES


@<TRIPOS>ATOM
  1 S       -0.1530    -0.5880     1.3820 S.o2  1 <1>   1.5760 
  2 O        0.7130     0.5680     1.3340 O.2   1 <1>  -0.6500 
  3 O       -0.6430    -1.0950     2.6440 O.2   1 <1>  -0.6500 
  4 N        0.5950    -1.8480     0.5490 N.am  1 <1>  -0.8490 
  5 N       -1.4750    -0.3200     0.3700 N.am  1 <1>  -0.8490 
  6 C        1.2000    -1.3900    -0.7110 C.3   1 <1>   0.1960 
  7 C        1.6290    -2.4810     1.3770 C.3   1 <1>   0.1960 
  8 C       -2.1280     0.9580     0.6970 C.3   1 <1>   0.1960 
  9 C       -2.4510    -1.4190     0.4530 C.3   1 <1>   0.1960 
 10 C        1.9090    -2.5500    -1.4340 C.3   1 <1>   0.1200 
 11 C        2.3360    -3.6130     0.6100 C.3   1 <1>   0.1200 
 12 C       -3.2890     1.2550    -0.2650 C.3   1 <1>   0.1400 
 13 C       -3.6350    -1.2060    -0.5070 C.3   1 <1>   0.1400 
 14 O        2.8640    -3.1390    -0.5970 O.3   1 <1>  -0.5600 
 15 N       -4.2730     0.1280    -0.2820 N.am  1 <1>  -0.6600 
 16 C       -5.5500     0.2770     0.2190 C.2   1 <1>   0.7150 
 17 O       -5.7880     1.2490     0.9130 O.2   1 <1>  -0.5700 
 18 C       -6.5870    -0.6850    -0.0690 C.2   1 <1>  -0.0450 
 19 S       -7.8470    -0.9620     1.1390 S.3   1 <1>  -0.0800 
 20 C       -6.8350    -1.4850    -1.1400 C.2   1 <1>  -0.1500 
 21 C       -8.6450    -2.1580     0.1420 C.2   1 <1>  -0.1100 
 22 C       -7.9880    -2.3150    -1.0210 C.2   1 <1>  -0.1500 
 23 H        1.9190    -0.6100    -0.5230 H     1 <1>   0.0800 
 24 H        0.4350    -0.9890    -1.3550 H     1 <1>   0.0800 
 25 H        1.1780    -2.8900     2.2660 H     1 <1>   0.0800 
 26 H        2.3600    -1.7500     1.6810 H     1 <1>   0.0800 
 27 H       -1.4110     1.7590     0.6240 H     1 <1>   0.0800 
 28 H       -2.5000     0.9370     1.7080 H     1 <1>   0.0800 
 29 H       -2.8300    -1.5030     1.4590 H     1 <1>   0.0800 
 30 H       -1.9680    -2.3490     0.2060 H     1 <1>   0.0800 
 31 H        2.4180    -2.1880    -2.3090 H     1 <1>   0.0800 
 32 H        1.1980    -3.3010    -1.7290 H     1 <1>   0.0800 
 33 H        1.6470    -4.4110     0.3950 H     1 <1>   0.0800 
 34 H        3.1500    -4.0060     1.1930 H     1 <1>   0.0800 
 35 H       -2.8960     1.3930    -1.2570 H     1 <1>   0.0800 
 36 H       -3.7660     2.1740     0.0270 H     1 <1>   0.0800 
 37 H       -4.3440    -1.9990    -0.3520 H     1 <1>   0.0800 
 38 H       -3.2830    -1.2630    -1.5220 H     1 <1>   0.0800 
 39 H       -6.2330    -1.5120    -2.0320 H     1 <1>   0.1500 
 40 H       -9.5330    -2.6210     0.5350 H     1 <1>   0.1500 
 41 H       -8.2750    -2.9880    -1.8100 H     1 <1>   0.1500 
@<TRIPOS>BOND
  1   1   2  2   
  2   1   3  2   
  3   1   4  am  
  4   1   5  am  
  5   4   6  1   
  6   4   7  1   
  7   5   8  1   
  8   5   9  1   
  9   6  10  1   
 10   6  23  1   
 11   6  24  1   
 12   7  11  1   
 13   7  25  1   
 14   7  26  1   
 15   8  12  1   
 16   8  27  1   
 17   8  28  1   
 18   9  13  1   
 19   9  29  1   
 20   9  30  1   
 21  10  14  1   
 22  10  31  1   
 23  10  32  1   
 24  11  14  1   
 25  11  33  1   
 26  11  34  1   
 27  12  15  1   
 28  12  35  1   
 29  12  36  1   
 30  13  15  1   
 31  13  37  1   
 32  13  38  1   
 33  15  16  am  
 34  16  17  2   
 35  16  18  1   
 36  18  19  1   
 37  18  20  2   
 38  19  21  1   
 39  20  22  1   
 40  20  39  1   
 41  21  22  2   
 42  21  40  1   
 43  22  41  1   
@<TRIPOS>SUBSTRUCTURE
  1 ****   9 GROUP 4 **** **** 0

# MOE 2024.06 (io_trps.svl 2023.06)
