@<TRIPOS>MOLECULE
NONAME
48 50 1 0 0 
SMALL
USER_CHARGES


@<TRIPOS>ATOM
  1 O       -0.3560     0.2180    -0.2090 O.3   1 <1>  -0.5600 
  2 C       -1.3190     1.1470    -0.6210 C.3   1 <1>   0.1200 
  3 C        0.9030     0.7740    -0.0180 C.3   1 <1>   0.1200 
  4 C       -2.6820     0.4470    -0.7490 C.3   1 <1>   0.2000 
  5 C        1.8470    -0.3450     0.4240 C.3   1 <1>  -0.1600 
  6 O       -2.4810    -0.7650    -1.3830 O.3   1 <1>  -0.6800 
  7 C       -3.7170     1.2400    -1.5530 C.3   1 <1>   0.0960 
  8 C        3.3100     0.1180     0.5540 C.3   1 <1>  -0.0800 
  9 N       -3.8820     2.5970    -0.9920 N.pl3 1 <1>   0.0480 
 10 C        4.2060    -1.0830     0.8760 C.3   1 <1>  -0.2400 
 11 C        3.4830     1.1900     1.6390 C.3   1 <1>  -0.2400 
 12 C       -4.4760     2.8780     0.2230 C.ar  1 <1>  -0.1520 
 13 C       -3.1920     3.7220    -1.4080 C.ar  1 <1>  -0.1520 
 14 C       -4.1680     4.1850     0.5800 C.ar  1 <1>   0.0000 
 15 C       -5.2650     2.0820     1.0550 C.ar  1 <1>  -0.1500 
 16 C       -3.3500     4.7200    -0.4540 C.ar  1 <1>   0.0000 
 17 C       -2.4230     3.9520    -2.5510 C.ar  1 <1>  -0.1500 
 18 C       -4.6500     4.7110     1.7780 C.ar  1 <1>  -0.1500 
 19 C       -5.7360     2.6110     2.2380 C.ar  1 <1>  -0.1500 
 20 C       -2.7380     5.9590    -0.6330 C.ar  1 <1>  -0.1500 
 21 C       -1.8200     5.1800    -2.7180 C.ar  1 <1>  -0.1500 
 22 C       -5.4290     3.9240     2.6000 C.ar  1 <1>  -0.1500 
 23 C       -1.9770     6.1830    -1.7600 C.ar  1 <1>  -0.1500 
 24 H       -1.0180     1.5550    -1.5700 H     1 <1>   0.0800 
 25 H       -1.3780     1.9410     0.1050 H     1 <1>   0.0800 
 26 H        0.8300     1.5370     0.7380 H     1 <1>   0.0800 
 27 H        1.2360     1.2050    -0.9470 H     1 <1>   0.0800 
 28 H       -3.0660     0.2370     0.2340 H     1 <1>   0.0800 
 29 H        1.7960    -1.1330    -0.3060 H     1 <1>   0.0800 
 30 H        1.5070    -0.7360     1.3670 H     1 <1>   0.0800 
 31 H       -1.6070    -1.0940    -1.0690 H     1 <1>   0.4000 
 32 H       -4.6650     0.7360    -1.5200 H     1 <1>   0.0800 
 33 H       -3.4030     1.3190    -2.5760 H     1 <1>   0.0800 
 34 H        3.6290     0.5290    -0.3900 H     1 <1>   0.0800 
 35 H        3.9240    -1.5260     1.8150 H     1 <1>   0.0800 
 36 H        5.2350    -0.7770     0.9360 H     1 <1>   0.0800 
 37 H        4.1220    -1.8300     0.1060 H     1 <1>   0.0800 
 38 H        3.1220     0.8300     2.5870 H     1 <1>   0.0800 
 39 H        2.9480     2.0870     1.3840 H     1 <1>   0.0800 
 40 H        4.5220     1.4470     1.7450 H     1 <1>   0.0800 
 41 H       -5.5050     1.0720     0.7760 H     1 <1>   0.1500 
 42 H       -2.3040     3.1840    -3.2950 H     1 <1>   0.1500 
 43 H       -4.4080     5.7230     2.0450 H     1 <1>   0.1500 
 44 H       -6.3460     2.0130     2.8930 H     1 <1>   0.1500 
 45 H       -2.8670     6.7230     0.1110 H     1 <1>   0.1500 
 46 H       -1.2250     5.3770    -3.5930 H     1 <1>   0.1500 
 47 H       -5.8080     4.3180     3.5270 H     1 <1>   0.1500 
 48 H       -1.4990     7.1360    -1.9100 H     1 <1>   0.1500 
@<TRIPOS>BOND
  1   1   2  1   
  2   1   3  1   
  3   2   4  1   
  4   2  24  1   
  5   2  25  1   
  6   3   5  1   
  7   3  26  1   
  8   3  27  1   
  9   4   6  1   
 10   4   7  1   
 11   4  28  1   
 12   5   8  1   
 13   5  29  1   
 14   5  30  1   
 15   6  31  1   
 16   7   9  1   
 17   7  32  1   
 18   7  33  1   
 19   8  10  1   
 20   8  11  1   
 21   8  34  1   
 22   9  12  1   
 23   9  13  1   
 24  10  35  1   
 25  10  36  1   
 26  10  37  1   
 27  11  38  1   
 28  11  39  1   
 29  11  40  1   
 30  12  14  ar  
 31  12  15  ar  
 32  13  16  ar  
 33  13  17  ar  
 34  14  16  1   
 35  14  18  ar  
 36  15  19  ar  
 37  15  41  1   
 38  16  20  ar  
 39  17  21  ar  
 40  17  42  1   
 41  18  22  ar  
 42  18  43  1   
 43  19  22  ar  
 44  19  44  1   
 45  20  23  ar  
 46  20  45  1   
 47  21  23  ar  
 48  21  46  1   
 49  22  47  1   
 50  23  48  1   
@<TRIPOS>SUBSTRUCTURE
  1 ****   2 GROUP 4 **** **** 0

# MOE 2024.06 (io_trps.svl 2023.06)
