@<TRIPOS>MOLECULE
NONAME
49 51 1 0 0 
SMALL
USER_CHARGES


@<TRIPOS>ATOM
  1 F       -0.4360    -1.0930     1.7160 F     1 <1>  -0.3400 
  2 C       -0.4330    -1.3480     0.4130 C.3   1 <1>   1.1640 
  3 F        0.7900    -1.0550    -0.0150 F     1 <1>  -0.3400 
  4 F       -1.2440    -0.4580    -0.1450 F     1 <1>  -0.3400 
  5 C       -0.8540    -2.7900     0.0940 C.ar  1 <1>  -0.1440 
  6 C       -1.9730    -3.3380     0.7140 C.ar  1 <1>  -0.1500 
  7 C       -0.1490    -3.5750    -0.8130 C.ar  1 <1>  -0.1500 
  8 C       -2.3880    -4.6350     0.4460 C.ar  1 <1>   0.1170 
  9 C       -0.5510    -4.8710    -1.0830 C.ar  1 <1>  -0.1500 
 10 N       -3.5150    -5.2270     1.0360 N.am  1 <1>  -0.5470 
 11 C       -1.6620    -5.4200    -0.4590 C.ar  1 <1>   0.1000 
 12 C       -4.5850    -4.7390     1.7290 C.2   1 <1>   0.5690 
 13 N       -2.0690    -6.7360    -0.7320 N.pl3 1 <1>  -0.8380 
 14 O       -4.6980    -3.5780     2.0450 O.2   1 <1>  -0.5700 
 15 C       -5.7160    -5.6900     2.1060 C.3   1 <1>   0.1810 
 16 C       -1.0650    -7.8120    -0.4650 C.3   1 <1>   0.2090 
 17 C       -2.7580    -6.9310    -2.0450 C.3   1 <1>   0.2090 
 18 O       -5.5740    -6.9850     1.5310 O.3   1 <1>  -0.3630 
 19 C       -1.6720    -9.2060    -0.7020 C.3   1 <1>   0.1200 
 20 C       -3.2590    -8.3770    -2.2030 C.3   1 <1>   0.1200 
 21 C       -6.0060    -7.2490     0.2720 C.ar  1 <1>   0.0830 
 22 O       -2.2230    -9.2940    -1.9860 O.3   1 <1>  -0.5600 
 23 C       -6.1600    -6.2760    -0.7120 C.ar  1 <1>  -0.1500 
 24 C       -6.2990    -8.5700    -0.0230 C.ar  1 <1>  -0.1500 
 25 C       -6.5960    -6.6260    -1.9790 C.ar  1 <1>  -0.1430 
 26 C       -6.7430    -8.9220    -1.2850 C.ar  1 <1>  -0.1500 
 27 C       -6.8900    -7.9510    -2.2610 C.ar  1 <1>  -0.1500 
 28 C       -6.7560    -5.5630    -3.0520 C.3   1 <1>  -0.0970 
 29 H       -2.5280    -2.7430     1.4180 H     1 <1>   0.1500 
 30 H        0.7190    -3.1860    -1.3190 H     1 <1>   0.1500 
 31 H        0.0020    -5.4620    -1.7890 H     1 <1>   0.1500 
 32 H       -3.5820    -6.2150     0.7580 H     1 <1>   0.3700 
 33 H       -6.6630    -5.2800     1.8070 H     1 <1>   0.0800 
 34 H       -5.7180    -5.8130     3.1730 H     1 <1>   0.0800 
 35 H       -0.7280    -7.7360     0.5540 H     1 <1>   0.0800 
 36 H       -0.2140    -7.6890    -1.1110 H     1 <1>   0.0800 
 37 H       -2.0790    -6.7030    -2.8480 H     1 <1>   0.0800 
 38 H       -3.5930    -6.2560    -2.1110 H     1 <1>   0.0800 
 39 H       -2.4440    -9.4070     0.0200 H     1 <1>   0.0800 
 40 H       -0.9120    -9.9620    -0.6180 H     1 <1>   0.0800 
 41 H       -3.6410    -8.5330    -3.1960 H     1 <1>   0.0800 
 42 H       -4.0430    -8.5750    -1.4970 H     1 <1>   0.0800 
 43 H       -5.9400    -5.2440    -0.5110 H     1 <1>   0.1500 
 44 H       -6.1790    -9.3190     0.7390 H     1 <1>   0.1500 
 45 H       -6.9740    -9.9490    -1.5080 H     1 <1>   0.1500 
 46 H       -7.2370    -8.2320    -3.2400 H     1 <1>   0.1500 
 47 H       -6.0600    -4.7590    -2.8940 H     1 <1>   0.0800 
 48 H       -7.7550    -5.1660    -3.0220 H     1 <1>   0.0800 
 49 H       -6.5780    -5.9800    -4.0260 H     1 <1>   0.0800 
@<TRIPOS>BOND
  1   1   2  1   
  2   2   3  1   
  3   2   4  1   
  4   2   5  1   
  5   5   6  ar  
  6   5   7  ar  
  7   6   8  ar  
  8   6  29  1   
  9   7   9  ar  
 10   7  30  1   
 11   8  10  1   
 12   8  11  ar  
 13   9  11  ar  
 14   9  31  1   
 15  10  12  am  
 16  10  32  1   
 17  11  13  1   
 18  12  14  2   
 19  12  15  1   
 20  13  16  1   
 21  13  17  1   
 22  15  18  1   
 23  15  33  1   
 24  15  34  1   
 25  16  19  1   
 26  16  35  1   
 27  16  36  1   
 28  17  20  1   
 29  17  37  1   
 30  17  38  1   
 31  18  21  1   
 32  19  22  1   
 33  19  39  1   
 34  19  40  1   
 35  20  22  1   
 36  20  41  1   
 37  20  42  1   
 38  21  23  ar  
 39  21  24  ar  
 40  23  25  ar  
 41  23  43  1   
 42  24  26  ar  
 43  24  44  1   
 44  25  27  ar  
 45  25  28  1   
 46  26  27  ar  
 47  26  45  1   
 48  27  46  1   
 49  28  47  1   
 50  28  48  1   
 51  28  49  1   
@<TRIPOS>SUBSTRUCTURE
  1 ****  10 GROUP 4 **** **** 0

# MOE 2024.06 (io_trps.svl 2023.06)
