@<TRIPOS>MOLECULE
NONAME
32 33 1 0 0 
SMALL
USER_CHARGES


@<TRIPOS>ATOM
  1 S       -3.5440     0.8700     0.3720 S.3   1 <1>  -0.0800 
  2 C       -2.2730     2.0040    -0.0500 C.2   1 <1>  -0.1400 
  3 C       -4.7900     2.0300    -0.0490 C.2   1 <1>  -0.1400 
  4 C       -2.8070     3.1690    -0.4760 C.2   1 <1>  -0.1500 
  5 C       -0.8680     1.4810     0.1370 C.3   1 <1>   0.5230 
  6 C       -4.2370     3.1790    -0.4740 C.2   1 <1>  -0.1500 
  7 C       -6.2310     1.5930     0.1170 C.3   1 <1>  -0.0600 
  8 N        0.0830     2.5410    -0.2560 N.4   1 <1>  -0.9060 
  9 C        1.5100     2.1240    -0.0950 C.3   1 <1>   0.3430 
 10 C        2.4960     3.2420    -0.4690 C.3   1 <1>   0.2000 
 11 O        3.7700     2.7980    -0.1690 O.3   1 <1>  -0.5600 
 12 C        2.3570     4.5330     0.3310 C.3   1 <1>  -0.1600 
 13 C        4.6430     3.8750    -0.0130 C.3   1 <1>   0.1200 
 14 C        3.7730     5.0840     0.3220 C.3   1 <1>  -0.1600 
 15 H       -2.2820     4.0490    -0.8020 H     1 <1>   0.1500 
 16 H       -0.7280     0.6040    -0.4740 H     1 <1>   0.0800 
 17 H       -0.7220     1.2090     1.1700 H     1 <1>   0.0800 
 18 H       -4.7860     4.0500    -0.7920 H     1 <1>   0.1500 
 19 H       -6.4280     0.7340    -0.4980 H     1 <1>   0.0800 
 20 H       -6.8960     2.3860    -0.1720 H     1 <1>   0.0800 
 21 H       -6.4220     1.3370     1.1440 H     1 <1>   0.0800 
 22 H       -0.1160     3.3670     0.3210 H     1 <1>   0.4500 
 23 H       -0.1170     2.7940    -1.2310 H     1 <1>   0.4500 
 24 H        1.7140     1.2690    -0.7180 H     1 <1>   0.0800 
 25 H        1.6920     1.8490     0.9310 H     1 <1>   0.0800 
 26 H        2.4730     3.4420    -1.5270 H     1 <1>   0.0800 
 27 H        2.0620     4.3160     1.3430 H     1 <1>   0.0800 
 28 H        1.6550     5.2190    -0.1120 H     1 <1>   0.0800 
 29 H        5.1790     4.0170    -0.9360 H     1 <1>   0.0800 
 30 H        5.3350     3.6410     0.7790 H     1 <1>   0.0800 
 31 H        4.0460     5.5100     1.2730 H     1 <1>   0.0800 
 32 H        3.8950     5.8340    -0.4400 H     1 <1>   0.0800 
@<TRIPOS>BOND
  1   1   2  1   
  2   1   3  1   
  3   2   4  2   
  4   2   5  1   
  5   3   6  2   
  6   3   7  1   
  7   4   6  1   
  8   4  15  1   
  9   5   8  1   
 10   5  16  1   
 11   5  17  1   
 12   6  18  1   
 13   7  19  1   
 14   7  20  1   
 15   7  21  1   
 16   8   9  1   
 17   8  22  1   
 18   8  23  1   
 19   9  10  1   
 20   9  24  1   
 21   9  25  1   
 22  10  11  1   
 23  10  12  1   
 24  10  26  1   
 25  11  13  1   
 26  12  14  1   
 27  12  27  1   
 28  12  28  1   
 29  13  14  1   
 30  13  29  1   
 31  13  30  1   
 32  14  31  1   
 33  14  32  1   
@<TRIPOS>SUBSTRUCTURE
  1 ****   8 GROUP 4 **** **** 0

# MOE 2024.06 (io_trps.svl 2023.06)
