@<TRIPOS>MOLECULE
NONAME
31 32 1 0 0 
SMALL
USER_CHARGES


@<TRIPOS>ATOM
  1 S       -0.0430    -0.1580    -0.7590 S.3   1 <1>  -0.0800 
  2 C        1.2620    -0.4610     0.3650 C.2   1 <1>   0.1980 
  3 C       -0.3390    -1.8700    -0.8280 C.2   1 <1>  -0.1100 
  4 N        1.4410    -1.6880     0.6440 N.2   1 <1>  -0.5650 
  5 C        2.0270     0.7350     0.8800 C.3   1 <1>  -0.0600 
  6 C        0.5380    -2.5010    -0.0290 C.2   1 <1>   0.0460 
  7 C        0.6510    -4.0020     0.2240 C.3   1 <1>   0.1010 
  8 C        1.9460    -4.5580    -0.3810 C.3   1 <1>  -0.1600 
  9 C       -0.5370    -4.7960    -0.3350 C.3   1 <1>  -0.1600 
 10 C        2.0610    -6.0870    -0.2430 C.3   1 <1>   0.2800 
 11 C       -0.3270    -6.2950    -0.1170 C.3   1 <1>   0.1200 
 12 O        0.8850    -6.6920    -0.6900 O.3   1 <1>  -0.5600 
 13 C        3.1630    -6.6100    -1.1630 C.3   1 <1>  -0.2400 
 14 C        2.3550    -6.5400     1.1940 C.3   1 <1>  -0.2400 
 15 H       -1.1360    -2.2140    -1.4590 H     1 <1>   0.1500 
 16 H        1.3600     1.3970     1.4000 H     1 <1>   0.0800 
 17 H        2.4810     1.2570     0.0590 H     1 <1>   0.0800 
 18 H        2.7950     0.4080     1.5570 H     1 <1>   0.0800 
 19 H        0.6750    -4.1410     1.2910 H     1 <1>   0.0800 
 20 H        2.7930    -4.0890     0.0880 H     1 <1>   0.0800 
 21 H        1.9750    -4.2970    -1.4240 H     1 <1>   0.0800 
 22 H       -0.6410    -4.6180    -1.3910 H     1 <1>   0.0800 
 23 H       -1.4440    -4.4860     0.1510 H     1 <1>   0.0800 
 24 H       -1.1090    -6.8540    -0.5990 H     1 <1>   0.0800 
 25 H       -0.3220    -6.5460     0.9290 H     1 <1>   0.0800 
 26 H        2.9460    -6.3550    -2.1850 H     1 <1>   0.0800 
 27 H        3.2380    -7.6790    -1.0810 H     1 <1>   0.0800 
 28 H        4.1100    -6.1780    -0.8970 H     1 <1>   0.0800 
 29 H        1.6350    -6.1590     1.8920 H     1 <1>   0.0800 
 30 H        3.3220    -6.1800     1.4970 H     1 <1>   0.0800 
 31 H        2.3630    -7.6140     1.2470 H     1 <1>   0.0800 
@<TRIPOS>BOND
  1   1   2  1   
  2   1   3  1   
  3   2   4  2   
  4   2   5  1   
  5   3   6  2   
  6   3  15  1   
  7   4   6  1   
  8   5  16  1   
  9   5  17  1   
 10   5  18  1   
 11   6   7  1   
 12   7   8  1   
 13   7   9  1   
 14   7  19  1   
 15   8  10  1   
 16   8  20  1   
 17   8  21  1   
 18   9  11  1   
 19   9  22  1   
 20   9  23  1   
 21  10  12  1   
 22  10  13  1   
 23  10  14  1   
 24  11  12  1   
 25  11  24  1   
 26  11  25  1   
 27  13  26  1   
 28  13  27  1   
 29  13  28  1   
 30  14  29  1   
 31  14  30  1   
 32  14  31  1   
@<TRIPOS>SUBSTRUCTURE
  1 ****   7 GROUP 4 **** **** 0

# MOE 2024.06 (io_trps.svl 2023.06)
