@<TRIPOS>MOLECULE
NONAME
37 37 1 0 0 
SMALL
USER_CHARGES


@<TRIPOS>ATOM
  1 O       -1.8920     0.8130     0.7740 O.3   1 <1>  -0.3630 
  2 C       -1.0300     1.8370     0.5260 C.ar  1 <1>   0.0830 
  3 C       -1.5080    -0.2850     1.5790 C.3   1 <1>   0.0400 
  4 C       -1.4000     2.7710    -0.4380 C.ar  1 <1>  -0.1440 
  5 C        0.1810     1.9850     1.1970 C.ar  1 <1>  -0.1500 
  6 C       -0.5600     3.8370    -0.7250 C.ar  1 <1>  -0.1500 
  7 C       -2.7160     2.6230    -1.1750 C.3   1 <1>   0.4870 
  8 C        1.0110     3.0520     0.9050 C.ar  1 <1>  -0.1500 
  9 C        0.6410     3.9770    -0.0550 C.ar  1 <1>  -0.1500 
 10 N       -3.8210     2.6740    -0.1840 N.4   1 <1>  -0.9590 
 11 C       -5.1010     2.2000    -0.7700 C.3   1 <1>   0.3430 
 12 C       -3.9140     4.0160     0.4720 C.3   1 <1>   0.2630 
 13 C       -6.0950     1.8500     0.3380 C.3   1 <1>  -0.1600 
 14 C       -7.3760     1.2460    -0.2510 C.3   1 <1>  -0.1600 
 15 C       -8.3730     0.8910     0.8550 C.3   1 <1>  -0.2400 
 16 H       -1.3430     0.0550     2.5860 H     1 <1>   0.0800 
 17 H       -0.6120    -0.7220     1.1720 H     1 <1>   0.0800 
 18 H       -2.3020    -1.0100     1.5660 H     1 <1>   0.0800 
 19 H        0.5000     1.2860     1.9480 H     1 <1>   0.1500 
 20 H       -0.8250     4.5670    -1.4720 H     1 <1>   0.1500 
 21 H       -2.7200     1.6710    -1.6820 H     1 <1>   0.0800 
 22 H       -2.8280     3.4060    -1.9060 H     1 <1>   0.0800 
 23 H        1.9480     3.1640     1.4240 H     1 <1>   0.1500 
 24 H        1.2940     4.8050    -0.2790 H     1 <1>   0.1500 
 25 H       -3.5140     1.9880     0.5300 H     1 <1>   0.4500 
 26 H       -4.9210     1.3160    -1.3600 H     1 <1>   0.0800 
 27 H       -5.5200     2.9570    -1.4140 H     1 <1>   0.0800 
 28 H       -4.1990     4.7670    -0.2470 H     1 <1>   0.0800 
 29 H       -2.9620     4.2890     0.8980 H     1 <1>   0.0800 
 30 H       -4.6450     3.9980     1.2630 H     1 <1>   0.0800 
 31 H       -6.3560     2.7320     0.8950 H     1 <1>   0.0800 
 32 H       -5.6500     1.1340     1.0080 H     1 <1>   0.0800 
 33 H       -7.1420     0.3540    -0.8080 H     1 <1>   0.0800 
 34 H       -7.8390     1.9480    -0.9250 H     1 <1>   0.0800 
 35 H       -7.9510     0.1680     1.5320 H     1 <1>   0.0800 
 36 H       -9.2650     0.4680     0.4250 H     1 <1>   0.0800 
 37 H       -8.6520     1.7670     1.4140 H     1 <1>   0.0800 
@<TRIPOS>BOND
  1   1   2  1   
  2   1   3  1   
  3   2   4  ar  
  4   2   5  ar  
  5   3  16  1   
  6   3  17  1   
  7   3  18  1   
  8   4   6  ar  
  9   4   7  1   
 10   5   8  ar  
 11   5  19  1   
 12   6   9  ar  
 13   6  20  1   
 14   7  10  1   
 15   7  21  1   
 16   7  22  1   
 17   8   9  ar  
 18   8  23  1   
 19   9  24  1   
 20  10  11  1   
 21  10  12  1   
 22  10  25  1   
 23  11  13  1   
 24  11  26  1   
 25  11  27  1   
 26  12  28  1   
 27  12  29  1   
 28  12  30  1   
 29  13  14  1   
 30  13  31  1   
 31  13  32  1   
 32  14  15  1   
 33  14  33  1   
 34  14  34  1   
 35  15  35  1   
 36  15  36  1   
 37  15  37  1   
@<TRIPOS>SUBSTRUCTURE
  1 ****  10 GROUP 4 **** **** 0

# MOE 2024.06 (io_trps.svl 2023.06)
