@<TRIPOS>MOLECULE
Structure2480
29 30 1 0 0 
SMALL
USER_CHARGES


@<TRIPOS>ATOM
  1 F       -0.1800     0.5600     0.4790 F     1 <1>  -0.1900 
  2 C       -1.3980     0.9790     0.2600 C.ar  1 <1>   0.1900 
  3 C       -1.7540     2.2450     0.6800 C.ar  1 <1>  -0.1500 
  4 C       -2.2840     0.1380    -0.3830 C.ar  1 <1>  -0.1500 
  5 C       -3.0460     2.6930     0.4500 C.ar  1 <1>  -0.1440 
  6 C       -3.5740     0.5840    -0.6120 C.ar  1 <1>  -0.1500 
  7 C       -3.9620     1.8610    -0.1960 C.ar  1 <1>   0.0820 
  8 C       -3.4380     4.0920     0.9080 C.3   1 <1>  -0.0960 
  9 O       -5.2170     2.3520    -0.3900 O.3   1 <1>  -0.3630 
 10 C       -6.2420     1.6130    -1.0240 C.3   1 <1>   0.2000 
 11 C       -7.3770     2.5890    -1.3120 C.3   1 <1>   0.3430 
 12 C       -6.8730     0.6780     0.0010 C.3   1 <1>  -0.1600 
 13 N       -8.0550     2.7840     0.0040 N.4   1 <1>  -0.9060 
 14 C       -7.7860     1.5740     0.8350 C.3   1 <1>   0.3430 
 15 H       -1.0230     2.8590     1.1750 H     1 <1>   0.1500 
 16 H       -1.9630    -0.8400    -0.6950 H     1 <1>   0.1500 
 17 H       -4.2490    -0.0820    -1.1140 H     1 <1>   0.1500 
 18 H       -2.6020     4.6010     1.3540 H     1 <1>   0.0800 
 19 H       -4.2260     4.0330     1.6360 H     1 <1>   0.0800 
 20 H       -3.7770     4.6710     0.0680 H     1 <1>   0.0800 
 21 H       -5.8640     1.1440    -1.9160 H     1 <1>   0.0800 
 22 H       -8.0610     2.1370    -2.0110 H     1 <1>   0.0800 
 23 H       -7.0030     3.5140    -1.7220 H     1 <1>   0.0800 
 24 H       -6.1450     0.1710     0.6100 H     1 <1>   0.0800 
 25 H       -7.4700    -0.0630    -0.5000 H     1 <1>   0.0800 
 26 H       -9.0600     2.9770    -0.0980 H     1 <1>   0.4500 
 27 H       -7.6190     3.5920     0.4680 H     1 <1>   0.4500 
 28 H       -7.2790     1.8630     1.7430 H     1 <1>   0.0800 
 29 H       -8.6990     1.0590     1.0890 H     1 <1>   0.0800 
@<TRIPOS>BOND
  1   1   2  1   
  2   2   3  ar  
  3   2   4  ar  
  4   3   5  ar  
  5   3  15  1   
  6   4   6  ar  
  7   4  16  1   
  8   5   7  ar  
  9   5   8  1   
 10   6   7  ar  
 11   6  17  1   
 12   7   9  1   
 13   8  18  1   
 14   8  19  1   
 15   8  20  1   
 16   9  10  1   
 17  10  11  1   
 18  10  12  1   
 19  10  21  1   
 20  11  13  1   
 21  11  22  1   
 22  11  23  1   
 23  12  14  1   
 24  12  24  1   
 25  12  25  1   
 26  13  14  1   
 27  13  26  1   
 28  13  27  1   
 29  14  28  1   
 30  14  29  1   
@<TRIPOS>SUBSTRUCTURE
  1 ****   7 GROUP 4 **** **** 0

# MOE 2024.06 (io_trps.svl 2023.06)
