@<TRIPOS>MOLECULE
NONAME
44 45 1 0 0 
SMALL
USER_CHARGES


@<TRIPOS>ATOM
  1 O       -0.0410    -0.3870    -0.4060 O.2   1 <1>  -0.5700 
  2 C        0.7740     0.1720     0.3010 C.2   1 <1>   0.7800 
  3 O        1.8020    -0.4810     0.8480 O.3   1 <1>  -0.2330 
  4 N        0.7030     1.4950     0.5830 N.am  1 <1>  -0.7300 
  5 C        2.0550    -1.8170     0.7490 C.ar  1 <1>   0.0820 
  6 C       -0.3120     2.4290     0.0760 C.3   1 <1>   0.2200 
  7 C        3.3710    -2.2310     0.5430 C.ar  1 <1>   0.0820 
  8 C        1.0440    -2.7610     0.8790 C.ar  1 <1>  -0.1500 
  9 C        0.3780     3.4870    -0.7910 C.3   1 <1>  -0.1600 
 10 C       -1.0360     3.0680     1.2650 C.3   1 <1>  -0.1600 
 11 O        4.3300    -1.2680     0.4270 O.3   1 <1>  -0.3630 
 12 C        3.6530    -3.5930     0.4650 C.ar  1 <1>  -0.1500 
 13 C        1.3390    -4.1100     0.7970 C.ar  1 <1>  -0.1500 
 14 C       -0.6210     4.5540    -1.2630 C.3   1 <1>  -0.1600 
 15 C       -2.0380     4.1330     0.7960 C.3   1 <1>  -0.1600 
 16 C        5.6670    -1.5900     0.1190 C.3   1 <1>   0.0400 
 17 C        2.6420    -4.5340     0.5920 C.ar  1 <1>  -0.1430 
 18 C       -1.3530     5.1950    -0.0750 C.3   1 <1>  -0.1600 
 19 C        2.9500    -6.0230     0.5140 C.3   1 <1>   0.1220 
 20 C        2.3380    -6.6330    -0.7360 C.2   1 <1>  -0.2880 
 21 C        1.4930    -7.6680    -0.7580 C.2   1 <1>  -0.3000 
 22 H        1.4440     1.8950     1.1540 H     1 <1>   0.3700 
 23 H       -1.0290     1.8940    -0.5270 H     1 <1>   0.0800 
 24 H        0.0290    -2.4500     1.0420 H     1 <1>   0.1500 
 25 H        0.8200     3.0110    -1.6480 H     1 <1>   0.0800 
 26 H        1.1580     3.9660    -0.2240 H     1 <1>   0.0800 
 27 H       -0.3180     3.5280     1.9200 H     1 <1>   0.0800 
 28 H       -1.5600     2.3040     1.8130 H     1 <1>   0.0800 
 29 H        4.6570    -3.9340     0.3050 H     1 <1>   0.1500 
 30 H        0.5460    -4.8330     0.8890 H     1 <1>   0.1500 
 31 H       -1.3420     4.0990    -1.9220 H     1 <1>   0.0800 
 32 H       -0.1010     5.3150    -1.8200 H     1 <1>   0.0800 
 33 H       -2.4900     4.6050     1.6520 H     1 <1>   0.0800 
 34 H       -2.8220     3.6600     0.2290 H     1 <1>   0.0800 
 35 H        6.2210    -0.6720     0.0390 H     1 <1>   0.0800 
 36 H        5.6920    -2.1150    -0.8190 H     1 <1>   0.0800 
 37 H        6.0720    -2.1930     0.9120 H     1 <1>   0.0800 
 38 H       -2.0880     5.8920    -0.4390 H     1 <1>   0.0800 
 39 H       -0.6460     5.7450     0.5230 H     1 <1>   0.0800 
 40 H        2.5610    -6.5120     1.3900 H     1 <1>   0.0800 
 41 H        4.0130    -6.1820     0.4970 H     1 <1>   0.0800 
 42 H        2.6600    -6.1290    -1.6330 H     1 <1>   0.1500 
 43 H        1.0730    -8.0780    -1.6600 H     1 <1>   0.1500 
 44 H        1.1490    -8.1930     0.1170 H     1 <1>   0.1500 
@<TRIPOS>BOND
  1   1   2  2   
  2   2   3  1   
  3   2   4  am  
  4   3   5  1   
  5   4   6  1   
  6   4  22  1   
  7   5   7  ar  
  8   5   8  ar  
  9   6   9  1   
 10   6  10  1   
 11   6  23  1   
 12   7  11  1   
 13   7  12  ar  
 14   8  13  ar  
 15   8  24  1   
 16   9  14  1   
 17   9  25  1   
 18   9  26  1   
 19  10  15  1   
 20  10  27  1   
 21  10  28  1   
 22  11  16  1   
 23  12  17  ar  
 24  12  29  1   
 25  13  17  ar  
 26  13  30  1   
 27  14  18  1   
 28  14  31  1   
 29  14  32  1   
 30  15  18  1   
 31  15  33  1   
 32  15  34  1   
 33  16  35  1   
 34  16  36  1   
 35  16  37  1   
 36  17  19  1   
 37  18  38  1   
 38  18  39  1   
 39  19  20  1   
 40  19  40  1   
 41  19  41  1   
 42  20  21  2   
 43  20  42  1   
 44  21  43  1   
 45  21  44  1   
@<TRIPOS>SUBSTRUCTURE
  1 ****   3 GROUP 4 **** **** 0

# MOE 2024.06 (io_trps.svl 2023.06)
