@<TRIPOS>MOLECULE
NONAME
46 47 1 0 0 
SMALL
USER_CHARGES


@<TRIPOS>ATOM
  1 O       -0.9460    -0.1690     1.0130 O.3   1 <1>  -0.8290 
  2 C       -1.6440    -0.7450     0.1430 C.ar  1 <1>  -0.1710 
  3 C       -1.4000    -2.0800    -0.2400 C.ar  1 <1>   0.2170 
  4 C       -2.6960    -0.0200    -0.4540 C.ar  1 <1>  -0.1440 
  5 N       -2.1880    -2.6160    -1.1790 N.ar  1 <1>  -0.1790 
  6 C       -0.2700    -2.9570     0.3700 C.3   1 <1>   0.1430 
  7 C       -3.4610    -0.6400    -1.4190 C.ar  1 <1>  -0.1500 
  8 C       -2.9700     1.4120    -0.0030 C.3   1 <1>   0.4860 
  9 C       -3.1970    -1.9520    -1.7780 C.ar  1 <1>   0.2170 
 10 C       -0.4730    -3.1250     1.8860 C.3   1 <1>  -0.2400 
 11 C       -0.2380    -4.3790    -0.2370 C.3   1 <1>  -0.2400 
 12 C        1.1090    -2.3280     0.1030 C.3   1 <1>  -0.2400 
 13 N       -1.6920     2.1440     0.0170 N.4   1 <1>  -0.9590 
 14 C       -4.0200    -2.6730    -2.8310 C.3   1 <1>  -0.0970 
 15 C       -1.6580     3.2780     0.9640 C.3   1 <1>   0.3430 
 16 C       -1.1020     2.3970    -1.3150 C.3   1 <1>   0.3430 
 17 C       -0.2150     3.7570     1.1350 C.3   1 <1>  -0.1600 
 18 C        0.3430     2.8690    -1.1510 C.3   1 <1>  -0.1600 
 19 C        0.4490     4.0780    -0.2110 C.3   1 <1>  -0.1600 
 20 H       -1.9960    -3.5820    -1.4360 H     1 <1>   0.4570 
 21 H       -4.2710    -0.1120    -1.8920 H     1 <1>   0.1500 
 22 H       -3.3730     1.3730     0.9950 H     1 <1>   0.0800 
 23 H       -3.6760     1.8970    -0.6530 H     1 <1>   0.0800 
 24 H        0.2830    -3.7620     2.3080 H     1 <1>   0.0800 
 25 H       -1.4390    -3.5470     2.0960 H     1 <1>   0.0800 
 26 H       -0.4140    -2.1730     2.3820 H     1 <1>   0.0800 
 27 H       -1.1560    -4.9060    -0.0450 H     1 <1>   0.0800 
 28 H        0.5560    -4.9500     0.2130 H     1 <1>   0.0800 
 29 H       -0.0470    -4.3470    -1.2960 H     1 <1>   0.0800 
 30 H        1.2630    -2.1830    -0.9500 H     1 <1>   0.0800 
 31 H        1.8960    -2.9510     0.4880 H     1 <1>   0.0800 
 32 H        1.1850    -1.3700     0.5870 H     1 <1>   0.0800 
 33 H       -1.0990     1.3790     0.4470 H     1 <1>   0.4500 
 34 H       -3.3930    -2.9830    -3.6480 H     1 <1>   0.0800 
 35 H       -4.7860    -2.0270    -3.2220 H     1 <1>   0.0800 
 36 H       -4.4960    -3.5380    -2.4050 H     1 <1>   0.0800 
 37 H       -2.0440     2.9660     1.9210 H     1 <1>   0.0800 
 38 H       -2.2660     4.0840     0.5890 H     1 <1>   0.0800 
 39 H       -1.6750     3.1490    -1.8300 H     1 <1>   0.0800 
 40 H       -1.1150     1.4890    -1.8960 H     1 <1>   0.0800 
 41 H        0.3450     2.9880     1.6410 H     1 <1>   0.0800 
 42 H       -0.2040     4.6310     1.7620 H     1 <1>   0.0800 
 43 H        0.7450     3.1240    -2.1160 H     1 <1>   0.0800 
 44 H        0.9290     2.0530    -0.7610 H     1 <1>   0.0800 
 45 H        1.4850     4.3280    -0.0550 H     1 <1>   0.0800 
 46 H       -0.0340     4.9300    -0.6600 H     1 <1>   0.0800 
@<TRIPOS>BOND
  1   1   2  1   
  2   2   3  ar  
  3   2   4  ar  
  4   3   5  ar  
  5   3   6  1   
  6   4   7  ar  
  7   4   8  1   
  8   5   9  ar  
  9   5  20  1   
 10   6  10  1   
 11   6  11  1   
 12   6  12  1   
 13   7   9  ar  
 14   7  21  1   
 15   8  13  1   
 16   8  22  1   
 17   8  23  1   
 18   9  14  1   
 19  10  24  1   
 20  10  25  1   
 21  10  26  1   
 22  11  27  1   
 23  11  28  1   
 24  11  29  1   
 25  12  30  1   
 26  12  31  1   
 27  12  32  1   
 28  13  15  1   
 29  13  16  1   
 30  13  33  1   
 31  14  34  1   
 32  14  35  1   
 33  14  36  1   
 34  15  17  1   
 35  15  37  1   
 36  15  38  1   
 37  16  18  1   
 38  16  39  1   
 39  16  40  1   
 40  17  19  1   
 41  17  41  1   
 42  17  42  1   
 43  18  19  1   
 44  18  43  1   
 45  18  44  1   
 46  19  45  1   
 47  19  46  1   
@<TRIPOS>SUBSTRUCTURE
  1 ****   2 GROUP 4 **** **** 0

# MOE 2024.06 (io_trps.svl 2023.06)
