@<TRIPOS>MOLECULE
NONAME
56 58 1 0 0 
SMALL
USER_CHARGES


@<TRIPOS>ATOM
  1 S        0.1210    -0.3120    -1.7800 S.o2  1 <1>   1.4470 
  2 O       -0.3500     0.8460    -2.5080 O.2   1 <1>  -0.6500 
  3 O        0.5970    -1.4630    -2.5190 O.2   1 <1>  -0.6500 
  4 N        1.4020     0.1940    -0.7910 N.am  1 <1>  -0.8490 
  5 C       -1.1510    -0.8240    -0.5930 C.ar  1 <1>  -0.0090 
  6 C        2.3690     1.0000    -1.5410 C.3   1 <1>   0.1960 
  7 C        2.0520    -0.9320    -0.1120 C.3   1 <1>   0.1960 
  8 C       -1.8420    -2.0190    -0.7540 C.ar  1 <1>  -0.1500 
  9 C       -1.4670    -0.0330     0.5030 C.ar  1 <1>  -0.1500 
 10 C        3.4290     1.5740    -0.5960 C.3   1 <1>  -0.1600 
 11 C        3.0870    -0.4170     0.8890 C.3   1 <1>  -0.1600 
 12 C       -2.8200    -2.4360     0.1470 C.ar  1 <1>   0.0830 
 13 C       -2.4360    -0.4250     1.4070 C.ar  1 <1>  -0.1500 
 14 C        4.1410     0.4640     0.1940 C.3   1 <1>  -0.0190 
 15 O       -3.4640    -3.6290    -0.0200 O.3   1 <1>  -0.3630 
 16 C       -3.1250    -1.6140     1.2460 C.ar  1 <1>   0.0830 
 17 C        5.1640     1.0510     1.1640 C.2   1 <1>   0.5690 
 18 C       -3.1720    -4.5100    -1.0830 C.3   1 <1>   0.0400 
 19 O       -4.0550    -1.8600     2.2120 O.3   1 <1>  -0.3620 
 20 O        4.8590     1.2810     2.3100 O.2   1 <1>  -0.5700 
 21 N        6.4070     1.3150     0.6930 N.am  1 <1>  -0.7300 
 22 C       -5.1360    -2.7440     2.0220 C.3   1 <1>   0.0400 
 23 C        7.5020     1.9760     1.4390 C.3   1 <1>   0.1400 
 24 C        8.0850     3.1220     0.5980 C.3   1 <1>   0.2000 
 25 O        8.3270     2.6910    -0.7080 O.3   1 <1>  -0.5600 
 26 C        9.4320     3.6370     1.0810 C.3   1 <1>  -0.1600 
 27 C        9.2900     3.4930    -1.3140 C.3   1 <1>   0.1200 
 28 C       10.0470     4.1980    -0.1890 C.3   1 <1>  -0.1600 
 29 H        1.8640     1.8200    -2.0250 H     1 <1>   0.0800 
 30 H        2.8350     0.3960    -2.3030 H     1 <1>   0.0800 
 31 H        2.5290    -1.5750    -0.8350 H     1 <1>   0.0800 
 32 H        1.3150    -1.5120     0.4190 H     1 <1>   0.0800 
 33 H       -1.5890    -2.6170    -1.6090 H     1 <1>   0.1500 
 34 H       -0.9470     0.9000     0.6490 H     1 <1>   0.1500 
 35 H        2.9520     2.2550     0.0880 H     1 <1>   0.0800 
 36 H        4.1480     2.1330    -1.1670 H     1 <1>   0.0800 
 37 H        3.5710    -1.2500     1.3670 H     1 <1>   0.0800 
 38 H        2.5790     0.1480     1.6520 H     1 <1>   0.0800 
 39 H       -2.6680     0.2000     2.2520 H     1 <1>   0.1500 
 40 H        4.6760    -0.1560    -0.5030 H     1 <1>   0.0800 
 41 H       -3.8000    -5.3760    -0.9810 H     1 <1>   0.0800 
 42 H       -2.1380    -4.8020    -1.0230 H     1 <1>   0.0800 
 43 H       -3.3810    -4.0170    -2.0160 H     1 <1>   0.0800 
 44 H        6.6290     1.2110    -0.3020 H     1 <1>   0.3700 
 45 H       -5.8500    -2.5750     2.8070 H     1 <1>   0.0800 
 46 H       -4.7710    -3.7540     2.0740 H     1 <1>   0.0800 
 47 H       -5.5860    -2.5470     1.0650 H     1 <1>   0.0800 
 48 H        8.2690     1.2510     1.6460 H     1 <1>   0.0800 
 49 H        7.1380     2.3590     2.3770 H     1 <1>   0.0800 
 50 H        7.3790     3.9330     0.5440 H     1 <1>   0.0800 
 51 H       10.0280     2.8190     1.4480 H     1 <1>   0.0800 
 52 H        9.3260     4.3770     1.8550 H     1 <1>   0.0800 
 53 H        8.7900     4.1990    -1.9550 H     1 <1>   0.0800 
 54 H        9.9370     2.8600    -1.8980 H     1 <1>   0.0800 
 55 H       11.1040     4.0060    -0.2440 H     1 <1>   0.0800 
 56 H        9.8810     5.2590    -0.2580 H     1 <1>   0.0800 
@<TRIPOS>BOND
  1   1   2  2   
  2   1   3  2   
  3   1   4  am  
  4   1   5  1   
  5   4   6  1   
  6   4   7  1   
  7   5   8  ar  
  8   5   9  ar  
  9   6  10  1   
 10   6  29  1   
 11   6  30  1   
 12   7  11  1   
 13   7  31  1   
 14   7  32  1   
 15   8  12  ar  
 16   8  33  1   
 17   9  13  ar  
 18   9  34  1   
 19  10  14  1   
 20  10  35  1   
 21  10  36  1   
 22  11  14  1   
 23  11  37  1   
 24  11  38  1   
 25  12  15  1   
 26  12  16  ar  
 27  13  16  ar  
 28  13  39  1   
 29  14  17  1   
 30  14  40  1   
 31  15  18  1   
 32  16  19  1   
 33  17  20  2   
 34  17  21  am  
 35  18  41  1   
 36  18  42  1   
 37  18  43  1   
 38  19  22  1   
 39  21  23  1   
 40  21  44  1   
 41  22  45  1   
 42  22  46  1   
 43  22  47  1   
 44  23  24  1   
 45  23  48  1   
 46  23  49  1   
 47  24  25  1   
 48  24  26  1   
 49  24  50  1   
 50  25  27  1   
 51  26  28  1   
 52  26  51  1   
 53  26  52  1   
 54  27  28  1   
 55  27  53  1   
 56  27  54  1   
 57  28  55  1   
 58  28  56  1   
@<TRIPOS>SUBSTRUCTURE
  1 ****   4 GROUP 4 **** **** 0

# MOE 2024.06 (io_trps.svl 2023.06)
