@<TRIPOS>MOLECULE
NONAME
56 58 1 0 0 
SMALL
USER_CHARGES


@<TRIPOS>ATOM
  1 O       -1.9840    -0.5070     2.6040 O.2   1 <1>  -0.5700 
  2 C       -2.5380    -1.0890     1.6920 C.2   1 <1>   0.7060 
  3 O       -3.7320    -0.6350     1.3190 O.3   1 <1>  -0.2330 
  4 C       -1.9940    -2.2340     1.0140 C.2   1 <1>  -0.1240 
  5 C       -4.4860    -1.2110     0.3580 C.ar  1 <1>   0.0820 
  6 C       -2.6950    -2.8460     0.0220 C.2   1 <1>  -0.1670 
  7 C       -0.6010    -2.6840     1.4740 C.3   1 <1>   0.0390 
  8 C       -4.0030    -2.3420    -0.3180 C.ar  1 <1>   0.0280 
  9 C       -5.7340    -0.6590     0.0790 C.ar  1 <1>  -0.1440 
 10 C       -2.1690    -4.0410    -0.7790 C.3   1 <1>  -0.1020 
 11 C        0.4810    -2.1410     0.5640 C.2   1 <1>   0.6590 
 12 C       -4.8370    -2.9070    -1.2880 C.ar  1 <1>  -0.1500 
 13 C       -6.5390    -1.2570    -0.8810 C.ar  1 <1>   0.0830 
 14 C       -6.1970     0.5830     0.8430 C.3   1 <1>  -0.0960 
 15 O        1.1700    -2.8760    -0.0970 O.2   1 <1>  -0.5700 
 16 O        0.6220    -0.8220     0.5330 O.3   1 <1>  -0.4300 
 17 C       -6.0780    -2.3780    -1.5670 C.ar  1 <1>  -0.1500 
 18 O       -7.7630    -0.7320    -1.1180 O.3   1 <1>  -0.3630 
 19 C        1.5880    -0.1930    -0.2820 C.3   1 <1>   0.0400 
 20 C       -8.8200    -1.5210    -1.6460 C.3   1 <1>   0.1810 
 21 C      -10.1760    -0.8620    -1.4050 C.2   1 <1>   0.5690 
 22 O      -10.8310    -0.5910    -2.3870 O.2   1 <1>  -0.5700 
 23 N      -10.6460    -0.6160    -0.1330 N.am  1 <1>  -0.6600 
 24 C      -11.9610     0.0470     0.0890 C.3   1 <1>   0.1400 
 25 C       -9.9010    -0.9170     1.1240 C.3   1 <1>   0.1400 
 26 C      -12.8350    -0.8220     0.9990 C.3   1 <1>  -0.1600 
 27 C      -10.7600    -1.7910     2.0410 C.3   1 <1>  -0.1600 
 28 C      -12.1260    -1.1460     2.3230 C.3   1 <1>  -0.0800 
 29 C      -12.9920    -2.0690     3.1880 C.3   1 <1>  -0.2400 
 30 H       -0.5400    -3.7550     1.4910 H     1 <1>   0.0800 
 31 H       -0.3920    -2.3570     2.4760 H     1 <1>   0.0800 
 32 H       -2.7860    -4.9030    -0.6020 H     1 <1>   0.0800 
 33 H       -1.1580    -4.3050    -0.5370 H     1 <1>   0.0800 
 34 H       -2.1850    -3.8110    -1.8290 H     1 <1>   0.0800 
 35 H       -4.5210    -3.7730    -1.8400 H     1 <1>   0.1500 
 36 H       -5.3990     1.3010     0.9050 H     1 <1>   0.0800 
 37 H       -6.4910     0.3070     1.8390 H     1 <1>   0.0800 
 38 H       -7.0280     1.0660     0.3610 H     1 <1>   0.0800 
 39 H       -6.6780    -2.8410    -2.3280 H     1 <1>   0.1500 
 40 H        1.5150     0.8700    -0.1380 H     1 <1>   0.0800 
 41 H        1.3920    -0.4440    -1.3100 H     1 <1>   0.0800 
 42 H        2.5660    -0.5410     0.0060 H     1 <1>   0.0800 
 43 H       -8.8070    -2.4830    -1.1690 H     1 <1>   0.0800 
 44 H       -8.6570    -1.6330    -2.7020 H     1 <1>   0.0800 
 45 H      -12.4700     0.2100    -0.8460 H     1 <1>   0.0800 
 46 H      -11.7950     1.0070     0.5460 H     1 <1>   0.0800 
 47 H       -9.6660     0.0110     1.6170 H     1 <1>   0.0800 
 48 H       -8.9760    -1.4260     0.9240 H     1 <1>   0.0800 
 49 H      -13.0760    -1.7310     0.4750 H     1 <1>   0.0800 
 50 H      -13.7560    -0.3030     1.1960 H     1 <1>   0.0800 
 51 H      -10.2360    -1.9470     2.9670 H     1 <1>   0.0800 
 52 H      -10.8970    -2.7510     1.5750 H     1 <1>   0.0800 
 53 H      -11.9670    -0.2260     2.8600 H     1 <1>   0.0800 
 54 H      -13.1750    -3.0010     2.6830 H     1 <1>   0.0800 
 55 H      -13.9380    -1.6020     3.3990 H     1 <1>   0.0800 
 56 H      -12.5000    -2.2740     4.1220 H     1 <1>   0.0800 
@<TRIPOS>BOND
  1   1   2  2   
  2   2   3  1   
  3   2   4  1   
  4   3   5  1   
  5   4   6  2   
  6   4   7  1   
  7   5   8  ar  
  8   5   9  ar  
  9   6   8  1   
 10   6  10  1   
 11   7  11  1   
 12   7  30  1   
 13   7  31  1   
 14   8  12  ar  
 15   9  13  ar  
 16   9  14  1   
 17  10  32  1   
 18  10  33  1   
 19  10  34  1   
 20  11  15  2   
 21  11  16  1   
 22  12  17  ar  
 23  12  35  1   
 24  13  17  ar  
 25  13  18  1   
 26  14  36  1   
 27  14  37  1   
 28  14  38  1   
 29  16  19  1   
 30  17  39  1   
 31  18  20  1   
 32  19  40  1   
 33  19  41  1   
 34  19  42  1   
 35  20  21  1   
 36  20  43  1   
 37  20  44  1   
 38  21  22  2   
 39  21  23  am  
 40  23  24  1   
 41  23  25  1   
 42  24  26  1   
 43  24  45  1   
 44  24  46  1   
 45  25  27  1   
 46  25  47  1   
 47  25  48  1   
 48  26  28  1   
 49  26  49  1   
 50  26  50  1   
 51  27  28  1   
 52  27  51  1   
 53  27  52  1   
 54  28  29  1   
 55  28  53  1   
 56  29  54  1   
 57  29  55  1   
 58  29  56  1   
@<TRIPOS>SUBSTRUCTURE
  1 ****   9 GROUP 4 **** **** 0

# MOE 2024.06 (io_trps.svl 2023.06)
