@<TRIPOS>MOLECULE
NONAME
41 41 1 0 0 
SMALL
USER_CHARGES


@<TRIPOS>ATOM
  1 O        7.9690    -2.3340    -0.4970 O.3   1 <1>  -0.3630 
  2 C        9.1280    -1.6280    -0.4040 C.ar  1 <1>   0.0830 
  3 C        7.9030    -3.6900    -0.1390 C.3   1 <1>   0.1200 
  4 C        9.0580    -0.2430    -0.5270 C.ar  1 <1>  -0.1440 
  5 C       10.3620    -2.2380    -0.1870 C.ar  1 <1>  -0.1500 
  6 C        6.4300    -4.0960    -0.1950 C.3   1 <1>   0.3430 
  7 C       10.2170     0.5100    -0.4150 C.ar  1 <1>  -0.1500 
  8 C        7.7350     0.4730    -0.7760 C.3   1 <1>   0.1220 
  9 C       11.5090    -1.4730    -0.0840 C.ar  1 <1>  -0.1500 
 10 N        6.2310    -5.5240     0.2040 N.4   1 <1>  -0.9060 
 11 C       11.4420    -0.0950    -0.1960 C.ar  1 <1>  -0.1430 
 12 C        7.0390     0.7750     0.5410 C.2   1 <1>  -0.2880 
 13 C        4.8220    -5.9420     0.1880 C.3   1 <1>   0.4230 
 14 C       12.6990     0.7490    -0.0750 C.3   1 <1>  -0.0970 
 15 C        6.6460     1.9860     0.9480 C.2   1 <1>  -0.3000 
 16 C        4.7320    -7.2650     0.9370 C.3   1 <1>  -0.2400 
 17 C        4.3590    -6.1060    -1.2570 C.3   1 <1>  -0.2400 
 18 H        8.2960    -3.7890     0.8580 H     1 <1>   0.0800 
 19 H        8.4900    -4.2500    -0.8460 H     1 <1>   0.0800 
 20 H       10.4610    -3.3010    -0.0990 H     1 <1>   0.1500 
 21 H        6.0710    -3.9440    -1.2000 H     1 <1>   0.0800 
 22 H        5.8720    -3.4540     0.4680 H     1 <1>   0.0800 
 23 H       10.1650     1.5820    -0.4950 H     1 <1>   0.1500 
 24 H        7.0950    -0.1320    -1.3920 H     1 <1>   0.0800 
 25 H        7.9140     1.3890    -1.3110 H     1 <1>   0.0800 
 26 H       12.4570    -1.9520     0.0860 H     1 <1>   0.1500 
 27 H        6.5940    -5.6710     1.1530 H     1 <1>   0.4500 
 28 H        6.7540    -6.1470    -0.4210 H     1 <1>   0.4500 
 29 H        6.8920    -0.1100     1.1360 H     1 <1>   0.1500 
 30 H        4.2090    -5.2070     0.6890 H     1 <1>   0.0800 
 31 H       12.6430     1.5970    -0.7330 H     1 <1>   0.0800 
 32 H       13.5690     0.1740    -0.3370 H     1 <1>   0.0800 
 33 H       12.8050     1.1000     0.9350 H     1 <1>   0.0800 
 34 H        6.1580     2.1740     1.8880 H     1 <1>   0.1500 
 35 H        6.7810     2.8910     0.3800 H     1 <1>   0.1500 
 36 H        5.3290    -8.0260     0.4650 H     1 <1>   0.0800 
 37 H        3.7110    -7.6050     0.9450 H     1 <1>   0.0800 
 38 H        5.0410    -7.1470     1.9600 H     1 <1>   0.0800 
 39 H        4.9660    -6.8210    -1.7850 H     1 <1>   0.0800 
 40 H        4.3710    -5.1680    -1.7800 H     1 <1>   0.0800 
 41 H        3.3440    -6.4640    -1.2680 H     1 <1>   0.0800 
@<TRIPOS>BOND
  1   1   2  1   
  2   1   3  1   
  3   2   4  ar  
  4   2   5  ar  
  5   3   6  1   
  6   3  18  1   
  7   3  19  1   
  8   4   7  ar  
  9   4   8  1   
 10   5   9  ar  
 11   5  20  1   
 12   6  10  1   
 13   6  21  1   
 14   6  22  1   
 15   7  11  ar  
 16   7  23  1   
 17   8  12  1   
 18   8  24  1   
 19   8  25  1   
 20   9  11  ar  
 21   9  26  1   
 22  10  13  1   
 23  10  27  1   
 24  10  28  1   
 25  11  14  1   
 26  12  15  2   
 27  12  29  1   
 28  13  16  1   
 29  13  17  1   
 30  13  30  1   
 31  14  31  1   
 32  14  32  1   
 33  14  33  1   
 34  15  34  1   
 35  15  35  1   
 36  16  36  1   
 37  16  37  1   
 38  16  38  1   
 39  17  39  1   
 40  17  40  1   
 41  17  41  1   
@<TRIPOS>SUBSTRUCTURE
  1 ****   1 GROUP 4 **** **** 0

# MOE 2024.06 (io_trps.svl 2023.06)
