@<TRIPOS>MOLECULE
NONAME
43 44 1 0 0 
SMALL
USER_CHARGES


@<TRIPOS>ATOM
  1 O       -0.8810    -0.7750     2.2380 O.2   1 <1>  -0.5700 
  2 C       -1.5330    -1.3550     1.3950 C.2   1 <1>   0.6900 
  3 N       -2.8560    -1.0730     1.3010 N.am  1 <1>  -0.5470 
  4 N       -0.9660    -2.2410     0.5450 N.am  1 <1>  -0.7300 
  5 C       -3.8660    -1.6590     0.5300 C.ar  1 <1>   0.1170 
  6 C        0.4360    -2.6770     0.5580 C.3   1 <1>   0.2200 
  7 C       -4.8150    -0.8670    -0.1170 C.ar  1 <1>  -0.1430 
  8 C       -3.9440    -3.0400     0.4080 C.ar  1 <1>  -0.1500 
  9 C        1.1200    -2.1870    -0.7220 C.3   1 <1>  -0.1600 
 10 C        0.4740    -4.2060     0.6590 C.3   1 <1>  -0.1600 
 11 C       -5.8000    -1.4700    -0.8810 C.ar  1 <1>  -0.1500 
 12 C       -4.7770     0.6520    -0.0090 C.3   1 <1>  -0.0970 
 13 C       -4.9270    -3.6630    -0.3530 C.ar  1 <1>   0.0860 
 14 C        2.5620    -2.7090    -0.8150 C.3   1 <1>  -0.1600 
 15 C        1.9140    -4.7320     0.5680 C.3   1 <1>  -0.1600 
 16 C       -5.8510    -2.8460    -1.0020 C.ar  1 <1>  -0.1500 
 17 C       -4.9600    -5.1080    -0.4660 C.2   1 <1>   0.6340 
 18 C        2.6050    -4.2390    -0.7110 C.3   1 <1>  -0.1600 
 19 O       -3.9780    -5.7500    -0.7600 O.2   1 <1>  -0.5700 
 20 O       -6.0830    -5.7870    -0.2200 O.3   1 <1>  -0.4300 
 21 C       -7.1020    -5.3190     0.6390 C.3   1 <1>   0.0400 
 22 H       -3.1080    -0.2690     1.8700 H     1 <1>   0.3700 
 23 H       -1.5460    -2.6250    -0.1980 H     1 <1>   0.3700 
 24 H        0.9400    -2.2550     1.4130 H     1 <1>   0.0800 
 25 H       -3.2280    -3.6570     0.9220 H     1 <1>   0.1500 
 26 H        1.1290    -1.1110    -0.7270 H     1 <1>   0.0800 
 27 H        0.5680    -2.5300    -1.5790 H     1 <1>   0.0800 
 28 H       -0.1060    -4.6350    -0.1390 H     1 <1>   0.0800 
 29 H        0.0430    -4.5110     1.5960 H     1 <1>   0.0800 
 30 H       -6.5330    -0.8690    -1.3920 H     1 <1>   0.1500 
 31 H       -3.8130     1.0200    -0.3120 H     1 <1>   0.0800 
 32 H       -4.9640     0.9550     1.0050 H     1 <1>   0.0800 
 33 H       -5.5220     1.1040    -0.6400 H     1 <1>   0.0800 
 34 H        3.1470    -2.2810    -0.0180 H     1 <1>   0.0800 
 35 H        2.9990    -2.3970    -1.7480 H     1 <1>   0.0800 
 36 H        1.9050    -5.8090     0.5820 H     1 <1>   0.0800 
 37 H        2.4710    -4.3960     1.4260 H     1 <1>   0.0800 
 38 H       -6.6130    -3.2970    -1.6150 H     1 <1>   0.1500 
 39 H        3.6290    -4.5720    -0.7180 H     1 <1>   0.0800 
 40 H        2.1140    -4.6680    -1.5680 H     1 <1>   0.0800 
 41 H       -7.7560    -6.1440     0.8610 H     1 <1>   0.0800 
 42 H       -7.6570    -4.5420     0.1460 H     1 <1>   0.0800 
 43 H       -6.6570    -4.9530     1.5480 H     1 <1>   0.0800 
@<TRIPOS>BOND
  1   1   2  2   
  2   2   3  am  
  3   2   4  am  
  4   3   5  1   
  5   3  22  1   
  6   4   6  1   
  7   4  23  1   
  8   5   7  ar  
  9   5   8  ar  
 10   6   9  1   
 11   6  10  1   
 12   6  24  1   
 13   7  11  ar  
 14   7  12  1   
 15   8  13  ar  
 16   8  25  1   
 17   9  14  1   
 18   9  26  1   
 19   9  27  1   
 20  10  15  1   
 21  10  28  1   
 22  10  29  1   
 23  11  16  ar  
 24  11  30  1   
 25  12  31  1   
 26  12  32  1   
 27  12  33  1   
 28  13  16  ar  
 29  13  17  1   
 30  14  18  1   
 31  14  34  1   
 32  14  35  1   
 33  15  18  1   
 34  15  36  1   
 35  15  37  1   
 36  16  38  1   
 37  17  19  2   
 38  17  20  1   
 39  18  39  1   
 40  18  40  1   
 41  20  21  1   
 42  21  41  1   
 43  21  42  1   
 44  21  43  1   
@<TRIPOS>SUBSTRUCTURE
  1 ****   8 GROUP 4 **** **** 0

# MOE 2024.06 (io_trps.svl 2023.06)
