@<TRIPOS>MOLECULE
NONAME
47 49 1 0 0 
SMALL
USER_CHARGES


@<TRIPOS>ATOM
  1 O        1.2100    -5.0320     1.7960 O.2   1 <1>  -0.5700 
  2 C        0.8510    -4.0450     1.1780 C.2   1 <1>   0.5440 
  3 N        1.8130    -3.1660     0.7070 N.am  1 <1>  -0.4770 
  4 C       -0.5650    -3.8270     0.9400 C.ar  1 <1>   0.0860 
  5 C        1.6270    -1.7790     0.5100 C.ar  1 <1>   0.1170 
  6 C        3.1030    -3.7240     0.2320 C.3   1 <1>   0.1400 
  7 C       -1.0350    -3.2950    -0.2610 C.ar  1 <1>  -0.1500 
  8 C       -1.5160    -4.1490     1.9080 C.ar  1 <1>  -0.1500 
  9 C        2.2910    -1.1120    -0.5240 C.ar  1 <1>  -0.1440 
 10 C        0.7870    -1.0440     1.3440 C.ar  1 <1>  -0.1500 
 11 C        3.2690    -3.3550    -1.2420 C.3   1 <1>  -0.1600 
 12 C       -2.3800    -3.0680    -0.4770 C.ar  1 <1>   0.0830 
 13 C       -2.8680    -3.9370     1.7030 C.ar  1 <1>  -0.1500 
 14 C        2.0730     0.2410    -0.7290 C.ar  1 <1>  -0.1500 
 15 C        3.2880    -1.8320    -1.4260 C.3   1 <1>  -0.0170 
 16 C        0.5780     0.3060     1.1370 C.ar  1 <1>  -0.1500 
 17 O       -2.7410    -2.5470    -1.6750 O.3   1 <1>  -0.3630 
 18 C       -3.3210    -3.3920     0.5050 C.ar  1 <1>   0.0830 
 19 C        1.2170     0.9500     0.0940 C.ar  1 <1>  -0.1500 
 20 C       -3.2110    -1.2170    -1.6890 C.3   1 <1>   0.1200 
 21 O       -4.6370    -3.1700     0.2470 O.3   1 <1>  -0.3630 
 22 C       -2.0140    -0.2650    -1.7170 C.3   1 <1>  -0.2400 
 23 C       -5.6530    -3.5900     1.1270 C.3   1 <1>   0.1200 
 24 C       -6.9960    -3.2400     0.4950 C.3   1 <1>  -0.2400 
 25 H        3.1190    -4.7950     0.3420 H     1 <1>   0.0800 
 26 H        3.9040    -3.3100     0.8200 H     1 <1>   0.0800 
 27 H       -0.3400    -3.0460    -1.0420 H     1 <1>   0.1500 
 28 H       -1.1780    -4.5760     2.8380 H     1 <1>   0.1500 
 29 H        0.2930    -1.5280     2.1650 H     1 <1>   0.1500 
 30 H        2.4480    -3.7760    -1.7970 H     1 <1>   0.0800 
 31 H        4.1790    -3.7790    -1.6250 H     1 <1>   0.0800 
 32 H       -3.5510    -4.2040     2.4870 H     1 <1>   0.1500 
 33 H        2.5770     0.7530    -1.5300 H     1 <1>   0.1500 
 34 H        4.2720    -1.4670    -1.1870 H     1 <1>   0.0800 
 35 H        3.0890    -1.5940    -2.4560 H     1 <1>   0.0800 
 36 H       -0.0800     0.8560     1.7870 H     1 <1>   0.1500 
 37 H        1.0540     2.0010    -0.0730 H     1 <1>   0.1500 
 38 H       -3.8270    -1.0450    -0.8240 H     1 <1>   0.0800 
 39 H       -3.8080    -1.0970    -2.5750 H     1 <1>   0.0800 
 40 H       -1.4310    -0.3740    -0.8220 H     1 <1>   0.0800 
 41 H       -2.3600     0.7500    -1.7760 H     1 <1>   0.0800 
 42 H       -1.3980    -0.4700    -2.5740 H     1 <1>   0.0800 
 43 H       -5.5280    -3.0770     2.0640 H     1 <1>   0.0800 
 44 H       -5.5630    -4.6540     1.2660 H     1 <1>   0.0800 
 45 H       -7.0690    -2.1780     0.3460 H     1 <1>   0.0800 
 46 H       -7.7970    -3.5520     1.1410 H     1 <1>   0.0800 
 47 H       -7.1010    -3.7430    -0.4500 H     1 <1>   0.0800 
@<TRIPOS>BOND
  1   1   2  2   
  2   2   3  am  
  3   2   4  1   
  4   3   5  1   
  5   3   6  1   
  6   4   7  ar  
  7   4   8  ar  
  8   5   9  ar  
  9   5  10  ar  
 10   6  11  1   
 11   6  25  1   
 12   6  26  1   
 13   7  12  ar  
 14   7  27  1   
 15   8  13  ar  
 16   8  28  1   
 17   9  14  ar  
 18   9  15  1   
 19  10  16  ar  
 20  10  29  1   
 21  11  15  1   
 22  11  30  1   
 23  11  31  1   
 24  12  17  1   
 25  12  18  ar  
 26  13  18  ar  
 27  13  32  1   
 28  14  19  ar  
 29  14  33  1   
 30  15  34  1   
 31  15  35  1   
 32  16  19  ar  
 33  16  36  1   
 34  17  20  1   
 35  18  21  1   
 36  19  37  1   
 37  20  22  1   
 38  20  38  1   
 39  20  39  1   
 40  21  23  1   
 41  22  40  1   
 42  22  41  1   
 43  22  42  1   
 44  23  24  1   
 45  23  43  1   
 46  23  44  1   
 47  24  45  1   
 48  24  46  1   
 49  24  47  1   
@<TRIPOS>SUBSTRUCTURE
  1 ****   7 GROUP 4 **** **** 0

# MOE 2024.06 (io_trps.svl 2023.06)
