@<TRIPOS>MOLECULE
NONAME
46 46 1 0 0 
SMALL
USER_CHARGES


@<TRIPOS>ATOM
  1 O        0.4670    -0.4940    -0.7580 O.3   1 <1>  -0.3630 
  2 C        1.7170    -0.1660    -0.3360 C.ar  1 <1>   0.0830 
  3 C        0.0450    -1.8190    -1.0080 C.3   1 <1>   0.2000 
  4 C        1.9900     1.1870    -0.1720 C.ar  1 <1>  -0.1440 
  5 C        2.7080    -1.1030    -0.0640 C.ar  1 <1>  -0.1500 
  6 C       -1.1370    -1.7360    -1.9710 C.3   1 <1>  -0.2400 
  7 C       -0.3710    -2.4640     0.3160 C.3   1 <1>  -0.2400 
  8 C        3.2530     1.5940     0.2410 C.ar  1 <1>  -0.1500 
  9 C        0.8920     2.2000    -0.4640 C.3   1 <1>   0.4860 
 10 C        3.9590    -0.6910     0.3550 C.ar  1 <1>  -0.1500 
 11 C        4.2470     0.6580     0.5010 C.ar  1 <1>  -0.1430 
 12 N        0.1860     2.5710     0.8000 N.4   1 <1>  -0.9590 
 13 C        5.6390     1.0860     0.9460 C.3   1 <1>   0.4860 
 14 C       -0.5980     1.4110     1.3330 C.3   1 <1>   0.2630 
 15 C       -0.7050     3.7510     0.5910 C.3   1 <1>   0.2630 
 16 N        6.4480     1.4760    -0.2470 N.4   1 <1>  -0.9590 
 17 C        6.7050     0.3120    -1.1550 C.3   1 <1>   0.2630 
 18 C        7.7360     2.1190     0.1600 C.3   1 <1>   0.2630 
 19 H        0.8440    -2.3630    -1.4820 H     1 <1>   0.0800 
 20 H        2.5270    -2.1570    -0.1680 H     1 <1>   0.1500 
 21 H       -1.9460    -1.1770    -1.5370 H     1 <1>   0.0800 
 22 H       -1.4920    -2.7260    -2.2000 H     1 <1>   0.0800 
 23 H       -0.8310    -1.2710    -2.8910 H     1 <1>   0.0800 
 24 H       -1.1820    -1.9190     0.7640 H     1 <1>   0.0800 
 25 H        0.4540    -2.5030     1.0020 H     1 <1>   0.0800 
 26 H       -0.7010    -3.4720     0.1380 H     1 <1>   0.0800 
 27 H        3.4630     2.6440     0.3590 H     1 <1>   0.1500 
 28 H        0.1910     1.7840    -1.1700 H     1 <1>   0.0800 
 29 H        1.3320     3.0760    -0.9100 H     1 <1>   0.0800 
 30 H        4.7040    -1.4410     0.5660 H     1 <1>   0.1500 
 31 H        0.9080     2.8060     1.4930 H     1 <1>   0.4500 
 32 H        6.1200     0.2760     1.4710 H     1 <1>   0.0800 
 33 H        5.5530     1.9210     1.6220 H     1 <1>   0.0800 
 34 H       -1.3280     1.0870     0.6090 H     1 <1>   0.0800 
 35 H       -1.1080     1.6860     2.2420 H     1 <1>   0.0800 
 36 H        0.0570     0.5820     1.5460 H     1 <1>   0.0800 
 37 H       -1.4690     3.5210    -0.1350 H     1 <1>   0.0800 
 38 H       -0.1370     4.5960     0.2370 H     1 <1>   0.0800 
 39 H       -1.1850     4.0250     1.5170 H     1 <1>   0.0800 
 40 H        5.8880     2.1600    -0.7760 H     1 <1>   0.4500 
 41 H        7.2620    -0.4530    -0.6390 H     1 <1>   0.0800 
 42 H        7.2700     0.6270    -2.0170 H     1 <1>   0.0800 
 43 H        5.7730    -0.1100    -1.4970 H     1 <1>   0.0800 
 44 H        8.3440     1.4250     0.7170 H     1 <1>   0.0800 
 45 H        7.5480     2.9840     0.7760 H     1 <1>   0.0800 
 46 H        8.2870     2.4350    -0.7120 H     1 <1>   0.0800 
@<TRIPOS>BOND
  1   1   2  1   
  2   1   3  1   
  3   2   4  ar  
  4   2   5  ar  
  5   3   6  1   
  6   3   7  1   
  7   3  19  1   
  8   4   8  ar  
  9   4   9  1   
 10   5  10  ar  
 11   5  20  1   
 12   6  21  1   
 13   6  22  1   
 14   6  23  1   
 15   7  24  1   
 16   7  25  1   
 17   7  26  1   
 18   8  11  ar  
 19   8  27  1   
 20   9  12  1   
 21   9  28  1   
 22   9  29  1   
 23  10  11  ar  
 24  10  30  1   
 25  11  13  1   
 26  12  14  1   
 27  12  15  1   
 28  12  31  1   
 29  13  16  1   
 30  13  32  1   
 31  13  33  1   
 32  14  34  1   
 33  14  35  1   
 34  14  36  1   
 35  15  37  1   
 36  15  38  1   
 37  15  39  1   
 38  16  17  1   
 39  16  18  1   
 40  16  40  1   
 41  17  41  1   
 42  17  42  1   
 43  17  43  1   
 44  18  44  1   
 45  18  45  1   
 46  18  46  1   
@<TRIPOS>SUBSTRUCTURE
  1 ****   4 GROUP 4 **** **** 0

# MOE 2024.06 (io_trps.svl 2023.06)
