@<TRIPOS>MOLECULE
NONAME
47 48 1 0 0 
SMALL
USER_CHARGES


@<TRIPOS>ATOM
  1 S       -0.6180    -0.1290    -0.6730 S.o2  1 <1>   1.3330 
  2 O       -0.9660     1.2740    -0.6760 O.2   1 <1>  -0.6500 
  3 O       -0.5270    -0.8470    -1.9260 O.2   1 <1>  -0.6500 
  4 N       -1.7430    -0.9460     0.2940 N.am  1 <1>  -0.8490 
  5 C        0.9100    -0.3310     0.2530 C.3   1 <1>  -0.0550 
  6 C       -3.0680    -0.2870     0.2840 C.3   1 <1>   0.1960 
  7 C       -1.8220    -2.3800     0.0160 C.3   1 <1>   0.1960 
  8 C        2.1430     0.3190    -0.4010 C.3   1 <1>  -0.2400 
  9 C       -4.2170    -1.2020     0.7580 C.3   1 <1>  -0.0190 
 10 C       -2.5810    -3.0950     1.1460 C.3   1 <1>  -0.1600 
 11 C       -5.3610    -0.3700     1.3210 C.2   1 <1>   0.5690 
 12 C       -3.7100    -2.2480     1.7660 C.3   1 <1>  -0.1600 
 13 O       -5.1600     0.3830     2.2420 O.2   1 <1>  -0.5700 
 14 N       -6.5940    -0.4990     0.7760 N.am  1 <1>  -0.7300 
 15 C       -7.7870     0.2110     1.2610 C.3   1 <1>   0.2840 
 16 C       -9.0050    -0.4580     0.6530 C.ar  1 <1>  -0.1440 
 17 C       -9.5520    -1.5840     1.2500 C.ar  1 <1>  -0.1500 
 18 C       -9.5790     0.0430    -0.5060 C.ar  1 <1>  -0.1500 
 19 C      -10.6590    -2.2000     0.6950 C.ar  1 <1>  -0.1500 
 20 C      -10.6880    -0.5720    -1.0640 C.ar  1 <1>  -0.1500 
 21 C      -11.2350    -1.7010    -0.4620 C.ar  1 <1>   0.0820 
 22 O      -12.3180    -2.3640    -0.9400 O.3   1 <1>  -0.3630 
 23 C      -12.9940    -1.9270    -2.0980 C.3   1 <1>   0.0400 
 24 H        1.1040    -1.3780     0.3810 H     1 <1>   0.0800 
 25 H        0.7760     0.0940     1.2290 H     1 <1>   0.0800 
 26 H       -3.2980     0.0610    -0.7100 H     1 <1>   0.0800 
 27 H       -3.0050     0.5800     0.9210 H     1 <1>   0.0800 
 28 H       -0.8330    -2.8000    -0.0680 H     1 <1>   0.0800 
 29 H       -2.3250    -2.5320    -0.9260 H     1 <1>   0.0800 
 30 H        2.3140    -0.1080    -1.3740 H     1 <1>   0.0800 
 31 H        3.0150     0.1610     0.2070 H     1 <1>   0.0800 
 32 H        1.9840     1.3780    -0.5140 H     1 <1>   0.0800 
 33 H       -4.5890    -1.7250    -0.1030 H     1 <1>   0.0800 
 34 H       -1.8850    -3.3670     1.9200 H     1 <1>   0.0800 
 35 H       -2.9880    -4.0080     0.7500 H     1 <1>   0.0800 
 36 H       -4.5160    -2.8820     2.0940 H     1 <1>   0.0800 
 37 H       -3.3260    -1.7280     2.6280 H     1 <1>   0.0800 
 38 H       -6.7840    -1.1630     0.0240 H     1 <1>   0.3700 
 39 H       -7.7330     1.2450     0.9670 H     1 <1>   0.0800 
 40 H       -7.8260     0.1640     2.3370 H     1 <1>   0.0800 
 41 H       -9.1160    -1.9860     2.1500 H     1 <1>   0.1500 
 42 H       -9.1640     0.9150    -0.9810 H     1 <1>   0.1500 
 43 H      -11.0860    -3.0720     1.1560 H     1 <1>   0.1500 
 44 H      -11.1100    -0.1600    -1.9600 H     1 <1>   0.1500 
 45 H      -13.8160    -2.5960    -2.2770 H     1 <1>   0.0800 
 46 H      -12.3140    -1.9520    -2.9300 H     1 <1>   0.0800 
 47 H      -13.3640    -0.9310    -1.9300 H     1 <1>   0.0800 
@<TRIPOS>BOND
  1   1   2  2   
  2   1   3  2   
  3   1   4  am  
  4   1   5  1   
  5   4   6  1   
  6   4   7  1   
  7   5   8  1   
  8   5  24  1   
  9   5  25  1   
 10   6   9  1   
 11   6  26  1   
 12   6  27  1   
 13   7  10  1   
 14   7  28  1   
 15   7  29  1   
 16   8  30  1   
 17   8  31  1   
 18   8  32  1   
 19   9  11  1   
 20   9  12  1   
 21   9  33  1   
 22  10  12  1   
 23  10  34  1   
 24  10  35  1   
 25  11  13  2   
 26  11  14  am  
 27  12  36  1   
 28  12  37  1   
 29  14  15  1   
 30  14  38  1   
 31  15  16  1   
 32  15  39  1   
 33  15  40  1   
 34  16  17  ar  
 35  16  18  ar  
 36  17  19  ar  
 37  17  41  1   
 38  18  20  ar  
 39  18  42  1   
 40  19  21  ar  
 41  19  43  1   
 42  20  21  ar  
 43  20  44  1   
 44  21  22  1   
 45  22  23  1   
 46  23  45  1   
 47  23  46  1   
 48  23  47  1   
@<TRIPOS>SUBSTRUCTURE
  1 ****  11 GROUP 4 **** **** 0

# MOE 2024.06 (io_trps.svl 2023.06)
