@<TRIPOS>MOLECULE
NONAME
34 34 1 0 0 
SMALL
USER_CHARGES


@<TRIPOS>ATOM
  1 S        0.2370    -0.2200     1.7190 S.o2  1 <1>   1.4470 
  2 O        1.0840    -1.3210     2.1320 O.2   1 <1>  -0.6500 
  3 O       -0.0720     0.8110     2.6870 O.2   1 <1>  -0.6500 
  4 N        1.0320     0.5640     0.4380 N.am  1 <1>  -0.8490 
  5 C       -1.2650    -0.8880     0.9490 C.ar  1 <1>  -0.0090 
  6 C        2.4350     0.8390     0.7560 C.3   1 <1>   0.1960 
  7 C        0.3170     1.7650    -0.0050 C.3   1 <1>   0.1960 
  8 C       -2.4560    -0.1780     0.9520 C.ar  1 <1>  -0.1500 
  9 C       -1.2490    -2.1120     0.2960 C.ar  1 <1>  -0.1500 
 10 C        3.3050    -0.1630     0.0050 C.3   1 <1>  -0.2400 
 11 C        0.7230     2.1170    -1.4350 C.3   1 <1>  -0.2400 
 12 C       -3.6190    -0.6230     0.3210 C.ar  1 <1>  -0.1790 
 13 C       -2.3830    -2.5970    -0.3290 C.ar  1 <1>  -0.1500 
 14 C       -3.5580    -1.8660    -0.3260 C.ar  1 <1>  -0.1440 
 15 C       -4.7970     0.2390     0.3600 C.2   1 <1>   0.9790 
 16 C       -4.7730    -2.4330    -1.0460 C.3   1 <1>  -0.0970 
 17 O       -4.6540     1.4740     0.3060 O.co2 1 <1>  -0.9000 
 18 O       -5.9490    -0.2190     0.4640 O.co2 1 <1>  -0.9000 
 19 H        2.6110     0.7620     1.8170 H     1 <1>   0.0800 
 20 H        2.7130     1.8350     0.4570 H     1 <1>   0.0800 
 21 H        0.5060     2.5860     0.6670 H     1 <1>   0.0800 
 22 H       -0.7450     1.5840    -0.0070 H     1 <1>   0.0800 
 23 H       -2.4980     0.7750     1.4570 H     1 <1>   0.1500 
 24 H       -0.3400    -2.6870     0.2760 H     1 <1>   0.1500 
 25 H        3.0760    -1.1650     0.3220 H     1 <1>   0.0800 
 26 H        4.3410     0.0310     0.2110 H     1 <1>   0.0800 
 27 H        3.1390    -0.0770    -1.0530 H     1 <1>   0.0800 
 28 H        1.7580     2.3960    -1.4950 H     1 <1>   0.0800 
 29 H        0.1290     2.9450    -1.7780 H     1 <1>   0.0800 
 30 H        0.5390     1.2780    -2.0820 H     1 <1>   0.0800 
 31 H       -2.3420    -3.5500    -0.8240 H     1 <1>   0.1500 
 32 H       -5.1870    -1.6910    -1.7060 H     1 <1>   0.0800 
 33 H       -5.5260    -2.6990    -0.3250 H     1 <1>   0.0800 
 34 H       -4.5220    -3.3030    -1.6220 H     1 <1>   0.0800 
@<TRIPOS>BOND
  1   1   2  2   
  2   1   3  2   
  3   1   4  am  
  4   1   5  1   
  5   4   6  1   
  6   4   7  1   
  7   5   8  ar  
  8   5   9  ar  
  9   6  10  1   
 10   6  19  1   
 11   6  20  1   
 12   7  11  1   
 13   7  21  1   
 14   7  22  1   
 15   8  12  ar  
 16   8  23  1   
 17   9  13  ar  
 18   9  24  1   
 19  10  25  1   
 20  10  26  1   
 21  10  27  1   
 22  11  28  1   
 23  11  29  1   
 24  11  30  1   
 25  12  14  ar  
 26  12  15  1   
 27  13  14  ar  
 28  13  31  1   
 29  14  16  1   
 30  15  17  ar  
 31  15  18  ar  
 32  16  32  1   
 33  16  33  1   
 34  16  34  1   
@<TRIPOS>SUBSTRUCTURE
  1 ****   5 GROUP 4 **** **** 0

# MOE 2024.06 (io_trps.svl 2023.06)
