@<TRIPOS>MOLECULE
NONAME
54 57 1 0 0 
SMALL
USER_CHARGES


@<TRIPOS>ATOM
  1 S       -0.2720     0.6650    -1.5190 S.o2  1 <1>   1.4470 
  2 O       -1.2300     1.7160    -1.7890 O.2   1 <1>  -0.6500 
  3 O       -0.5150    -0.6620    -2.0410 O.2   1 <1>  -0.6500 
  4 N       -0.1460     0.5380     0.1670 N.am  1 <1>  -0.8490 
  5 C        1.3900     1.2040    -2.0120 C.ar  1 <1>  -0.0090 
  6 C       -1.2220    -0.2840     0.7280 C.3   1 <1>   0.1960 
  7 C       -0.0960     1.8530     0.8170 C.3   1 <1>   0.1960 
  8 C        2.5210     0.6110    -1.4720 C.ar  1 <1>  -0.1500 
  9 C        1.5740     2.2170    -2.9410 C.ar  1 <1>  -0.1500 
 10 C       -0.9880    -0.5160     2.2250 C.3   1 <1>  -0.1600 
 11 C        0.1960     1.6920     2.3120 C.3   1 <1>  -0.1600 
 12 C        3.8140     1.0050    -1.8100 C.ar  1 <1>   0.0860 
 13 C        2.8440     2.6210    -3.3120 C.ar  1 <1>  -0.1500 
 14 C       -0.8560     0.8070     2.9890 C.3   1 <1>  -0.1600 
 15 C        3.9620     2.0230    -2.7590 C.ar  1 <1>  -0.1430 
 16 C        4.9360     0.3600    -1.1590 C.2   1 <1>   0.5440 
 17 C        5.3430     2.4820    -3.2150 C.3   1 <1>  -0.0970 
 18 O        5.1320    -0.8310    -1.2920 O.2   1 <1>  -0.5700 
 19 N        5.7640     1.0900    -0.3570 N.am  1 <1>  -0.7300 
 20 C        6.9010     0.5580     0.4170 C.3   1 <1>   0.2200 
 21 C        6.6600     0.7830     1.9200 C.3   1 <1>  -0.0800 
 22 C        8.1610     1.3970     0.1450 C.3   1 <1>  -0.1600 
 23 C        7.1210     2.2220     2.1130 C.3   1 <1>  -0.1600 
 24 C        7.7460     0.0160     2.6940 C.3   1 <1>  -0.1600 
 25 C        8.5030     1.9840     1.5280 C.3   1 <1>  -0.0800 
 26 C        9.0160     0.8420     2.4200 C.3   1 <1>  -0.1600 
 27 H       -1.2460    -1.2420     0.2340 H     1 <1>   0.0800 
 28 H       -2.1730     0.2000     0.5690 H     1 <1>   0.0800 
 29 H       -1.0350     2.3660     0.6820 H     1 <1>   0.0800 
 30 H        0.6810     2.4510     0.3710 H     1 <1>   0.0800 
 31 H        2.4010    -0.1880    -0.7580 H     1 <1>   0.1500 
 32 H        0.7140     2.6940    -3.3820 H     1 <1>   0.1500 
 33 H       -0.0890    -1.0960     2.3450 H     1 <1>   0.0800 
 34 H       -1.8040    -1.0890     2.6280 H     1 <1>   0.0800 
 35 H        0.2100     2.6600     2.7800 H     1 <1>   0.0800 
 36 H        1.1720     1.2540     2.4290 H     1 <1>   0.0800 
 37 H        2.9510     3.4060    -4.0420 H     1 <1>   0.1500 
 38 H       -0.5770     0.6160     4.0110 H     1 <1>   0.0800 
 39 H       -1.8050     1.3150     2.9890 H     1 <1>   0.0800 
 40 H        5.2790     3.0510    -4.1250 H     1 <1>   0.0800 
 41 H        5.7980     3.0960    -2.4590 H     1 <1>   0.0800 
 42 H        5.9770     1.6320    -3.4000 H     1 <1>   0.0800 
 43 H        5.5530     2.0710    -0.1880 H     1 <1>   0.3700 
 44 H        7.0590    -0.4850     0.1940 H     1 <1>   0.0800 
 45 H        5.6580     0.5560     2.2420 H     1 <1>   0.0800 
 46 H        7.9640     2.1850    -0.5610 H     1 <1>   0.0800 
 47 H        8.9610     0.7830    -0.2280 H     1 <1>   0.0800 
 48 H        7.1530     2.5130     3.1500 H     1 <1>   0.0800 
 49 H        6.5450     2.9340     1.5480 H     1 <1>   0.0800 
 50 H        7.8410    -1.0000     2.3500 H     1 <1>   0.0800 
 51 H        7.5220     0.0130     3.7470 H     1 <1>   0.0800 
 52 H        9.1490     2.8450     1.4970 H     1 <1>   0.0800 
 53 H        9.7790     0.2600     1.9340 H     1 <1>   0.0800 
 54 H        9.4080     1.2360     3.3420 H     1 <1>   0.0800 
@<TRIPOS>BOND
  1   1   2  2   
  2   1   3  2   
  3   1   4  am  
  4   1   5  1   
  5   4   6  1   
  6   4   7  1   
  7   5   8  ar  
  8   5   9  ar  
  9   6  10  1   
 10   6  27  1   
 11   6  28  1   
 12   7  11  1   
 13   7  29  1   
 14   7  30  1   
 15   8  12  ar  
 16   8  31  1   
 17   9  13  ar  
 18   9  32  1   
 19  10  14  1   
 20  10  33  1   
 21  10  34  1   
 22  11  14  1   
 23  11  35  1   
 24  11  36  1   
 25  12  15  ar  
 26  12  16  1   
 27  13  15  ar  
 28  13  37  1   
 29  14  38  1   
 30  14  39  1   
 31  15  17  1   
 32  16  18  2   
 33  16  19  am  
 34  17  40  1   
 35  17  41  1   
 36  17  42  1   
 37  19  20  1   
 38  19  43  1   
 39  20  21  1   
 40  20  22  1   
 41  20  44  1   
 42  21  23  1   
 43  21  24  1   
 44  21  45  1   
 45  22  25  1   
 46  22  46  1   
 47  22  47  1   
 48  23  25  1   
 49  23  48  1   
 50  23  49  1   
 51  24  26  1   
 52  24  50  1   
 53  24  51  1   
 54  25  26  1   
 55  25  52  1   
 56  26  53  1   
 57  26  54  1   
@<TRIPOS>SUBSTRUCTURE
  1 ****   8 GROUP 4 **** **** 0

# MOE 2024.06 (io_trps.svl 2023.06)
