@<TRIPOS>MOLECULE
NONAME
31 31 1 0 0 
SMALL
USER_CHARGES


@<TRIPOS>ATOM
  1 S       -0.1790    -0.6620    -0.3280 S.3   1 <1>  -0.3710 
  2 C       -0.8260    -0.3950     1.3020 C.2   1 <1>   0.6500 
  3 C        0.8220    -2.2060    -0.1710 C.3   1 <1>   0.1500 
  4 O       -0.5140    -1.1130     2.2060 O.2   1 <1>  -0.5700 
  5 C       -1.7640     0.7770     1.4280 C.3   1 <1>  -0.1790 
  6 C        1.9570    -2.1110    -1.1930 C.3   1 <1>  -0.0990 
  7 C       -0.1220    -3.3860    -0.4080 C.3   1 <1>  -0.2400 
  8 C        2.9200    -3.2700    -1.0600 C.2   1 <1>   0.5690 
  9 O        2.8750    -4.1450    -1.8870 O.2   1 <1>  -0.5700 
 10 N        3.7910    -3.2490    -0.0050 N.am  1 <1>  -0.5470 
 11 C        4.7780    -4.1580     0.4120 C.ar  1 <1>   0.1170 
 12 C        4.8750    -5.4620    -0.0650 C.ar  1 <1>  -0.1500 
 13 C        5.7020    -3.7360     1.3620 C.ar  1 <1>  -0.1500 
 14 C        5.8670    -6.3140     0.3890 C.ar  1 <1>  -0.1500 
 15 C        6.6940    -4.5840     1.8200 C.ar  1 <1>  -0.1500 
 16 C        6.7790    -5.8760     1.3330 C.ar  1 <1>  -0.1500 
 17 H        1.2170    -2.2310     0.8310 H     1 <1>   0.0800 
 18 H       -1.2530     1.6800     1.1510 H     1 <1>   0.0800 
 19 H       -2.1050     0.8600     2.4430 H     1 <1>   0.0800 
 20 H       -2.6090     0.6330     0.7820 H     1 <1>   0.0800 
 21 H        2.4980    -1.1940    -1.0550 H     1 <1>   0.0800 
 22 H        1.5490    -2.1090    -2.1880 H     1 <1>   0.0800 
 23 H       -0.5500    -3.3350    -1.3940 H     1 <1>   0.0800 
 24 H       -0.9140    -3.3760     0.3190 H     1 <1>   0.0800 
 25 H        0.4090    -4.3160    -0.3130 H     1 <1>   0.0800 
 26 H        3.7340    -2.4150     0.5750 H     1 <1>   0.3700 
 27 H        4.1760    -5.8270    -0.7930 H     1 <1>   0.1500 
 28 H        5.6510    -2.7350     1.7490 H     1 <1>   0.1500 
 29 H        5.9270    -7.3180     0.0070 H     1 <1>   0.1500 
 30 H        7.4020    -4.2410     2.5550 H     1 <1>   0.1500 
 31 H        7.5500    -6.5390     1.6860 H     1 <1>   0.1500 
@<TRIPOS>BOND
  1   1   2  1   
  2   1   3  1   
  3   2   4  2   
  4   2   5  1   
  5   3   6  1   
  6   3   7  1   
  7   3  17  1   
  8   5  18  1   
  9   5  19  1   
 10   5  20  1   
 11   6   8  1   
 12   6  21  1   
 13   6  22  1   
 14   7  23  1   
 15   7  24  1   
 16   7  25  1   
 17   8   9  2   
 18   8  10  am  
 19  10  11  1   
 20  10  26  1   
 21  11  12  ar  
 22  11  13  ar  
 23  12  14  ar  
 24  12  27  1   
 25  13  15  ar  
 26  13  28  1   
 27  14  16  ar  
 28  14  29  1   
 29  15  16  ar  
 30  15  30  1   
 31  16  31  1   
@<TRIPOS>SUBSTRUCTURE
  1 ****  10 GROUP 4 **** **** 0

# MOE 2024.06 (io_trps.svl 2023.06)
