@<TRIPOS>MOLECULE
NONAME
35 36 1 0 0 
SMALL
USER_CHARGES


@<TRIPOS>ATOM
  1 CL      -0.7260     1.2400     2.7200 Cl    1 <1>  -0.1770 
  2 C       -1.3820     1.9590     1.2660 C.ar  1 <1>   0.1770 
  3 C       -0.5420     2.4560     0.2820 C.ar  1 <1>   0.1770 
  4 C       -2.7540     2.0230     1.1160 C.ar  1 <1>  -0.1500 
  5 CL       1.1980     2.3790     0.4630 Cl    1 <1>  -0.1770 
  6 C       -1.0700     3.0220    -0.8650 C.ar  1 <1>  -0.1500 
  7 C       -3.2970     2.5910    -0.0320 C.ar  1 <1>   0.1000 
  8 C       -2.4460     3.0860    -1.0140 C.ar  1 <1>  -0.1500 
  9 N       -4.6690     2.6750    -0.2200 N.pl3 1 <1>  -0.8380 
 10 C       -5.4160     3.5750     0.7080 C.3   1 <1>   0.2090 
 11 C       -5.3920     1.3830    -0.4220 C.3   1 <1>   0.2090 
 12 C       -6.8670     3.7790     0.2330 C.3   1 <1>   0.1100 
 13 C       -6.8480     1.6210    -0.8680 C.3   1 <1>   0.1100 
 14 N       -7.5880     2.4960     0.0760 N.3   1 <1>  -0.8100 
 15 C       -8.9860     2.7260    -0.3870 C.3   1 <1>   0.1710 
 16 C       -9.8720     1.4760    -0.4580 C.2   1 <1>   0.6590 
 17 O      -10.0290     0.8700    -1.4890 O.2   1 <1>  -0.5700 
 18 O      -10.4690     1.1080     0.6720 O.3   1 <1>  -0.4300 
 19 C      -11.3010    -0.0310     0.7360 C.3   1 <1>   0.0400 
 20 H       -3.3980     1.6360     1.8820 H     1 <1>   0.1500 
 21 H       -0.4140     3.4060    -1.6250 H     1 <1>   0.1500 
 22 H       -2.8810     3.5220    -1.8960 H     1 <1>   0.1500 
 23 H       -4.9170     4.5270     0.7560 H     1 <1>   0.0800 
 24 H       -5.4260     3.1490     1.6960 H     1 <1>   0.0800 
 25 H       -5.3940     0.8220     0.4960 H     1 <1>   0.0800 
 26 H       -4.8810     0.8030    -1.1700 H     1 <1>   0.0800 
 27 H       -6.8490     4.3070    -0.7050 H     1 <1>   0.0800 
 28 H       -7.3820     4.3900     0.9540 H     1 <1>   0.0800 
 29 H       -7.3410     0.6670    -0.9390 H     1 <1>   0.0800 
 30 H       -6.8390     2.0650    -1.8490 H     1 <1>   0.0800 
 31 H       -8.9680     3.1740    -1.3650 H     1 <1>   0.0800 
 32 H       -9.4640     3.4170     0.2820 H     1 <1>   0.0800 
 33 H      -11.6670    -0.1300     1.7420 H     1 <1>   0.0800 
 34 H      -10.7240    -0.8970     0.4630 H     1 <1>   0.0800 
 35 H      -12.1220     0.0990     0.0520 H     1 <1>   0.0800 
@<TRIPOS>BOND
  1   1   2  1   
  2   2   3  ar  
  3   2   4  ar  
  4   3   5  1   
  5   3   6  ar  
  6   4   7  ar  
  7   4  20  1   
  8   6   8  ar  
  9   6  21  1   
 10   7   8  ar  
 11   7   9  1   
 12   8  22  1   
 13   9  10  1   
 14   9  11  1   
 15  10  12  1   
 16  10  23  1   
 17  10  24  1   
 18  11  13  1   
 19  11  25  1   
 20  11  26  1   
 21  12  14  1   
 22  12  27  1   
 23  12  28  1   
 24  13  14  1   
 25  13  29  1   
 26  13  30  1   
 27  14  15  1   
 28  15  16  1   
 29  15  31  1   
 30  15  32  1   
 31  16  17  2   
 32  16  18  1   
 33  18  19  1   
 34  19  33  1   
 35  19  34  1   
 36  19  35  1   
@<TRIPOS>SUBSTRUCTURE
  1 ****   9 GROUP 4 **** **** 0

# MOE 2024.06 (io_trps.svl 2023.06)
