@<TRIPOS>MOLECULE
NONAME
29 30 1 0 0 
SMALL
USER_CHARGES


@<TRIPOS>ATOM
  1 N       -3.0000     3.0050     0.2670 N.2   1 <1>  -0.3380 
  2 N       -4.0750     2.2240     0.3490 N.2   1 <1>  -0.3380 
  3 C       -1.9570     2.2200     0.2070 C.2   1 <1>   0.1110 
  4 C       -3.6560     0.9990     0.3370 C.2   1 <1>   0.0070 
  5 N       -0.5960     2.6350     0.1230 N.pl3 1 <1>   0.6460 
  6 N       -2.3250     0.9340     0.2440 N.pl3 1 <1>   0.4520 
  7 C       -4.5670    -0.2140     0.4180 C.3   1 <1>   0.0200 
  8 N        0.4400     1.8200     0.4840 N.2   1 <1>  -0.7070 
  9 C       -0.0930     3.8240    -0.3260 C.2   1 <1>  -0.3320 
 10 N       -1.5250    -0.2680     0.1770 N.pl3 1 <1>  -0.8690 
 11 C       -4.8540    -0.7880    -0.9730 C.3   1 <1>  -0.2400 
 12 C        1.5190     2.4980     0.2680 C.2   1 <1>   0.1080 
 13 C        1.2520     3.7600    -0.2400 C.2   1 <1>  -0.1500 
 14 C       -0.9230     4.9980    -0.8270 C.3   1 <1>  -0.0600 
 15 C        2.8980     1.9470     0.5500 C.3   1 <1>  -0.0590 
 16 H       -5.4950     0.0780     0.8800 H     1 <1>   0.0800 
 17 H       -4.1120    -0.9670     1.0380 H     1 <1>   0.0800 
 18 H       -1.2400    -0.3460    -0.8030 H     1 <1>   0.3600 
 19 H       -0.6530    -0.0080     0.6670 H     1 <1>   0.3600 
 20 H       -5.3090    -0.0370    -1.5940 H     1 <1>   0.0800 
 21 H       -5.5230    -1.6260    -0.8960 H     1 <1>   0.0800 
 22 H       -3.9410    -1.1170    -1.4370 H     1 <1>   0.0800 
 23 H        1.9820     4.5060    -0.5010 H     1 <1>   0.1500 
 24 H       -1.5440     5.3790    -0.0360 H     1 <1>   0.0800 
 25 H       -1.5530     4.6890    -1.6430 H     1 <1>   0.0800 
 26 H       -0.2830     5.7910    -1.1700 H     1 <1>   0.0800 
 27 H        2.9700     1.6730     1.5870 H     1 <1>   0.0800 
 28 H        3.6490     2.6810     0.3270 H     1 <1>   0.0800 
 29 H        3.0680     1.0750    -0.0540 H     1 <1>   0.0800 
@<TRIPOS>BOND
  1   1   2  1   
  2   1   3  2   
  3   2   4  2   
  4   3   5  1   
  5   3   6  1   
  6   4   6  1   
  7   4   7  1   
  8   5   8  1   
  9   5   9  1   
 10   6  10  1   
 11   7  11  1   
 12   7  16  1   
 13   7  17  1   
 14   8  12  2   
 15   9  13  2   
 16   9  14  1   
 17  10  18  1   
 18  10  19  1   
 19  11  20  1   
 20  11  21  1   
 21  11  22  1   
 22  12  13  1   
 23  12  15  1   
 24  13  23  1   
 25  14  24  1   
 26  14  25  1   
 27  14  26  1   
 28  15  27  1   
 29  15  28  1   
 30  15  29  1   
@<TRIPOS>SUBSTRUCTURE
  1 ****   3 GROUP 4 **** **** 0

# MOE 2024.06 (io_trps.svl 2023.06)
