@<TRIPOS>MOLECULE
NONAME
49 51 1 0 0 
SMALL
USER_CHARGES


@<TRIPOS>ATOM
  1 CL       1.8900    -3.1560     3.9330 Cl    1 <1>  -0.1770 
  2 C        2.3260    -2.5070     2.3720 C.ar  1 <1>   0.1770 
  3 C        3.6020    -2.7060     1.8870 C.ar  1 <1>  -0.1500 
  4 C        1.3810    -1.8020     1.6480 C.ar  1 <1>  -0.1500 
  5 C        3.9570    -2.1930     0.6480 C.ar  1 <1>   0.1000 
  6 C        1.7290    -1.2870     0.4100 C.ar  1 <1>  -0.1500 
  7 N        5.2440    -2.3970     0.1690 N.pl3 1 <1>  -0.8380 
  8 C        3.0080    -1.4840    -0.0830 C.ar  1 <1>  -0.1500 
  9 C        5.3710    -3.2920    -1.0170 C.3   1 <1>   0.2090 
 10 C        6.0890    -1.1790     0.0060 C.3   1 <1>   0.2090 
 11 C        6.8460    -3.6520    -1.2780 C.3   1 <1>   0.1100 
 12 C        7.5570    -1.5590    -0.2610 C.3   1 <1>   0.1100 
 13 N        7.7040    -2.4540    -1.4340 N.3   1 <1>  -0.8100 
 14 C        9.1120    -2.8570    -1.7220 C.3   1 <1>   0.1710 
 15 C       10.1250    -1.7210    -1.9290 C.2   1 <1>   0.5690 
 16 O       10.4180    -1.3990    -3.0550 O.2   1 <1>  -0.5700 
 17 N       10.6740    -1.1520    -0.8080 N.am  1 <1>  -0.5470 
 18 C       11.6260    -0.1360    -0.6310 C.ar  1 <1>   0.1170 
 19 C       11.6810     0.5520     0.5860 C.ar  1 <1>  -0.1430 
 20 C       12.5410     0.1930    -1.6270 C.ar  1 <1>  -0.1500 
 21 C       12.6400     1.5360     0.7780 C.ar  1 <1>  -0.1500 
 22 C       10.7080     0.2640     1.7270 C.3   1 <1>  -0.0170 
 23 C       13.4900     1.1780    -1.4290 C.ar  1 <1>  -0.1500 
 24 C       13.5410     1.8510    -0.2230 C.ar  1 <1>  -0.1500 
 25 C       11.1560    -0.9530     2.5420 C.3   1 <1>  -0.2400 
 26 H        4.3240    -3.2550     2.4600 H     1 <1>   0.1500 
 27 H        0.3940    -1.6610     2.0500 H     1 <1>   0.1500 
 28 H        1.0060    -0.7370    -0.1670 H     1 <1>   0.1500 
 29 H        3.2790    -1.0860    -1.0430 H     1 <1>   0.1500 
 30 H        4.9670    -2.8030    -1.8870 H     1 <1>   0.0800 
 31 H        4.8060    -4.1920    -0.8440 H     1 <1>   0.0800 
 32 H        6.0270    -0.5830     0.9000 H     1 <1>   0.0800 
 33 H        5.7230    -0.5900    -0.8170 H     1 <1>   0.0800 
 34 H        6.8990    -4.2460    -2.1740 H     1 <1>   0.0800 
 35 H        7.1990    -4.2510    -0.4560 H     1 <1>   0.0800 
 36 H        7.9520    -2.0380     0.6180 H     1 <1>   0.0800 
 37 H        8.1020    -0.6490    -0.4350 H     1 <1>   0.0800 
 38 H        9.1150    -3.4450    -2.6230 H     1 <1>   0.0800 
 39 H        9.4710    -3.4850    -0.9270 H     1 <1>   0.0800 
 40 H       10.2840    -1.4900     0.0670 H     1 <1>   0.3700 
 41 H       12.5220    -0.3230    -2.5680 H     1 <1>   0.1500 
 42 H       12.6930     2.0680     1.7110 H     1 <1>   0.1500 
 43 H        9.7170     0.1100     1.3410 H     1 <1>   0.0800 
 44 H       10.6550     1.1190     2.3800 H     1 <1>   0.0800 
 45 H       14.1870     1.4190    -2.2120 H     1 <1>   0.1500 
 46 H       14.2790     2.6180    -0.0640 H     1 <1>   0.1500 
 47 H       11.2160    -1.8300     1.9240 H     1 <1>   0.0800 
 48 H       10.4630    -1.1390     3.3430 H     1 <1>   0.0800 
 49 H       12.1280    -0.7700     2.9660 H     1 <1>   0.0800 
@<TRIPOS>BOND
  1   1   2  1   
  2   2   3  ar  
  3   2   4  ar  
  4   3   5  ar  
  5   3  26  1   
  6   4   6  ar  
  7   4  27  1   
  8   5   7  1   
  9   5   8  ar  
 10   6   8  ar  
 11   6  28  1   
 12   7   9  1   
 13   7  10  1   
 14   8  29  1   
 15   9  11  1   
 16   9  30  1   
 17   9  31  1   
 18  10  12  1   
 19  10  32  1   
 20  10  33  1   
 21  11  13  1   
 22  11  34  1   
 23  11  35  1   
 24  12  13  1   
 25  12  36  1   
 26  12  37  1   
 27  13  14  1   
 28  14  15  1   
 29  14  38  1   
 30  14  39  1   
 31  15  16  2   
 32  15  17  am  
 33  17  18  1   
 34  17  40  1   
 35  18  19  ar  
 36  18  20  ar  
 37  19  21  ar  
 38  19  22  1   
 39  20  23  ar  
 40  20  41  1   
 41  21  24  ar  
 42  21  42  1   
 43  22  25  1   
 44  22  43  1   
 45  22  44  1   
 46  23  24  ar  
 47  23  45  1   
 48  24  46  1   
 49  25  47  1   
 50  25  48  1   
 51  25  49  1   
@<TRIPOS>SUBSTRUCTURE
  1 ****  12 GROUP 4 **** **** 0

# MOE 2024.06 (io_trps.svl 2023.06)
