@<TRIPOS>MOLECULE
NONAME
46 47 1 0 0 
SMALL
USER_CHARGES


@<TRIPOS>ATOM
  1 N        0.0290     0.0900     0.0610 N.4   1 <1>  -0.9590 
  2 C        1.3720     0.7550     0.1390 C.3   1 <1>   0.4230 
  3 C       -0.9830     1.0580    -0.5090 C.3   1 <1>   0.3430 
  4 C       -0.3890    -0.4610     1.3860 C.3   1 <1>   0.3430 
  5 C        2.4680    -0.3230     0.2250 C.3   1 <1>  -0.1600 
  6 C        1.4620     1.8000     1.2650 C.3   1 <1>  -0.1600 
  7 C       -2.3460     0.4550    -0.9610 C.3   1 <1>   0.3430 
  8 C       -1.2230    -1.7360     1.2460 C.3   1 <1>  -0.1600 
  9 C        3.3200    -0.3520    -1.0510 C.3   1 <1>  -0.1600 
 10 C        2.3390     3.0030     0.8780 C.3   1 <1>  -0.1600 
 11 N       -3.0180    -0.5000     0.0020 N.4   1 <1>  -0.9590 
 12 C       -2.2780    -1.7870     0.1390 C.3   1 <1>   0.3430 
 13 C        4.4360     0.7060    -1.0780 C.3   1 <1>  -0.1600 
 14 C        3.7900     2.6630     0.5000 C.3   1 <1>  -0.1600 
 15 C       -4.4100    -0.7910    -0.4880 C.3   1 <1>   0.2630 
 16 C        3.9920     2.1750    -0.9510 C.3   1 <1>  -0.1600 
 17 H        0.1830    -0.6880    -0.5930 H     1 <1>   0.4500 
 18 H        1.5240     1.2850    -0.7880 H     1 <1>   0.0800 
 19 H       -0.5490     1.5540    -1.3630 H     1 <1>   0.0800 
 20 H       -1.1830     1.8270     0.2190 H     1 <1>   0.0800 
 21 H       -0.9480     0.2860     1.9260 H     1 <1>   0.0800 
 22 H        0.4840    -0.6930     1.9780 H     1 <1>   0.0800 
 23 H        2.0410    -1.2990     0.3650 H     1 <1>   0.0800 
 24 H        3.1210    -0.1510     1.0630 H     1 <1>   0.0800 
 25 H        1.8570     1.3550     2.1620 H     1 <1>   0.0800 
 26 H        0.4920     2.1940     1.5030 H     1 <1>   0.0800 
 27 H       -2.1950    -0.0490    -1.9020 H     1 <1>   0.0800 
 28 H       -3.0140     1.2780    -1.1590 H     1 <1>   0.0800 
 29 H       -1.7100    -1.9160     2.1890 H     1 <1>   0.0800 
 30 H       -0.5530    -2.5660     1.1040 H     1 <1>   0.0800 
 31 H        2.7010    -0.2490    -1.9260 H     1 <1>   0.0800 
 32 H        3.7970    -1.3160    -1.1180 H     1 <1>   0.0800 
 33 H        2.3710     3.6650     1.7280 H     1 <1>   0.0800 
 34 H        1.8810     3.5580     0.0770 H     1 <1>   0.0800 
 35 H       -3.1280    -0.0670     0.9320 H     1 <1>   0.4500 
 36 H       -2.9690    -2.5840     0.3720 H     1 <1>   0.0800 
 37 H       -1.8110    -2.0360    -0.8010 H     1 <1>   0.0800 
 38 H        4.9490     0.6010    -2.0190 H     1 <1>   0.0800 
 39 H        5.1640     0.4840    -0.3150 H     1 <1>   0.0800 
 40 H        4.2160     1.9750     1.2110 H     1 <1>   0.0800 
 41 H        4.3560     3.5750     0.6030 H     1 <1>   0.0800 
 42 H       -4.3820    -1.2620    -1.4580 H     1 <1>   0.0800 
 43 H       -4.9830     0.1200    -0.5650 H     1 <1>   0.0800 
 44 H       -4.9200    -1.4510     0.1970 H     1 <1>   0.0800 
 45 H        3.1340     2.3730    -1.5680 H     1 <1>   0.0800 
 46 H        4.7910     2.7680    -1.3660 H     1 <1>   0.0800 
@<TRIPOS>BOND
  1   1   2  1   
  2   1   3  1   
  3   1   4  1   
  4   1  17  1   
  5   2   5  1   
  6   2   6  1   
  7   2  18  1   
  8   3   7  1   
  9   3  19  1   
 10   3  20  1   
 11   4   8  1   
 12   4  21  1   
 13   4  22  1   
 14   5   9  1   
 15   5  23  1   
 16   5  24  1   
 17   6  10  1   
 18   6  25  1   
 19   6  26  1   
 20   7  11  1   
 21   7  27  1   
 22   7  28  1   
 23   8  12  1   
 24   8  29  1   
 25   8  30  1   
 26   9  13  1   
 27   9  31  1   
 28   9  32  1   
 29  10  14  1   
 30  10  33  1   
 31  10  34  1   
 32  11  12  1   
 33  11  15  1   
 34  11  35  1   
 35  12  36  1   
 36  12  37  1   
 37  13  16  1   
 38  13  38  1   
 39  13  39  1   
 40  14  16  1   
 41  14  40  1   
 42  14  41  1   
 43  15  42  1   
 44  15  43  1   
 45  15  44  1   
 46  16  45  1   
 47  16  46  1   
@<TRIPOS>SUBSTRUCTURE
  1 ****   1 GROUP 4 **** **** 0

# MOE 2024.06 (io_trps.svl 2023.06)
