@<TRIPOS>MOLECULE
NONAME
46 47 1 0 0 
SMALL
USER_CHARGES


@<TRIPOS>ATOM
  1 S        0.1100     0.3160     0.5230 S.o2  1 <1>   1.3330 
  2 O        0.3360     0.1070     1.9340 O.2   1 <1>  -0.6500 
  3 O       -1.0010     1.1270     0.0830 O.2   1 <1>  -0.6500 
  4 N        1.5290     0.9620    -0.1400 N.am  1 <1>  -0.8490 
  5 C       -0.0280    -1.2630    -0.2880 C.3   1 <1>  -0.1350 
  6 C        2.7430     0.3850     0.4650 C.3   1 <1>   0.1960 
  7 C        1.5460     2.4240    -0.0170 C.3   1 <1>   0.1960 
  8 C        3.9970     0.8670    -0.2820 C.3   1 <1>  -0.0190 
  9 C        2.7600     3.0110    -0.7460 C.3   1 <1>  -0.1600 
 10 C        5.2590     0.2310     0.2870 C.2   1 <1>   0.5690 
 11 C        4.0760     2.4040    -0.2420 C.3   1 <1>  -0.1600 
 12 O        5.2350    -0.2610     1.3880 O.2   1 <1>  -0.5700 
 13 N        6.3810     0.2570    -0.4900 N.am  1 <1>  -0.5470 
 14 C        7.6700    -0.1910    -0.1620 C.ar  1 <1>   0.1170 
 15 C        8.6890     0.7430     0.0630 C.ar  1 <1>  -0.1430 
 16 C        7.9490    -1.5580    -0.0880 C.ar  1 <1>  -0.1430 
 17 C        9.9700     0.2880     0.3480 C.ar  1 <1>  -0.1500 
 18 C        8.3610     2.2410    -0.0010 C.3   1 <1>  -0.0170 
 19 C        9.2330    -1.9840     0.2040 C.ar  1 <1>  -0.1500 
 20 C        6.8710    -2.6100    -0.3200 C.3   1 <1>  -0.0970 
 21 C       10.2420    -1.0660     0.4180 C.ar  1 <1>  -0.1500 
 22 C        9.5000     3.1980     0.3710 C.3   1 <1>  -0.2400 
 23 H       -0.9280    -1.7540     0.0240 H     1 <1>   0.0800 
 24 H        0.8070    -1.8870    -0.0420 H     1 <1>   0.0800 
 25 H       -0.0620    -1.1260    -1.3510 H     1 <1>   0.0800 
 26 H        2.7020    -0.6900     0.4170 H     1 <1>   0.0800 
 27 H        2.8060     0.6650     1.5050 H     1 <1>   0.0800 
 28 H        1.5660     2.7020     1.0250 H     1 <1>   0.0800 
 29 H        0.6530     2.8390    -0.4550 H     1 <1>   0.0800 
 30 H        3.9040     0.5450    -1.3030 H     1 <1>   0.0800 
 31 H        2.7750     4.0770    -0.6050 H     1 <1>   0.0800 
 32 H        2.6490     2.8220    -1.8000 H     1 <1>   0.0800 
 33 H        4.8940     2.7550    -0.8470 H     1 <1>   0.0800 
 34 H        4.2500     2.7230     0.7720 H     1 <1>   0.0800 
 35 H        6.3170     0.7570    -1.3730 H     1 <1>   0.3700 
 36 H       10.7810     0.9680     0.5250 H     1 <1>   0.1500 
 37 H        7.5390     2.4330     0.6680 H     1 <1>   0.0800 
 38 H        8.0340     2.4780    -0.9980 H     1 <1>   0.0800 
 39 H        9.4580    -3.0340     0.2670 H     1 <1>   0.1500 
 40 H        6.3200    -2.3900    -1.2160 H     1 <1>   0.0800 
 41 H        6.1930    -2.6230     0.5150 H     1 <1>   0.0800 
 42 H        7.3020    -3.5890    -0.4220 H     1 <1>   0.0800 
 43 H       11.2380    -1.4040     0.6430 H     1 <1>   0.1500 
 44 H        9.8410     3.0020     1.3720 H     1 <1>   0.0800 
 45 H        9.1520     4.2150     0.3240 H     1 <1>   0.0800 
 46 H       10.3230     3.0900    -0.3140 H     1 <1>   0.0800 
@<TRIPOS>BOND
  1   1   2  2   
  2   1   3  2   
  3   1   4  am  
  4   1   5  1   
  5   4   6  1   
  6   4   7  1   
  7   5  23  1   
  8   5  24  1   
  9   5  25  1   
 10   6   8  1   
 11   6  26  1   
 12   6  27  1   
 13   7   9  1   
 14   7  28  1   
 15   7  29  1   
 16   8  10  1   
 17   8  11  1   
 18   8  30  1   
 19   9  11  1   
 20   9  31  1   
 21   9  32  1   
 22  10  12  2   
 23  10  13  am  
 24  11  33  1   
 25  11  34  1   
 26  13  14  1   
 27  13  35  1   
 28  14  15  ar  
 29  14  16  ar  
 30  15  17  ar  
 31  15  18  1   
 32  16  19  ar  
 33  16  20  1   
 34  17  21  ar  
 35  17  36  1   
 36  18  22  1   
 37  18  37  1   
 38  18  38  1   
 39  19  21  ar  
 40  19  39  1   
 41  20  40  1   
 42  20  41  1   
 43  20  42  1   
 44  21  43  1   
 45  22  44  1   
 46  22  45  1   
 47  22  46  1   
@<TRIPOS>SUBSTRUCTURE
  1 ****  10 GROUP 4 **** **** 0

# MOE 2024.06 (io_trps.svl 2023.06)
