@<TRIPOS>MOLECULE
NONAME
51 53 1 0 0 
SMALL
USER_CHARGES


@<TRIPOS>ATOM
  1 F       -3.8580    -2.5530     0.7990 F     1 <1>  -0.3400 
  2 C       -5.0380    -2.0860     0.4070 C.3   1 <1>   1.1640 
  3 F       -5.8470    -2.2070     1.4530 F     1 <1>  -0.3400 
  4 F       -5.4870    -2.9310    -0.5110 F     1 <1>  -0.3400 
  5 C       -4.9610    -0.6460    -0.1230 C.ar  1 <1>  -0.1440 
  6 C       -6.0220     0.2370     0.0480 C.ar  1 <1>  -0.1500 
  7 C       -3.8280    -0.1990    -0.7970 C.ar  1 <1>  -0.1500 
  8 C       -5.9720     1.5410    -0.4290 C.ar  1 <1>   0.1170 
  9 C       -3.7620     1.0970    -1.2770 C.ar  1 <1>  -0.1500 
 10 N       -7.0730     2.3780    -0.2040 N.am  1 <1>  -0.5470 
 11 C       -4.8250     1.9600    -1.0930 C.ar  1 <1>  -0.1500 
 12 C       -7.5250     3.4930    -0.8660 C.2   1 <1>   0.5690 
 13 O       -6.9710     3.9200    -1.8510 O.2   1 <1>  -0.5700 
 14 C       -8.7860     4.2010    -0.3010 C.3   1 <1>   0.2040 
 15 C       -9.6340     3.1400     0.4520 C.ar  1 <1>  -0.1430 
 16 C       -8.3350     5.3520     0.6310 C.3   1 <1>  -0.1600 
 17 C       -9.6650     4.8260    -1.4180 C.3   1 <1>  -0.1600 
 18 C      -10.2270     2.1130    -0.2780 C.ar  1 <1>  -0.1500 
 19 C       -9.8100     3.1370     1.8360 C.ar  1 <1>  -0.1500 
 20 C       -7.7620     6.5380    -0.1490 C.3   1 <1>   0.1200 
 21 C       -9.0710     6.1020    -2.0330 C.3   1 <1>   0.1200 
 22 C      -10.9760     1.1240     0.3350 C.ar  1 <1>   0.0830 
 23 C      -10.5450     2.1430     2.4600 C.ar  1 <1>  -0.1500 
 24 O       -8.7440     6.9980    -1.0190 O.3   1 <1>  -0.5600 
 25 O      -11.5430     0.1880    -0.4630 O.3   1 <1>  -0.3620 
 26 C      -11.1190     1.1240     1.7250 C.ar  1 <1>   0.0830 
 27 C      -12.9530     0.1980    -0.5310 C.3   1 <1>   0.0400 
 28 O      -11.7960     0.1660     2.4040 O.3   1 <1>  -0.3630 
 29 C      -11.2740    -1.1440     2.3450 C.3   1 <1>   0.0400 
 30 H       -6.9140    -0.0880     0.5560 H     1 <1>   0.1500 
 31 H       -2.9880    -0.8570    -0.9530 H     1 <1>   0.1500 
 32 H       -2.8820     1.4350    -1.7970 H     1 <1>   0.1500 
 33 H       -7.7220     2.0480     0.5130 H     1 <1>   0.3700 
 34 H       -4.7570     2.9650    -1.4680 H     1 <1>   0.1500 
 35 H       -7.5960     4.9990     1.3270 H     1 <1>   0.0800 
 36 H       -9.1760     5.7250     1.1890 H     1 <1>   0.0800 
 37 H      -10.6280     5.0770    -1.0090 H     1 <1>   0.0800 
 38 H       -9.8230     4.1180    -2.2090 H     1 <1>   0.0800 
 39 H      -10.1170     2.0560    -1.3460 H     1 <1>   0.1500 
 40 H       -9.3820     3.8950     2.4660 H     1 <1>   0.1500 
 41 H       -6.8860     6.2710    -0.7170 H     1 <1>   0.0800 
 42 H       -7.5140     7.3450     0.5180 H     1 <1>   0.0800 
 43 H       -9.7940     6.5810    -2.6700 H     1 <1>   0.0800 
 44 H       -8.1870     5.9010    -2.6130 H     1 <1>   0.0800 
 45 H      -10.6730     2.1510     3.5280 H     1 <1>   0.1500 
 46 H      -13.2610    -0.5300    -1.2590 H     1 <1>   0.0800 
 47 H      -13.2790     1.1790    -0.8290 H     1 <1>   0.0800 
 48 H      -13.3590    -0.0520     0.4330 H     1 <1>   0.0800 
 49 H      -11.8360    -1.7600     3.0230 H     1 <1>   0.0800 
 50 H      -10.2400    -1.1200     2.6420 H     1 <1>   0.0800 
 51 H      -11.3670    -1.5230     1.3440 H     1 <1>   0.0800 
@<TRIPOS>BOND
  1   1   2  1   
  2   2   3  1   
  3   2   4  1   
  4   2   5  1   
  5   5   6  ar  
  6   5   7  ar  
  7   6   8  ar  
  8   6  30  1   
  9   7   9  ar  
 10   7  31  1   
 11   8  10  1   
 12   8  11  ar  
 13   9  11  ar  
 14   9  32  1   
 15  10  12  am  
 16  10  33  1   
 17  11  34  1   
 18  12  13  2   
 19  12  14  1   
 20  14  15  1   
 21  14  16  1   
 22  14  17  1   
 23  15  18  ar  
 24  15  19  ar  
 25  16  20  1   
 26  16  35  1   
 27  16  36  1   
 28  17  21  1   
 29  17  37  1   
 30  17  38  1   
 31  18  22  ar  
 32  18  39  1   
 33  19  23  ar  
 34  19  40  1   
 35  20  24  1   
 36  20  41  1   
 37  20  42  1   
 38  21  24  1   
 39  21  43  1   
 40  21  44  1   
 41  22  25  1   
 42  22  26  ar  
 43  23  26  ar  
 44  23  45  1   
 45  25  27  1   
 46  26  28  1   
 47  27  46  1   
 48  27  47  1   
 49  27  48  1   
 50  28  29  1   
 51  29  49  1   
 52  29  50  1   
 53  29  51  1   
@<TRIPOS>SUBSTRUCTURE
  1 ****  10 GROUP 4 **** **** 0

# MOE 2024.06 (io_trps.svl 2023.06)
