@<TRIPOS>MOLECULE
NONAME
37 39 1 0 0 
SMALL
USER_CHARGES


@<TRIPOS>ATOM
  1 S        1.5540    -0.1060    -0.5410 S.o2  1 <1>   1.3330 
  2 O        2.6770    -0.9970    -0.3630 O.2   1 <1>  -0.6500 
  3 O        1.0810     0.2200    -1.8620 O.2   1 <1>  -0.6500 
  4 N        1.9530     1.3620     0.2920 N.am  1 <1>  -0.6930 
  5 C        0.1950    -0.7370     0.4230 C.3   1 <1>  -0.1350 
  6 C        1.4320     2.6250    -0.0480 C.ar  1 <1>   0.1990 
  7 C        2.9300     1.2360     1.4280 C.3   1 <1>   0.2570 
  8 C        2.2110     3.7780     0.0950 C.ar  1 <1>  -0.1500 
  9 C        0.1220     2.7680    -0.5270 C.ar  1 <1>  -0.1500 
 10 C        4.4060     1.3850     1.0370 C.2   1 <1>   0.5690 
 11 C        1.6610     5.0030    -0.2220 C.ar  1 <1>   0.0830 
 12 C       -0.4170     4.0080    -0.8450 C.ar  1 <1>  -0.1500 
 13 O        5.0570     2.2450     1.5850 O.2   1 <1>  -0.5700 
 14 N        4.9450     0.5490     0.1100 N.am  1 <1>  -0.5790 
 15 O        2.2320     6.2100    -0.1490 O.3   1 <1>  -0.3630 
 16 C        0.3830     5.1170    -0.6780 C.ar  1 <1>   0.0830 
 17 C        6.3210     0.5790    -0.3960 C.3   1 <1>   0.0490 
 18 C        1.2590     7.1510    -0.5960 C.3   1 <1>   0.4000 
 19 O        0.0860     6.4030    -0.9130 O.3   1 <1>  -0.3630 
 20 C        6.5350     0.2800    -1.8420 C.3   1 <1>  -0.2000 
 21 C        6.9450    -0.7160    -0.7980 C.3   1 <1>  -0.2000 
 22 H        0.5020    -0.9030     1.4360 H     1 <1>   0.0800 
 23 H       -0.1420    -1.6680     0.0110 H     1 <1>   0.0800 
 24 H       -0.6250    -0.0480     0.4190 H     1 <1>   0.0800 
 25 H        2.8070     0.2820     1.9060 H     1 <1>   0.0800 
 26 H        2.7050     1.9880     2.1630 H     1 <1>   0.0800 
 27 H        3.2270     3.7460     0.4370 H     1 <1>   0.1500 
 28 H       -0.5000     1.9060    -0.6660 H     1 <1>   0.1500 
 29 H       -1.4210     4.1140    -1.2140 H     1 <1>   0.1500 
 30 H        4.3390    -0.1720    -0.3110 H     1 <1>   0.3700 
 31 H        6.9350     1.3320     0.0740 H     1 <1>   0.1000 
 32 H        1.6180     7.6500    -1.4780 H     1 <1>   0.0800 
 33 H        1.0400     7.8470     0.1950 H     1 <1>   0.0800 
 34 H        7.3060     0.8130    -2.3690 H     1 <1>   0.1000 
 35 H        5.6780     0.0720    -2.4580 H     1 <1>   0.1000 
 36 H        6.3760    -1.6220    -0.6890 H     1 <1>   0.1000 
 37 H        7.9960    -0.8600    -0.6170 H     1 <1>   0.1000 
@<TRIPOS>BOND
  1   1   2  2   
  2   1   3  2   
  3   1   4  am  
  4   1   5  1   
  5   4   6  1   
  6   4   7  1   
  7   5  22  1   
  8   5  23  1   
  9   5  24  1   
 10   6   8  ar  
 11   6   9  ar  
 12   7  10  1   
 13   7  25  1   
 14   7  26  1   
 15   8  11  ar  
 16   8  27  1   
 17   9  12  ar  
 18   9  28  1   
 19  10  13  2   
 20  10  14  am  
 21  11  15  1   
 22  11  16  ar  
 23  12  16  ar  
 24  12  29  1   
 25  14  17  1   
 26  14  30  1   
 27  15  18  1   
 28  16  19  1   
 29  17  20  1   
 30  17  21  1   
 31  17  31  1   
 32  18  19  1   
 33  18  32  1   
 34  18  33  1   
 35  20  21  1   
 36  20  34  1   
 37  20  35  1   
 38  21  36  1   
 39  21  37  1   
@<TRIPOS>SUBSTRUCTURE
  1 ****   6 GROUP 4 **** **** 0

# MOE 2024.06 (io_trps.svl 2023.06)
