@<TRIPOS>MOLECULE
NONAME
30 31 1 0 0 
SMALL
USER_CHARGES


@<TRIPOS>ATOM
  1 S        0.7700    -0.4230    -1.7820 S.3   1 <1>  -0.4600 
  2 C        1.3470     0.6910    -0.4660 C.3   1 <1>   0.0700 
  3 C        0.4440    -1.9700    -0.8740 C.3   1 <1>   0.0700 
  4 C        2.5920     0.0970     0.2200 C.3   1 <1>   0.3430 
  5 C        1.3790    -2.0960     0.3450 C.3   1 <1>   0.3430 
  6 N        2.6850    -1.4040     0.1010 N.4   1 <1>  -0.9590 
  7 C        3.8050    -1.9680     0.9040 C.3   1 <1>   0.4860 
  8 C        5.1000    -1.3140     0.4630 C.ar  1 <1>  -0.1440 
  9 C        5.6350    -1.5930    -0.7890 C.ar  1 <1>  -0.1500 
 10 C        5.7550    -0.4230     1.3060 C.ar  1 <1>  -0.1500 
 11 C        6.8030    -0.9760    -1.1980 C.ar  1 <1>  -0.1500 
 12 C        6.9250     0.1930     0.8970 C.ar  1 <1>  -0.1500 
 13 C        7.4420    -0.0850    -0.3570 C.ar  1 <1>   0.0820 
 14 O        8.5720     0.5040    -0.7720 O.3   1 <1>  -0.5330 
 15 H        0.5350     0.8060     0.2290 H     1 <1>   0.0800 
 16 H        1.5660     1.6440    -0.9160 H     1 <1>   0.0800 
 17 H        0.6010    -2.7760    -1.5700 H     1 <1>   0.0800 
 18 H       -0.5890    -1.9620    -0.5730 H     1 <1>   0.0800 
 19 H        2.5870     0.3870     1.2580 H     1 <1>   0.0800 
 20 H        3.4680     0.5350    -0.2320 H     1 <1>   0.0800 
 21 H        1.5390    -3.1420     0.5470 H     1 <1>   0.0800 
 22 H        0.8990    -1.6630     1.2070 H     1 <1>   0.0800 
 23 H        2.9150    -1.5650    -0.8910 H     1 <1>   0.4500 
 24 H        3.8750    -3.0330     0.7480 H     1 <1>   0.0800 
 25 H        3.6410    -1.7860     1.9530 H     1 <1>   0.0800 
 26 H        5.1600    -2.2890    -1.4580 H     1 <1>   0.1500 
 27 H        5.3680    -0.2000     2.2860 H     1 <1>   0.1500 
 28 H        7.2290    -1.1810    -2.1650 H     1 <1>   0.1500 
 29 H        7.4300     0.8810     1.5520 H     1 <1>   0.1500 
 30 H        8.9770     1.0920    -0.1100 H     1 <1>   0.4500 
@<TRIPOS>BOND
  1   1   2  1   
  2   1   3  1   
  3   2   4  1   
  4   2  15  1   
  5   2  16  1   
  6   3   5  1   
  7   3  17  1   
  8   3  18  1   
  9   4   6  1   
 10   4  19  1   
 11   4  20  1   
 12   5   6  1   
 13   5  21  1   
 14   5  22  1   
 15   6   7  1   
 16   6  23  1   
 17   7   8  1   
 18   7  24  1   
 19   7  25  1   
 20   8   9  ar  
 21   8  10  ar  
 22   9  11  ar  
 23   9  26  1   
 24  10  12  ar  
 25  10  27  1   
 26  11  13  ar  
 27  11  28  1   
 28  12  13  ar  
 29  12  29  1   
 30  13  14  1   
 31  14  30  1   
@<TRIPOS>SUBSTRUCTURE
  1 ****   8 GROUP 4 **** **** 0

# MOE 2024.06 (io_trps.svl 2023.06)
