@<TRIPOS>MOLECULE
NONAME
51 53 1 0 0 
SMALL
USER_CHARGES


@<TRIPOS>ATOM
  1 S       -0.0060     0.0180     0.8340 S.o2  1 <1>   1.4470 
  2 O       -0.2810    -0.0710     2.2520 O.2   1 <1>  -0.6500 
  3 O        0.2860    -1.1910     0.0940 O.2   1 <1>  -0.6500 
  4 N       -1.3730     0.7170     0.1140 N.am  1 <1>  -0.8490 
  5 C        1.2990     1.2380     0.5140 C.ar  1 <1>  -0.0090 
  6 C       -1.8130     1.9290     0.8250 C.3   1 <1>   0.1960 
  7 C       -2.4710    -0.2510     0.0250 C.3   1 <1>   0.1960 
  8 C        1.8220     2.0250     1.5350 C.ar  1 <1>  -0.1500 
  9 C        1.7920     1.4330    -0.7710 C.ar  1 <1>  -0.1500 
 10 C       -2.9360     2.6270     0.0470 C.3   1 <1>  -0.0190 
 11 C       -3.6460     0.3470    -0.7580 C.3   1 <1>  -0.1600 
 12 C        2.8010     2.9700     1.2810 C.ar  1 <1>  -0.1500 
 13 C        2.7720     2.3750    -1.0360 C.ar  1 <1>  -0.1500 
 14 C       -3.3600     3.9100     0.7570 C.2   1 <1>   0.5690 
 15 C       -4.1260     1.6680    -0.1400 C.3   1 <1>  -0.1600 
 16 C        3.2830     3.1540    -0.0030 C.ar  1 <1>   0.0830 
 17 O       -3.3560     3.9240     1.9670 O.2   1 <1>  -0.5700 
 18 N       -3.7380     5.0120     0.0390 N.am  1 <1>  -0.6600 
 19 O        4.2400     4.0990    -0.1690 O.3   1 <1>  -0.3630 
 20 C       -3.8450     5.1250    -1.4330 C.3   1 <1>   0.1400 
 21 C       -4.1440     6.2720     0.6980 C.3   1 <1>   0.1400 
 22 C        4.8170     4.3500    -1.4290 C.3   1 <1>   0.1200 
 23 C       -4.5930     6.4320    -1.6680 C.3   1 <1>  -0.1600 
 24 C       -4.2850     7.2790    -0.4370 C.3   1 <1>  -0.1600 
 25 C        5.8550     5.4560    -1.2610 C.3   1 <1>  -0.2400 
 26 H       -0.9900     2.6160     0.9270 H     1 <1>   0.0800 
 27 H       -2.1560     1.6710     1.8160 H     1 <1>   0.0800 
 28 H       -2.7900    -0.5330     1.0160 H     1 <1>   0.0800 
 29 H       -2.1340    -1.1390    -0.4840 H     1 <1>   0.0800 
 30 H        1.4600     1.8980     2.5420 H     1 <1>   0.1500 
 31 H        1.3980     0.8330    -1.5750 H     1 <1>   0.1500 
 32 H       -2.5330     2.8820    -0.9140 H     1 <1>   0.0800 
 33 H       -4.4560    -0.3600    -0.7750 H     1 <1>   0.0800 
 34 H       -3.3320     0.5120    -1.7740 H     1 <1>   0.0800 
 35 H        3.1970     3.5730     2.0790 H     1 <1>   0.1500 
 36 H        3.1210     2.4860    -2.0450 H     1 <1>   0.1500 
 37 H       -4.8720     2.1200    -0.7700 H     1 <1>   0.0800 
 38 H       -4.5750     1.4710     0.8190 H     1 <1>   0.0800 
 39 H       -4.3760     4.2890    -1.8530 H     1 <1>   0.0800 
 40 H       -2.8550     5.1820    -1.8550 H     1 <1>   0.0800 
 41 H       -3.4080     6.5820     1.4200 H     1 <1>   0.0800 
 42 H       -5.0900     6.1190     1.1910 H     1 <1>   0.0800 
 43 H        4.0390     4.6590    -2.1050 H     1 <1>   0.0800 
 44 H        5.2800     3.4440    -1.7790 H     1 <1>   0.0800 
 45 H       -5.6490     6.2280    -1.7150 H     1 <1>   0.0800 
 46 H       -4.2880     6.9110    -2.5820 H     1 <1>   0.0800 
 47 H       -3.3480     7.7910    -0.5680 H     1 <1>   0.0800 
 48 H       -5.0540     8.0040    -0.2330 H     1 <1>   0.0800 
 49 H        5.3860     6.3520    -0.8960 H     1 <1>   0.0800 
 50 H        6.3150     5.6710    -2.2090 H     1 <1>   0.0800 
 51 H        6.6190     5.1440    -0.5720 H     1 <1>   0.0800 
@<TRIPOS>BOND
  1   1   2  2   
  2   1   3  2   
  3   1   4  am  
  4   1   5  1   
  5   4   6  1   
  6   4   7  1   
  7   5   8  ar  
  8   5   9  ar  
  9   6  10  1   
 10   6  26  1   
 11   6  27  1   
 12   7  11  1   
 13   7  28  1   
 14   7  29  1   
 15   8  12  ar  
 16   8  30  1   
 17   9  13  ar  
 18   9  31  1   
 19  10  14  1   
 20  10  15  1   
 21  10  32  1   
 22  11  15  1   
 23  11  33  1   
 24  11  34  1   
 25  12  16  ar  
 26  12  35  1   
 27  13  16  ar  
 28  13  36  1   
 29  14  17  2   
 30  14  18  am  
 31  15  37  1   
 32  15  38  1   
 33  16  19  1   
 34  18  20  1   
 35  18  21  1   
 36  19  22  1   
 37  20  23  1   
 38  20  39  1   
 39  20  40  1   
 40  21  24  1   
 41  21  41  1   
 42  21  42  1   
 43  22  25  1   
 44  22  43  1   
 45  22  44  1   
 46  23  24  1   
 47  23  45  1   
 48  23  46  1   
 49  24  47  1   
 50  24  48  1   
 51  25  49  1   
 52  25  50  1   
 53  25  51  1   
@<TRIPOS>SUBSTRUCTURE
  1 ****   6 GROUP 4 **** **** 0

# MOE 2024.06 (io_trps.svl 2023.06)
