@<TRIPOS>MOLECULE
NONAME
49 55 1 0 0 
SMALL
USER_CHARGES


@<TRIPOS>ATOM
  1 O        0.1350    -1.4080    -2.3230 O.2   1 <1>  -0.5700 
  2 C       -0.2140    -2.0920    -1.3940 C.2   1 <1>   0.5690 
  3 N        0.5630    -2.6720    -0.4180 N.am  1 <1>  -0.4200 
  4 C       -1.6780    -2.4200    -1.2170 C.3   1 <1>  -0.0190 
  5 C       -0.2310    -3.4200     0.4180 C.2   1 <1>   0.5690 
  6 C        2.0490    -2.5030    -0.2010 C.3   1 <1>   0.3000 
  7 C       -2.5620    -1.1680    -0.9840 C.3   1 <1>   0.1530 
  8 C       -1.6900    -3.3430     0.0360 C.3   1 <1>  -0.0190 
  9 O        0.1180    -4.0920     1.3550 O.2   1 <1>  -0.5700 
 10 C        2.3040    -1.8750     1.1930 C.3   1 <1>  -0.1600 
 11 C        2.7240    -1.5780    -1.2480 C.3   1 <1>  -0.1600 
 12 C        2.7560    -3.8780    -0.2820 C.3   1 <1>  -0.1600 
 13 C       -3.9270    -1.7410    -0.6020 C.2   1 <1>  -0.2880 
 14 C       -1.9980    -0.4430     0.2690 C.3   1 <1>  -0.1950 
 15 C       -2.5830    -2.7420     1.1520 C.3   1 <1>   0.1530 
 16 C        3.8130    -1.7390     1.4720 C.3   1 <1>  -0.0800 
 17 C        4.2340    -1.4270    -0.9890 C.3   1 <1>  -0.0800 
 18 C        4.2660    -3.7410    -0.0020 C.3   1 <1>  -0.0800 
 19 C       -3.9380    -2.5350     0.4750 C.2   1 <1>  -0.2880 
 20 C       -2.0100    -1.3370     1.4820 C.3   1 <1>  -0.1950 
 21 C       -2.7750    -0.0430     1.4920 C.3   1 <1>  -0.2000 
 22 C        4.4470    -0.8240     0.4100 C.3   1 <1>  -0.1600 
 23 C        4.4680    -3.1320     1.3980 C.3   1 <1>  -0.1600 
 24 C        4.8960    -2.8130    -1.0540 C.3   1 <1>  -0.1600 
 25 H       -2.0250    -2.9580    -2.0810 H     1 <1>   0.0800 
 26 H       -2.6110    -0.5210    -1.8430 H     1 <1>   0.0800 
 27 H       -2.0380    -4.3260    -0.2250 H     1 <1>   0.0800 
 28 H        1.8810    -2.4840     1.9700 H     1 <1>   0.0800 
 29 H        1.8410    -0.9060     1.2420 H     1 <1>   0.0800 
 30 H        2.2750    -0.6010    -1.2180 H     1 <1>   0.0800 
 31 H        2.5900    -1.9840    -2.2350 H     1 <1>   0.0800 
 32 H        2.6100    -4.3020    -1.2590 H     1 <1>   0.0800 
 33 H        2.3490    -4.5610     0.4400 H     1 <1>   0.0800 
 34 H       -4.7660    -1.4620    -1.2170 H     1 <1>   0.1500 
 35 H       -1.1000     0.1160     0.0620 H     1 <1>   0.1000 
 36 H       -2.6480    -3.3720     2.0240 H     1 <1>   0.0800 
 37 H        3.9650    -1.3180     2.4510 H     1 <1>   0.0800 
 38 H        4.6680    -0.7810    -1.7330 H     1 <1>   0.0800 
 39 H        4.7320    -4.7110    -0.0470 H     1 <1>   0.0800 
 40 H       -4.7870    -3.0320     0.9130 H     1 <1>   0.1500 
 41 H       -1.1210    -1.3770     2.0890 H     1 <1>   0.1000 
 42 H       -2.3980     0.7670     2.0920 H     1 <1>   0.1000 
 43 H       -3.8510    -0.0530     1.4730 H     1 <1>   0.1000 
 44 H        5.5000    -0.7140     0.6040 H     1 <1>   0.0800 
 45 H        4.0020     0.1550     0.4580 H     1 <1>   0.0800 
 46 H        4.0350    -3.7780     2.1430 H     1 <1>   0.0800 
 47 H        5.5200    -3.0510     1.6110 H     1 <1>   0.0800 
 48 H        5.9540    -2.7220    -0.8740 H     1 <1>   0.0800 
 49 H        4.7690    -3.2340    -2.0370 H     1 <1>   0.0800 
@<TRIPOS>BOND
  1   1   2  2   
  2   2   3  am  
  3   2   4  1   
  4   3   5  am  
  5   3   6  1   
  6   4   7  1   
  7   4   8  1   
  8   4  25  1   
  9   5   8  1   
 10   5   9  2   
 11   6  10  1   
 12   6  11  1   
 13   6  12  1   
 14   7  13  1   
 15   7  14  1   
 16   7  26  1   
 17   8  15  1   
 18   8  27  1   
 19  10  16  1   
 20  10  28  1   
 21  10  29  1   
 22  11  17  1   
 23  11  30  1   
 24  11  31  1   
 25  12  18  1   
 26  12  32  1   
 27  12  33  1   
 28  13  19  2   
 29  13  34  1   
 30  14  20  1   
 31  14  21  1   
 32  14  35  1   
 33  15  19  1   
 34  15  20  1   
 35  15  36  1   
 36  16  22  1   
 37  16  23  1   
 38  16  37  1   
 39  17  22  1   
 40  17  24  1   
 41  17  38  1   
 42  18  23  1   
 43  18  24  1   
 44  18  39  1   
 45  19  40  1   
 46  20  21  1   
 47  20  41  1   
 48  21  42  1   
 49  21  43  1   
 50  22  44  1   
 51  22  45  1   
 52  23  46  1   
 53  23  47  1   
 54  24  48  1   
 55  24  49  1   
@<TRIPOS>SUBSTRUCTURE
  1 ****   3 GROUP 4 **** **** 0

# MOE 2024.06 (io_trps.svl 2023.06)
