@<TRIPOS>MOLECULE
NONAME
36 36 1 0 0 
SMALL
USER_CHARGES


@<TRIPOS>ATOM
  1 O       -0.5760     0.0630     1.0240 O.2   1 <1>  -0.5700 
  2 C       -1.5070     0.7850     0.7000 C.2   1 <1>   0.7060 
  3 O       -2.6240     0.1570     0.3040 O.3   1 <1>  -0.2270 
  4 C       -1.4690     2.2100     0.7360 C.2   1 <1>   0.0290 
  5 C       -3.7400     0.8170     0.0050 C.2   1 <1>  -0.0610 
  6 C       -2.6320     2.9110     0.4510 C.2   1 <1>   0.1000 
  7 C       -0.2460     2.8640     1.0680 C.2   1 <1>   0.4950 
  8 C       -3.7800     2.1640     0.0720 C.2   1 <1>  -0.1500 
  9 C       -4.9000    -0.0750    -0.3890 C.3   1 <1>  -0.1020 
 10 N       -2.6900     4.2720     0.5250 N.pl3 1 <1>  -0.8690 
 11 O       -0.1970     3.8370     1.7930 O.2   1 <1>  -0.5700 
 12 C        1.0880     2.4010     0.4780 C.3   1 <1>  -0.0990 
 13 C       -3.7860     5.1900     0.1550 C.3   1 <1>   0.2090 
 14 C        1.8890     3.5490    -0.1600 C.3   1 <1>  -0.1600 
 15 C       -3.1920     6.5710    -0.1170 C.3   1 <1>  -0.1600 
 16 C        3.1950     3.0420    -0.7790 C.3   1 <1>  -0.2400 
 17 C       -4.2740     7.5800    -0.5190 C.3   1 <1>  -0.2400 
 18 H       -4.6820     2.6990    -0.1560 H     1 <1>   0.1500 
 19 H       -4.6370    -0.6540    -1.2570 H     1 <1>   0.0800 
 20 H       -5.7720     0.5120    -0.6160 H     1 <1>   0.0800 
 21 H       -5.1350    -0.7470     0.4170 H     1 <1>   0.0800 
 22 H       -1.8910     4.7490     0.9840 H     1 <1>   0.4000 
 23 H        0.9170     1.6540    -0.2740 H     1 <1>   0.0800 
 24 H        1.6650     1.9530     1.2660 H     1 <1>   0.0800 
 25 H       -4.4950     5.2430     0.9640 H     1 <1>   0.0800 
 26 H       -4.2840     4.8280    -0.7280 H     1 <1>   0.0800 
 27 H        2.1170     4.2890     0.5890 H     1 <1>   0.0800 
 28 H        1.2930     4.0240    -0.9220 H     1 <1>   0.0800 
 29 H       -2.4690     6.4940    -0.9110 H     1 <1>   0.0800 
 30 H       -2.6930     6.9240     0.7690 H     1 <1>   0.0800 
 31 H        3.8130     2.5820    -0.0280 H     1 <1>   0.0800 
 32 H        3.7390     3.8620    -1.2130 H     1 <1>   0.0800 
 33 H        2.9930     2.3200    -1.5510 H     1 <1>   0.0800 
 34 H       -4.7750     7.2590    -1.4150 H     1 <1>   0.0800 
 35 H       -3.8280     8.5420    -0.7040 H     1 <1>   0.0800 
 36 H       -5.0010     7.6880     0.2680 H     1 <1>   0.0800 
@<TRIPOS>BOND
  1   1   2  2   
  2   2   3  1   
  3   2   4  1   
  4   3   5  1   
  5   4   6  2   
  6   4   7  1   
  7   5   8  2   
  8   5   9  1   
  9   6   8  1   
 10   6  10  1   
 11   7  11  2   
 12   7  12  1   
 13   8  18  1   
 14   9  19  1   
 15   9  20  1   
 16   9  21  1   
 17  10  13  1   
 18  10  22  1   
 19  12  14  1   
 20  12  23  1   
 21  12  24  1   
 22  13  15  1   
 23  13  25  1   
 24  13  26  1   
 25  14  16  1   
 26  14  27  1   
 27  14  28  1   
 28  15  17  1   
 29  15  29  1   
 30  15  30  1   
 31  16  31  1   
 32  16  32  1   
 33  16  33  1   
 34  17  34  1   
 35  17  35  1   
 36  17  36  1   
@<TRIPOS>SUBSTRUCTURE
  1 ****   4 GROUP 4 **** **** 0

# MOE 2024.06 (io_trps.svl 2023.06)
