@<TRIPOS>MOLECULE
NONAME
39 41 1 0 0 
SMALL
USER_CHARGES


@<TRIPOS>ATOM
  1 O       -0.1870     1.0230     1.8070 O.2   1 <1>  -0.5700 
  2 C       -1.0540     1.6510     1.2160 C.2   1 <1>   0.6160 
  3 N       -2.3670     1.3330     1.3470 N.am  1 <1>  -0.5470 
  4 C       -0.9180     2.7650     0.3280 C.2   1 <1>  -0.0140 
  5 C       -3.1220     2.1950     0.5780 C.ar  1 <1>   0.1170 
  6 C       -2.2650     3.0840    -0.0590 C.ar  1 <1>   0.0280 
  7 C        0.2260     3.3960    -0.0720 C.2   1 <1>  -0.0500 
  8 C       -4.4940     2.2550     0.3980 C.ar  1 <1>  -0.1500 
  9 C       -2.7970     4.0590    -0.8970 C.ar  1 <1>  -0.1500 
 10 N        1.4760     3.0440     0.3330 N.pl3 1 <1>  -0.8690 
 11 C       -5.0140     3.2280    -0.4380 C.ar  1 <1>  -0.1500 
 12 C       -4.1670     4.1250    -1.0820 C.ar  1 <1>  -0.1500 
 13 C        2.7400     3.6790    -0.0610 C.3   1 <1>   0.2890 
 14 C        3.6130     2.6400    -0.7660 C.3   1 <1>  -0.1600 
 15 C        3.4270     4.2220     1.1940 C.3   1 <1>  -0.1600 
 16 C        5.0010     3.2090    -1.0980 C.3   1 <1>  -0.1600 
 17 C        4.8150     4.7950     0.8670 C.3   1 <1>  -0.1600 
 18 C        5.6970     3.7540     0.1600 C.3   1 <1>  -0.0800 
 19 C        7.0560     4.3610    -0.2010 C.3   1 <1>  -0.2400 
 20 H       -2.6820     0.5660     1.9370 H     1 <1>   0.3700 
 21 H        0.1570     4.2290    -0.7520 H     1 <1>   0.1500 
 22 H       -5.1370     1.5560     0.9010 H     1 <1>   0.1500 
 23 H       -2.1430     4.7530    -1.3950 H     1 <1>   0.1500 
 24 H        1.5830     2.2490     0.9850 H     1 <1>   0.4000 
 25 H       -6.0770     3.2930    -0.5930 H     1 <1>   0.1500 
 26 H       -4.5850     4.8770    -1.7300 H     1 <1>   0.1500 
 27 H        2.5380     4.4930    -0.7370 H     1 <1>   0.0800 
 28 H        3.7280     1.7800    -0.1290 H     1 <1>   0.0800 
 29 H        3.1260     2.3270    -1.6730 H     1 <1>   0.0800 
 30 H        2.8130     4.9910     1.6280 H     1 <1>   0.0800 
 31 H        3.5340     3.4280     1.9120 H     1 <1>   0.0800 
 32 H        4.8940     3.9990    -1.8220 H     1 <1>   0.0800 
 33 H        5.6040     2.4350    -1.5400 H     1 <1>   0.0800 
 34 H        5.2890     5.1150     1.7790 H     1 <1>   0.0800 
 35 H        4.6990     5.6590     0.2350 H     1 <1>   0.0800 
 36 H        5.8650     2.9330     0.8390 H     1 <1>   0.0800 
 37 H        6.9360     5.1870    -0.8790 H     1 <1>   0.0800 
 38 H        7.6820     3.6220    -0.6680 H     1 <1>   0.0800 
 39 H        7.5540     4.7140     0.6850 H     1 <1>   0.0800 
@<TRIPOS>BOND
  1   1   2  2   
  2   2   3  am  
  3   2   4  1   
  4   3   5  1   
  5   3  20  1   
  6   4   6  1   
  7   4   7  2   
  8   5   6  ar  
  9   5   8  ar  
 10   6   9  ar  
 11   7  10  1   
 12   7  21  1   
 13   8  11  ar  
 14   8  22  1   
 15   9  12  ar  
 16   9  23  1   
 17  10  13  1   
 18  10  24  1   
 19  11  12  ar  
 20  11  25  1   
 21  12  26  1   
 22  13  14  1   
 23  13  15  1   
 24  13  27  1   
 25  14  16  1   
 26  14  28  1   
 27  14  29  1   
 28  15  17  1   
 29  15  30  1   
 30  15  31  1   
 31  16  18  1   
 32  16  32  1   
 33  16  33  1   
 34  17  18  1   
 35  17  34  1   
 36  17  35  1   
 37  18  19  1   
 38  18  36  1   
 39  19  37  1   
 40  19  38  1   
 41  19  39  1   
@<TRIPOS>SUBSTRUCTURE
  1 ****   7 GROUP 4 **** **** 0

# MOE 2024.06 (io_trps.svl 2023.06)
