@<TRIPOS>MOLECULE
NONAME
46 46 1 0 0 
SMALL
USER_CHARGES


@<TRIPOS>ATOM
  1 O       -2.8730     6.4070     0.8070 O.3   1 <1>  -0.3630 
  2 C       -4.0970     6.1120     0.3120 C.ar  1 <1>   0.0820 
  3 C       -1.8110     6.2790    -0.1000 C.3   1 <1>   0.1200 
  4 C       -4.8550     7.1010    -0.3190 C.ar  1 <1>  -0.1440 
  5 C       -4.5770     4.8110     0.4410 C.ar  1 <1>  -0.1440 
  6 C       -0.5280     6.6350     0.6490 C.3   1 <1>  -0.1600 
  7 C       -6.0850     6.7590    -0.8730 C.ar  1 <1>  -0.1430 
  8 C       -4.3510     8.5410    -0.3960 C.3   1 <1>  -0.0960 
  9 C       -5.8050     4.4930    -0.1070 C.ar  1 <1>  -0.1500 
 10 C       -3.7890     3.7350     1.1760 C.3   1 <1>  -0.0970 
 11 C        0.6810     6.5170    -0.2690 C.3   1 <1>   0.3430 
 12 C       -6.5480     5.4570    -0.7630 C.ar  1 <1>  -0.1500 
 13 C       -6.9560     7.7750    -1.6000 C.3   1 <1>  -0.0970 
 14 N        1.9010     6.8730     0.5020 N.4   1 <1>  -0.9060 
 15 C        3.1780     6.8200    -0.2140 C.3   1 <1>   0.5030 
 16 C        4.2500     7.2240     0.7930 C.3   1 <1>  -0.2400 
 17 C        3.4370     5.3970    -0.7060 C.3   1 <1>  -0.2400 
 18 C        3.1590     7.8100    -1.3780 C.3   1 <1>  -0.2400 
 19 H       -1.9900     6.9490    -0.9240 H     1 <1>   0.0800 
 20 H       -1.7950     5.2630    -0.4570 H     1 <1>   0.0800 
 21 H       -0.4240     5.9600     1.4810 H     1 <1>   0.0800 
 22 H       -0.6170     7.6440     1.0120 H     1 <1>   0.0800 
 23 H       -3.5810     8.7290     0.3290 H     1 <1>   0.0800 
 24 H       -5.1500     9.2300    -0.1900 H     1 <1>   0.0800 
 25 H       -3.9620     8.7400    -1.3770 H     1 <1>   0.0800 
 26 H       -6.1940     3.4940    -0.0270 H     1 <1>   0.1500 
 27 H       -3.3460     4.1440     2.0660 H     1 <1>   0.0800 
 28 H       -3.0130     3.3500     0.5410 H     1 <1>   0.0800 
 29 H       -4.4330     2.9250     1.4660 H     1 <1>   0.0800 
 30 H        0.5630     7.1840    -1.1080 H     1 <1>   0.0800 
 31 H        0.7560     5.5080    -0.6400 H     1 <1>   0.0800 
 32 H       -7.4990     5.1830    -1.1840 H     1 <1>   0.1500 
 33 H       -6.3770     8.3050    -2.3350 H     1 <1>   0.0800 
 34 H       -7.3630     8.4780    -0.8970 H     1 <1>   0.0800 
 35 H       -7.7720     7.2920    -2.1060 H     1 <1>   0.0800 
 36 H        1.9790     6.2510     1.3120 H     1 <1>   0.4500 
 37 H        1.7980     7.8210     0.8740 H     1 <1>   0.4500 
 38 H        4.2800     6.5430     1.6250 H     1 <1>   0.0800 
 39 H        4.0870     8.2230     1.1570 H     1 <1>   0.0800 
 40 H        5.2190     7.2050     0.3240 H     1 <1>   0.0800 
 41 H        4.4180     5.3390    -1.1460 H     1 <1>   0.0800 
 42 H        3.4020     4.6930     0.1060 H     1 <1>   0.0800 
 43 H        2.7330     5.1040    -1.4630 H     1 <1>   0.0800 
 44 H        2.9290     8.8050    -1.0390 H     1 <1>   0.0800 
 45 H        2.4550     7.5190    -2.1360 H     1 <1>   0.0800 
 46 H        4.1300     7.8400    -1.8420 H     1 <1>   0.0800 
@<TRIPOS>BOND
  1   1   2  1   
  2   1   3  1   
  3   2   4  ar  
  4   2   5  ar  
  5   3   6  1   
  6   3  19  1   
  7   3  20  1   
  8   4   7  ar  
  9   4   8  1   
 10   5   9  ar  
 11   5  10  1   
 12   6  11  1   
 13   6  21  1   
 14   6  22  1   
 15   7  12  ar  
 16   7  13  1   
 17   8  23  1   
 18   8  24  1   
 19   8  25  1   
 20   9  12  ar  
 21   9  26  1   
 22  10  27  1   
 23  10  28  1   
 24  10  29  1   
 25  11  14  1   
 26  11  30  1   
 27  11  31  1   
 28  12  32  1   
 29  13  33  1   
 30  13  34  1   
 31  13  35  1   
 32  14  15  1   
 33  14  36  1   
 34  14  37  1   
 35  15  16  1   
 36  15  17  1   
 37  15  18  1   
 38  16  38  1   
 39  16  39  1   
 40  16  40  1   
 41  17  41  1   
 42  17  42  1   
 43  17  43  1   
 44  18  44  1   
 45  18  45  1   
 46  18  46  1   
@<TRIPOS>SUBSTRUCTURE
  1 ****   3 GROUP 4 **** **** 0

# MOE 2024.06 (io_trps.svl 2023.06)
