@<TRIPOS>MOLECULE
NONAME
49 50 1 0 0 
SMALL
USER_CHARGES


@<TRIPOS>ATOM
  1 O       -0.2590     0.1380     0.5480 O.2   1 <1>  -0.5700 
  2 C       -0.0960    -1.0480     0.3450 C.2   1 <1>   0.6900 
  3 N        1.1380    -1.6250     0.2940 N.am  1 <1>  -0.5470 
  4 N       -1.1760    -1.8470     0.1570 N.am  1 <1>  -0.7300 
  5 C        2.4200    -1.0570     0.3180 C.ar  1 <1>   0.1170 
  6 C       -2.5570    -1.3520     0.2330 C.3   1 <1>   0.2200 
  7 C        2.6780     0.2570    -0.0540 C.ar  1 <1>  -0.1500 
  8 C        3.4930    -1.8470     0.7130 C.ar  1 <1>  -0.1500 
  9 C       -3.4880    -2.4690     0.6960 C.3   1 <1>  -0.1600 
 10 C       -2.9820    -0.8230    -1.1350 C.3   1 <1>  -0.1600 
 11 C        3.9640     0.7650    -0.0290 C.ar  1 <1>  -0.1500 
 12 C        4.7800    -1.3410     0.7380 C.ar  1 <1>  -0.1500 
 13 C       -4.9330    -1.9720     0.7170 C.3   1 <1>   0.3430 
 14 C       -4.4280    -0.3430    -1.0880 C.3   1 <1>   0.3430 
 15 C        5.0310    -0.0280     0.3670 C.ar  1 <1>  -0.1430 
 16 N       -5.3170    -1.4570    -0.6330 N.4   1 <1>  -0.9590 
 17 C        6.4460     0.5490     0.3880 C.3   1 <1>   0.0630 
 18 C       -6.7480    -1.0240    -0.6450 C.3   1 <1>   0.2630 
 19 C        7.3350    -0.1910    -0.6290 C.3   1 <1>  -0.1600 
 20 C        7.0160     0.5040     1.8130 C.3   1 <1>  -0.2400 
 21 C        8.7170     0.4490    -0.8170 C.3   1 <1>  -0.2400 
 22 H        1.1260    -2.6360     0.3570 H     1 <1>   0.3700 
 23 H       -1.0340    -2.7840    -0.2130 H     1 <1>   0.3700 
 24 H       -2.5970    -0.5450     0.9500 H     1 <1>   0.0800 
 25 H        1.8730     0.8940    -0.3700 H     1 <1>   0.1500 
 26 H        3.3270    -2.8660     1.0070 H     1 <1>   0.1500 
 27 H       -3.2110    -2.7710     1.6910 H     1 <1>   0.0800 
 28 H       -3.4100    -3.3230     0.0470 H     1 <1>   0.0800 
 29 H       -2.8730    -1.5830    -1.8890 H     1 <1>   0.0800 
 30 H       -2.3520     0.0080    -1.4020 H     1 <1>   0.0800 
 31 H        4.1270     1.7870    -0.3210 H     1 <1>   0.1500 
 32 H        5.5900    -1.9770     1.0490 H     1 <1>   0.1500 
 33 H       -5.0300    -1.1850     1.4480 H     1 <1>   0.0800 
 34 H       -5.5860    -2.7810     1.0040 H     1 <1>   0.0800 
 35 H       -4.7270    -0.0070    -2.0680 H     1 <1>   0.0800 
 36 H       -4.5060     0.4890    -0.4070 H     1 <1>   0.0800 
 37 H       -5.2090    -2.2300    -1.3050 H     1 <1>   0.4500 
 38 H        6.3930     1.5820     0.0910 H     1 <1>   0.0800 
 39 H       -6.9010    -0.2110     0.0460 H     1 <1>   0.0800 
 40 H       -7.3900    -1.8430    -0.3610 H     1 <1>   0.0800 
 41 H       -7.0310    -0.6950    -1.6320 H     1 <1>   0.0800 
 42 H        6.8290    -0.1940    -1.5800 H     1 <1>   0.0800 
 43 H        7.4590    -1.2160    -0.3280 H     1 <1>   0.0800 
 44 H        7.1930    -0.5100     2.1220 H     1 <1>   0.0800 
 45 H        6.3170     0.9540     2.4960 H     1 <1>   0.0800 
 46 H        7.9390     1.0500     1.8700 H     1 <1>   0.0800 
 47 H        8.6190     1.4850    -1.0930 H     1 <1>   0.0800 
 48 H        9.2510    -0.0610    -1.5990 H     1 <1>   0.0800 
 49 H        9.2990     0.3810     0.0850 H     1 <1>   0.0800 
@<TRIPOS>BOND
  1   1   2  2   
  2   2   3  am  
  3   2   4  am  
  4   3   5  1   
  5   3  22  1   
  6   4   6  1   
  7   4  23  1   
  8   5   7  ar  
  9   5   8  ar  
 10   6   9  1   
 11   6  10  1   
 12   6  24  1   
 13   7  11  ar  
 14   7  25  1   
 15   8  12  ar  
 16   8  26  1   
 17   9  13  1   
 18   9  27  1   
 19   9  28  1   
 20  10  14  1   
 21  10  29  1   
 22  10  30  1   
 23  11  15  ar  
 24  11  31  1   
 25  12  15  ar  
 26  12  32  1   
 27  13  16  1   
 28  13  33  1   
 29  13  34  1   
 30  14  16  1   
 31  14  35  1   
 32  14  36  1   
 33  15  17  1   
 34  16  18  1   
 35  16  37  1   
 36  17  19  1   
 37  17  20  1   
 38  17  38  1   
 39  18  39  1   
 40  18  40  1   
 41  18  41  1   
 42  19  21  1   
 43  19  42  1   
 44  19  43  1   
 45  20  44  1   
 46  20  45  1   
 47  20  46  1   
 48  21  47  1   
 49  21  48  1   
 50  21  49  1   
@<TRIPOS>SUBSTRUCTURE
  1 ****   3 GROUP 4 **** **** 0

# MOE 2024.06 (io_trps.svl 2023.06)
