@<TRIPOS>MOLECULE
NONAME
44 45 1 0 0 
SMALL
USER_CHARGES


@<TRIPOS>ATOM
  1 O       -1.7690     0.5880     0.6820 O.3   1 <1>  -0.3630 
  2 C       -1.0140     1.6680     0.3360 C.ar  1 <1>   0.0830 
  3 C       -1.1780    -0.5180     1.3400 C.3   1 <1>   0.0400 
  4 C       -1.5780     2.6040    -0.5270 C.ar  1 <1>  -0.1440 
  5 C        0.2780     1.8700     0.8140 C.ar  1 <1>  -0.1500 
  6 C       -0.8520     3.7230    -0.9080 C.ar  1 <1>  -0.1500 
  7 C       -2.9840     2.4040    -1.0520 C.3   1 <1>   0.4870 
  8 C        0.9940     2.9900     0.4320 C.ar  1 <1>  -0.1500 
  9 C        0.4310     3.9150    -0.4280 C.ar  1 <1>  -0.1500 
 10 N       -3.9150     2.3570     0.1190 N.4   1 <1>  -0.9590 
 11 C       -5.2470     1.7380    -0.1690 C.3   1 <1>   0.4230 
 12 C       -3.9590     3.7210     0.7530 C.3   1 <1>   0.2630 
 13 C       -6.1300     1.7610     1.0890 C.3   1 <1>  -0.1600 
 14 C       -5.0680     0.2870    -0.6450 C.3   1 <1>  -0.1600 
 15 C       -7.4540     1.0260     0.8760 C.3   1 <1>   0.3430 
 16 C       -6.4060    -0.4300    -0.8290 C.3   1 <1>   0.3430 
 17 N       -7.1950    -0.3710     0.4320 N.4   1 <1>  -0.9590 
 18 C       -8.4880    -1.1140     0.2720 C.3   1 <1>   0.2630 
 19 H       -0.8600    -0.2170     2.3230 H     1 <1>   0.0800 
 20 H       -0.3400    -0.8660     0.7600 H     1 <1>   0.0800 
 21 H       -1.9100    -1.3010     1.4200 H     1 <1>   0.0800 
 22 H        0.7500     1.1760     1.4850 H     1 <1>   0.1500 
 23 H       -1.2650     4.4550    -1.5810 H     1 <1>   0.1500 
 24 H       -3.0010     1.4760    -1.5960 H     1 <1>   0.0800 
 25 H       -3.2540     3.2040    -1.7220 H     1 <1>   0.0800 
 26 H        1.9940     3.1430     0.8030 H     1 <1>   0.1500 
 27 H        0.9970     4.7830    -0.7240 H     1 <1>   0.1500 
 28 H       -3.3940     1.7390     0.7700 H     1 <1>   0.4500 
 29 H       -5.7380     2.3040    -0.9460 H     1 <1>   0.0800 
 30 H       -4.4670     4.4210     0.1100 H     1 <1>   0.0800 
 31 H       -2.9590     4.0840     0.9320 H     1 <1>   0.0800 
 32 H       -4.4690     3.6840     1.7010 H     1 <1>   0.0800 
 33 H       -6.3750     2.7740     1.3510 H     1 <1>   0.0800 
 34 H       -5.6130     1.3130     1.9190 H     1 <1>   0.0800 
 35 H       -4.4710    -0.2680     0.0590 H     1 <1>   0.0800 
 36 H       -4.5710     0.2610    -1.5970 H     1 <1>   0.0800 
 37 H       -8.0430     1.5410     0.1330 H     1 <1>   0.0800 
 38 H       -8.0140     1.0200     1.7990 H     1 <1>   0.0800 
 39 H       -6.2280    -1.4590    -1.1030 H     1 <1>   0.0800 
 40 H       -6.9620     0.0360    -1.6280 H     1 <1>   0.0800 
 41 H       -6.6630    -0.8560     1.1730 H     1 <1>   0.4500 
 42 H       -9.0970    -0.6570    -0.4920 H     1 <1>   0.0800 
 43 H       -9.0410    -1.1110     1.1980 H     1 <1>   0.0800 
 44 H       -8.3010    -2.1390    -0.0060 H     1 <1>   0.0800 
@<TRIPOS>BOND
  1   1   2  1   
  2   1   3  1   
  3   2   4  ar  
  4   2   5  ar  
  5   3  19  1   
  6   3  20  1   
  7   3  21  1   
  8   4   6  ar  
  9   4   7  1   
 10   5   8  ar  
 11   5  22  1   
 12   6   9  ar  
 13   6  23  1   
 14   7  10  1   
 15   7  24  1   
 16   7  25  1   
 17   8   9  ar  
 18   8  26  1   
 19   9  27  1   
 20  10  11  1   
 21  10  12  1   
 22  10  28  1   
 23  11  13  1   
 24  11  14  1   
 25  11  29  1   
 26  12  30  1   
 27  12  31  1   
 28  12  32  1   
 29  13  15  1   
 30  13  33  1   
 31  13  34  1   
 32  14  16  1   
 33  14  35  1   
 34  14  36  1   
 35  15  17  1   
 36  15  37  1   
 37  15  38  1   
 38  16  17  1   
 39  16  39  1   
 40  16  40  1   
 41  17  18  1   
 42  17  41  1   
 43  18  42  1   
 44  18  43  1   
 45  18  44  1   
@<TRIPOS>SUBSTRUCTURE
  1 ****  10 GROUP 4 **** **** 0

# MOE 2024.06 (io_trps.svl 2023.06)
