@<TRIPOS>MOLECULE
NONAME
31 32 1 0 0 
SMALL
USER_CHARGES


@<TRIPOS>ATOM
  1 O       -0.0990     0.2340    -1.1830 O.2   1 <1>  -0.5700 
  2 C       -0.0020     1.1330    -0.3710 C.2   1 <1>   0.6900 
  3 N        1.2110     1.6330     0.0140 N.am  1 <1>  -0.5470 
  4 N       -1.1140     1.6900     0.1790 N.am  1 <1>  -0.5790 
  5 C        2.5170     1.1980    -0.2600 C.ar  1 <1>   0.1170 
  6 C       -2.5000     1.3090    -0.1280 C.3   1 <1>   0.0490 
  7 C        3.5580     2.1140    -0.1680 C.ar  1 <1>  -0.1500 
  8 C        2.8210    -0.1160    -0.6000 C.ar  1 <1>  -0.1500 
  9 C       -3.5540     2.3610    -0.0290 C.3   1 <1>  -0.2000 
 10 C       -3.4820     1.2690     0.9960 C.3   1 <1>  -0.2000 
 11 C        4.8690     1.7370    -0.4080 C.ar  1 <1>  -0.1430 
 12 C        4.1260    -0.5070    -0.8470 C.ar  1 <1>  -0.1430 
 13 C        5.1470     0.4240    -0.7480 C.ar  1 <1>  -0.1500 
 14 C        6.0020     2.7420    -0.3080 C.3   1 <1>  -0.0970 
 15 C        4.4400    -1.9440    -1.2210 C.3   1 <1>  -0.0970 
 16 H        1.1590     2.5190     0.5010 H     1 <1>   0.3700 
 17 H       -1.0120     2.3480     0.9460 H     1 <1>   0.3700 
 18 H       -2.5790     0.5700    -0.9100 H     1 <1>   0.1000 
 19 H        3.3390     3.1320     0.0920 H     1 <1>   0.1500 
 20 H        2.0310    -0.8400    -0.6690 H     1 <1>   0.1500 
 21 H       -4.3660     2.3430    -0.7350 H     1 <1>   0.1000 
 22 H       -3.2680     3.3610     0.2460 H     1 <1>   0.1000 
 23 H       -3.1450     1.5020     1.9900 H     1 <1>   0.1000 
 24 H       -4.2430     0.5090     0.9850 H     1 <1>   0.1000 
 25 H        6.1620     0.1240    -0.9380 H     1 <1>   0.1500 
 26 H        5.6490     3.6870     0.0650 H     1 <1>   0.0800 
 27 H        6.4370     2.8970    -1.2780 H     1 <1>   0.0800 
 28 H        6.7600     2.3740     0.3590 H     1 <1>   0.0800 
 29 H        3.5600    -2.4390    -1.5910 H     1 <1>   0.0800 
 30 H        4.8000    -2.4740    -0.3580 H     1 <1>   0.0800 
 31 H        5.1930    -1.9720    -1.9880 H     1 <1>   0.0800 
@<TRIPOS>BOND
  1   1   2  2   
  2   2   3  am  
  3   2   4  am  
  4   3   5  1   
  5   3  16  1   
  6   4   6  1   
  7   4  17  1   
  8   5   7  ar  
  9   5   8  ar  
 10   6   9  1   
 11   6  10  1   
 12   6  18  1   
 13   7  11  ar  
 14   7  19  1   
 15   8  12  ar  
 16   8  20  1   
 17   9  10  1   
 18   9  21  1   
 19   9  22  1   
 20  10  23  1   
 21  10  24  1   
 22  11  13  ar  
 23  11  14  1   
 24  12  13  ar  
 25  12  15  1   
 26  13  25  1   
 27  14  26  1   
 28  14  27  1   
 29  14  28  1   
 30  15  29  1   
 31  15  30  1   
 32  15  31  1   
@<TRIPOS>SUBSTRUCTURE
  1 ****   3 GROUP 4 **** **** 0

# MOE 2024.06 (io_trps.svl 2023.06)
