@<TRIPOS>MOLECULE
NONAME
46 48 1 0 0 
SMALL
USER_CHARGES


@<TRIPOS>ATOM
  1 CL       8.2190     1.4710     4.0450 Cl    1 <1>  -0.1770 
  2 C        7.5400     0.6010     2.6950 C.ar  1 <1>   0.1770 
  3 C        7.1020    -0.6980     2.8760 C.ar  1 <1>  -0.1500 
  4 C        7.4520     1.2220     1.4630 C.ar  1 <1>  -0.1500 
  5 C        6.5680    -1.3890     1.8020 C.ar  1 <1>  -0.1500 
  6 C        6.9170     0.5260     0.3930 C.ar  1 <1>  -0.1500 
  7 C        6.4740    -0.7800     0.5570 C.ar  1 <1>  -0.1430 
  8 C        5.9140    -1.5360    -0.6350 C.3   1 <1>   0.2840 
  9 N        7.0540    -2.1180    -1.3540 N.am  1 <1>  -0.7300 
 10 C        7.5800    -1.6320    -2.5040 C.2   1 <1>   0.5690 
 11 O        6.9980    -0.8320    -3.1960 O.2   1 <1>  -0.5700 
 12 C        8.9880    -2.0980    -2.8870 C.3   1 <1>   0.1710 
 13 N        9.8500    -2.4280    -1.7110 N.3   1 <1>  -0.8100 
 14 C       11.1010    -3.0920    -2.1400 C.3   1 <1>   0.1100 
 15 C       10.1880    -1.2020    -0.9410 C.3   1 <1>   0.1100 
 16 C       12.0090    -3.4430    -0.9440 C.3   1 <1>   0.2090 
 17 C       11.0740    -1.5090     0.2810 C.3   1 <1>   0.2090 
 18 N       12.3150    -2.2330    -0.1250 N.pl3 1 <1>  -0.8380 
 19 C       13.2810    -2.3900     0.8600 C.ar  1 <1>   0.1000 
 20 C       14.5080    -1.7500     0.7160 C.ar  1 <1>  -0.1500 
 21 C       13.0490    -3.1750     1.9890 C.ar  1 <1>  -0.1500 
 22 C       15.4940    -1.8830     1.6780 C.ar  1 <1>  -0.1500 
 23 C       14.0240    -3.3190     2.9600 C.ar  1 <1>  -0.1500 
 24 C       15.2310    -2.6680     2.7850 C.ar  1 <1>   0.1900 
 25 F       16.1580    -2.8000     3.7000 F     1 <1>  -0.1900 
 26 H        7.1810    -1.1560     3.8450 H     1 <1>   0.1500 
 27 H        7.7980     2.2330     1.3470 H     1 <1>   0.1500 
 28 H        6.2290    -2.4020     1.9380 H     1 <1>   0.1500 
 29 H        6.8500     0.9980    -0.5750 H     1 <1>   0.1500 
 30 H        5.3660    -0.8690    -1.2790 H     1 <1>   0.0800 
 31 H        5.2520    -2.3210    -0.3130 H     1 <1>   0.0800 
 32 H        7.7050    -2.6680    -0.7850 H     1 <1>   0.3700 
 33 H        9.4560    -1.3320    -3.4800 H     1 <1>   0.0800 
 34 H        8.8780    -2.9730    -3.5010 H     1 <1>   0.0800 
 35 H       11.6470    -2.4490    -2.8080 H     1 <1>   0.0800 
 36 H       10.8610    -3.9990    -2.6670 H     1 <1>   0.0800 
 37 H        9.2890    -0.7260    -0.5940 H     1 <1>   0.0800 
 38 H       10.7090    -0.5040    -1.5730 H     1 <1>   0.0800 
 39 H       12.9300    -3.8660    -1.3050 H     1 <1>   0.0800 
 40 H       11.5180    -4.1790    -0.3320 H     1 <1>   0.0800 
 41 H       10.5150    -2.1060     0.9800 H     1 <1>   0.0800 
 42 H       11.3440    -0.5880     0.7680 H     1 <1>   0.0800 
 43 H       14.6720    -1.1480    -0.1590 H     1 <1>   0.1500 
 44 H       12.1020    -3.6690     2.0980 H     1 <1>   0.1500 
 45 H       16.4440    -1.3930     1.5750 H     1 <1>   0.1500 
 46 H       13.8580    -3.9200     3.8350 H     1 <1>   0.1500 
@<TRIPOS>BOND
  1   1   2  1   
  2   2   3  ar  
  3   2   4  ar  
  4   3   5  ar  
  5   3  26  1   
  6   4   6  ar  
  7   4  27  1   
  8   5   7  ar  
  9   5  28  1   
 10   6   7  ar  
 11   6  29  1   
 12   7   8  1   
 13   8   9  1   
 14   8  30  1   
 15   8  31  1   
 16   9  10  am  
 17   9  32  1   
 18  10  11  2   
 19  10  12  1   
 20  12  13  1   
 21  12  33  1   
 22  12  34  1   
 23  13  14  1   
 24  13  15  1   
 25  14  16  1   
 26  14  35  1   
 27  14  36  1   
 28  15  17  1   
 29  15  37  1   
 30  15  38  1   
 31  16  18  1   
 32  16  39  1   
 33  16  40  1   
 34  17  18  1   
 35  17  41  1   
 36  17  42  1   
 37  18  19  1   
 38  19  20  ar  
 39  19  21  ar  
 40  20  22  ar  
 41  20  43  1   
 42  21  23  ar  
 43  21  44  1   
 44  22  24  ar  
 45  22  45  1   
 46  23  24  ar  
 47  23  46  1   
 48  24  25  1   
@<TRIPOS>SUBSTRUCTURE
  1 ****  17 GROUP 4 **** **** 0

# MOE 2024.06 (io_trps.svl 2023.06)
