@<TRIPOS>MOLECULE
NONAME
31 31 1 0 0 
SMALL
USER_CHARGES


@<TRIPOS>ATOM
  1 BR       1.9840    -2.3100    -3.3000 Br    1 <1>  -0.1110 
  2 C        2.4380    -1.8440    -1.4900 C.ar  1 <1>   0.1110 
  3 C        1.8920    -2.5650    -0.4450 C.ar  1 <1>   0.1600 
  4 C        3.3000    -0.7960    -1.2680 C.ar  1 <1>  -0.1500 
  5 N        2.1540    -2.3030     0.8260 N.ar  1 <1>  -0.6200 
  6 C        3.5980    -0.5000     0.0590 C.ar  1 <1>   0.0860 
  7 C        2.9860    -1.2900     1.0390 C.ar  1 <1>   0.1600 
  8 C        4.4950     0.5710     0.4440 C.2   1 <1>   0.5440 
  9 O        4.4530     1.0420     1.5620 O.2   1 <1>  -0.5700 
 10 N        5.4050     1.0900    -0.4310 N.am  1 <1>  -0.7300 
 11 C        6.3610     2.2080    -0.1170 C.3   1 <1>   0.2810 
 12 C        6.0370     3.4880    -0.9160 C.2   1 <1>   0.6590 
 13 C        7.7950     1.7190    -0.3840 C.3   1 <1>   0.1200 
 14 O        6.5930     3.7160    -1.9610 O.2   1 <1>  -0.5700 
 15 O        5.1280     4.3500    -0.4620 O.3   1 <1>  -0.4300 
 16 O        8.7180     2.7340    -0.1540 O.3   1 <1>  -0.6800 
 17 C        4.2780     4.1390     0.6430 C.3   1 <1>   0.1200 
 18 C        3.4120     5.3820     0.8080 C.3   1 <1>  -0.2400 
 19 H        1.2210    -3.3790    -0.6630 H     1 <1>   0.1500 
 20 H        3.7060    -0.2400    -2.0920 H     1 <1>   0.1500 
 21 H        3.2050    -1.0630     2.0710 H     1 <1>   0.1500 
 22 H        5.4480     0.7470    -1.3920 H     1 <1>   0.3700 
 23 H        6.3100     2.4380     0.9310 H     1 <1>   0.0800 
 24 H        7.9090     1.3980    -1.4050 H     1 <1>   0.0800 
 25 H        8.0350     0.9070     0.2800 H     1 <1>   0.0800 
 26 H        8.6600     3.4130    -0.8640 H     1 <1>   0.4000 
 27 H        4.8750     3.9760     1.5240 H     1 <1>   0.0800 
 28 H        3.6640     3.2770     0.4470 H     1 <1>   0.0800 
 29 H        4.0300     6.2430     0.9930 H     1 <1>   0.0800 
 30 H        2.7460     5.2520     1.6420 H     1 <1>   0.0800 
 31 H        2.8240     5.5450    -0.0780 H     1 <1>   0.0800 
@<TRIPOS>BOND
  1   1   2  1   
  2   2   3  ar  
  3   2   4  ar  
  4   3   5  ar  
  5   3  19  1   
  6   4   6  ar  
  7   4  20  1   
  8   5   7  ar  
  9   6   7  ar  
 10   6   8  1   
 11   7  21  1   
 12   8   9  2   
 13   8  10  am  
 14  10  11  1   
 15  10  22  1   
 16  11  12  1   
 17  11  13  1   
 18  11  23  1   
 19  12  14  2   
 20  12  15  1   
 21  13  16  1   
 22  13  24  1   
 23  13  25  1   
 24  15  17  1   
 25  16  26  1   
 26  17  18  1   
 27  17  27  1   
 28  17  28  1   
 29  18  29  1   
 30  18  30  1   
 31  18  31  1   
@<TRIPOS>SUBSTRUCTURE
  1 ****   8 GROUP 4 **** **** 0

# MOE 2024.06 (io_trps.svl 2023.06)
