@<TRIPOS>MOLECULE
NONAME
42 43 1 0 0 
SMALL
USER_CHARGES


@<TRIPOS>ATOM
  1 F        0.7300     0.2020    -1.0730 F     1 <1>  -0.1900 
  2 C        1.9960     0.2210    -0.7530 C.ar  1 <1>   0.1900 
  3 C        2.3560    -0.0430     0.5540 C.ar  1 <1>  -0.1500 
  4 C        2.9270     0.5030    -1.7330 C.ar  1 <1>  -0.1500 
  5 C        3.7000    -0.0220     0.8890 C.ar  1 <1>  -0.1500 
  6 C        4.2680     0.5220    -1.3860 C.ar  1 <1>  -0.1500 
  7 C        4.6580     0.2600    -0.0780 C.ar  1 <1>  -0.1430 
  8 C        6.1340     0.2900     0.2860 C.3   1 <1>  -0.0160 
  9 C        6.5870     1.7280     0.5340 C.3   1 <1>   0.1400 
 10 N        8.0290     1.7540     0.8760 N.am  1 <1>  -0.7300 
 11 C        9.0260     1.8980    -0.0370 C.2   1 <1>   0.5690 
 12 O        8.7920     1.9790    -1.2180 O.2   1 <1>  -0.5700 
 13 C       10.4700     1.9540     0.4580 C.3   1 <1>  -0.0190 
 14 C       11.0120     3.3950     0.4190 C.3   1 <1>  -0.1600 
 15 C       11.3940     1.0220    -0.3510 C.3   1 <1>  -0.1600 
 16 C       12.4680     3.4660     0.8860 C.3   1 <1>   0.1400 
 17 C       12.8450     1.1120     0.1270 C.3   1 <1>   0.1400 
 18 N       13.3000     2.5300     0.0800 N.am  1 <1>  -0.6600 
 19 C       14.3750     2.9880    -0.6390 C.2   1 <1>   0.5690 
 20 O       14.7330     4.1410    -0.6020 O.2   1 <1>  -0.5700 
 21 C       15.1710     2.0530    -1.5190 C.3   1 <1>  -0.1790 
 22 H        1.6010    -0.2600     1.2880 H     1 <1>   0.1500 
 23 H        2.6090     0.7040    -2.7390 H     1 <1>   0.1500 
 24 H        3.9950    -0.2260     1.9040 H     1 <1>   0.1500 
 25 H        5.0080     0.7410    -2.1370 H     1 <1>   0.1500 
 26 H        6.7070    -0.1290    -0.5230 H     1 <1>   0.0800 
 27 H        6.3050    -0.3040     1.1650 H     1 <1>   0.0800 
 28 H        6.0170     2.1640     1.3360 H     1 <1>   0.0800 
 29 H        6.4190     2.3140    -0.3550 H     1 <1>   0.0800 
 30 H        8.2540     1.6750     1.8680 H     1 <1>   0.3700 
 31 H       10.4840     1.6220     1.4810 H     1 <1>   0.0800 
 32 H       10.4080     4.0290     1.0430 H     1 <1>   0.0800 
 33 H       10.9530     3.7770    -0.5860 H     1 <1>   0.0800 
 34 H       11.3560     1.2880    -1.3930 H     1 <1>   0.0800 
 35 H       11.0500     0.0070    -0.2620 H     1 <1>   0.0800 
 36 H       12.5400     3.1920     1.9250 H     1 <1>   0.0800 
 37 H       12.8260     4.4770     0.7860 H     1 <1>   0.0800 
 38 H       13.4610     0.4800    -0.4860 H     1 <1>   0.0800 
 39 H       12.9180     0.7590     1.1420 H     1 <1>   0.0800 
 40 H       15.6300     1.2900    -0.9200 H     1 <1>   0.0800 
 41 H       15.9420     2.6030    -2.0270 H     1 <1>   0.0800 
 42 H       14.5270     1.6080    -2.2540 H     1 <1>   0.0800 
@<TRIPOS>BOND
  1   1   2  1   
  2   2   3  ar  
  3   2   4  ar  
  4   3   5  ar  
  5   3  22  1   
  6   4   6  ar  
  7   4  23  1   
  8   5   7  ar  
  9   5  24  1   
 10   6   7  ar  
 11   6  25  1   
 12   7   8  1   
 13   8   9  1   
 14   8  26  1   
 15   8  27  1   
 16   9  10  1   
 17   9  28  1   
 18   9  29  1   
 19  10  11  am  
 20  10  30  1   
 21  11  12  2   
 22  11  13  1   
 23  13  14  1   
 24  13  15  1   
 25  13  31  1   
 26  14  16  1   
 27  14  32  1   
 28  14  33  1   
 29  15  17  1   
 30  15  34  1   
 31  15  35  1   
 32  16  18  1   
 33  16  36  1   
 34  16  37  1   
 35  17  18  1   
 36  17  38  1   
 37  17  39  1   
 38  18  19  am  
 39  19  20  2   
 40  19  21  1   
 41  21  40  1   
 42  21  41  1   
 43  21  42  1   
@<TRIPOS>SUBSTRUCTURE
  1 ****  11 GROUP 4 **** **** 0

# MOE 2024.06 (io_trps.svl 2023.06)
