@<TRIPOS>MOLECULE
NONAME
46 48 1 0 0 
SMALL
USER_CHARGES


@<TRIPOS>ATOM
  1 O        0.8520     0.2200    -3.3620 O.2   1 <1>  -0.5700 
  2 C        0.3760    -0.4630    -2.4860 C.2   1 <1>   0.5690 
  3 N        0.9150    -0.6080    -1.2430 N.am  1 <1>  -0.5470 
  4 C       -0.9280    -1.2220    -2.7510 C.3   1 <1>   0.1710 
  5 C        1.9840    -0.0050    -0.5630 C.ar  1 <1>   0.1170 
  6 N       -1.6250    -1.6780    -1.5100 N.3   1 <1>  -0.8100 
  7 C        2.0040    -0.0700     0.8350 C.ar  1 <1>   0.0830 
  8 C        3.0200     0.6430    -1.2230 C.ar  1 <1>  -0.1500 
  9 C       -2.6370    -2.7160    -1.8040 C.3   1 <1>   0.1100 
 10 C       -2.2730    -0.5450    -0.7970 C.3   1 <1>   0.1100 
 11 O        0.9610    -0.7120     1.4440 O.3   1 <1>  -0.3630 
 12 C        3.0530     0.5090     1.5430 C.ar  1 <1>  -0.1500 
 13 C        4.0600     1.2190    -0.5140 C.ar  1 <1>  -0.1500 
 14 C       -3.3420    -3.2130    -0.5260 C.3   1 <1>   0.2090 
 15 C       -2.9660    -1.0010     0.5000 C.3   1 <1>   0.2090 
 16 C        0.8790    -0.8230     2.8470 C.3   1 <1>   0.0400 
 17 C        4.0770     1.1520     0.8680 C.ar  1 <1>  -0.1500 
 18 N       -3.9600    -2.0830     0.2240 N.pl3 1 <1>  -0.8380 
 19 C       -4.8490    -2.4200     1.2260 C.ar  1 <1>   0.4100 
 20 N       -4.4370    -2.2940     2.4830 N.ar  1 <1>  -0.6200 
 21 C       -6.1180    -2.8790     0.8820 C.ar  1 <1>  -0.1500 
 22 C       -5.3110    -2.6400     3.4140 C.ar  1 <1>   0.1600 
 23 C       -7.0160    -3.2360     1.8600 C.ar  1 <1>  -0.1500 
 24 C       -6.5890    -3.1090     3.1660 C.ar  1 <1>  -0.1500 
 25 H        0.3120    -1.1760    -0.6340 H     1 <1>   0.3700 
 26 H       -0.6730    -2.0790    -3.3490 H     1 <1>   0.0800 
 27 H       -1.5830    -0.5970    -3.3330 H     1 <1>   0.0800 
 28 H        3.0190     0.6990    -2.2960 H     1 <1>   0.1500 
 29 H       -2.1590    -3.5540    -2.2800 H     1 <1>   0.0800 
 30 H       -3.3790    -2.3230    -2.4780 H     1 <1>   0.0800 
 31 H       -3.0080    -0.0830    -1.4340 H     1 <1>   0.0800 
 32 H       -1.5390     0.2000    -0.5440 H     1 <1>   0.0800 
 33 H        3.0930     0.4730     2.6140 H     1 <1>   0.1500 
 34 H        4.8550     1.7180    -1.0410 H     1 <1>   0.1500 
 35 H       -2.6240    -3.7050     0.1070 H     1 <1>   0.0800 
 36 H       -4.1000    -3.9290    -0.7910 H     1 <1>   0.0800 
 37 H       -3.4690    -0.1650     0.9540 H     1 <1>   0.0800 
 38 H       -2.2240    -1.3610     1.1910 H     1 <1>   0.0800 
 39 H       -0.0210    -1.3590     3.0880 H     1 <1>   0.0800 
 40 H        0.8420     0.1630     3.2740 H     1 <1>   0.0800 
 41 H        1.7350    -1.3680     3.2050 H     1 <1>   0.0800 
 42 H        4.8880     1.6000     1.4160 H     1 <1>   0.1500 
 43 H       -6.3770    -2.9420    -0.1560 H     1 <1>   0.1500 
 44 H       -4.9890    -2.5430     4.4360 H     1 <1>   0.1500 
 45 H       -8.0030    -3.5930     1.6210 H     1 <1>   0.1500 
 46 H       -7.2380    -3.3690     3.9810 H     1 <1>   0.1500 
@<TRIPOS>BOND
  1   1   2  2   
  2   2   3  am  
  3   2   4  1   
  4   3   5  1   
  5   3  25  1   
  6   4   6  1   
  7   4  26  1   
  8   4  27  1   
  9   5   7  ar  
 10   5   8  ar  
 11   6   9  1   
 12   6  10  1   
 13   7  11  1   
 14   7  12  ar  
 15   8  13  ar  
 16   8  28  1   
 17   9  14  1   
 18   9  29  1   
 19   9  30  1   
 20  10  15  1   
 21  10  31  1   
 22  10  32  1   
 23  11  16  1   
 24  12  17  ar  
 25  12  33  1   
 26  13  17  ar  
 27  13  34  1   
 28  14  18  1   
 29  14  35  1   
 30  14  36  1   
 31  15  18  1   
 32  15  37  1   
 33  15  38  1   
 34  16  39  1   
 35  16  40  1   
 36  16  41  1   
 37  17  42  1   
 38  18  19  1   
 39  19  20  ar  
 40  19  21  ar  
 41  20  22  ar  
 42  21  23  ar  
 43  21  43  1   
 44  22  24  ar  
 45  22  44  1   
 46  23  24  ar  
 47  23  45  1   
 48  24  46  1   
@<TRIPOS>SUBSTRUCTURE
  1 ****  10 GROUP 4 **** **** 0

# MOE 2024.06 (io_trps.svl 2023.06)
