@<TRIPOS>MOLECULE
NONAME
38 39 1 0 0 
SMALL
USER_CHARGES


@<TRIPOS>ATOM
  1 S       -0.3760    -0.7930     0.5460 S.3   1 <1>  -0.0800 
  2 C        1.0850    -0.1450     1.1970 C.2   1 <1>   0.4340 
  3 C       -1.1460     0.6720     1.0880 C.2   1 <1>   0.4420 
  4 S        2.5810    -1.1210     1.0640 S.3   1 <1>  -0.2860 
  5 N        0.9580     1.0020     1.7290 N.2   1 <1>  -0.3380 
  6 N       -0.3270     1.4740     1.6660 N.2   1 <1>  -0.3380 
  7 N       -2.4880     0.9020     0.8920 N.am  1 <1>  -0.4940 
  8 C        2.0870    -2.6680     0.1800 C.3   1 <1>   0.2140 
  9 C       -3.4670     0.1520     0.3300 C.2   1 <1>   0.7800 
 10 C        3.3190    -3.5460     0.0250 C.ar  1 <1>  -0.1440 
 11 O       -3.3040    -0.9580    -0.1290 O.2   1 <1>  -0.5700 
 12 O       -4.6660     0.7210     0.3090 O.3   1 <1>  -0.4300 
 13 C        3.8580    -3.8340    -1.2200 C.ar  1 <1>   0.1900 
 14 C        3.9400    -4.0920     1.1400 C.ar  1 <1>  -0.1500 
 15 C       -5.7780     0.0520    -0.2540 C.3   1 <1>   0.1200 
 16 F        3.2990    -3.3410    -2.2940 F     1 <1>  -0.1900 
 17 C        4.9740    -4.6340    -1.3820 C.ar  1 <1>  -0.1500 
 18 C        5.0610    -4.8970     0.9980 C.ar  1 <1>  -0.1500 
 19 C       -7.0180     0.9540    -0.1680 C.3   1 <1>  -0.0800 
 20 C        5.5790    -5.1700    -0.2580 C.ar  1 <1>  -0.1500 
 21 C       -8.2460     0.2140    -0.7140 C.3   1 <1>  -0.2400 
 22 C       -6.8230     2.2690    -0.9370 C.3   1 <1>  -0.2400 
 23 H       -2.8170     1.7990     1.2340 H     1 <1>   0.3700 
 24 H        1.6710    -2.3770    -0.7680 H     1 <1>   0.0800 
 25 H        1.3390    -3.1580     0.7770 H     1 <1>   0.0800 
 26 H        3.5570    -3.8900     2.1260 H     1 <1>   0.1500 
 27 H       -5.9330    -0.8620     0.2940 H     1 <1>   0.0800 
 28 H       -5.5480    -0.1830    -1.2800 H     1 <1>   0.0800 
 29 H        5.3580    -4.8300    -2.3670 H     1 <1>   0.1500 
 30 H        5.5330    -5.3130     1.8720 H     1 <1>   0.1500 
 31 H       -7.1990     1.1790     0.8700 H     1 <1>   0.0800 
 32 H        6.4490    -5.7950    -0.3590 H     1 <1>   0.1500 
 33 H       -8.1090    -0.0330    -1.7530 H     1 <1>   0.0800 
 34 H       -9.1240     0.8280    -0.6210 H     1 <1>   0.0800 
 35 H       -8.4110    -0.6950    -0.1630 H     1 <1>   0.0800 
 36 H       -6.6230     2.0740    -1.9760 H     1 <1>   0.0800 
 37 H       -6.0000     2.8270    -0.5280 H     1 <1>   0.0800 
 38 H       -7.7070     2.8780    -0.8660 H     1 <1>   0.0800 
@<TRIPOS>BOND
  1   1   2  1   
  2   1   3  1   
  3   2   4  1   
  4   2   5  2   
  5   3   6  2   
  6   3   7  1   
  7   4   8  1   
  8   5   6  1   
  9   7   9  am  
 10   7  23  1   
 11   8  10  1   
 12   8  24  1   
 13   8  25  1   
 14   9  11  2   
 15   9  12  1   
 16  10  13  ar  
 17  10  14  ar  
 18  12  15  1   
 19  13  16  1   
 20  13  17  ar  
 21  14  18  ar  
 22  14  26  1   
 23  15  19  1   
 24  15  27  1   
 25  15  28  1   
 26  17  20  ar  
 27  17  29  1   
 28  18  20  ar  
 29  18  30  1   
 30  19  21  1   
 31  19  22  1   
 32  19  31  1   
 33  20  32  1   
 34  21  33  1   
 35  21  34  1   
 36  21  35  1   
 37  22  36  1   
 38  22  37  1   
 39  22  38  1   
@<TRIPOS>SUBSTRUCTURE
  1 ****   1 GROUP 4 **** **** 0

# MOE 2024.06 (io_trps.svl 2023.06)
