@<TRIPOS>MOLECULE
NONAME
50 52 1 0 0 
SMALL
USER_CHARGES


@<TRIPOS>ATOM
  1 S       -0.5250    -0.0340     0.3490 S.o2  1 <1>   1.4470 
  2 O       -1.4770     0.3520    -0.6670 O.2   1 <1>  -0.6500 
  3 O       -0.8470     0.1440     1.7480 O.2   1 <1>  -0.6500 
  4 N        0.8330     0.9540     0.0920 N.am  1 <1>  -0.8490 
  5 C        0.1090    -1.7020     0.0290 C.ar  1 <1>  -0.0090 
  6 C        0.4250     2.3750     0.0010 C.3   1 <1>   0.1960 
  7 C        1.8620     0.7880     1.1420 C.3   1 <1>   0.1960 
  8 C        0.2080    -2.6460     1.0460 C.ar  1 <1>  -0.1500 
  9 C        0.5360    -2.0700    -1.2420 C.ar  1 <1>  -0.1500 
 10 C        1.6260     3.3440    -0.1390 C.3   1 <1>   0.3430 
 11 C        3.1230     1.6490     0.8720 C.3   1 <1>   0.3430 
 12 C        0.7230    -3.9090     0.8110 C.ar  1 <1>  -0.1500 
 13 C        1.0520    -3.3300    -1.4870 C.ar  1 <1>  -0.1500 
 14 N        2.9270     2.6040    -0.2800 N.4   1 <1>  -0.9590 
 15 C        1.1530    -4.2570    -0.4650 C.ar  1 <1>   0.0830 
 16 C        4.0780     3.4950    -0.5950 C.3   1 <1>   0.4230 
 17 O        1.6720    -5.4660    -0.7850 O.3   1 <1>  -0.3620 
 18 C        5.2660     2.6620    -1.0950 C.3   1 <1>  -0.1600 
 19 C        4.4820     4.3700     0.6030 C.3   1 <1>  -0.1600 
 20 C        1.7510    -6.5090     0.1620 C.3   1 <1>   0.0400 
 21 C        6.4470     3.5710    -1.4700 C.3   1 <1>  -0.1600 
 22 C        5.6600     5.2830     0.2320 C.3   1 <1>  -0.1600 
 23 C        6.8500     4.4690    -0.2940 C.3   1 <1>  -0.1600 
 24 H       -0.1490     2.6500     0.8710 H     1 <1>   0.0800 
 25 H       -0.2180     2.5060    -0.8540 H     1 <1>   0.0800 
 26 H        2.1590    -0.2460     1.2040 H     1 <1>   0.0800 
 27 H        1.4570     1.0610     2.1030 H     1 <1>   0.0800 
 28 H       -0.1250    -2.3920     2.0400 H     1 <1>   0.1500 
 29 H        0.4580    -1.3640    -2.0520 H     1 <1>   0.1500 
 30 H        1.6610     3.9810     0.7300 H     1 <1>   0.0800 
 31 H        1.4640     3.9760    -0.9970 H     1 <1>   0.0800 
 32 H        3.9490     0.9910     0.6600 H     1 <1>   0.0800 
 33 H        3.3650     2.1940     1.7690 H     1 <1>   0.0800 
 34 H        0.7800    -4.6070     1.6260 H     1 <1>   0.1500 
 35 H        1.3780    -3.6060    -2.4750 H     1 <1>   0.1500 
 36 H        2.7760     1.9900    -1.0940 H     1 <1>   0.4500 
 37 H        3.7900     4.1540    -1.3990 H     1 <1>   0.0800 
 38 H        4.9780     2.0960    -1.9630 H     1 <1>   0.0800 
 39 H        5.5980     1.9820    -0.3320 H     1 <1>   0.0800 
 40 H        4.7850     3.7580     1.4330 H     1 <1>   0.0800 
 41 H        3.6580     4.9890     0.9110 H     1 <1>   0.0800 
 42 H        2.1700    -7.3710    -0.3270 H     1 <1>   0.0800 
 43 H        0.7610    -6.7350     0.5160 H     1 <1>   0.0800 
 44 H        2.3910    -6.2010     0.9700 H     1 <1>   0.0800 
 45 H        6.1790     4.1870    -2.3130 H     1 <1>   0.0800 
 46 H        7.2900     2.9680    -1.7650 H     1 <1>   0.0800 
 47 H        5.9690     5.8480     1.0970 H     1 <1>   0.0800 
 48 H        5.3520     5.9890    -0.5220 H     1 <1>   0.0800 
 49 H        7.6320     5.1410    -0.6080 H     1 <1>   0.0800 
 50 H        7.2500     3.8620     0.5020 H     1 <1>   0.0800 
@<TRIPOS>BOND
  1   1   2  2   
  2   1   3  2   
  3   1   4  am  
  4   1   5  1   
  5   4   6  1   
  6   4   7  1   
  7   5   8  ar  
  8   5   9  ar  
  9   6  10  1   
 10   6  24  1   
 11   6  25  1   
 12   7  11  1   
 13   7  26  1   
 14   7  27  1   
 15   8  12  ar  
 16   8  28  1   
 17   9  13  ar  
 18   9  29  1   
 19  10  14  1   
 20  10  30  1   
 21  10  31  1   
 22  11  14  1   
 23  11  32  1   
 24  11  33  1   
 25  12  15  ar  
 26  12  34  1   
 27  13  15  ar  
 28  13  35  1   
 29  14  16  1   
 30  14  36  1   
 31  15  17  1   
 32  16  18  1   
 33  16  19  1   
 34  16  37  1   
 35  17  20  1   
 36  18  21  1   
 37  18  38  1   
 38  18  39  1   
 39  19  22  1   
 40  19  40  1   
 41  19  41  1   
 42  20  42  1   
 43  20  43  1   
 44  20  44  1   
 45  21  23  1   
 46  21  45  1   
 47  21  46  1   
 48  22  23  1   
 49  22  47  1   
 50  22  48  1   
 51  23  49  1   
 52  23  50  1   
@<TRIPOS>SUBSTRUCTURE
  1 ****   7 GROUP 4 **** **** 0

# MOE 2024.06 (io_trps.svl 2023.06)
