@<TRIPOS>MOLECULE
NONAME
25 26 1 0 0 
SMALL
USER_CHARGES


@<TRIPOS>ATOM
  1 S        0.0310     0.0900    -0.8100 S.3   1 <1>  -0.0800 
  2 C       -1.5890    -0.3900    -0.3450 C.ar  1 <1>   0.0400 
  3 C        0.6660    -1.3400     0.0010 C.2   1 <1>   0.1980 
  4 C       -1.4940    -1.5700     0.3690 C.ar  1 <1>   0.2270 
  5 C       -2.7840     0.2460    -0.6100 C.ar  1 <1>  -0.1500 
  6 N       -0.2090    -2.0790     0.5470 N.2   1 <1>  -0.5650 
  7 C        2.1630    -1.5350    -0.0370 C.3   1 <1>  -0.0600 
  8 C       -2.6660    -2.1410     0.8440 C.ar  1 <1>  -0.1500 
  9 C       -3.9570    -0.3280    -0.1350 C.ar  1 <1>   0.1000 
 10 C       -3.8790    -1.5220     0.5920 C.ar  1 <1>  -0.1500 
 11 N       -5.1740     0.2960    -0.3860 N.pl3 1 <1>  -0.8380 
 12 C       -5.4840     1.5320     0.3770 C.3   1 <1>   0.1290 
 13 C       -6.3520    -0.5210    -0.7780 C.3   1 <1>   0.1290 
 14 H       -2.8170     1.1590    -1.1740 H     1 <1>   0.1500 
 15 H        2.6510    -0.7020     0.4330 H     1 <1>   0.0800 
 16 H        2.4940    -1.6150    -1.0550 H     1 <1>   0.0800 
 17 H        2.4240    -2.4360     0.4880 H     1 <1>   0.0800 
 18 H       -2.6090    -3.0570     1.4020 H     1 <1>   0.1500 
 19 H       -4.7850    -1.9600     0.9670 H     1 <1>   0.1500 
 20 H       -4.5770     1.9760     0.7490 H     1 <1>   0.0800 
 21 H       -6.1230     1.2990     1.2110 H     1 <1>   0.0800 
 22 H       -5.9790     2.2390    -0.2650 H     1 <1>   0.0800 
 23 H       -6.0260    -1.4100    -1.2900 H     1 <1>   0.0800 
 24 H       -6.9810     0.0460    -1.4410 H     1 <1>   0.0800 
 25 H       -6.9150    -0.8010     0.0960 H     1 <1>   0.0800 
@<TRIPOS>BOND
  1   1   2  1   
  2   1   3  1   
  3   2   4  ar  
  4   2   5  ar  
  5   3   6  2   
  6   3   7  1   
  7   4   6  1   
  8   4   8  ar  
  9   5   9  ar  
 10   5  14  1   
 11   7  15  1   
 12   7  16  1   
 13   7  17  1   
 14   8  10  ar  
 15   8  18  1   
 16   9  10  ar  
 17   9  11  1   
 18  10  19  1   
 19  11  12  1   
 20  11  13  1   
 21  12  20  1   
 22  12  21  1   
 23  12  22  1   
 24  13  23  1   
 25  13  24  1   
 26  13  25  1   
@<TRIPOS>SUBSTRUCTURE
  1 ****   2 GROUP 4 **** **** 0

# MOE 2024.06 (io_trps.svl 2023.06)
