@<TRIPOS>MOLECULE
NONAME
42 43 1 0 0 
SMALL
USER_CHARGES


@<TRIPOS>ATOM
  1 O        1.1130    -3.3480     2.5100 O.2   1 <1>  -0.5700 
  2 C        0.4080    -2.6320     1.8230 C.2   1 <1>   0.5440 
  3 N        0.9090    -1.4230     1.4410 N.am  1 <1>  -0.7300 
  4 C       -0.9250    -3.0580     1.4310 C.ar  1 <1>   0.0860 
  5 C        2.3320    -1.0280     1.5150 C.3   1 <1>   0.2840 
  6 C       -1.5530    -2.6470     0.2410 C.ar  1 <1>   0.0830 
  7 C       -1.6350    -3.9300     2.2600 C.ar  1 <1>  -0.1500 
  8 C        2.9510    -1.1000     0.1250 C.ar  1 <1>   0.1660 
  9 O       -0.8750    -1.8220    -0.5950 O.3   1 <1>  -0.3620 
 10 C       -2.8360    -3.0890    -0.0690 C.ar  1 <1>  -0.1500 
 11 C       -2.9060    -4.3710     1.9490 C.ar  1 <1>  -0.1500 
 12 N        3.0520     0.0350    -0.5570 N.ar  1 <1>  -0.6200 
 13 C        3.3600    -2.3340    -0.3600 C.ar  1 <1>  -0.1500 
 14 C       -1.2650    -1.5750    -1.9250 C.3   1 <1>   0.1200 
 15 C       -3.5170    -3.9460     0.7740 C.ar  1 <1>   0.0830 
 16 C        3.5890    -0.0680    -1.7620 C.ar  1 <1>   0.1600 
 17 C        3.9150    -2.4240    -1.6180 C.ar  1 <1>  -0.1500 
 18 C       -0.1410    -0.7900    -2.5930 C.3   1 <1>  -0.2400 
 19 O       -4.7590    -4.3230     0.3920 O.3   1 <1>  -0.3630 
 20 C        4.0290    -1.2510    -2.3310 C.ar  1 <1>  -0.1500 
 21 C       -5.5450    -5.1930     1.1720 C.3   1 <1>   0.1200 
 22 C       -6.8740    -5.4020     0.4520 C.3   1 <1>  -0.2400 
 23 H        0.4000    -0.9500     0.6860 H     1 <1>   0.3700 
 24 H        2.8680    -1.6760     2.1860 H     1 <1>   0.0800 
 25 H        2.4030    -0.0230     1.8910 H     1 <1>   0.0800 
 26 H       -1.1700    -4.2670     3.1720 H     1 <1>   0.1500 
 27 H       -3.3370    -2.7780    -0.9650 H     1 <1>   0.1500 
 28 H       -3.4020    -5.0410     2.6260 H     1 <1>   0.1500 
 29 H        3.2350    -3.2150     0.2450 H     1 <1>   0.1500 
 30 H       -2.1790    -1.0060    -1.9150 H     1 <1>   0.0800 
 31 H       -1.4160    -2.5200    -2.4200 H     1 <1>   0.0800 
 32 H        3.6830     0.8420    -2.3300 H     1 <1>   0.1500 
 33 H        4.2420    -3.3670    -2.0220 H     1 <1>   0.1500 
 34 H        0.0180     0.1420    -2.0810 H     1 <1>   0.0800 
 35 H       -0.3960    -0.5820    -3.6160 H     1 <1>   0.0800 
 36 H        0.7700    -1.3630    -2.5750 H     1 <1>   0.0800 
 37 H        4.4550    -1.2500    -3.3180 H     1 <1>   0.1500 
 38 H       -5.7020    -4.7390     2.1360 H     1 <1>   0.0800 
 39 H       -5.0190    -6.1260     1.2790 H     1 <1>   0.0800 
 40 H       -7.3830    -4.4620     0.3360 H     1 <1>   0.0800 
 41 H       -7.4990    -6.0630     1.0250 H     1 <1>   0.0800 
 42 H       -6.7050    -5.8410    -0.5150 H     1 <1>   0.0800 
@<TRIPOS>BOND
  1   1   2  2   
  2   2   3  am  
  3   2   4  1   
  4   3   5  1   
  5   3  23  1   
  6   4   6  ar  
  7   4   7  ar  
  8   5   8  1   
  9   5  24  1   
 10   5  25  1   
 11   6   9  1   
 12   6  10  ar  
 13   7  11  ar  
 14   7  26  1   
 15   8  12  ar  
 16   8  13  ar  
 17   9  14  1   
 18  10  15  ar  
 19  10  27  1   
 20  11  15  ar  
 21  11  28  1   
 22  12  16  ar  
 23  13  17  ar  
 24  13  29  1   
 25  14  18  1   
 26  14  30  1   
 27  14  31  1   
 28  15  19  1   
 29  16  20  ar  
 30  16  32  1   
 31  17  20  ar  
 32  17  33  1   
 33  18  34  1   
 34  18  35  1   
 35  18  36  1   
 36  19  21  1   
 37  20  37  1   
 38  21  22  1   
 39  21  38  1   
 40  21  39  1   
 41  22  40  1   
 42  22  41  1   
 43  22  42  1   
@<TRIPOS>SUBSTRUCTURE
  1 ****   9 GROUP 4 **** **** 0

# MOE 2024.06 (io_trps.svl 2023.06)
