@<TRIPOS>MOLECULE
NONAME
51 52 1 0 0 
SMALL
USER_CHARGES


@<TRIPOS>ATOM
  1 N        1.5370    -0.7320    -1.1860 N.4   1 <1>  -0.9590 
  2 C        2.2410    -1.6130    -0.2150 C.3   1 <1>   0.3430 
  3 C        1.3130     0.6380    -0.6510 C.3   1 <1>   0.3430 
  4 C        0.2330    -1.3500    -1.5960 C.3   1 <1>   0.2630 
  5 C        3.5910    -1.0030     0.1640 C.3   1 <1>  -0.1600 
  6 C        2.6520     1.2820    -0.2890 C.3   1 <1>  -0.1600 
  7 C        3.4570     0.4290     0.7060 C.3   1 <1>   0.4230 
  8 N        4.8100     1.0390     0.9350 N.4   1 <1>  -0.9590 
  9 C        5.6850     0.2710     1.8620 C.3   1 <1>   0.4810 
 10 C        4.7780     2.4690     1.3930 C.3   1 <1>   0.2630 
 11 C        6.8030    -0.3050     1.0140 C.2   1 <1>  -0.2760 
 12 C        6.9150    -1.6110     0.7440 C.2   1 <1>  -0.2880 
 13 C        7.8300     0.7140     0.5130 C.3   1 <1>  -0.0220 
 14 C        8.0450    -2.2310    -0.0700 C.3   1 <1>  -0.0220 
 15 C        8.6860     0.1410    -0.6250 C.3   1 <1>  -0.1600 
 16 C        9.2190    -1.2590    -0.2800 C.3   1 <1>   0.0580 
 17 C       10.1890    -1.8050    -1.3340 C.2   1 <1>  -0.2760 
 18 C       10.3240    -1.3430    -2.5830 C.2   1 <1>  -0.3000 
 19 C       11.0420    -2.9650    -0.8390 C.3   1 <1>  -0.1020 
 20 H        2.1140    -0.6620    -2.0410 H     1 <1>   0.4500 
 21 H        2.3970    -2.5890    -0.6500 H     1 <1>   0.0800 
 22 H        1.6350    -1.7360     0.6700 H     1 <1>   0.0800 
 23 H        0.6820     0.5900     0.2220 H     1 <1>   0.0800 
 24 H        0.8110     1.2430    -1.3920 H     1 <1>   0.0800 
 25 H       -0.4220    -1.4540    -0.7450 H     1 <1>   0.0800 
 26 H        0.3970    -2.3260    -2.0240 H     1 <1>   0.0800 
 27 H       -0.2590    -0.7360    -2.3340 H     1 <1>   0.0800 
 28 H        4.2360    -1.0220    -0.6970 H     1 <1>   0.0800 
 29 H        4.0160    -1.6420     0.9150 H     1 <1>   0.0800 
 30 H        2.4300     2.2420     0.1410 H     1 <1>   0.0800 
 31 H        3.2160     1.4390    -1.1920 H     1 <1>   0.0800 
 32 H        2.9230     0.3960     1.6430 H     1 <1>   0.0800 
 33 H        5.3320     0.9940     0.0470 H     1 <1>   0.4500 
 34 H        5.1360    -0.5220     2.3420 H     1 <1>   0.0800 
 35 H        6.1030     0.9060     2.6270 H     1 <1>   0.0800 
 36 H        4.2270     2.5580     2.3160 H     1 <1>   0.0800 
 37 H        4.3160     3.0980     0.6500 H     1 <1>   0.0800 
 38 H        5.7800     2.8310     1.5580 H     1 <1>   0.0800 
 39 H        6.2230    -2.3620     1.0880 H     1 <1>   0.1500 
 40 H        8.4740     0.9900     1.3320 H     1 <1>   0.0800 
 41 H        7.3590     1.6100     0.1520 H     1 <1>   0.0800 
 42 H        7.6620    -2.5400    -1.0270 H     1 <1>   0.0800 
 43 H        8.4070    -3.1070     0.4390 H     1 <1>   0.0800 
 44 H        9.5140     0.8030    -0.8160 H     1 <1>   0.0800 
 45 H        8.0910     0.0820    -1.5190 H     1 <1>   0.0800 
 46 H        9.7550    -1.1700     0.6500 H     1 <1>   0.0800 
 47 H       11.0200    -1.7470    -3.2980 H     1 <1>   0.1500 
 48 H        9.7660    -0.5310    -3.0120 H     1 <1>   0.1500 
 49 H       10.4300    -3.8110    -0.5850 H     1 <1>   0.0800 
 50 H       11.6070    -2.6700     0.0280 H     1 <1>   0.0800 
 51 H       11.7370    -3.2760    -1.5990 H     1 <1>   0.0800 
@<TRIPOS>BOND
  1   1   2  1   
  2   1   3  1   
  3   1   4  1   
  4   1  20  1   
  5   2   5  1   
  6   2  21  1   
  7   2  22  1   
  8   3   6  1   
  9   3  23  1   
 10   3  24  1   
 11   4  25  1   
 12   4  26  1   
 13   4  27  1   
 14   5   7  1   
 15   5  28  1   
 16   5  29  1   
 17   6   7  1   
 18   6  30  1   
 19   6  31  1   
 20   7   8  1   
 21   7  32  1   
 22   8   9  1   
 23   8  10  1   
 24   8  33  1   
 25   9  11  1   
 26   9  34  1   
 27   9  35  1   
 28  10  36  1   
 29  10  37  1   
 30  10  38  1   
 31  11  12  2   
 32  11  13  1   
 33  12  14  1   
 34  12  39  1   
 35  13  15  1   
 36  13  40  1   
 37  13  41  1   
 38  14  16  1   
 39  14  42  1   
 40  14  43  1   
 41  15  16  1   
 42  15  44  1   
 43  15  45  1   
 44  16  17  1   
 45  16  46  1   
 46  17  18  2   
 47  17  19  1   
 48  18  47  1   
 49  18  48  1   
 50  19  49  1   
 51  19  50  1   
 52  19  51  1   
@<TRIPOS>SUBSTRUCTURE
  1 ****  11 GROUP 4 **** **** 0

# MOE 2024.06 (io_trps.svl 2023.06)
