@<TRIPOS>MOLECULE
NONAME
52 53 1 0 0 
SMALL
USER_CHARGES


@<TRIPOS>ATOM
  1 S        0.0440     0.0240    -0.1350 S.o2  1 <1>   1.3330 
  2 O       -0.0470     0.4620     1.2400 O.2   1 <1>  -0.6500 
  3 O        0.0600     1.0050    -1.1970 O.2   1 <1>  -0.6500 
  4 N        1.4420    -0.9280    -0.2710 N.am  1 <1>  -0.8490 
  5 C       -1.2700    -1.1540    -0.4830 C.3   1 <1>  -0.0550 
  6 C        1.7460    -1.6490     0.9700 C.3   1 <1>   0.1960 
  7 C        2.5910    -0.1470    -0.7400 C.3   1 <1>   0.1960 
  8 C       -2.6890    -0.5600    -0.4320 C.3   1 <1>  -0.2400 
  9 C        2.9090    -2.6180     0.7540 C.3   1 <1>  -0.1600 
 10 C        3.7940    -1.0590    -0.9950 C.3   1 <1>  -0.1600 
 11 C        4.1600    -1.8750     0.2550 C.3   1 <1>  -0.0190 
 12 C        5.3220    -2.8300    -0.0200 C.2   1 <1>   0.5690 
 13 O        5.1430    -3.7670    -0.7580 O.2   1 <1>  -0.5700 
 14 N        6.5150    -2.5680     0.6000 N.am  1 <1>  -0.5470 
 15 C        7.7540    -3.2260     0.5470 C.ar  1 <1>   0.1170 
 16 C        8.1150    -4.1040    -0.4700 C.ar  1 <1>  -0.1500 
 17 C        8.6790    -2.9770     1.5550 C.ar  1 <1>  -0.1500 
 18 C        9.3560    -4.7150    -0.4760 C.ar  1 <1>  -0.1500 
 19 C        9.9210    -3.5850     1.5510 C.ar  1 <1>  -0.1500 
 20 C       10.2680    -4.4610     0.5350 C.ar  1 <1>  -0.1440 
 21 C       11.6320    -5.1330     0.5280 C.3   1 <1>  -0.0170 
 22 C       12.6500    -4.2760    -0.2330 C.3   1 <1>  -0.1600 
 23 C       14.0360    -4.9340    -0.2560 C.3   1 <1>  -0.1600 
 24 C       15.0430    -4.0690    -1.0180 C.3   1 <1>  -0.2400 
 25 H       -1.2130    -1.9600     0.2230 H     1 <1>   0.0800 
 26 H       -1.1080    -1.5680    -1.4590 H     1 <1>   0.0800 
 27 H        0.8810    -2.2060     1.2890 H     1 <1>   0.0800 
 28 H        1.9960    -0.9460     1.7500 H     1 <1>   0.0800 
 29 H        2.8380     0.6090    -0.0120 H     1 <1>   0.0800 
 30 H        2.3430     0.3480    -1.6650 H     1 <1>   0.0800 
 31 H       -2.8870    -0.1580     0.5470 H     1 <1>   0.0800 
 32 H       -3.4190    -1.3180    -0.6510 H     1 <1>   0.0800 
 33 H       -2.7830     0.2330    -1.1540 H     1 <1>   0.0800 
 34 H        2.6120    -3.3630     0.0350 H     1 <1>   0.0800 
 35 H        3.1310    -3.1240     1.6770 H     1 <1>   0.0800 
 36 H        4.6350    -0.4620    -1.3010 H     1 <1>   0.0800 
 37 H        3.5550    -1.7260    -1.8070 H     1 <1>   0.0800 
 38 H        4.4610    -1.1860     1.0240 H     1 <1>   0.0800 
 39 H        6.5010    -1.7750     1.2350 H     1 <1>   0.3700 
 40 H        7.4310    -4.3160    -1.2700 H     1 <1>   0.1500 
 41 H        8.4310    -2.3040     2.3540 H     1 <1>   0.1500 
 42 H        9.6090    -5.3890    -1.2750 H     1 <1>   0.1500 
 43 H       10.6210    -3.3760     2.3410 H     1 <1>   0.1500 
 44 H       11.5520    -6.1010     0.0640 H     1 <1>   0.0800 
 45 H       11.9650    -5.2830     1.5400 H     1 <1>   0.0800 
 46 H       12.7180    -3.3100     0.2370 H     1 <1>   0.0800 
 47 H       12.3030    -4.1300    -1.2410 H     1 <1>   0.0800 
 48 H       13.9700    -5.9000    -0.7290 H     1 <1>   0.0800 
 49 H       14.3850    -5.0790     0.7520 H     1 <1>   0.0800 
 50 H       14.7230    -3.9290    -2.0360 H     1 <1>   0.0800 
 51 H       16.0070    -4.5460    -1.0250 H     1 <1>   0.0800 
 52 H       15.1410    -3.1050    -0.5500 H     1 <1>   0.0800 
@<TRIPOS>BOND
  1   1   2  2   
  2   1   3  2   
  3   1   4  am  
  4   1   5  1   
  5   4   6  1   
  6   4   7  1   
  7   5   8  1   
  8   5  25  1   
  9   5  26  1   
 10   6   9  1   
 11   6  27  1   
 12   6  28  1   
 13   7  10  1   
 14   7  29  1   
 15   7  30  1   
 16   8  31  1   
 17   8  32  1   
 18   8  33  1   
 19   9  11  1   
 20   9  34  1   
 21   9  35  1   
 22  10  11  1   
 23  10  36  1   
 24  10  37  1   
 25  11  12  1   
 26  11  38  1   
 27  12  13  2   
 28  12  14  am  
 29  14  15  1   
 30  14  39  1   
 31  15  16  ar  
 32  15  17  ar  
 33  16  18  ar  
 34  16  40  1   
 35  17  19  ar  
 36  17  41  1   
 37  18  20  ar  
 38  18  42  1   
 39  19  20  ar  
 40  19  43  1   
 41  20  21  1   
 42  21  22  1   
 43  21  44  1   
 44  21  45  1   
 45  22  23  1   
 46  22  46  1   
 47  22  47  1   
 48  23  24  1   
 49  23  48  1   
 50  23  49  1   
 51  24  50  1   
 52  24  51  1   
 53  24  52  1   
@<TRIPOS>SUBSTRUCTURE
  1 ****  12 GROUP 4 **** **** 0

# MOE 2024.06 (io_trps.svl 2023.06)
