@<TRIPOS>MOLECULE
NONAME
42 43 1 0 0 
SMALL
USER_CHARGES


@<TRIPOS>ATOM
  1 CL       1.7880     1.8070    -2.5950 Cl    1 <1>  -0.1770 
  2 C        2.9620     1.7980    -1.3050 C.ar  1 <1>   0.1770 
  3 C        3.8290     2.8660    -1.1680 C.ar  1 <1>  -0.1500 
  4 C        3.0090     0.7230    -0.4380 C.ar  1 <1>  -0.1500 
  5 C        4.7590     2.8560    -0.1420 C.ar  1 <1>  -0.1500 
  6 C        3.9410     0.7180     0.5850 C.ar  1 <1>  -0.1500 
  7 C        4.8200     1.7830     0.7370 C.ar  1 <1>  -0.1430 
  8 C        5.8560     1.7660     1.8590 C.3   1 <1>   0.0450 
  9 C        7.1670     1.1060     1.4600 C.2   1 <1>   0.5690 
 10 O        8.0580     1.0440     2.2730 O.2   1 <1>  -0.5700 
 11 N        7.3200     0.6140     0.2050 N.am  1 <1>  -0.7300 
 12 C        8.5050    -0.1340    -0.3170 C.3   1 <1>   0.2010 
 13 C        9.4400     0.7280    -1.1790 C.2   1 <1>   0.5690 
 14 O        9.3370     0.6150    -2.3780 O.2   1 <1>  -0.5700 
 15 N       10.3560     1.6050    -0.6360 N.am  1 <1>  -0.6600 
 16 C       10.6150     1.7530     0.8330 C.3   1 <1>   0.1400 
 17 C       11.0580     2.5970    -1.5130 C.3   1 <1>   0.1400 
 18 C       12.1110     1.9440     1.1490 C.3   1 <1>   0.3430 
 19 C       12.5480     2.7270    -1.1550 C.3   1 <1>   0.3430 
 20 N       12.7490     3.0160     0.3080 N.4   1 <1>  -0.9590 
 21 C       14.1990     3.1670     0.6350 C.3   1 <1>   0.2630 
 22 H        3.7710     3.6900    -1.8550 H     1 <1>   0.1500 
 23 H        2.3230    -0.0960    -0.5660 H     1 <1>   0.1500 
 24 H        5.4340     3.6890    -0.0360 H     1 <1>   0.1500 
 25 H        3.9780    -0.1210     1.2610 H     1 <1>   0.1500 
 26 H        5.4600     1.2400     2.7090 H     1 <1>   0.0800 
 27 H        6.0650     2.7710     2.1750 H     1 <1>   0.0800 
 28 H        6.5530     0.7480    -0.4640 H     1 <1>   0.3700 
 29 H        8.1500    -0.9480    -0.9240 H     1 <1>   0.0800 
 30 H        9.0520    -0.5680     0.4990 H     1 <1>   0.0800 
 31 H       10.2900     0.8780     1.3630 H     1 <1>   0.0800 
 32 H       10.0520     2.5900     1.2100 H     1 <1>   0.0800 
 33 H       10.5760     3.5540    -1.4140 H     1 <1>   0.0800 
 34 H       10.9810     2.3070    -2.5480 H     1 <1>   0.0800 
 35 H       12.6140     1.0060     0.9770 H     1 <1>   0.0800 
 36 H       12.2170     2.1840     2.1950 H     1 <1>   0.0800 
 37 H       12.9830     3.5150    -1.7490 H     1 <1>   0.0800 
 38 H       13.0420     1.8060    -1.4160 H     1 <1>   0.0800 
 39 H       12.2650     3.9020     0.5190 H     1 <1>   0.4500 
 40 H       14.7290     2.2520     0.4230 H     1 <1>   0.0800 
 41 H       14.3260     3.4040     1.6790 H     1 <1>   0.0800 
 42 H       14.6350     3.9610     0.0490 H     1 <1>   0.0800 
@<TRIPOS>BOND
  1   1   2  1   
  2   2   3  ar  
  3   2   4  ar  
  4   3   5  ar  
  5   3  22  1   
  6   4   6  ar  
  7   4  23  1   
  8   5   7  ar  
  9   5  24  1   
 10   6   7  ar  
 11   6  25  1   
 12   7   8  1   
 13   8   9  1   
 14   8  26  1   
 15   8  27  1   
 16   9  10  2   
 17   9  11  am  
 18  11  12  1   
 19  11  28  1   
 20  12  13  1   
 21  12  29  1   
 22  12  30  1   
 23  13  14  2   
 24  13  15  am  
 25  15  16  1   
 26  15  17  1   
 27  16  18  1   
 28  16  31  1   
 29  16  32  1   
 30  17  19  1   
 31  17  33  1   
 32  17  34  1   
 33  18  20  1   
 34  18  35  1   
 35  18  36  1   
 36  19  20  1   
 37  19  37  1   
 38  19  38  1   
 39  20  21  1   
 40  20  39  1   
 41  21  40  1   
 42  21  41  1   
 43  21  42  1   
@<TRIPOS>SUBSTRUCTURE
  1 ****  11 GROUP 4 **** **** 0

# MOE 2024.06 (io_trps.svl 2023.06)
