@<TRIPOS>MOLECULE
NONAME
55 57 1 0 0 
SMALL
USER_CHARGES


@<TRIPOS>ATOM
  1 O        0.0400    -1.1320     2.5230 O.3   1 <1>  -0.3630 
  2 C       -0.1900    -1.9750     1.4750 C.ar  1 <1>   0.0830 
  3 C        1.3190    -0.6180     2.8220 C.3   1 <1>   0.0400 
  4 C        0.6930    -2.2980     0.4340 C.ar  1 <1>   0.0830 
  5 C       -1.4510    -2.5460     1.4790 C.ar  1 <1>  -0.1500 
  6 O        1.9390    -1.7850     0.3210 O.3   1 <1>  -0.5330 
  7 C        0.3020    -3.1880    -0.5650 C.ar  1 <1>   0.0830 
  8 C       -1.8580    -3.4120     0.4770 C.ar  1 <1>  -0.1430 
  9 O        1.2150    -3.4710    -1.5400 O.3   1 <1>  -0.3630 
 10 C       -0.9750    -3.7410    -0.5410 C.ar  1 <1>  -0.1500 
 11 C       -3.2650    -3.9770     0.5030 C.3   1 <1>   0.4860 
 12 C        1.0520    -4.5700    -2.4110 C.3   1 <1>   0.0400 
 13 N       -4.1130    -3.1790    -0.4230 N.4   1 <1>  -0.9590 
 14 C       -4.2120    -1.7310     0.0050 C.3   1 <1>   0.3430 
 15 C       -5.4850    -3.7840    -0.5870 C.3   1 <1>   0.3430 
 16 C       -5.0870    -0.8830    -0.9420 C.3   1 <1>   0.2090 
 17 C       -6.3730    -2.9870    -1.5650 C.3   1 <1>   0.2090 
 18 N       -6.3980    -1.5370    -1.2250 N.pl3 1 <1>  -0.8380 
 19 C       -7.5250    -1.0590    -0.5570 C.ar  1 <1>   0.1000 
 20 C       -8.5430    -0.4070    -1.2520 C.ar  1 <1>  -0.1430 
 21 C       -7.6530    -1.2350     0.8180 C.ar  1 <1>  -0.1500 
 22 C       -9.6570     0.0500    -0.5690 C.ar  1 <1>  -0.1500 
 23 C       -8.4440    -0.1860    -2.7550 C.3   1 <1>  -0.0970 
 24 C       -8.7660    -0.7770     1.5000 C.ar  1 <1>  -0.1430 
 25 C       -9.7700    -0.1330     0.7980 C.ar  1 <1>  -0.1500 
 26 C       -8.9060    -0.9680     2.9990 C.3   1 <1>  -0.0970 
 27 H        1.2600    -0.0870     3.7550 H     1 <1>   0.0800 
 28 H        1.6170     0.0560     2.0380 H     1 <1>   0.0800 
 29 H        2.0140    -1.4340     2.9080 H     1 <1>   0.0800 
 30 H       -2.1080    -2.2890     2.2930 H     1 <1>   0.1500 
 31 H        2.3660    -2.1540    -0.4790 H     1 <1>   0.4500 
 32 H       -1.2810    -4.4220    -1.3130 H     1 <1>   0.1500 
 33 H       -3.6600    -3.9320     1.5050 H     1 <1>   0.0800 
 34 H       -3.2400    -5.0090     0.1920 H     1 <1>   0.0800 
 35 H        1.9500    -4.6670    -2.9960 H     1 <1>   0.0800 
 36 H        0.2160    -4.3840    -3.0610 H     1 <1>   0.0800 
 37 H        0.9010    -5.4620    -1.8280 H     1 <1>   0.0800 
 38 H       -3.6500    -3.1770    -1.3390 H     1 <1>   0.4500 
 39 H       -3.2290    -1.2910     0.0490 H     1 <1>   0.0800 
 40 H       -4.6380    -1.6750     0.9920 H     1 <1>   0.0800 
 41 H       -5.9850    -3.8070     0.3670 H     1 <1>   0.0800 
 42 H       -5.4030    -4.7980    -0.9410 H     1 <1>   0.0800 
 43 H       -4.5680    -0.7220    -1.8710 H     1 <1>   0.0800 
 44 H       -5.2590     0.0840    -0.4980 H     1 <1>   0.0800 
 45 H       -7.3770    -3.3770    -1.5340 H     1 <1>   0.0800 
 46 H       -6.0100    -3.1060    -2.5710 H     1 <1>   0.0800 
 47 H       -6.8770    -1.7360     1.3580 H     1 <1>   0.1500 
 48 H      -10.4480     0.5540    -1.0960 H     1 <1>   0.1500 
 49 H       -8.4110    -1.1340    -3.2610 H     1 <1>   0.0800 
 50 H       -7.5480     0.3600    -2.9840 H     1 <1>   0.0800 
 51 H       -9.2870     0.3700    -3.1230 H     1 <1>   0.0800 
 52 H      -10.6440     0.2290     1.3110 H     1 <1>   0.1500 
 53 H       -7.9990    -1.3530     3.4280 H     1 <1>   0.0800 
 54 H       -9.7050    -1.6570     3.2050 H     1 <1>   0.0800 
 55 H       -9.1310    -0.0270     3.4690 H     1 <1>   0.0800 
@<TRIPOS>BOND
  1   1   2  1   
  2   1   3  1   
  3   2   4  ar  
  4   2   5  ar  
  5   3  27  1   
  6   3  28  1   
  7   3  29  1   
  8   4   6  1   
  9   4   7  ar  
 10   5   8  ar  
 11   5  30  1   
 12   6  31  1   
 13   7   9  1   
 14   7  10  ar  
 15   8  10  ar  
 16   8  11  1   
 17   9  12  1   
 18  10  32  1   
 19  11  13  1   
 20  11  33  1   
 21  11  34  1   
 22  12  35  1   
 23  12  36  1   
 24  12  37  1   
 25  13  14  1   
 26  13  15  1   
 27  13  38  1   
 28  14  16  1   
 29  14  39  1   
 30  14  40  1   
 31  15  17  1   
 32  15  41  1   
 33  15  42  1   
 34  16  18  1   
 35  16  43  1   
 36  16  44  1   
 37  17  18  1   
 38  17  45  1   
 39  17  46  1   
 40  18  19  1   
 41  19  20  ar  
 42  19  21  ar  
 43  20  22  ar  
 44  20  23  1   
 45  21  24  ar  
 46  21  47  1   
 47  22  25  ar  
 48  22  48  1   
 49  23  49  1   
 50  23  50  1   
 51  23  51  1   
 52  24  25  ar  
 53  24  26  1   
 54  25  52  1   
 55  26  53  1   
 56  26  54  1   
 57  26  55  1   
@<TRIPOS>SUBSTRUCTURE
  1 ****  14 GROUP 4 **** **** 0

# MOE 2024.06 (io_trps.svl 2023.06)
