@<TRIPOS>MOLECULE
NONAME
54 55 1 0 0 
SMALL
USER_CHARGES


@<TRIPOS>ATOM
  1 S        0.8140     2.5870    -1.5140 S.o2  1 <1>   1.3330 
  2 O        1.3280     3.8270    -2.0460 O.2   1 <1>  -0.6500 
  3 O        1.7090     1.4890    -1.2500 O.2   1 <1>  -0.6500 
  4 N        0.0240     3.0050    -0.0370 N.am  1 <1>  -0.6930 
  5 C       -0.5120     2.0330    -2.5680 C.3   1 <1>  -0.1350 
  6 C       -1.2390     2.5210     0.3030 C.ar  1 <1>   0.1990 
  7 C        0.7480     3.9060     0.9120 C.3   1 <1>   0.2570 
  8 C       -1.4110     1.2170     0.7810 C.ar  1 <1>  -0.1440 
  9 C       -2.3610     3.3450     0.1450 C.ar  1 <1>  -0.1430 
 10 C        1.8690     3.2340     1.7220 C.2   1 <1>   0.5690 
 11 C       -2.6800     0.7580     1.0870 C.ar  1 <1>  -0.1500 
 12 C       -0.2380     0.2620     0.9840 C.3   1 <1>  -0.0970 
 13 C       -3.6200     2.8650     0.4610 C.ar  1 <1>  -0.1500 
 14 C       -2.2420     4.7760    -0.3730 C.3   1 <1>  -0.0960 
 15 O        1.5640     2.8100     2.8140 O.2   1 <1>  -0.5700 
 16 N        3.1650     3.1320     1.2690 N.am  1 <1>  -0.6600 
 17 C       -3.7820     1.5760     0.9290 C.ar  1 <1>  -0.1500 
 18 C        3.7180     3.7500     0.0210 C.3   1 <1>   0.1400 
 19 C        4.1510     2.2450     1.9670 C.3   1 <1>   0.1400 
 20 C        5.0450     4.4780     0.2910 C.3   1 <1>   0.1400 
 21 C        5.4640     2.9860     2.2560 C.3   1 <1>   0.1400 
 22 N        6.0090     3.5920     1.0070 N.am  1 <1>  -0.6600 
 23 C        7.2280     3.2340     0.5000 C.2   1 <1>   0.7800 
 24 O        7.9790     2.4670     1.0730 O.2   1 <1>  -0.5700 
 25 O        7.5860     3.7510    -0.6770 O.3   1 <1>  -0.4300 
 26 C        8.8090     3.4000    -1.2800 C.3   1 <1>   0.1200 
 27 C        8.8960     4.1220    -2.6210 C.3   1 <1>  -0.2400 
 28 H       -0.1290     1.7820    -3.5370 H     1 <1>   0.0800 
 29 H       -1.2470     2.8050    -2.6790 H     1 <1>   0.0800 
 30 H       -0.9820     1.1650    -2.1500 H     1 <1>   0.0800 
 31 H        0.0370     4.2860     1.6220 H     1 <1>   0.0800 
 32 H        1.1330     4.7530     0.3790 H     1 <1>   0.0800 
 33 H       -2.8200    -0.2440     1.4550 H     1 <1>   0.1500 
 34 H        0.0430    -0.1820     0.0470 H     1 <1>   0.0800 
 35 H       -0.4980    -0.5230     1.6690 H     1 <1>   0.0800 
 36 H        0.6120     0.7770     1.3880 H     1 <1>   0.0800 
 37 H       -4.4880     3.4910     0.3470 H     1 <1>   0.1500 
 38 H       -1.5860     4.8210    -1.2240 H     1 <1>   0.0800 
 39 H       -1.8510     5.4110     0.4000 H     1 <1>   0.0800 
 40 H       -3.2010     5.1570    -0.6730 H     1 <1>   0.0800 
 41 H       -4.7640     1.2090     1.1730 H     1 <1>   0.1500 
 42 H        3.0320     4.4610    -0.3960 H     1 <1>   0.0800 
 43 H        3.8830     2.9780    -0.7120 H     1 <1>   0.0800 
 44 H        4.3570     1.3940     1.3420 H     1 <1>   0.0800 
 45 H        3.7470     1.8770     2.8940 H     1 <1>   0.0800 
 46 H        4.8540     5.3460     0.8970 H     1 <1>   0.0800 
 47 H        5.4540     4.8170    -0.6450 H     1 <1>   0.0800 
 48 H        6.1720     2.2970     2.6820 H     1 <1>   0.0800 
 49 H        5.2830     3.7620     2.9780 H     1 <1>   0.0800 
 50 H        8.8290     2.3320    -1.4140 H     1 <1>   0.0800 
 51 H        9.6100     3.6990    -0.6240 H     1 <1>   0.0800 
 52 H        8.0760     3.8290    -3.2520 H     1 <1>   0.0800 
 53 H        9.8160     3.8640    -3.1120 H     1 <1>   0.0800 
 54 H        8.8750     5.1870    -2.4710 H     1 <1>   0.0800 
@<TRIPOS>BOND
  1   1   2  2   
  2   1   3  2   
  3   1   4  am  
  4   1   5  1   
  5   4   6  1   
  6   4   7  1   
  7   5  28  1   
  8   5  29  1   
  9   5  30  1   
 10   6   8  ar  
 11   6   9  ar  
 12   7  10  1   
 13   7  31  1   
 14   7  32  1   
 15   8  11  ar  
 16   8  12  1   
 17   9  13  ar  
 18   9  14  1   
 19  10  15  2   
 20  10  16  am  
 21  11  17  ar  
 22  11  33  1   
 23  12  34  1   
 24  12  35  1   
 25  12  36  1   
 26  13  17  ar  
 27  13  37  1   
 28  14  38  1   
 29  14  39  1   
 30  14  40  1   
 31  16  18  1   
 32  16  19  1   
 33  17  41  1   
 34  18  20  1   
 35  18  42  1   
 36  18  43  1   
 37  19  21  1   
 38  19  44  1   
 39  19  45  1   
 40  20  22  1   
 41  20  46  1   
 42  20  47  1   
 43  21  22  1   
 44  21  48  1   
 45  21  49  1   
 46  22  23  am  
 47  23  24  2   
 48  23  25  1   
 49  25  26  1   
 50  26  27  1   
 51  26  50  1   
 52  26  51  1   
 53  27  52  1   
 54  27  53  1   
 55  27  54  1   
@<TRIPOS>SUBSTRUCTURE
  1 ****  16 GROUP 4 **** **** 0

# MOE 2024.06 (io_trps.svl 2023.06)
