@<TRIPOS>MOLECULE
NONAME
40 41 1 0 0 
SMALL
USER_CHARGES


@<TRIPOS>ATOM
  1 F        1.2350    -0.0260     0.0020 F     1 <1>  -0.1900 
  2 C        1.0650    -1.3260    -0.0030 C.ar  1 <1>   0.1900 
  3 C        2.1740    -2.1670    -0.0080 C.ar  1 <1>   0.0820 
  4 C       -0.2310    -1.8050    -0.0020 C.ar  1 <1>  -0.1500 
  5 O        3.4170    -1.6120    -0.0090 O.3   1 <1>  -0.3630 
  6 C        1.9460    -3.5420    -0.0130 C.ar  1 <1>  -0.1500 
  7 C       -0.4370    -3.1740    -0.0070 C.ar  1 <1>  -0.1500 
  8 C        4.5800    -2.4070    -0.0140 C.3   1 <1>   0.1200 
  9 C        0.6500    -4.0360    -0.0130 C.ar  1 <1>  -0.1500 
 10 C        5.7890    -1.4710    -0.0120 C.3   1 <1>  -0.1600 
 11 C        7.1040    -2.2610    -0.0170 C.3   1 <1>  -0.1600 
 12 C        8.3110    -1.3230    -0.0150 C.3   1 <1>   0.1200 
 13 O        9.4770    -2.1120    -0.0200 O.3   1 <1>  -0.3630 
 14 C       10.7100    -1.5410    -0.0180 C.ar  1 <1>   0.0830 
 15 C       11.7940    -2.4050    -0.0220 C.ar  1 <1>  -0.1500 
 16 C       10.9310    -0.1660    -0.0140 C.ar  1 <1>  -0.1500 
 17 C       13.0850    -1.9070    -0.0220 C.ar  1 <1>  -0.1500 
 18 C       12.2230     0.3320    -0.0130 C.ar  1 <1>  -0.1500 
 19 C       13.3100    -0.5400    -0.0170 C.ar  1 <1>   0.0830 
 20 O       14.6070    -0.1350    -0.0170 O.3   1 <1>  -0.3620 
 21 C       14.9410     1.2350    -0.0120 C.3   1 <1>   0.0400 
 22 H       -1.0580    -1.1180     0.0030 H     1 <1>   0.1500 
 23 H        2.7600    -4.2430    -0.0180 H     1 <1>   0.1500 
 24 H       -1.4390    -3.5690    -0.0060 H     1 <1>   0.1500 
 25 H        4.5710    -3.0170    -0.9000 H     1 <1>   0.0800 
 26 H        4.5740    -3.0240     0.8680 H     1 <1>   0.0800 
 27 H        0.4840    -5.1000    -0.0160 H     1 <1>   0.1500 
 28 H        5.7460    -0.8480     0.8650 H     1 <1>   0.0800 
 29 H        5.7430    -0.8420    -0.8850 H     1 <1>   0.0800 
 30 H        7.1480    -2.8820    -0.8950 H     1 <1>   0.0800 
 31 H        7.1510    -2.8890     0.8560 H     1 <1>   0.0800 
 32 H        8.3170    -0.7120     0.8710 H     1 <1>   0.0800 
 33 H        8.3150    -0.7050    -0.8970 H     1 <1>   0.0800 
 34 H       11.6200    -3.4650    -0.0260 H     1 <1>   0.1500 
 35 H       10.1140     0.5290    -0.0110 H     1 <1>   0.1500 
 36 H       13.9260    -2.5760    -0.0250 H     1 <1>   0.1500 
 37 H       12.3650     1.3950    -0.0090 H     1 <1>   0.1500 
 38 H       16.0130     1.3160    -0.0130 H     1 <1>   0.0800 
 39 H       14.5410     1.6890     0.8770 H     1 <1>   0.0800 
 40 H       14.5400     1.6950    -0.8970 H     1 <1>   0.0800 
@<TRIPOS>BOND
  1   1   2  1   
  2   2   3  ar  
  3   2   4  ar  
  4   3   5  1   
  5   3   6  ar  
  6   4   7  ar  
  7   4  22  1   
  8   5   8  1   
  9   6   9  ar  
 10   6  23  1   
 11   7   9  ar  
 12   7  24  1   
 13   8  10  1   
 14   8  25  1   
 15   8  26  1   
 16   9  27  1   
 17  10  11  1   
 18  10  28  1   
 19  10  29  1   
 20  11  12  1   
 21  11  30  1   
 22  11  31  1   
 23  12  13  1   
 24  12  32  1   
 25  12  33  1   
 26  13  14  1   
 27  14  15  ar  
 28  14  16  ar  
 29  15  17  ar  
 30  15  34  1   
 31  16  18  ar  
 32  16  35  1   
 33  17  19  ar  
 34  17  36  1   
 35  18  19  ar  
 36  18  37  1   
 37  19  20  1   
 38  20  21  1   
 39  21  38  1   
 40  21  39  1   
 41  21  40  1   
@<TRIPOS>SUBSTRUCTURE
  1 ****  11 GROUP 4 **** **** 0

# MOE 2024.06 (io_trps.svl 2023.06)
