@<TRIPOS>MOLECULE
NONAME
43 43 1 0 0 
SMALL
USER_CHARGES


@<TRIPOS>ATOM
  1 S       -0.2800    -0.0530     0.3530 S.3   1 <1>  -0.3320 
  2 C       -1.8110    -0.8770    -0.1120 C.ar  1 <1>   0.1020 
  3 C        0.2870    -0.8170     1.9360 C.3   1 <1>  -0.0100 
  4 C       -2.4000    -1.8490     0.6800 C.ar  1 <1>  -0.1500 
  5 C       -2.3870    -0.4980    -1.3090 C.ar  1 <1>  -0.1500 
  6 C       -3.5820    -2.4380     0.2660 C.ar  1 <1>  -0.1500 
  7 C       -3.5680    -1.0890    -1.7210 C.ar  1 <1>  -0.1500 
  8 C       -4.1780    -2.0540    -0.9300 C.ar  1 <1>  -0.1430 
  9 C       -5.4880    -2.6790    -1.3640 C.3   1 <1>   0.4860 
 10 N       -6.5730    -2.1010    -0.5100 N.4   1 <1>  -0.9590 
 11 C       -7.8070    -2.9700    -0.5440 C.3   1 <1>   0.3430 
 12 C       -6.8030    -0.6730    -0.8840 C.3   1 <1>   0.3430 
 13 C       -8.9110    -2.5810     0.4840 C.3   1 <1>   0.3430 
 14 C       -6.8690     0.1630     0.3870 C.3   1 <1>  -0.2400 
 15 N      -10.0900    -3.5270     0.5360 N.4   1 <1>  -0.9590 
 16 C      -10.9000    -3.5540    -0.7300 C.3   1 <1>   0.2630 
 17 C      -10.9950    -3.1620     1.6790 C.3   1 <1>   0.2630 
 18 H        1.2160    -0.3470     2.2060 H     1 <1>   0.0800 
 19 H        0.4290    -1.8690     1.7660 H     1 <1>   0.0800 
 20 H       -0.4630    -0.6330     2.6830 H     1 <1>   0.0800 
 21 H       -1.9490    -2.1520     1.6060 H     1 <1>   0.1500 
 22 H       -1.9040     0.2530    -1.9110 H     1 <1>   0.1500 
 23 H       -4.0170    -3.2010     0.8900 H     1 <1>   0.1500 
 24 H       -3.9930    -0.7830    -2.6630 H     1 <1>   0.1500 
 25 H       -5.4250    -3.7470    -1.2260 H     1 <1>   0.0800 
 26 H       -5.6720    -2.4780    -2.4070 H     1 <1>   0.0800 
 27 H       -6.1480    -2.0820     0.4300 H     1 <1>   0.4500 
 28 H       -7.5130    -3.9870    -0.3450 H     1 <1>   0.0800 
 29 H       -8.2290    -2.9350    -1.5350 H     1 <1>   0.0800 
 30 H       -7.7100    -0.5650    -1.4580 H     1 <1>   0.0800 
 31 H       -5.9860    -0.3060    -1.4860 H     1 <1>   0.0800 
 32 H       -9.2710    -1.5930     0.2510 H     1 <1>   0.0800 
 33 H       -8.4590    -2.5470     1.4620 H     1 <1>   0.0800 
 34 H       -7.6840    -0.1220     1.0230 H     1 <1>   0.0800 
 35 H       -7.0090     1.1960     0.1180 H     1 <1>   0.0800 
 36 H       -5.9410     0.0970     0.9300 H     1 <1>   0.0800 
 37 H       -9.7650    -4.4920     0.7280 H     1 <1>   0.4500 
 38 H      -11.2900    -2.5730    -0.9520 H     1 <1>   0.0800 
 39 H      -11.7340    -4.2310    -0.6230 H     1 <1>   0.0800 
 40 H      -10.3030    -3.8880    -1.5630 H     1 <1>   0.0800 
 41 H      -11.3970    -2.1700     1.5430 H     1 <1>   0.0800 
 42 H      -10.4570    -3.1900     2.6130 H     1 <1>   0.0800 
 43 H      -11.8180    -3.8570     1.7430 H     1 <1>   0.0800 
@<TRIPOS>BOND
  1   1   2  1   
  2   1   3  1   
  3   2   4  ar  
  4   2   5  ar  
  5   3  18  1   
  6   3  19  1   
  7   3  20  1   
  8   4   6  ar  
  9   4  21  1   
 10   5   7  ar  
 11   5  22  1   
 12   6   8  ar  
 13   6  23  1   
 14   7   8  ar  
 15   7  24  1   
 16   8   9  1   
 17   9  10  1   
 18   9  25  1   
 19   9  26  1   
 20  10  11  1   
 21  10  12  1   
 22  10  27  1   
 23  11  13  1   
 24  11  28  1   
 25  11  29  1   
 26  12  14  1   
 27  12  30  1   
 28  12  31  1   
 29  13  15  1   
 30  13  32  1   
 31  13  33  1   
 32  14  34  1   
 33  14  35  1   
 34  14  36  1   
 35  15  16  1   
 36  15  17  1   
 37  15  37  1   
 38  16  38  1   
 39  16  39  1   
 40  16  40  1   
 41  17  41  1   
 42  17  42  1   
 43  17  43  1   
@<TRIPOS>SUBSTRUCTURE
  1 ****  10 GROUP 4 **** **** 0

# MOE 2024.06 (io_trps.svl 2023.06)
