@<TRIPOS>MOLECULE
NONAME
51 53 1 0 0 
SMALL
USER_CHARGES


@<TRIPOS>ATOM
  1 O       -0.7190    -0.9030    -1.1960 O.3   1 <1>  -0.3630 
  2 C       -1.8420    -1.1240    -0.4720 C.ar  1 <1>   0.0820 
  3 C        0.4880    -1.3590    -0.6250 C.3   1 <1>   0.0400 
  4 C       -2.1180    -0.4520     0.7240 C.ar  1 <1>   0.0820 
  5 C       -2.7330    -2.0640    -0.9580 C.ar  1 <1>  -0.1500 
  6 O       -1.3270     0.5190     1.2470 O.3   1 <1>  -0.3630 
  7 C       -3.2570    -0.7750     1.4390 C.ar  1 <1>  -0.1500 
  8 C       -3.8880    -2.3720    -0.2460 C.ar  1 <1>   0.0820 
  9 C       -1.0430     1.6410     0.4350 C.3   1 <1>   0.0400 
 10 C       -4.1440    -1.7290     0.9630 C.ar  1 <1>  -0.1440 
 11 O       -4.8060    -3.2820    -0.6800 O.3   1 <1>  -0.3630 
 12 C       -5.3910    -2.0620     1.7580 C.3   1 <1>   0.4860 
 13 C       -4.5430    -4.0900    -1.8110 C.3   1 <1>   0.0400 
 14 N       -6.5740    -1.7370     0.9270 N.4   1 <1>  -0.9590 
 15 C       -6.6760    -0.2660     0.6180 C.3   1 <1>   0.3430 
 16 C       -7.8560    -2.2740     1.4940 C.3   1 <1>   0.3430 
 17 C       -7.8830     0.0560    -0.2850 C.3   1 <1>   0.2090 
 18 C       -9.0670    -1.9620     0.5910 C.3   1 <1>   0.2090 
 19 N       -9.1540    -0.5060     0.2660 N.pl3 1 <1>  -0.8380 
 20 C      -10.2730    -0.1660    -0.4610 C.ar  1 <1>   0.4100 
 21 N      -10.3370    -0.6510    -1.6940 N.ar  1 <1>  -0.6200 
 22 C      -11.2530     0.6420     0.1060 C.ar  1 <1>  -0.1500 
 23 C      -11.4180    -0.3170    -2.3820 C.ar  1 <1>   0.1600 
 24 C      -12.3700     0.9800    -0.6220 C.ar  1 <1>  -0.1500 
 25 C      -12.4440     0.4790    -1.9060 C.ar  1 <1>  -0.1500 
 26 H        1.2870    -1.1460    -1.3110 H     1 <1>   0.0800 
 27 H        0.4170    -2.4200    -0.4620 H     1 <1>   0.0800 
 28 H        0.6590    -0.8500     0.3070 H     1 <1>   0.0800 
 29 H       -2.4930    -2.5380    -1.8900 H     1 <1>   0.1500 
 30 H       -3.4310    -0.2630     2.3700 H     1 <1>   0.1500 
 31 H       -0.6420     2.4160     1.0620 H     1 <1>   0.0800 
 32 H       -1.9520     1.9770    -0.0320 H     1 <1>   0.0800 
 33 H       -0.3180     1.3700    -0.3100 H     1 <1>   0.0800 
 34 H       -5.4110    -1.5010     2.6780 H     1 <1>   0.0800 
 35 H       -5.3830    -3.1140     1.9930 H     1 <1>   0.0800 
 36 H       -4.4610    -3.4630    -2.6820 H     1 <1>   0.0800 
 37 H       -5.3620    -4.7770    -1.9360 H     1 <1>   0.0800 
 38 H       -3.6320    -4.6390    -1.6480 H     1 <1>   0.0800 
 39 H       -6.3860    -2.2190     0.0310 H     1 <1>   0.4500 
 40 H       -5.7760     0.0700     0.1300 H     1 <1>   0.0800 
 41 H       -6.7840     0.2890     1.5350 H     1 <1>   0.0800 
 42 H       -8.0370    -1.8330     2.4610 H     1 <1>   0.0800 
 43 H       -7.7830    -3.3410     1.6230 H     1 <1>   0.0800 
 44 H       -7.7100    -0.3430    -1.2710 H     1 <1>   0.0800 
 45 H       -7.9820     1.1240    -0.3800 H     1 <1>   0.0800 
 46 H       -9.9720    -2.2650     1.0900 H     1 <1>   0.0800 
 47 H       -8.9920    -2.5300    -0.3210 H     1 <1>   0.0800 
 48 H      -11.1220     0.9920     1.1120 H     1 <1>   0.1500 
 49 H      -11.4910    -0.7000    -3.3860 H     1 <1>   0.1500 
 50 H      -13.1470     1.6030    -0.2130 H     1 <1>   0.1500 
 51 H      -13.2900     0.7040    -2.5300 H     1 <1>   0.1500 
@<TRIPOS>BOND
  1   1   2  1   
  2   1   3  1   
  3   2   4  ar  
  4   2   5  ar  
  5   3  26  1   
  6   3  27  1   
  7   3  28  1   
  8   4   6  1   
  9   4   7  ar  
 10   5   8  ar  
 11   5  29  1   
 12   6   9  1   
 13   7  10  ar  
 14   7  30  1   
 15   8  10  ar  
 16   8  11  1   
 17   9  31  1   
 18   9  32  1   
 19   9  33  1   
 20  10  12  1   
 21  11  13  1   
 22  12  14  1   
 23  12  34  1   
 24  12  35  1   
 25  13  36  1   
 26  13  37  1   
 27  13  38  1   
 28  14  15  1   
 29  14  16  1   
 30  14  39  1   
 31  15  17  1   
 32  15  40  1   
 33  15  41  1   
 34  16  18  1   
 35  16  42  1   
 36  16  43  1   
 37  17  19  1   
 38  17  44  1   
 39  17  45  1   
 40  18  19  1   
 41  18  46  1   
 42  18  47  1   
 43  19  20  1   
 44  20  21  ar  
 45  20  22  ar  
 46  21  23  ar  
 47  22  24  ar  
 48  22  48  1   
 49  23  25  ar  
 50  23  49  1   
 51  24  25  ar  
 52  24  50  1   
 53  25  51  1   
@<TRIPOS>SUBSTRUCTURE
  1 ****  15 GROUP 4 **** **** 0

# MOE 2024.06 (io_trps.svl 2023.06)
