@<TRIPOS>MOLECULE
NONAME
47 48 1 0 0 
SMALL
USER_CHARGES


@<TRIPOS>ATOM
  1 S       -0.1870    -0.1720     0.5350 S.o2  1 <1>   1.4470 
  2 O       -0.4640    -0.3440     1.9430 O.2   1 <1>  -0.6500 
  3 O       -0.3800     1.1190    -0.0890 O.2   1 <1>  -0.6500 
  4 N       -1.3040    -1.2250    -0.1440 N.am  1 <1>  -0.9140 
  5 C        1.4170    -0.8750     0.0660 C.ar  1 <1>  -0.0090 
  6 C       -2.5960    -0.6330    -0.3830 C.3   1 <1>   0.2760 
  7 C        2.5790    -0.4430     0.7000 C.ar  1 <1>   0.0830 
  8 C        1.5350    -1.8310    -0.9370 C.ar  1 <1>  -0.1500 
  9 C       -3.6510    -1.6750     0.0050 C.3   1 <1>  -0.1600 
 10 C       -2.6690    -0.2590    -1.8640 C.3   1 <1>  -0.2400 
 11 O        2.4440     0.5100     1.6600 O.3   1 <1>  -0.3630 
 12 C        3.8180    -0.9750     0.3470 C.ar  1 <1>  -0.1500 
 13 C        2.7600    -2.3650    -1.2950 C.ar  1 <1>   0.0830 
 14 C       -5.0900    -1.1470    -0.0870 C.3   1 <1>  -0.0170 
 15 C        3.5470     1.0200     2.3760 C.3   1 <1>   0.0400 
 16 C        3.9100    -1.9330    -0.6440 C.ar  1 <1>  -0.1500 
 17 O        2.7540    -3.2970    -2.2820 O.3   1 <1>  -0.3630 
 18 C       -6.0610    -2.1950     0.4280 C.ar  1 <1>  -0.1440 
 19 C        3.9510    -3.8840    -2.7410 C.3   1 <1>   0.0400 
 20 C       -6.4460    -2.2010     1.7600 C.ar  1 <1>  -0.1500 
 21 C       -6.5660    -3.1600    -0.4300 C.ar  1 <1>  -0.1500 
 22 C       -7.3270    -3.1600     2.2290 C.ar  1 <1>  -0.1500 
 23 C       -7.4470    -4.1200     0.0380 C.ar  1 <1>  -0.1500 
 24 C       -7.8280    -4.1200     1.3680 C.ar  1 <1>  -0.1500 
 25 H       -1.4410    -1.8870     0.6170 H     1 <1>   0.4200 
 26 H       -2.7320     0.2460     0.2300 H     1 <1>   0.0800 
 27 H        0.6640    -2.1760    -1.4640 H     1 <1>   0.1500 
 28 H       -3.4800    -1.9790     1.0230 H     1 <1>   0.0800 
 29 H       -3.5550    -2.5420    -0.6250 H     1 <1>   0.0800 
 30 H       -2.5940    -1.1380    -2.4790 H     1 <1>   0.0800 
 31 H       -1.8690     0.4130    -2.1190 H     1 <1>   0.0800 
 32 H       -3.5930     0.2410    -2.0830 H     1 <1>   0.0800 
 33 H        4.7210    -0.6550     0.8310 H     1 <1>   0.1500 
 34 H       -5.3400    -0.9080    -1.1050 H     1 <1>   0.0800 
 35 H       -5.1890    -0.2480     0.4960 H     1 <1>   0.0800 
 36 H        3.1790     1.7510     3.0740 H     1 <1>   0.0800 
 37 H        4.2280     1.4850     1.6860 H     1 <1>   0.0800 
 38 H        4.0210     0.2150     2.9090 H     1 <1>   0.0800 
 39 H        4.8760    -2.3270    -0.8960 H     1 <1>   0.1500 
 40 H        3.7030    -4.5770    -3.5250 H     1 <1>   0.0800 
 41 H        4.4190    -4.4070    -1.9270 H     1 <1>   0.0800 
 42 H        4.5930    -3.1120    -3.1270 H     1 <1>   0.0800 
 43 H       -6.0610    -1.4600     2.4380 H     1 <1>   0.1500 
 44 H       -6.2750    -3.1700    -1.4660 H     1 <1>   0.1500 
 45 H       -7.6230    -3.1590     3.2640 H     1 <1>   0.1500 
 46 H       -7.8360    -4.8670    -0.6320 H     1 <1>   0.1500 
 47 H       -8.5120    -4.8660     1.7330 H     1 <1>   0.1500 
@<TRIPOS>BOND
  1   1   2  2   
  2   1   3  2   
  3   1   4  am  
  4   1   5  1   
  5   4   6  1   
  6   4  25  1   
  7   5   7  ar  
  8   5   8  ar  
  9   6   9  1   
 10   6  10  1   
 11   6  26  1   
 12   7  11  1   
 13   7  12  ar  
 14   8  13  ar  
 15   8  27  1   
 16   9  14  1   
 17   9  28  1   
 18   9  29  1   
 19  10  30  1   
 20  10  31  1   
 21  10  32  1   
 22  11  15  1   
 23  12  16  ar  
 24  12  33  1   
 25  13  16  ar  
 26  13  17  1   
 27  14  18  1   
 28  14  34  1   
 29  14  35  1   
 30  15  36  1   
 31  15  37  1   
 32  15  38  1   
 33  16  39  1   
 34  17  19  1   
 35  18  20  ar  
 36  18  21  ar  
 37  19  40  1   
 38  19  41  1   
 39  19  42  1   
 40  20  22  ar  
 41  20  43  1   
 42  21  23  ar  
 43  21  44  1   
 44  22  24  ar  
 45  22  45  1   
 46  23  24  ar  
 47  23  46  1   
 48  24  47  1   
@<TRIPOS>SUBSTRUCTURE
  1 ****   4 GROUP 4 **** **** 0

# MOE 2024.06 (io_trps.svl 2023.06)
