@<TRIPOS>MOLECULE
NONAME
54 56 1 0 0 
SMALL
USER_CHARGES


@<TRIPOS>ATOM
  1 O       -0.9810     1.0070    -0.1380 O.3   1 <1>  -0.3630 
  2 C       -0.3070     2.1710     0.0300 C.ar  1 <1>   0.0830 
  3 C       -1.0420     0.0500     0.8950 C.3   1 <1>   0.2580 
  4 C       -0.7690     3.2890    -0.6580 C.ar  1 <1>  -0.1440 
  5 C        0.8020     2.2740     0.8630 C.ar  1 <1>  -0.1500 
  6 C       -2.3730    -0.6580     0.7350 C.2   1 <1>  -0.2880 
  7 C       -0.1250     4.5070    -0.4970 C.ar  1 <1>  -0.1500 
  8 C       -1.9730     3.1780    -1.5770 C.3   1 <1>   0.4870 
  9 C        1.4350     3.4940     1.0180 C.ar  1 <1>  -0.1500 
 10 C       -3.3890    -0.6050     1.6020 C.2   1 <1>  -0.3000 
 11 C        0.9720     4.6080     0.3410 C.ar  1 <1>  -0.1500 
 12 N       -3.1260     2.6660    -0.7960 N.4   1 <1>  -0.9590 
 13 C       -4.2870     2.2490    -1.6530 C.3   1 <1>   0.3430 
 14 C       -3.5500     3.6090     0.3000 C.3   1 <1>   0.3430 
 15 C       -5.4230     1.6200    -0.8220 C.3   1 <1>   0.2090 
 16 C       -4.6970     3.0390     1.1610 C.3   1 <1>   0.2090 
 17 N       -5.8080     2.4900     0.3260 N.pl3 1 <1>  -0.8380 
 18 C       -6.9910     3.2200     0.2060 C.ar  1 <1>   0.1000 
 19 C       -8.2190     2.6950     0.6270 C.ar  1 <1>  -0.1430 
 20 C       -6.9550     4.4880    -0.3640 C.ar  1 <1>  -0.1500 
 21 C       -9.3840     3.4360     0.4500 C.ar  1 <1>  -0.1430 
 22 C       -8.2760     1.3100     1.2750 C.3   1 <1>  -0.0970 
 23 C       -8.1090     5.2250    -0.5250 C.ar  1 <1>  -0.1500 
 24 C       -9.3200     4.6980    -0.1210 C.ar  1 <1>  -0.1500 
 25 C      -10.7530     2.9090     0.8640 C.3   1 <1>  -0.0970 
 26 H       -0.9940     0.5500     1.8480 H     1 <1>   0.0800 
 27 H       -0.2140    -0.6290     0.7900 H     1 <1>   0.0800 
 28 H        1.1890     1.4190     1.3860 H     1 <1>   0.1500 
 29 H       -2.4170    -1.2330    -0.1760 H     1 <1>   0.1500 
 30 H       -0.4600     5.3870    -1.0200 H     1 <1>   0.1500 
 31 H       -1.7370     2.4910    -2.3740 H     1 <1>   0.0800 
 32 H       -2.2070     4.1380    -2.0060 H     1 <1>   0.0800 
 33 H        2.2940     3.5770     1.6630 H     1 <1>   0.1500 
 34 H       -4.3230    -1.1250     1.4660 H     1 <1>   0.1500 
 35 H       -3.3790    -0.0520     2.5270 H     1 <1>   0.1500 
 36 H        1.4730     5.5540     0.4650 H     1 <1>   0.1500 
 37 H       -2.7580     1.8160    -0.3320 H     1 <1>   0.4500 
 38 H       -3.9610     1.5360    -2.3930 H     1 <1>   0.0800 
 39 H       -4.6840     3.1070    -2.1690 H     1 <1>   0.0800 
 40 H       -3.8830     4.5360    -0.1340 H     1 <1>   0.0800 
 41 H       -2.7110     3.8280     0.9400 H     1 <1>   0.0800 
 42 H       -5.1130     0.6600    -0.4480 H     1 <1>   0.0800 
 43 H       -6.2820     1.4610    -1.4540 H     1 <1>   0.0800 
 44 H       -5.0810     3.8130     1.8040 H     1 <1>   0.0800 
 45 H       -4.3170     2.2550     1.7910 H     1 <1>   0.0800 
 46 H       -6.0240     4.9020    -0.6890 H     1 <1>   0.1500 
 47 H       -7.3410     1.0530     1.7350 H     1 <1>   0.0800 
 48 H       -8.5080     0.5720     0.5290 H     1 <1>   0.0800 
 49 H       -9.0230     1.2730     2.0460 H     1 <1>   0.0800 
 50 H       -8.0740     6.2060    -0.9650 H     1 <1>   0.1500 
 51 H      -10.2150     5.2800    -0.2550 H     1 <1>   0.1500 
 52 H      -10.9020     1.9170     0.4780 H     1 <1>   0.0800 
 53 H      -11.5390     3.5350     0.4830 H     1 <1>   0.0800 
 54 H      -10.8270     2.8870     1.9360 H     1 <1>   0.0800 
@<TRIPOS>BOND
  1   1   2  1   
  2   1   3  1   
  3   2   4  ar  
  4   2   5  ar  
  5   3   6  1   
  6   3  26  1   
  7   3  27  1   
  8   4   7  ar  
  9   4   8  1   
 10   5   9  ar  
 11   5  28  1   
 12   6  10  2   
 13   6  29  1   
 14   7  11  ar  
 15   7  30  1   
 16   8  12  1   
 17   8  31  1   
 18   8  32  1   
 19   9  11  ar  
 20   9  33  1   
 21  10  34  1   
 22  10  35  1   
 23  11  36  1   
 24  12  13  1   
 25  12  14  1   
 26  12  37  1   
 27  13  15  1   
 28  13  38  1   
 29  13  39  1   
 30  14  16  1   
 31  14  40  1   
 32  14  41  1   
 33  15  17  1   
 34  15  42  1   
 35  15  43  1   
 36  16  17  1   
 37  16  44  1   
 38  16  45  1   
 39  17  18  1   
 40  18  19  ar  
 41  18  20  ar  
 42  19  21  ar  
 43  19  22  1   
 44  20  23  ar  
 45  20  46  1   
 46  21  24  ar  
 47  21  25  1   
 48  22  47  1   
 49  22  48  1   
 50  22  49  1   
 51  23  24  ar  
 52  23  50  1   
 53  24  51  1   
 54  25  52  1   
 55  25  53  1   
 56  25  54  1   
@<TRIPOS>SUBSTRUCTURE
  1 ****  14 GROUP 4 **** **** 0

# MOE 2024.06 (io_trps.svl 2023.06)
