@<TRIPOS>MOLECULE
NONAME
37 37 1 0 0 
SMALL
USER_CHARGES


@<TRIPOS>ATOM
  1 O       -0.2440     0.0800    -0.0560 O.2   1 <1>  -0.5700 
  2 C       -0.0890    -1.1230    -0.0530 C.2   1 <1>   0.8700 
  3 O        1.1040    -1.7200    -0.0810 O.3   1 <1>  -0.2320 
  4 O       -1.1230    -1.9570    -0.0140 O.3   1 <1>  -0.4300 
  5 C        2.3200    -1.1240    -0.1900 C.ar  1 <1>   0.0830 
  6 C       -2.4480    -1.4710     0.0320 C.3   1 <1>   0.1200 
  7 C        2.5380     0.0330    -0.9290 C.ar  1 <1>  -0.1500 
  8 C        3.3840    -1.7310     0.4580 C.ar  1 <1>  -0.1500 
  9 C       -3.4270    -2.6530     0.1020 C.3   1 <1>  -0.0800 
 10 C        3.8080     0.5780    -1.0020 C.ar  1 <1>  -0.1500 
 11 C        4.6530    -1.1830     0.3820 C.ar  1 <1>  -0.1500 
 12 C       -4.8730    -2.1420     0.0820 C.3   1 <1>  -0.2400 
 13 C       -3.1990    -3.5100     1.3560 C.3   1 <1>  -0.2400 
 14 C        4.8720    -0.0250    -0.3480 C.ar  1 <1>  -0.1430 
 15 C        6.2640     0.5800    -0.4280 C.3   1 <1>  -0.0170 
 16 C        6.4800     1.5820     0.7110 C.3   1 <1>  -0.1600 
 17 C        7.8770     2.2080     0.6550 C.3   1 <1>  -0.2400 
 18 H       -2.6220    -0.8850    -0.8540 H     1 <1>   0.0800 
 19 H       -2.5490    -0.8410     0.9000 H     1 <1>   0.0800 
 20 H        1.7330     0.5140    -1.4520 H     1 <1>   0.1500 
 21 H        3.2180    -2.6300     1.0230 H     1 <1>   0.1500 
 22 H       -3.2770    -3.2660    -0.7720 H     1 <1>   0.0800 
 23 H        3.9660     1.4780    -1.5710 H     1 <1>   0.1500 
 24 H        5.4700    -1.6610     0.8940 H     1 <1>   0.1500 
 25 H       -5.0690    -1.5220     0.9400 H     1 <1>   0.0800 
 26 H       -5.5620    -2.9680     0.0930 H     1 <1>   0.0800 
 27 H       -5.0550    -1.5650    -0.8080 H     1 <1>   0.0800 
 28 H       -3.3230    -2.9200     2.2470 H     1 <1>   0.0800 
 29 H       -2.2050    -3.9220     1.3540 H     1 <1>   0.0800 
 30 H       -3.8990    -4.3260     1.3840 H     1 <1>   0.0800 
 31 H        6.3870     1.0740    -1.3760 H     1 <1>   0.0800 
 32 H        7.0000    -0.2030    -0.3700 H     1 <1>   0.0800 
 33 H        6.3500     1.0800     1.6550 H     1 <1>   0.0800 
 34 H        5.7370     2.3590     0.6470 H     1 <1>   0.0800 
 35 H        8.6340     1.4480     0.7420 H     1 <1>   0.0800 
 36 H        7.9990     2.9050     1.4650 H     1 <1>   0.0800 
 37 H        8.0170     2.7340    -0.2730 H     1 <1>   0.0800 
@<TRIPOS>BOND
  1   1   2  2   
  2   2   3  1   
  3   2   4  1   
  4   3   5  1   
  5   4   6  1   
  6   5   7  ar  
  7   5   8  ar  
  8   6   9  1   
  9   6  18  1   
 10   6  19  1   
 11   7  10  ar  
 12   7  20  1   
 13   8  11  ar  
 14   8  21  1   
 15   9  12  1   
 16   9  13  1   
 17   9  22  1   
 18  10  14  ar  
 19  10  23  1   
 20  11  14  ar  
 21  11  24  1   
 22  12  25  1   
 23  12  26  1   
 24  12  27  1   
 25  13  28  1   
 26  13  29  1   
 27  13  30  1   
 28  14  15  1   
 29  15  16  1   
 30  15  31  1   
 31  15  32  1   
 32  16  17  1   
 33  16  33  1   
 34  16  34  1   
 35  17  35  1   
 36  17  36  1   
 37  17  37  1   
@<TRIPOS>SUBSTRUCTURE
  1 ****   5 GROUP 4 **** **** 0

# MOE 2024.06 (io_trps.svl 2023.06)
