@<TRIPOS>MOLECULE
NONAME
45 46 1 0 0 
SMALL
USER_CHARGES


@<TRIPOS>ATOM
  1 CL       0.2480    -0.2900     1.1330 Cl    1 <1>  -0.1770 
  2 C       -0.6300    -1.6420     0.4500 C.ar  1 <1>   0.1770 
  3 C        0.0440    -2.8090     0.0980 C.ar  1 <1>   0.0830 
  4 C       -1.9950    -1.5120     0.2760 C.ar  1 <1>  -0.1500 
  5 O        1.3880    -2.8570     0.3020 O.3   1 <1>  -0.3630 
  6 C       -0.6840    -3.8690    -0.4440 C.ar  1 <1>  -0.1500 
  7 C       -2.6920    -2.5760    -0.2620 C.ar  1 <1>   0.1770 
  8 C        2.1510    -3.9960    -0.0260 C.3   1 <1>   0.1200 
  9 C       -2.0530    -3.7490    -0.6230 C.ar  1 <1>  -0.1500 
 10 CL      -4.4170    -2.4370    -0.4930 Cl    1 <1>  -0.1770 
 11 C        3.6050    -3.7030     0.3320 C.3   1 <1>   0.1200 
 12 O        4.3800    -4.8200     0.0120 O.3   1 <1>  -0.5600 
 13 C        5.7320    -4.6750     0.2960 C.3   1 <1>   0.1200 
 14 C        6.4260    -5.9850    -0.0970 C.3   1 <1>   0.3430 
 15 N        7.8930    -5.9880     0.2150 N.4   1 <1>  -0.9590 
 16 C        8.6560    -5.0200    -0.6310 C.3   1 <1>   0.3430 
 17 C        8.4390    -7.3700     0.0760 C.3   1 <1>   0.3430 
 18 C       10.1200    -4.9960    -0.1940 C.3   1 <1>  -0.1600 
 19 C        9.8990    -7.3960     0.5290 C.3   1 <1>  -0.1600 
 20 C       10.7540    -6.3930    -0.2590 C.3   1 <1>  -0.0800 
 21 C       12.1870    -6.3620     0.2820 C.3   1 <1>  -0.2400 
 22 H       -2.5000    -0.6060     0.5520 H     1 <1>   0.1500 
 23 H       -0.2080    -4.7890    -0.7300 H     1 <1>   0.1500 
 24 H        2.0530    -4.1790    -1.0810 H     1 <1>   0.0800 
 25 H        1.7830    -4.8280     0.5480 H     1 <1>   0.0800 
 26 H       -2.6270    -4.5580    -1.0390 H     1 <1>   0.1500 
 27 H        3.6900    -3.5100     1.3880 H     1 <1>   0.0800 
 28 H        3.9590    -2.8590    -0.2350 H     1 <1>   0.0800 
 29 H        5.8380    -4.4870     1.3510 H     1 <1>   0.0800 
 30 H        6.1080    -3.8460    -0.2780 H     1 <1>   0.0800 
 31 H        6.2790    -6.1540    -1.1510 H     1 <1>   0.0800 
 32 H        5.9460    -6.7850     0.4430 H     1 <1>   0.0800 
 33 H        8.0250    -5.7160     1.1980 H     1 <1>   0.4500 
 34 H        8.2410    -4.0300    -0.5340 H     1 <1>   0.0800 
 35 H        8.5950    -5.3130    -1.6670 H     1 <1>   0.0800 
 36 H        8.3760    -7.6860    -0.9530 H     1 <1>   0.0800 
 37 H        7.8660    -8.0580     0.6780 H     1 <1>   0.0800 
 38 H       10.1870    -4.6010     0.8050 H     1 <1>   0.0800 
 39 H       10.6640    -4.3280    -0.8400 H     1 <1>   0.0800 
 40 H       10.2900    -8.3880     0.3820 H     1 <1>   0.0800 
 41 H        9.9490    -7.1840     1.5830 H     1 <1>   0.0800 
 42 H       10.7920    -6.7070    -1.2900 H     1 <1>   0.0800 
 43 H       12.2060    -6.0540     1.3130 H     1 <1>   0.0800 
 44 H       12.7890    -5.6760    -0.2890 H     1 <1>   0.0800 
 45 H       12.6360    -7.3380     0.2100 H     1 <1>   0.0800 
@<TRIPOS>BOND
  1   1   2  1   
  2   2   3  ar  
  3   2   4  ar  
  4   3   5  1   
  5   3   6  ar  
  6   4   7  ar  
  7   4  22  1   
  8   5   8  1   
  9   6   9  ar  
 10   6  23  1   
 11   7   9  ar  
 12   7  10  1   
 13   8  11  1   
 14   8  24  1   
 15   8  25  1   
 16   9  26  1   
 17  11  12  1   
 18  11  27  1   
 19  11  28  1   
 20  12  13  1   
 21  13  14  1   
 22  13  29  1   
 23  13  30  1   
 24  14  15  1   
 25  14  31  1   
 26  14  32  1   
 27  15  16  1   
 28  15  17  1   
 29  15  33  1   
 30  16  18  1   
 31  16  34  1   
 32  16  35  1   
 33  17  19  1   
 34  17  36  1   
 35  17  37  1   
 36  18  20  1   
 37  18  38  1   
 38  18  39  1   
 39  19  20  1   
 40  19  40  1   
 41  19  41  1   
 42  20  21  1   
 43  20  42  1   
 44  21  43  1   
 45  21  44  1   
 46  21  45  1   
@<TRIPOS>SUBSTRUCTURE
  1 ****  11 GROUP 4 **** **** 0

# MOE 2024.06 (io_trps.svl 2023.06)
