@<TRIPOS>MOLECULE
NONAME
51 54 1 0 0 
SMALL
USER_CHARGES


@<TRIPOS>ATOM
  1 S        0.1170     0.4200    -1.1050 S.o2  1 <1>   1.4470 
  2 O        0.6480     0.5640    -2.4450 O.2   1 <1>  -0.6500 
  3 O       -0.3520     1.5910    -0.3980 O.2   1 <1>  -0.6500 
  4 N        1.3610    -0.2540    -0.1710 N.am  1 <1>  -0.8490 
  5 C       -1.1620    -0.8660    -1.0650 C.ar  1 <1>  -0.0090 
  6 C        2.0680    -1.3320    -0.8560 C.3   1 <1>   0.1960 
  7 C        2.2710     0.7800     0.3400 C.3   1 <1>   0.1960 
  8 C       -1.5240    -1.4840     0.1050 C.ar  1 <1>  -0.1500 
  9 C       -1.8160    -1.2600    -2.2460 C.ar  1 <1>  -0.1500 
 10 C        2.8620    -2.1470     0.1720 C.3   1 <1>  -0.1600 
 11 C        3.5900     0.2050     0.8850 C.3   1 <1>  -0.1600 
 12 C       -2.5060    -2.4920     0.1590 C.ar  1 <1>   0.0000 
 13 C       -2.7760    -2.2340    -2.2330 C.ar  1 <1>  -0.1500 
 14 C        3.4570    -1.2740     1.3000 C.3   1 <1>  -0.0190 
 15 C       -3.1460    -2.8770    -1.0370 C.ar  1 <1>   0.0000 
 16 C       -2.8700    -3.1330     1.3600 C.ar  1 <1>  -0.1500 
 17 C        4.7210    -1.8650     1.9380 C.2   1 <1>   0.5690 
 18 C       -4.1270    -3.8880    -0.9860 C.ar  1 <1>  -0.1500 
 19 C       -3.8250    -4.1110     1.3810 C.ar  1 <1>  -0.1500 
 20 O        4.6130    -2.2320     3.0850 O.2   1 <1>  -0.5700 
 21 N        5.9240    -1.9820     1.2750 N.am  1 <1>  -0.6600 
 22 C       -4.4610    -4.4930     0.1940 C.ar  1 <1>  -0.1500 
 23 C        6.2190    -1.6340    -0.1490 C.3   1 <1>   0.1400 
 24 C        7.1310    -2.5260     1.9750 C.3   1 <1>   0.1400 
 25 C        6.9170    -2.8040    -0.8620 C.3   1 <1>   0.1200 
 26 C        7.7860    -3.6440     1.1480 C.3   1 <1>   0.1200 
 27 O        8.0540    -3.2030    -0.1540 O.3   1 <1>  -0.5600 
 28 H        2.7270    -0.9150    -1.6010 H     1 <1>   0.0800 
 29 H        1.3700    -1.9840    -1.3560 H     1 <1>   0.0800 
 30 H        1.7640     1.3110     1.1290 H     1 <1>   0.0800 
 31 H        2.4940     1.4920    -0.4390 H     1 <1>   0.0800 
 32 H       -1.0450    -1.1970     1.0260 H     1 <1>   0.1500 
 33 H       -1.5450    -0.7760    -3.1710 H     1 <1>   0.1500 
 34 H        3.6230    -2.7040    -0.3410 H     1 <1>   0.0800 
 35 H        2.2040    -2.8730     0.6180 H     1 <1>   0.0800 
 36 H        3.9030     0.7910     1.7310 H     1 <1>   0.0800 
 37 H        4.3420     0.3260     0.1300 H     1 <1>   0.0800 
 38 H       -3.2680    -2.5250    -3.1430 H     1 <1>   0.1500 
 39 H        2.7150    -1.2720     2.0810 H     1 <1>   0.0800 
 40 H       -2.3790    -2.8350     2.2690 H     1 <1>   0.1500 
 41 H       -4.6130    -4.1780    -1.9000 H     1 <1>   0.1500 
 42 H       -4.1000    -4.5970     2.3020 H     1 <1>   0.1500 
 43 H       -5.2110    -5.2640     0.2280 H     1 <1>   0.1500 
 44 H        6.8650    -0.7740    -0.1740 H     1 <1>   0.0800 
 45 H        5.3260    -1.3910    -0.6890 H     1 <1>   0.0800 
 46 H        6.8730    -2.9160     2.9440 H     1 <1>   0.0800 
 47 H        7.8420    -1.7320     2.1210 H     1 <1>   0.0800 
 48 H        7.2340    -2.5050    -1.8450 H     1 <1>   0.0800 
 49 H        6.2540    -3.6460    -0.9520 H     1 <1>   0.0800 
 50 H        7.1410    -4.5040     1.0980 H     1 <1>   0.0800 
 51 H        8.7190    -3.9370     1.5950 H     1 <1>   0.0800 
@<TRIPOS>BOND
  1   1   2  2   
  2   1   3  2   
  3   1   4  am  
  4   1   5  1   
  5   4   6  1   
  6   4   7  1   
  7   5   8  ar  
  8   5   9  ar  
  9   6  10  1   
 10   6  28  1   
 11   6  29  1   
 12   7  11  1   
 13   7  30  1   
 14   7  31  1   
 15   8  12  ar  
 16   8  32  1   
 17   9  13  ar  
 18   9  33  1   
 19  10  14  1   
 20  10  34  1   
 21  10  35  1   
 22  11  14  1   
 23  11  36  1   
 24  11  37  1   
 25  12  15  ar  
 26  12  16  ar  
 27  13  15  ar  
 28  13  38  1   
 29  14  17  1   
 30  14  39  1   
 31  15  18  ar  
 32  16  19  ar  
 33  16  40  1   
 34  17  20  2   
 35  17  21  am  
 36  18  22  ar  
 37  18  41  1   
 38  19  22  ar  
 39  19  42  1   
 40  21  23  1   
 41  21  24  1   
 42  22  43  1   
 43  23  25  1   
 44  23  44  1   
 45  23  45  1   
 46  24  26  1   
 47  24  46  1   
 48  24  47  1   
 49  25  27  1   
 50  25  48  1   
 51  25  49  1   
 52  26  27  1   
 53  26  50  1   
 54  26  51  1   
@<TRIPOS>SUBSTRUCTURE
  1 ****   6 GROUP 4 **** **** 0

# MOE 2024.06 (io_trps.svl 2023.06)
