@<TRIPOS>MOLECULE
Structure490
17 17 1 0 0 
SMALL
USER_CHARGES


@<TRIPOS>ATOM
  1 O       -0.2840    -0.3020     0.0110 O.2   1 <1>  -0.5700 
  2 C       -0.8530    -1.3840     0.0050 C.2   1 <1>   0.7670 
  3 N       -2.2230    -1.3810     0.0050 N.2   1 <1>  -0.6610 
  4 C       -0.1160    -2.6130    -0.0020 C.2   1 <1>  -0.1240 
  5 C       -2.8210    -2.5120    -0.0010 C.2   1 <1>   0.4400 
  6 C       -0.8080    -3.7790    -0.0080 C.2   1 <1>  -0.0500 
  7 C        1.4130    -2.5230    -0.0020 C.3   1 <1>  -0.0220 
  8 N       -2.1770    -3.7150    -0.0070 N.pl3 1 <1>  -0.5500 
  9 C        2.1400    -3.8740    -0.0090 C.3   1 <1>  -0.2400 
 10 H       -3.8970    -2.5410     0.0000 H     1 <1>   0.0600 
 11 H       -0.3500    -4.7540    -0.0130 H     1 <1>   0.1500 
 12 H        1.7230    -1.9690     0.8680 H     1 <1>   0.0800 
 13 H        1.7220    -1.9590    -0.8660 H     1 <1>   0.0800 
 14 H       -2.7400    -4.5700    -0.0120 H     1 <1>   0.4000 
 15 H        1.8840    -4.4450     0.8660 H     1 <1>   0.0800 
 16 H        3.2040    -3.7130    -0.0090 H     1 <1>   0.0800 
 17 H        1.8840    -4.4360    -0.8900 H     1 <1>   0.0800 
@<TRIPOS>BOND
  1   1   2  2   
  2   2   3  1   
  3   2   4  1   
  4   3   5  2   
  5   4   6  2   
  6   4   7  1   
  7   5   8  1   
  8   5  10  1   
  9   6   8  1   
 10   6  11  1   
 11   7   9  1   
 12   7  12  1   
 13   7  13  1   
 14   8  14  1   
 15   9  15  1   
 16   9  16  1   
 17   9  17  1   
@<TRIPOS>SUBSTRUCTURE
  1 ****   4 GROUP 4 **** **** 0

# MOE 2024.06 (io_trps.svl 2023.06)
