@<TRIPOS>MOLECULE
NONAME
52 55 1 0 0 
SMALL
USER_CHARGES


@<TRIPOS>ATOM
  1 O       -1.9760    -0.0050    -1.8980 O.2   1 <1>  -0.5700 
  2 C       -2.6430    -0.8460    -1.3250 C.2   1 <1>   0.7060 
  3 O       -3.8830    -0.5020    -0.9880 O.3   1 <1>  -0.2330 
  4 C       -2.1900    -2.1710    -1.0000 C.2   1 <1>  -0.1240 
  5 C       -4.7230    -1.3000    -0.2960 C.ar  1 <1>   0.0820 
  6 C       -3.0020    -3.0380    -0.3420 C.2   1 <1>  -0.1670 
  7 C       -0.7610    -2.5470    -1.4070 C.3   1 <1>  -0.0220 
  8 C       -4.3130    -2.5920     0.0750 C.ar  1 <1>   0.0280 
  9 C       -5.9780    -0.7920     0.0340 C.ar  1 <1>  -0.1440 
 10 C       -2.5200    -4.4610    -0.0430 C.3   1 <1>  -0.0220 
 11 C        0.1310    -2.7710    -0.1760 C.3   1 <1>  -0.1600 
 12 C       -5.2180    -3.3370     0.8410 C.ar  1 <1>  -0.1500 
 13 C       -6.8610    -1.5800     0.7610 C.ar  1 <1>   0.0830 
 14 C       -6.3550     0.6220    -0.4130 C.3   1 <1>  -0.0960 
 15 C       -1.4260    -4.4580     1.0320 C.3   1 <1>  -0.1600 
 16 C       -0.0270    -4.1570     0.4710 C.3   1 <1>  -0.1600 
 17 C       -6.4630    -2.8500     1.1730 C.ar  1 <1>  -0.1500 
 18 O       -8.0880    -1.0830     1.0460 O.3   1 <1>  -0.3630 
 19 C       -9.1530    -1.9060     1.4990 C.3   1 <1>   0.1810 
 20 C      -10.4840    -1.1570     1.4860 C.2   1 <1>   0.5690 
 21 O      -11.1110    -1.1370     2.5200 O.2   1 <1>  -0.5700 
 22 N      -10.9670    -0.5560     0.3460 N.am  1 <1>  -0.6600 
 23 C      -10.2900    -0.5570    -0.9880 C.3   1 <1>   0.1400 
 24 C      -12.2290     0.2430     0.3600 C.3   1 <1>   0.1400 
 25 C      -11.2940    -0.8600    -2.1130 C.3   1 <1>   0.1200 
 26 C      -13.1180    -0.1160    -0.8410 C.3   1 <1>   0.1200 
 27 O      -12.4010    -0.0070    -2.0380 O.3   1 <1>  -0.5600 
 28 H       -0.3190    -1.7640    -1.9980 H     1 <1>   0.0800 
 29 H       -0.7660    -3.4240    -2.0300 H     1 <1>   0.0800 
 30 H       -2.1420    -4.9130    -0.9420 H     1 <1>   0.0800 
 31 H       -3.3200    -5.0990     0.2710 H     1 <1>   0.0800 
 32 H       -0.0630    -2.0020     0.5530 H     1 <1>   0.0800 
 33 H        1.1580    -2.6660    -0.4820 H     1 <1>   0.0800 
 34 H       -4.9630    -4.3130     1.2020 H     1 <1>   0.1500 
 35 H       -5.5680     1.3100    -0.1590 H     1 <1>   0.0800 
 36 H       -7.2550     0.9740     0.0560 H     1 <1>   0.0800 
 37 H       -6.4950     0.6400    -1.4790 H     1 <1>   0.0800 
 38 H       -1.3960    -5.4320     1.4890 H     1 <1>   0.0800 
 39 H       -1.6760    -3.7480     1.8030 H     1 <1>   0.0800 
 40 H        0.6820    -4.2330     1.2780 H     1 <1>   0.0800 
 41 H        0.2360    -4.9140    -0.2490 H     1 <1>   0.0800 
 42 H       -7.1120    -3.4680     1.7630 H     1 <1>   0.1500 
 43 H       -8.9300    -2.2180     2.5030 H     1 <1>   0.0800 
 44 H       -9.2230    -2.7630     0.8570 H     1 <1>   0.0800 
 45 H       -9.5040    -1.2890    -1.0220 H     1 <1>   0.0800 
 46 H       -9.8490     0.4090    -1.1590 H     1 <1>   0.0800 
 47 H      -11.9840     1.2890     0.3180 H     1 <1>   0.0800 
 48 H      -12.7780     0.0690     1.2690 H     1 <1>   0.0800 
 49 H      -11.6400    -1.8780    -2.0490 H     1 <1>   0.0800 
 50 H      -10.8320    -0.7130    -3.0730 H     1 <1>   0.0800 
 51 H      -13.9550     0.5580    -0.8970 H     1 <1>   0.0800 
 52 H      -13.4900    -1.1210    -0.7490 H     1 <1>   0.0800 
@<TRIPOS>BOND
  1   1   2  2   
  2   2   3  1   
  3   2   4  1   
  4   3   5  1   
  5   4   6  2   
  6   4   7  1   
  7   5   8  ar  
  8   5   9  ar  
  9   6   8  1   
 10   6  10  1   
 11   7  11  1   
 12   7  28  1   
 13   7  29  1   
 14   8  12  ar  
 15   9  13  ar  
 16   9  14  1   
 17  10  15  1   
 18  10  30  1   
 19  10  31  1   
 20  11  16  1   
 21  11  32  1   
 22  11  33  1   
 23  12  17  ar  
 24  12  34  1   
 25  13  17  ar  
 26  13  18  1   
 27  14  35  1   
 28  14  36  1   
 29  14  37  1   
 30  15  16  1   
 31  15  38  1   
 32  15  39  1   
 33  16  40  1   
 34  16  41  1   
 35  17  42  1   
 36  18  19  1   
 37  19  20  1   
 38  19  43  1   
 39  19  44  1   
 40  20  21  2   
 41  20  22  am  
 42  22  23  1   
 43  22  24  1   
 44  23  25  1   
 45  23  45  1   
 46  23  46  1   
 47  24  26  1   
 48  24  47  1   
 49  24  48  1   
 50  25  27  1   
 51  25  49  1   
 52  25  50  1   
 53  26  27  1   
 54  26  51  1   
 55  26  52  1   
@<TRIPOS>SUBSTRUCTURE
  1 ****   9 GROUP 4 **** **** 0

# MOE 2024.06 (io_trps.svl 2023.06)
