@<TRIPOS>MOLECULE
NONAME
48 50 1 0 0 
SMALL
USER_CHARGES


@<TRIPOS>ATOM
  1 F        1.3360    -0.8350    -1.5610 F     1 <1>  -0.1900 
  2 C        2.5050    -0.5900    -1.0250 C.ar  1 <1>   0.1900 
  3 C        2.5720    -0.2990     0.3250 C.ar  1 <1>  -0.1500 
  4 C        3.6280    -0.6330    -1.8290 C.ar  1 <1>  -0.1500 
  5 C        3.8120    -0.0420     0.8820 C.ar  1 <1>  -0.1500 
  6 C        4.8610    -0.3730    -1.2560 C.ar  1 <1>  -0.1500 
  7 C        4.9640    -0.0770     0.1020 C.ar  1 <1>   0.1000 
  8 N        6.1930     0.1840     0.6950 N.pl3 1 <1>  -0.8380 
  9 C        7.1100    -0.9870     0.8310 C.3   1 <1>   0.2090 
 10 C        6.9030     1.4140     0.2210 C.3   1 <1>   0.2090 
 11 C        8.3080    -0.6550     1.7390 C.3   1 <1>   0.1400 
 12 C        8.0920     1.7490     1.1360 C.3   1 <1>   0.1400 
 13 N        9.0140     0.5770     1.2650 N.am  1 <1>  -0.6600 
 14 C       10.1560     0.5160     0.5150 C.2   1 <1>   0.6900 
 15 O       10.3100     1.2640    -0.4320 O.2   1 <1>  -0.5700 
 16 N       11.1100    -0.3910     0.8730 N.am  1 <1>  -0.5470 
 17 C       12.2900    -0.8020     0.2350 C.ar  1 <1>   0.1170 
 18 C       13.2920    -1.3860     1.0000 C.ar  1 <1>  -0.1500 
 19 C       12.4900    -0.6740    -1.1370 C.ar  1 <1>  -0.1500 
 20 C       14.4670    -1.8310     0.4210 C.ar  1 <1>   0.0830 
 21 C       13.6690    -1.0970    -1.7250 C.ar  1 <1>  -0.1500 
 22 O       15.3770    -2.4180     1.2390 O.3   1 <1>  -0.3630 
 23 C       14.6690    -1.6610    -0.9530 C.ar  1 <1>   0.0830 
 24 C       15.7050    -3.7630     0.9640 C.3   1 <1>   0.0400 
 25 O       15.8200    -2.0200    -1.5760 O.3   1 <1>  -0.3630 
 26 C       16.9430    -1.2210    -1.2760 C.3   1 <1>   0.0400 
 27 H        1.6760    -0.2750     0.9180 H     1 <1>   0.1500 
 28 H        3.5350    -0.8630    -2.8750 H     1 <1>   0.1500 
 29 H        3.9050     0.1890     1.9280 H     1 <1>   0.1500 
 30 H        5.7500    -0.4000    -1.8570 H     1 <1>   0.1500 
 31 H        7.4710    -1.2760    -0.1410 H     1 <1>   0.0800 
 32 H        6.5640    -1.8170     1.2460 H     1 <1>   0.0800 
 33 H        6.2140     2.2400     0.2110 H     1 <1>   0.0800 
 34 H        7.2630     1.2640    -0.7820 H     1 <1>   0.0800 
 35 H        8.9760    -1.4970     1.7530 H     1 <1>   0.0800 
 36 H        7.9530    -0.4940     2.7420 H     1 <1>   0.0800 
 37 H        7.7220     2.0180     2.1090 H     1 <1>   0.0800 
 38 H        8.6210     2.5980     0.7390 H     1 <1>   0.0800 
 39 H       10.9960    -0.7080     1.8290 H     1 <1>   0.3700 
 40 H       13.1640    -1.5040     2.0590 H     1 <1>   0.1500 
 41 H       11.7250    -0.2380    -1.7520 H     1 <1>   0.1500 
 42 H       13.8190    -0.9860    -2.7830 H     1 <1>   0.1500 
 43 H       16.2750    -4.1450     1.7900 H     1 <1>   0.0800 
 44 H       16.2900    -3.8110     0.0640 H     1 <1>   0.0800 
 45 H       14.7960    -4.3280     0.8490 H     1 <1>   0.0800 
 46 H       17.7710    -1.5690    -1.8660 H     1 <1>   0.0800 
 47 H       17.1730    -1.3110    -0.2290 H     1 <1>   0.0800 
 48 H       16.7170    -0.1990    -1.5220 H     1 <1>   0.0800 
@<TRIPOS>BOND
  1   1   2  1   
  2   2   3  ar  
  3   2   4  ar  
  4   3   5  ar  
  5   3  27  1   
  6   4   6  ar  
  7   4  28  1   
  8   5   7  ar  
  9   5  29  1   
 10   6   7  ar  
 11   6  30  1   
 12   7   8  1   
 13   8   9  1   
 14   8  10  1   
 15   9  11  1   
 16   9  31  1   
 17   9  32  1   
 18  10  12  1   
 19  10  33  1   
 20  10  34  1   
 21  11  13  1   
 22  11  35  1   
 23  11  36  1   
 24  12  13  1   
 25  12  37  1   
 26  12  38  1   
 27  13  14  am  
 28  14  15  2   
 29  14  16  am  
 30  16  17  1   
 31  16  39  1   
 32  17  18  ar  
 33  17  19  ar  
 34  18  20  ar  
 35  18  40  1   
 36  19  21  ar  
 37  19  41  1   
 38  20  22  1   
 39  20  23  ar  
 40  21  23  ar  
 41  21  42  1   
 42  22  24  1   
 43  23  25  1   
 44  24  43  1   
 45  24  44  1   
 46  24  45  1   
 47  25  26  1   
 48  26  46  1   
 49  26  47  1   
 50  26  48  1   
@<TRIPOS>SUBSTRUCTURE
  1 ****  14 GROUP 4 **** **** 0

# MOE 2024.06 (io_trps.svl 2023.06)
