@<TRIPOS>MOLECULE
NONAME
47 49 1 0 0 
SMALL
USER_CHARGES


@<TRIPOS>ATOM
  1 F        3.1330    -1.8920     1.5390 F     1 <1>  -0.1900 
  2 C        2.8400    -2.2010     0.2980 C.ar  1 <1>   0.1900 
  3 C        3.2250    -1.3250    -0.7170 C.ar  1 <1>   0.1170 
  4 C        2.1660    -3.3830     0.0650 C.ar  1 <1>  -0.1500 
  5 N        3.9070    -0.1350    -0.3860 N.am  1 <1>  -0.5470 
  6 C        2.8920    -1.6910    -2.0190 C.ar  1 <1>  -0.1500 
  7 C        1.8520    -3.7210    -1.2410 C.ar  1 <1>  -0.1500 
  8 C        4.6490     0.7330    -1.1420 C.2   1 <1>   0.5690 
  9 C        2.2160    -2.8740    -2.2760 C.ar  1 <1>  -0.1500 
 10 O        4.8090     0.6120    -2.3320 O.2   1 <1>  -0.5700 
 11 C        5.3300     1.9080    -0.4260 C.3   1 <1>   0.1710 
 12 N        6.7750     1.6950    -0.1130 N.3   1 <1>  -0.8100 
 13 C        7.4300     2.9070     0.4280 C.3   1 <1>   0.1100 
 14 C        7.0460     0.5070     0.7370 C.3   1 <1>   0.1100 
 15 C        8.9630     2.7190     0.5650 C.3   1 <1>   0.3430 
 16 C        8.5570     0.3210     1.0230 C.3   1 <1>   0.3430 
 17 N        9.3710     1.3120     0.2410 N.4   1 <1>  -0.9590 
 18 C       10.8370     1.0770     0.2810 C.3   1 <1>   0.4860 
 19 C       11.1290    -0.3360    -0.1920 C.ar  1 <1>  -0.1430 
 20 C       10.9470    -0.6790    -1.5290 C.ar  1 <1>  -0.1500 
 21 C       11.5750    -1.2920     0.7150 C.ar  1 <1>  -0.1500 
 22 C       11.2020    -1.9720    -1.9580 C.ar  1 <1>  -0.1500 
 23 C       11.8330    -2.5860     0.2950 C.ar  1 <1>  -0.1500 
 24 C       11.6400    -2.9020    -1.0360 C.ar  1 <1>   0.1900 
 25 F       11.8790    -4.1210    -1.4350 F     1 <1>  -0.1900 
 26 H        1.8930    -4.0230     0.8840 H     1 <1>   0.1500 
 27 H        3.8670     0.0690     0.6120 H     1 <1>   0.3700 
 28 H        3.1530    -1.0550    -2.8450 H     1 <1>   0.1500 
 29 H        1.3280    -4.6380    -1.4520 H     1 <1>   0.1500 
 30 H        1.9700    -3.1350    -3.2910 H     1 <1>   0.1500 
 31 H        4.7920     2.1290     0.4790 H     1 <1>   0.0800 
 32 H        5.2400     2.7620    -1.0740 H     1 <1>   0.0800 
 33 H        7.0120     3.1510     1.3900 H     1 <1>   0.0800 
 34 H        7.2430     3.7410    -0.2290 H     1 <1>   0.0800 
 35 H        6.6900    -0.3780     0.2360 H     1 <1>   0.0800 
 36 H        6.5150     0.5880     1.6710 H     1 <1>   0.0800 
 37 H        9.2620     2.9720     1.5690 H     1 <1>   0.0800 
 38 H        9.4560     3.4040    -0.1060 H     1 <1>   0.0800 
 39 H        8.8380    -0.6850     0.7560 H     1 <1>   0.0800 
 40 H        8.7400     0.4450     2.0780 H     1 <1>   0.0800 
 41 H        9.0380     1.1650    -0.7250 H     1 <1>   0.4500 
 42 H       11.2050     1.2090     1.2850 H     1 <1>   0.0800 
 43 H       11.3420     1.7790    -0.3620 H     1 <1>   0.0800 
 44 H       10.6110     0.0470    -2.2500 H     1 <1>   0.1500 
 45 H       11.7310    -1.0440     1.7520 H     1 <1>   0.1500 
 46 H       11.0680    -2.2590    -2.9860 H     1 <1>   0.1500 
 47 H       12.1800    -3.3410     0.9780 H     1 <1>   0.1500 
@<TRIPOS>BOND
  1   1   2  1   
  2   2   3  ar  
  3   2   4  ar  
  4   3   5  1   
  5   3   6  ar  
  6   4   7  ar  
  7   4  26  1   
  8   5   8  am  
  9   5  27  1   
 10   6   9  ar  
 11   6  28  1   
 12   7   9  ar  
 13   7  29  1   
 14   8  10  2   
 15   8  11  1   
 16   9  30  1   
 17  11  12  1   
 18  11  31  1   
 19  11  32  1   
 20  12  13  1   
 21  12  14  1   
 22  13  15  1   
 23  13  33  1   
 24  13  34  1   
 25  14  16  1   
 26  14  35  1   
 27  14  36  1   
 28  15  17  1   
 29  15  37  1   
 30  15  38  1   
 31  16  17  1   
 32  16  39  1   
 33  16  40  1   
 34  17  18  1   
 35  17  41  1   
 36  18  19  1   
 37  18  42  1   
 38  18  43  1   
 39  19  20  ar  
 40  19  21  ar  
 41  20  22  ar  
 42  20  44  1   
 43  21  23  ar  
 44  21  45  1   
 45  22  24  ar  
 46  22  46  1   
 47  23  24  ar  
 48  23  47  1   
 49  24  25  1   
@<TRIPOS>SUBSTRUCTURE
  1 ****  14 GROUP 4 **** **** 0

# MOE 2024.06 (io_trps.svl 2023.06)
