@<TRIPOS>MOLECULE
NONAME
60 64 1 0 0 
SMALL
USER_CHARGES


@<TRIPOS>ATOM
  1 O        0.8420     1.4040     0.3590 O.2   1 <1>  -0.5700 
  2 C        1.8280     2.0400     0.0480 C.2   1 <1>   0.6900 
  3 N        1.8640     3.3990     0.1940 N.am  1 <1>  -0.6600 
  4 N        2.8810     1.3540    -0.4420 N.am  1 <1>  -0.7300 
  5 C        0.8340     4.0970     1.0190 C.3   1 <1>   0.1400 
  6 C        2.4660     4.2840    -0.8490 C.3   1 <1>   0.1400 
  7 C        4.2740     1.5880    -0.0360 C.3   1 <1>   0.2200 
  8 C       -0.2700     4.6950     0.1290 C.3   1 <1>   0.2090 
  9 C        1.3760     4.9100    -1.7390 C.3   1 <1>   0.2090 
 10 C        5.1840     1.4160    -1.2560 C.3   1 <1>  -0.1600 
 11 C        4.6420     0.5950     1.0720 C.3   1 <1>  -0.1600 
 12 N        0.3110     5.5810    -0.9270 N.pl3 1 <1>  -0.8380 
 13 C        6.6640     1.5510    -0.8680 C.3   1 <1>  -0.1600 
 14 C        6.1200     0.7290     1.4680 C.3   1 <1>  -0.1600 
 15 C        0.3610     6.9450    -0.7070 C.ar  1 <1>   0.4100 
 16 C        7.0370     0.5660     0.2480 C.3   1 <1>  -0.1600 
 17 N        1.5520     7.4770    -0.4980 N.ar  1 <1>  -0.3100 
 18 C       -0.8300     7.7110    -0.6810 C.ar  1 <1>   0.0000 
 19 N        1.6750     8.7640    -0.2170 N.ar  1 <1>  -0.3100 
 20 C       -0.6980     9.0640    -0.3440 C.ar  1 <1>   0.0000 
 21 C       -2.1170     7.2100    -0.9770 C.ar  1 <1>  -0.1500 
 22 C        0.6170     9.5420    -0.1360 C.ar  1 <1>   0.3100 
 23 C       -1.8670     9.8540    -0.2420 C.ar  1 <1>  -0.1500 
 24 C       -3.2310     7.9990    -0.8900 C.ar  1 <1>  -0.1500 
 25 C        0.8380    10.9340     0.1700 C.ar  1 <1>   0.0000 
 26 C       -3.1050     9.3360    -0.5080 C.ar  1 <1>  -0.1500 
 27 C        0.6700    11.9210    -0.8010 C.ar  1 <1>  -0.1500 
 28 C        1.2250    11.3380     1.4470 C.ar  1 <1>  -0.1500 
 29 C        0.8660    13.2570    -0.5070 C.ar  1 <1>  -0.1500 
 30 C        1.4230    12.6730     1.7470 C.ar  1 <1>  -0.1500 
 31 C        1.2410    13.6360     0.7700 C.ar  1 <1>  -0.1500 
 32 H        2.6630     0.3690    -0.5730 H     1 <1>   0.3700 
 33 H        1.3050     4.8880     1.5750 H     1 <1>   0.0800 
 34 H        0.3960     3.4120     1.7230 H     1 <1>   0.0800 
 35 H        3.1430     3.7270    -1.4700 H     1 <1>   0.0800 
 36 H        3.0240     5.0680    -0.3680 H     1 <1>   0.0800 
 37 H        4.3800     2.5890     0.3470 H     1 <1>   0.0800 
 38 H       -0.9520     5.2550     0.7450 H     1 <1>   0.0800 
 39 H       -0.8190     3.8950    -0.3360 H     1 <1>   0.0800 
 40 H        0.9260     4.1390    -2.3390 H     1 <1>   0.0800 
 41 H        1.8280     5.6240    -2.4080 H     1 <1>   0.0800 
 42 H        4.9410     2.1590    -1.9940 H     1 <1>   0.0800 
 43 H        5.0240     0.4430    -1.6880 H     1 <1>   0.0800 
 44 H        4.4610    -0.4100     0.7320 H     1 <1>   0.0800 
 45 H        4.0250     0.7790     1.9340 H     1 <1>   0.0800 
 46 H        6.8550     2.5570    -0.5330 H     1 <1>   0.0800 
 47 H        7.2820     1.3700    -1.7310 H     1 <1>   0.0800 
 48 H        6.3640    -0.0160     2.2050 H     1 <1>   0.0800 
 49 H        6.2840     1.6960     1.9110 H     1 <1>   0.0800 
 50 H        8.0610     0.7250     0.5430 H     1 <1>   0.0800 
 51 H        6.9570    -0.4410    -0.1250 H     1 <1>   0.0800 
 52 H       -2.2100     6.1830    -1.2810 H     1 <1>   0.1500 
 53 H       -1.7800    10.8860     0.0500 H     1 <1>   0.1500 
 54 H       -4.2080     7.6050    -1.1120 H     1 <1>   0.1500 
 55 H       -3.9880     9.9460    -0.4310 H     1 <1>   0.1500 
 56 H        0.3840    11.6310    -1.7980 H     1 <1>   0.1500 
 57 H        1.3730    10.5920     2.2080 H     1 <1>   0.1500 
 58 H        0.7300    14.0030    -1.2700 H     1 <1>   0.1500 
 59 H        1.7200    12.9630     2.7390 H     1 <1>   0.1500 
 60 H        1.3950    14.6760     1.0020 H     1 <1>   0.1500 
@<TRIPOS>BOND
  1   1   2  2   
  2   2   3  am  
  3   2   4  am  
  4   3   5  1   
  5   3   6  1   
  6   4   7  1   
  7   4  32  1   
  8   5   8  1   
  9   5  33  1   
 10   5  34  1   
 11   6   9  1   
 12   6  35  1   
 13   6  36  1   
 14   7  10  1   
 15   7  11  1   
 16   7  37  1   
 17   8  12  1   
 18   8  38  1   
 19   8  39  1   
 20   9  12  1   
 21   9  40  1   
 22   9  41  1   
 23  10  13  1   
 24  10  42  1   
 25  10  43  1   
 26  11  14  1   
 27  11  44  1   
 28  11  45  1   
 29  12  15  1   
 30  13  16  1   
 31  13  46  1   
 32  13  47  1   
 33  14  16  1   
 34  14  48  1   
 35  14  49  1   
 36  15  17  ar  
 37  15  18  ar  
 38  16  50  1   
 39  16  51  1   
 40  17  19  ar  
 41  18  20  ar  
 42  18  21  ar  
 43  19  22  ar  
 44  20  22  ar  
 45  20  23  ar  
 46  21  24  ar  
 47  21  52  1   
 48  22  25  1   
 49  23  26  ar  
 50  23  53  1   
 51  24  26  ar  
 52  24  54  1   
 53  25  27  ar  
 54  25  28  ar  
 55  26  55  1   
 56  27  29  ar  
 57  27  56  1   
 58  28  30  ar  
 59  28  57  1   
 60  29  31  ar  
 61  29  58  1   
 62  30  31  ar  
 63  30  59  1   
 64  31  60  1   
@<TRIPOS>SUBSTRUCTURE
  1 ****  17 GROUP 4 **** **** 0

# MOE 2024.06 (io_trps.svl 2023.06)
