@<TRIPOS>MOLECULE
NONAME
35 37 1 0 0 
SMALL
USER_CHARGES


@<TRIPOS>ATOM
  1 O       -2.7210    -1.0780    -0.3790 O.co2 1 <1>  -0.9000 
  2 C       -2.7710     0.0880    -0.7720 C.2   1 <1>   0.9060 
  3 O       -3.4180     0.4220    -1.7710 O.co2 1 <1>  -0.9000 
  4 C       -2.0400     1.1430     0.0290 C.3   1 <1>  -0.1860 
  5 C       -2.8970     1.9090     1.1020 C.3   1 <1>  -0.0190 
  6 C       -1.2680     2.1480    -0.8640 C.3   1 <1>   0.0580 
  7 C       -4.4270     1.7780     1.0860 C.2   1 <1>   0.5690 
  8 C       -2.5330     3.4180     1.0740 C.3   1 <1>   0.0580 
  9 C       -2.2340     3.2400    -1.3110 C.2   1 <1>  -0.2880 
 10 C       -0.2560     2.8670     0.0570 C.3   1 <1>  -0.1600 
 11 O       -4.9790     1.8370     2.1640 O.2   1 <1>  -0.5700 
 12 N       -5.1340     1.6910    -0.0760 N.am  1 <1>  -0.4930 
 13 C       -2.8590     3.8980    -0.3330 C.2   1 <1>  -0.2880 
 14 C       -1.0000     3.5610     1.2360 C.3   1 <1>  -0.1600 
 15 C       -6.5150     1.7180    -0.2780 C.2   1 <1>   0.3520 
 16 N       -7.0580     2.0400    -1.4030 N.2   1 <1>  -0.4100 
 17 C       -7.4990     1.4160     0.6660 C.2   1 <1>  -0.1500 
 18 O       -8.3530     1.9580    -1.2200 O.3   1 <1>  -0.0190 
 19 C       -8.6470     1.5890    -0.0020 C.2   1 <1>  -0.0400 
 20 C      -10.0930     1.4310     0.4140 C.3   1 <1>  -0.0600 
 21 H       -1.2980     0.5830     0.5680 H     1 <1>   0.0800 
 22 H       -2.5940     1.5240     2.0590 H     1 <1>   0.0800 
 23 H       -0.7860     1.6620    -1.6960 H     1 <1>   0.0800 
 24 H       -3.0690     3.9720     1.8260 H     1 <1>   0.0800 
 25 H       -2.3420     3.3850    -2.3720 H     1 <1>   0.1500 
 26 H        0.2720     3.6060    -0.5190 H     1 <1>   0.0800 
 27 H        0.4650     2.1640     0.4350 H     1 <1>   0.0800 
 28 H       -4.5840     1.4760    -0.9300 H     1 <1>   0.3700 
 29 H       -3.5740     4.6960    -0.4350 H     1 <1>   0.1500 
 30 H       -0.6940     3.1260     2.1710 H     1 <1>   0.0800 
 31 H       -0.7430     4.6050     1.2540 H     1 <1>   0.0800 
 32 H       -7.3200     1.1140     1.6800 H     1 <1>   0.1500 
 33 H      -10.1500     1.1240     1.4420 H     1 <1>   0.0800 
 34 H      -10.5670     0.6890    -0.2020 H     1 <1>   0.0800 
 35 H      -10.6080     2.3670     0.2980 H     1 <1>   0.0800 
@<TRIPOS>BOND
  1   1   2  ar  
  2   2   3  ar  
  3   2   4  1   
  4   4   5  1   
  5   4   6  1   
  6   4  21  1   
  7   5   7  1   
  8   5   8  1   
  9   5  22  1   
 10   6   9  1   
 11   6  10  1   
 12   6  23  1   
 13   7  11  2   
 14   7  12  am  
 15   8  13  1   
 16   8  14  1   
 17   8  24  1   
 18   9  13  2   
 19   9  25  1   
 20  10  14  1   
 21  10  26  1   
 22  10  27  1   
 23  12  15  1   
 24  12  28  1   
 25  13  29  1   
 26  14  30  1   
 27  14  31  1   
 28  15  16  2   
 29  15  17  1   
 30  16  18  1   
 31  17  19  2   
 32  17  32  1   
 33  18  19  1   
 34  19  20  1   
 35  20  33  1   
 36  20  34  1   
 37  20  35  1   
@<TRIPOS>SUBSTRUCTURE
  1 ****  12 GROUP 4 **** **** 0

# MOE 2024.06 (io_trps.svl 2023.06)
