@<TRIPOS>MOLECULE
NONAME
30 30 1 0 0 
SMALL
USER_CHARGES


@<TRIPOS>ATOM
  1 O        0.4350     1.3830    -2.0870 O.2   1 <1>  -0.5700 
  2 C       -0.0390     2.0200    -1.1730 C.2   1 <1>   0.5690 
  3 N        0.6630     2.2370    -0.0050 N.am  1 <1>  -0.6600 
  4 C       -1.4350     2.6030    -1.3930 C.3   1 <1>   0.1810 
  5 C        1.9980     1.6180     0.2270 C.3   1 <1>   0.0600 
  6 C        0.1420     3.0130     1.1550 C.3   1 <1>   0.0600 
  7 O       -2.3500     2.1850    -0.3880 O.3   1 <1>  -0.3630 
  8 C       -3.6230     2.6560    -0.3650 C.ar  1 <1>   0.0820 
  9 C       -4.4150     2.2530     0.6990 C.ar  1 <1>  -0.1500 
 10 C       -4.1560     3.5030    -1.3330 C.ar  1 <1>  -0.1500 
 11 C       -5.7240     2.6890     0.8100 C.ar  1 <1>  -0.1500 
 12 C       -5.4650     3.9390    -1.2210 C.ar  1 <1>  -0.1500 
 13 C       -6.2560     3.5400    -0.1560 C.ar  1 <1>   0.0820 
 14 O       -7.5280     4.0180    -0.1270 O.3   1 <1>  -0.3630 
 15 C       -8.4170     3.6610     0.9080 C.3   1 <1>   0.0400 
 16 H       -1.8110     2.2710    -2.3430 H     1 <1>   0.0800 
 17 H       -1.3760     3.6750    -1.3790 H     1 <1>   0.0800 
 18 H        2.2980     1.0180    -0.6160 H     1 <1>   0.0800 
 19 H        1.9590     0.9860     1.0970 H     1 <1>   0.0800 
 20 H        2.7340     2.3870     0.3780 H     1 <1>   0.0800 
 21 H       -0.6170     3.7100     0.8470 H     1 <1>   0.0800 
 22 H        0.9410     3.5680     1.6140 H     1 <1>   0.0800 
 23 H       -0.2790     2.3370     1.8780 H     1 <1>   0.0800 
 24 H       -3.9980     1.5950     1.4390 H     1 <1>   0.1500 
 25 H       -3.5790     3.8320    -2.1760 H     1 <1>   0.1500 
 26 H       -6.3080     2.3580     1.6470 H     1 <1>   0.1500 
 27 H       -5.8860     4.5940    -1.9630 H     1 <1>   0.1500 
 28 H       -9.3570     4.1490     0.7230 H     1 <1>   0.0800 
 29 H       -8.0110     3.9930     1.8470 H     1 <1>   0.0800 
 30 H       -8.5510     2.5940     0.9000 H     1 <1>   0.0800 
@<TRIPOS>BOND
  1   1   2  2   
  2   2   3  am  
  3   2   4  1   
  4   3   5  1   
  5   3   6  1   
  6   4   7  1   
  7   4  16  1   
  8   4  17  1   
  9   5  18  1   
 10   5  19  1   
 11   5  20  1   
 12   6  21  1   
 13   6  22  1   
 14   6  23  1   
 15   7   8  1   
 16   8   9  ar  
 17   8  10  ar  
 18   9  11  ar  
 19   9  24  1   
 20  10  12  ar  
 21  10  25  1   
 22  11  13  ar  
 23  11  26  1   
 24  12  13  ar  
 25  12  27  1   
 26  13  14  1   
 27  14  15  1   
 28  15  28  1   
 29  15  29  1   
 30  15  30  1   
@<TRIPOS>SUBSTRUCTURE
  1 ****   8 GROUP 4 **** **** 0

# MOE 2024.06 (io_trps.svl 2023.06)
