@<TRIPOS>MOLECULE
NONAME
44 45 1 0 0 
SMALL
USER_CHARGES


@<TRIPOS>ATOM
  1 O       -0.2160    -1.1400     2.0580 O.2   1 <1>  -0.5700 
  2 C       -0.3930    -1.7930     1.0550 C.2   1 <1>   0.4950 
  3 C       -1.5490    -1.6580     0.2200 C.2   1 <1>   0.0290 
  4 C        0.7180    -2.7750     0.7220 C.3   1 <1>  -0.0990 
  5 C       -1.6360    -2.4730    -0.9610 C.2   1 <1>   0.4950 
  6 C       -2.5320    -0.7580     0.5770 C.2   1 <1>  -0.0500 
  7 C        0.2330    -3.9790    -0.0940 C.3   1 <1>   0.0000 
  8 O       -2.5520    -2.4480    -1.7540 O.2   1 <1>  -0.5700 
  9 C       -0.5260    -3.4500    -1.3180 C.3   1 <1>  -0.0990 
 10 N       -3.6790    -0.5130    -0.0990 N.pl3 1 <1>  -0.8690 
 11 C       -0.6760    -4.8830     0.7600 C.3   1 <1>  -0.2400 
 12 C        1.4410    -4.8080    -0.5570 C.3   1 <1>  -0.2400 
 13 C       -4.7350     0.4400     0.2690 C.3   1 <1>   0.2890 
 14 C       -6.0390    -0.3310     0.4800 C.3   1 <1>  -0.1600 
 15 C       -4.8730     1.4740    -0.8500 C.3   1 <1>  -0.1600 
 16 C       -7.2130     0.6230     0.7510 C.3   1 <1>  -0.1600 
 17 C       -6.0450     2.4320    -0.5830 C.3   1 <1>  -0.1600 
 18 C       -7.3600     1.6630    -0.3730 C.3   1 <1>  -0.0800 
 19 C       -8.5030     2.6330    -0.0590 C.3   1 <1>  -0.2400 
 20 H        1.4730    -2.2380     0.1770 H     1 <1>   0.0800 
 21 H        1.1660    -3.1160     1.6390 H     1 <1>   0.0800 
 22 H       -2.3910    -0.1830     1.4810 H     1 <1>   0.1500 
 23 H       -0.9530    -4.2750    -1.8610 H     1 <1>   0.0800 
 24 H        0.1500    -2.9450    -1.9830 H     1 <1>   0.0800 
 25 H       -3.8630    -1.0370    -0.9730 H     1 <1>   0.4000 
 26 H       -0.1400    -5.2560     1.6150 H     1 <1>   0.0800 
 27 H       -1.0130    -5.7280     0.1850 H     1 <1>   0.0800 
 28 H       -1.5450    -4.3600     1.1170 H     1 <1>   0.0800 
 29 H        2.1070    -4.2160    -1.1600 H     1 <1>   0.0800 
 30 H        1.1200    -5.6530    -1.1410 H     1 <1>   0.0800 
 31 H        1.9940    -5.1770     0.2900 H     1 <1>   0.0800 
 32 H       -4.4640     0.9400     1.1850 H     1 <1>   0.0800 
 33 H       -6.2540    -0.9130    -0.3990 H     1 <1>   0.0800 
 34 H       -5.9220    -1.0020     1.3120 H     1 <1>   0.0800 
 35 H       -3.9590     2.0350    -0.9270 H     1 <1>   0.0800 
 36 H       -5.0400     0.9660    -1.7840 H     1 <1>   0.0800 
 37 H       -7.0490     1.1270     1.6880 H     1 <1>   0.0800 
 38 H       -8.1210     0.0520     0.8370 H     1 <1>   0.0800 
 39 H       -6.1470     3.1070    -1.4150 H     1 <1>   0.0800 
 40 H       -5.8270     3.0190     0.2930 H     1 <1>   0.0800 
 41 H       -7.6000     1.1440    -1.2870 H     1 <1>   0.0800 
 42 H       -8.3030     3.1740     0.8490 H     1 <1>   0.0800 
 43 H       -9.4270     2.0950     0.0570 H     1 <1>   0.0800 
 44 H       -8.6220     3.3400    -0.8610 H     1 <1>   0.0800 
@<TRIPOS>BOND
  1   1   2  2   
  2   2   3  1   
  3   2   4  1   
  4   3   5  1   
  5   3   6  2   
  6   4   7  1   
  7   4  20  1   
  8   4  21  1   
  9   5   8  2   
 10   5   9  1   
 11   6  10  1   
 12   6  22  1   
 13   7   9  1   
 14   7  11  1   
 15   7  12  1   
 16   9  23  1   
 17   9  24  1   
 18  10  13  1   
 19  10  25  1   
 20  11  26  1   
 21  11  27  1   
 22  11  28  1   
 23  12  29  1   
 24  12  30  1   
 25  12  31  1   
 26  13  14  1   
 27  13  15  1   
 28  13  32  1   
 29  14  16  1   
 30  14  33  1   
 31  14  34  1   
 32  15  17  1   
 33  15  35  1   
 34  15  36  1   
 35  16  18  1   
 36  16  37  1   
 37  16  38  1   
 38  17  18  1   
 39  17  39  1   
 40  17  40  1   
 41  18  19  1   
 42  18  41  1   
 43  19  42  1   
 44  19  43  1   
 45  19  44  1   
@<TRIPOS>SUBSTRUCTURE
  1 ****   6 GROUP 4 **** **** 0

# MOE 2024.06 (io_trps.svl 2023.06)
