@<TRIPOS>MOLECULE
NONAME
51 53 1 0 0 
SMALL
USER_CHARGES


@<TRIPOS>ATOM
  1 O        0.8120     0.0480    -0.5860 O.2   1 <1>  -0.5700 
  2 C        1.1090     1.2290    -0.5970 C.2   1 <1>   0.5440 
  3 N        0.1030     2.1620    -0.7480 N.am  1 <1>  -0.6600 
  4 C        2.4990     1.6110    -0.4390 C.ar  1 <1>   0.0860 
  5 C       -1.2760     1.7790    -1.1790 C.3   1 <1>   0.1400 
  6 C        0.1940     3.5730    -0.2630 C.3   1 <1>   0.1400 
  7 C        3.3040     1.0080     0.5280 C.ar  1 <1>  -0.1500 
  8 C        3.0970     2.5810    -1.2450 C.ar  1 <1>  -0.1500 
  9 C       -2.3080     2.1800    -0.1130 C.3   1 <1>   0.1200 
 10 C       -0.9330     3.8770     0.7400 C.3   1 <1>   0.1200 
 11 C        4.6270     1.3690     0.6960 C.ar  1 <1>  -0.1500 
 12 C        4.4190     2.9450    -1.0790 C.ar  1 <1>  -0.1500 
 13 O       -2.1820     3.5380     0.2080 O.3   1 <1>  -0.5600 
 14 C        5.2090     2.3490    -0.1000 C.ar  1 <1>   0.1170 
 15 N        6.5540     2.6780     0.1030 N.am  1 <1>  -0.5470 
 16 C        7.2510     3.8140    -0.2060 C.2   1 <1>   0.5690 
 17 O        6.7550     4.7910    -0.7090 O.2   1 <1>  -0.5700 
 18 C        8.7320     3.8430     0.1080 C.3   1 <1>  -0.0990 
 19 C        9.5700     3.6180    -1.1550 C.3   1 <1>  -0.0170 
 20 C       11.0500     3.5990    -0.8100 C.ar  1 <1>  -0.1430 
 21 C       11.7550     4.7880    -0.7000 C.ar  1 <1>  -0.1500 
 22 C       11.7090     2.3980    -0.6000 C.ar  1 <1>  -0.1500 
 23 C       13.1020     4.7810    -0.3820 C.ar  1 <1>  -0.1500 
 24 C       13.0560     2.3880    -0.2820 C.ar  1 <1>  -0.1500 
 25 C       13.7620     3.5740    -0.1700 C.ar  1 <1>   0.0830 
 26 O       15.0780     3.4750     0.1440 O.3   1 <1>  -0.3630 
 27 C       15.8910     4.6210     0.2600 C.3   1 <1>   0.0400 
 28 H       -1.3420     0.7200    -1.3570 H     1 <1>   0.0800 
 29 H       -1.5090     2.2810    -2.1010 H     1 <1>   0.0800 
 30 H        0.1110     4.2420    -1.1010 H     1 <1>   0.0800 
 31 H        1.1400     3.7510     0.2170 H     1 <1>   0.0800 
 32 H        2.8710     0.2430     1.1500 H     1 <1>   0.1500 
 33 H        2.5110     3.0500    -2.0170 H     1 <1>   0.1500 
 34 H       -2.1700     1.5970     0.7810 H     1 <1>   0.0800 
 35 H       -3.3050     2.0200    -0.4820 H     1 <1>   0.0800 
 36 H       -0.9500     4.9260     0.9730 H     1 <1>   0.0800 
 37 H       -0.7860     3.3230     1.6520 H     1 <1>   0.0800 
 38 H        5.2120     0.8830     1.4550 H     1 <1>   0.1500 
 39 H        4.8400     3.6950    -1.7240 H     1 <1>   0.1500 
 40 H        7.0930     1.9690     0.5960 H     1 <1>   0.3700 
 41 H        8.9690     3.0940     0.8410 H     1 <1>   0.0800 
 42 H        8.9720     4.8030     0.5290 H     1 <1>   0.0800 
 43 H        9.3740     4.4050    -1.8630 H     1 <1>   0.0800 
 44 H        9.2920     2.6870    -1.6180 H     1 <1>   0.0800 
 45 H       11.2540     5.7270    -0.8620 H     1 <1>   0.1500 
 46 H       11.1810     1.4640    -0.6830 H     1 <1>   0.1500 
 47 H       13.6180     5.7190    -0.3040 H     1 <1>   0.1500 
 48 H       13.5710     1.4580    -0.1190 H     1 <1>   0.1500 
 49 H       16.8870     4.3000     0.5060 H     1 <1>   0.0800 
 50 H       15.5040     5.2450     1.0460 H     1 <1>   0.0800 
 51 H       15.8970     5.1420    -0.6810 H     1 <1>   0.0800 
@<TRIPOS>BOND
  1   1   2  2   
  2   2   3  am  
  3   2   4  1   
  4   3   5  1   
  5   3   6  1   
  6   4   7  ar  
  7   4   8  ar  
  8   5   9  1   
  9   5  28  1   
 10   5  29  1   
 11   6  10  1   
 12   6  30  1   
 13   6  31  1   
 14   7  11  ar  
 15   7  32  1   
 16   8  12  ar  
 17   8  33  1   
 18   9  13  1   
 19   9  34  1   
 20   9  35  1   
 21  10  13  1   
 22  10  36  1   
 23  10  37  1   
 24  11  14  ar  
 25  11  38  1   
 26  12  14  ar  
 27  12  39  1   
 28  14  15  1   
 29  15  16  am  
 30  15  40  1   
 31  16  17  2   
 32  16  18  1   
 33  18  19  1   
 34  18  41  1   
 35  18  42  1   
 36  19  20  1   
 37  19  43  1   
 38  19  44  1   
 39  20  21  ar  
 40  20  22  ar  
 41  21  23  ar  
 42  21  45  1   
 43  22  24  ar  
 44  22  46  1   
 45  23  25  ar  
 46  23  47  1   
 47  24  25  ar  
 48  24  48  1   
 49  25  26  1   
 50  26  27  1   
 51  27  49  1   
 52  27  50  1   
 53  27  51  1   
@<TRIPOS>SUBSTRUCTURE
  1 ****  15 GROUP 4 **** **** 0

# MOE 2024.06 (io_trps.svl 2023.06)
