@<TRIPOS>MOLECULE
NONAME
45 46 1 0 0 
SMALL
USER_CHARGES


@<TRIPOS>ATOM
  1 O        0.5450     0.8990    -2.4770 O.2   1 <1>  -0.5700 
  2 C        0.3320     1.6570    -1.5640 C.2   1 <1>   0.5690 
  3 N        1.1880     1.8540    -0.5200 N.am  1 <1>  -0.5470 
  4 C       -0.9490     2.4680    -1.5740 C.3   1 <1>  -0.0990 
  5 C        2.4490     1.3000    -0.2170 C.ar  1 <1>   0.1170 
  6 C       -1.9100     2.0470    -0.4460 C.3   1 <1>  -0.1600 
  7 C        3.3030     1.9920     0.6570 C.ar  1 <1>   0.1170 
  8 C        2.8670     0.0780    -0.7300 C.ar  1 <1>  -0.1500 
  9 C       -3.2640     2.7800    -0.4870 C.3   1 <1>  -0.0800 
 10 N        2.9410     3.2380     1.1990 N.am  1 <1>  -0.5470 
 11 C        4.5310     1.4440     0.9990 C.ar  1 <1>  -0.1500 
 12 C        4.0970    -0.4560    -0.3880 C.ar  1 <1>  -0.1500 
 13 C       -3.1160     4.2930    -0.2310 C.3   1 <1>  -0.1600 
 14 C       -4.2170     2.1560     0.5490 C.3   1 <1>  -0.1600 
 15 C        2.8280     4.4340     0.5690 C.2   1 <1>   0.5690 
 16 C        4.9300     0.2260     0.4790 C.ar  1 <1>  -0.1500 
 17 C       -4.4780     5.0010    -0.2030 C.3   1 <1>  -0.1600 
 18 C       -5.5790     2.8630     0.5690 C.3   1 <1>  -0.1600 
 19 O        2.3810     5.3820     1.1580 O.2   1 <1>  -0.5700 
 20 C        3.2520     4.5880    -0.8730 C.3   1 <1>  -0.1790 
 21 C       -5.4160     4.3650     0.8290 C.3   1 <1>  -0.1600 
 22 H        0.9000     2.5790     0.1370 H     1 <1>   0.3700 
 23 H       -1.4320     2.3300    -2.5250 H     1 <1>   0.0800 
 24 H       -0.6880     3.5060    -1.4850 H     1 <1>   0.0800 
 25 H       -1.4450     2.2120     0.5110 H     1 <1>   0.0800 
 26 H       -2.0880     0.9890    -0.5400 H     1 <1>   0.0800 
 27 H        2.2300    -0.4720    -1.3990 H     1 <1>   0.1500 
 28 H       -3.6990     2.6410    -1.4630 H     1 <1>   0.0800 
 29 H        2.7680     3.2820     2.2040 H     1 <1>   0.3700 
 30 H        5.1810     1.9750     1.6710 H     1 <1>   0.1500 
 31 H        4.4020    -1.4040    -0.7980 H     1 <1>   0.1500 
 32 H       -2.5190     4.7460    -1.0010 H     1 <1>   0.0800 
 33 H       -2.6190     4.4520     0.7110 H     1 <1>   0.0800 
 34 H       -3.7750     2.2210     1.5290 H     1 <1>   0.0800 
 35 H       -4.3670     1.1150     0.3240 H     1 <1>   0.0800 
 36 H        5.8860    -0.1910     0.7470 H     1 <1>   0.1500 
 37 H       -4.9300     4.9410    -1.1780 H     1 <1>   0.0800 
 38 H       -4.3380     6.0420     0.0320 H     1 <1>   0.0800 
 39 H       -6.1980     2.4300     1.3350 H     1 <1>   0.0800 
 40 H       -6.0710     2.7150    -0.3770 H     1 <1>   0.0800 
 41 H        2.5150     4.1530    -1.5210 H     1 <1>   0.0800 
 42 H        4.1960     4.1030    -1.0340 H     1 <1>   0.0800 
 43 H        3.3520     5.6310    -1.1110 H     1 <1>   0.0800 
 44 H       -6.3790     4.8450     0.7860 H     1 <1>   0.0800 
 45 H       -5.0160     4.5150     1.8170 H     1 <1>   0.0800 
@<TRIPOS>BOND
  1   1   2  2   
  2   2   3  am  
  3   2   4  1   
  4   3   5  1   
  5   3  22  1   
  6   4   6  1   
  7   4  23  1   
  8   4  24  1   
  9   5   7  ar  
 10   5   8  ar  
 11   6   9  1   
 12   6  25  1   
 13   6  26  1   
 14   7  10  1   
 15   7  11  ar  
 16   8  12  ar  
 17   8  27  1   
 18   9  13  1   
 19   9  14  1   
 20   9  28  1   
 21  10  15  am  
 22  10  29  1   
 23  11  16  ar  
 24  11  30  1   
 25  12  16  ar  
 26  12  31  1   
 27  13  17  1   
 28  13  32  1   
 29  13  33  1   
 30  14  18  1   
 31  14  34  1   
 32  14  35  1   
 33  15  19  2   
 34  15  20  1   
 35  16  36  1   
 36  17  21  1   
 37  17  37  1   
 38  17  38  1   
 39  18  21  1   
 40  18  39  1   
 41  18  40  1   
 42  20  41  1   
 43  20  42  1   
 44  20  43  1   
 45  21  44  1   
 46  21  45  1   
@<TRIPOS>SUBSTRUCTURE
  1 ****   3 GROUP 4 **** **** 0

# MOE 2024.06 (io_trps.svl 2023.06)
