@<TRIPOS>MOLECULE
NONAME
39 40 1 0 0 
SMALL
USER_CHARGES


@<TRIPOS>ATOM
  1 S       -0.6390     0.0720     0.7800 S.3   1 <1>  -0.0800 
  2 C        1.0850     0.3150     0.4960 C.ar  1 <1>   0.2970 
  3 C       -1.0250     1.6910     0.1810 C.2   1 <1>  -0.1400 
  4 N        2.0070    -0.5820     0.7790 N.ar  1 <1>  -0.5670 
  5 C        1.3030     1.5550    -0.0450 C.ar  1 <1>   0.0000 
  6 C        0.0980     2.3260    -0.2040 C.2   1 <1>  -0.1500 
  7 C       -2.4890     2.0930     0.2080 C.3   1 <1>   0.0200 
  8 C        3.2250    -0.1610     0.4890 C.ar  1 <1>   0.4770 
  9 C        2.6330     1.8500    -0.3220 C.ar  1 <1>   0.4100 
 10 C       -2.7020     3.5150    -0.3180 C.3   1 <1>  -0.2400 
 11 N        3.5980     0.9960    -0.0380 N.ar  1 <1>  -0.6200 
 12 C        4.3530    -1.1170     0.7930 C.3   1 <1>  -0.0960 
 13 N        2.9780     3.0330    -0.9030 N.pl3 1 <1>  -0.8690 
 14 C        3.7410     4.0590    -0.1210 C.3   1 <1>   0.1830 
 15 C        2.8550     5.2920     0.2030 C.2   1 <1>   0.9060 
 16 C        5.0040     4.4030    -0.9260 C.3   1 <1>  -0.1600 
 17 O        1.7890     5.4340    -0.4230 O.co2 1 <1>  -0.9000 
 18 O        3.2100     6.0940     1.0790 O.co2 1 <1>  -0.9000 
 19 C        5.8640     5.4480    -0.2120 C.3   1 <1>   0.0700 
 20 S        7.4230     5.6380    -1.1210 S.3   1 <1>  -0.4600 
 21 C        8.1850     7.0550    -0.2930 C.3   1 <1>  -0.0100 
 22 H        0.1570     3.3310    -0.5920 H     1 <1>   0.1500 
 23 H       -2.8480     2.0300     1.2200 H     1 <1>   0.0800 
 24 H       -3.0530     1.4010    -0.3920 H     1 <1>   0.0800 
 25 H       -2.1470     4.2190     0.2800 H     1 <1>   0.0800 
 26 H       -3.7440     3.7740    -0.2770 H     1 <1>   0.0800 
 27 H       -2.3650     3.5900    -1.3370 H     1 <1>   0.0800 
 28 H        3.9740    -2.0370     1.1960 H     1 <1>   0.0800 
 29 H        5.0180    -0.6660     1.5050 H     1 <1>   0.0800 
 30 H        4.8950    -1.3250    -0.1110 H     1 <1>   0.0800 
 31 H        2.1740     3.5660    -1.2770 H     1 <1>   0.4000 
 32 H        4.0360     3.6330     0.8200 H     1 <1>   0.0800 
 33 H        4.7150     4.7860    -1.8890 H     1 <1>   0.0800 
 34 H        5.5760     3.5040    -1.0630 H     1 <1>   0.0800 
 35 H        6.1070     5.1420     0.7900 H     1 <1>   0.0800 
 36 H        5.3810     6.4100    -0.1940 H     1 <1>   0.0800 
 37 H        9.1280     7.2470    -0.7730 H     1 <1>   0.0800 
 38 H        8.3230     6.7990     0.7420 H     1 <1>   0.0800 
 39 H        7.5210     7.8950    -0.3980 H     1 <1>   0.0800 
@<TRIPOS>BOND
  1   1   2  1   
  2   1   3  1   
  3   2   4  ar  
  4   2   5  ar  
  5   3   6  2   
  6   3   7  1   
  7   4   8  ar  
  8   5   6  1   
  9   5   9  ar  
 10   6  22  1   
 11   7  10  1   
 12   7  23  1   
 13   7  24  1   
 14   8  11  ar  
 15   8  12  1   
 16   9  11  ar  
 17   9  13  1   
 18  10  25  1   
 19  10  26  1   
 20  10  27  1   
 21  12  28  1   
 22  12  29  1   
 23  12  30  1   
 24  13  14  1   
 25  13  31  1   
 26  14  15  1   
 27  14  16  1   
 28  14  32  1   
 29  15  17  ar  
 30  15  18  ar  
 31  16  19  1   
 32  16  33  1   
 33  16  34  1   
 34  19  20  1   
 35  19  35  1   
 36  19  36  1   
 37  20  21  1   
 38  21  37  1   
 39  21  38  1   
 40  21  39  1   
@<TRIPOS>SUBSTRUCTURE
  1 ****   9 GROUP 4 **** **** 0

# MOE 2024.06 (io_trps.svl 2023.06)
