@<TRIPOS>MOLECULE
NONAME
38 40 1 0 0 
SMALL
USER_CHARGES


@<TRIPOS>ATOM
  1 O       -0.2320    -0.5990     1.6290 O.2   1 <1>  -0.5700 
  2 C       -0.3170    -1.5650     0.9120 C.2   1 <1>   0.5690 
  3 N       -1.3940    -1.8330     0.1300 N.am  1 <1>  -0.7300 
  4 C        0.8420    -2.5190     0.8650 C.3   1 <1>  -0.0380 
  5 C       -2.6260    -1.0470    -0.0400 C.3   1 <1>   0.3000 
  6 C        1.4080    -2.5040    -0.5300 C.2   1 <1>   0.4480 
  7 C       -3.3800    -0.9090     1.2960 C.3   1 <1>  -0.1600 
  8 C       -3.5220    -1.7980    -1.0420 C.3   1 <1>  -0.1600 
  9 C       -2.3070     0.3500    -0.6070 C.3   1 <1>  -0.1600 
 10 O        1.1240    -3.3560    -1.3150 O.2   1 <1>  -0.5700 
 11 C        2.3290    -1.3620    -0.9020 C.3   1 <1>  -0.1790 
 12 C       -4.6890    -0.1240     1.0830 C.3   1 <1>  -0.0800 
 13 C       -4.8350    -1.0250    -1.2710 C.3   1 <1>  -0.0800 
 14 C       -3.6130     1.1390    -0.8260 C.3   1 <1>  -0.0800 
 15 C       -5.5740    -0.8790     0.0720 C.3   1 <1>  -0.1600 
 16 C       -4.3550     1.2710     0.5190 C.3   1 <1>  -0.1600 
 17 C       -4.5050     0.3750    -1.8230 C.3   1 <1>  -0.1600 
 18 H       -1.3380    -2.6330    -0.5050 H     1 <1>   0.3700 
 19 H        0.4990    -3.5060     1.1090 H     1 <1>   0.0800 
 20 H        1.5930    -2.2290     1.5760 H     1 <1>   0.0800 
 21 H       -2.7720    -0.3850     2.0110 H     1 <1>   0.0800 
 22 H       -3.6010    -1.8830     1.6940 H     1 <1>   0.0800 
 23 H       -3.7500    -2.7790    -0.6640 H     1 <1>   0.0800 
 24 H       -3.0080    -1.9080    -1.9810 H     1 <1>   0.0800 
 25 H       -1.7790     0.2550    -1.5390 H     1 <1>   0.0800 
 26 H       -1.6830     0.8920     0.0810 H     1 <1>   0.0800 
 27 H        3.2030    -1.3760    -0.2780 H     1 <1>   0.0800 
 28 H        1.8190    -0.4240    -0.7800 H     1 <1>   0.0800 
 29 H        2.6320    -1.4610    -1.9280 H     1 <1>   0.0800 
 30 H       -5.2100    -0.0230     2.0200 H     1 <1>   0.0800 
 31 H       -5.4550    -1.5560    -1.9730 H     1 <1>   0.0800 
 32 H       -3.3860     2.1170    -1.2140 H     1 <1>   0.0800 
 33 H       -6.4950    -0.3420    -0.0750 H     1 <1>   0.0800 
 34 H       -5.8230    -1.8510     0.4610 H     1 <1>   0.0800 
 35 H       -3.7410     1.8090     1.2210 H     1 <1>   0.0800 
 36 H       -5.2610     1.8340     0.3800 H     1 <1>   0.0800 
 37 H       -5.4160     0.9250    -1.9900 H     1 <1>   0.0800 
 38 H       -4.0010     0.2860    -2.7690 H     1 <1>   0.0800 
@<TRIPOS>BOND
  1   1   2  2   
  2   2   3  am  
  3   2   4  1   
  4   3   5  1   
  5   3  18  1   
  6   4   6  1   
  7   4  19  1   
  8   4  20  1   
  9   5   7  1   
 10   5   8  1   
 11   5   9  1   
 12   6  10  2   
 13   6  11  1   
 14   7  12  1   
 15   7  21  1   
 16   7  22  1   
 17   8  13  1   
 18   8  23  1   
 19   8  24  1   
 20   9  14  1   
 21   9  25  1   
 22   9  26  1   
 23  11  27  1   
 24  11  28  1   
 25  11  29  1   
 26  12  15  1   
 27  12  16  1   
 28  12  30  1   
 29  13  15  1   
 30  13  17  1   
 31  13  31  1   
 32  14  16  1   
 33  14  17  1   
 34  14  32  1   
 35  15  33  1   
 36  15  34  1   
 37  16  35  1   
 38  16  36  1   
 39  17  37  1   
 40  17  38  1   
@<TRIPOS>SUBSTRUCTURE
  1 ****   5 GROUP 4 **** **** 0

# MOE 2024.06 (io_trps.svl 2023.06)
