@<TRIPOS>MOLECULE
NONAME
40 42 1 0 0 
SMALL
USER_CHARGES


@<TRIPOS>ATOM
  1 BR      -0.3520     0.2640    -0.0910 Br    1 <1>  -0.1110 
  2 C       -2.1390     0.9810    -0.0890 C.ar  1 <1>   0.1110 
  3 C       -2.7530     1.2400     1.1210 C.ar  1 <1>  -0.1500 
  4 C       -2.7650     1.2180    -1.2970 C.ar  1 <1>  -0.1500 
  5 C       -4.0370     1.7560     1.1140 C.ar  1 <1>  -0.1500 
  6 C       -4.0490     1.7330    -1.2870 C.ar  1 <1>  -0.1500 
  7 C       -4.7000     2.0120    -0.0850 C.ar  1 <1>   0.1170 
  8 N       -6.0070     2.5200    -0.0330 N.am  1 <1>  -0.5470 
  9 C       -6.7320     3.2330    -0.9530 C.2   1 <1>   0.5690 
 10 O       -6.2690     3.6190    -2.0000 O.2   1 <1>  -0.5700 
 11 C       -8.1760     3.6160    -0.5960 C.3   1 <1>   0.1710 
 12 N       -9.2180     2.5640    -0.7850 N.3   1 <1>  -0.8100 
 13 C       -9.0220     1.3770     0.0650 C.3   1 <1>   0.1100 
 14 C      -10.5560     3.1510    -0.5960 C.3   1 <1>   0.1100 
 15 C      -10.0540     0.3040    -0.2820 C.3   1 <1>  -0.1600 
 16 C      -11.6360     2.1370    -0.9680 C.3   1 <1>  -0.1600 
 17 C      -11.4680     0.8630    -0.1530 C.3   1 <1>   0.5600 
 18 O      -12.4080    -0.0710    -0.5620 O.3   1 <1>  -0.5600 
 19 O      -11.7640     1.1260     1.1820 O.3   1 <1>  -0.5600 
 20 C      -12.8040    -0.8160     0.5290 C.3   1 <1>   0.1200 
 21 C      -12.4440     0.0490     1.7210 C.3   1 <1>   0.1200 
 22 H       -2.2340     1.0430     2.0420 H     1 <1>   0.1500 
 23 H       -2.2600     1.0060    -2.2230 H     1 <1>   0.1500 
 24 H       -4.5240     1.9660     2.0480 H     1 <1>   0.1500 
 25 H       -4.5480     1.9150    -2.2220 H     1 <1>   0.1500 
 26 H       -6.5030     2.3250     0.8330 H     1 <1>   0.3700 
 27 H       -8.4290     4.4560    -1.2200 H     1 <1>   0.0800 
 28 H       -8.1980     3.9590     0.4220 H     1 <1>   0.0800 
 29 H       -9.1130     1.6490     1.1040 H     1 <1>   0.0800 
 30 H       -8.0460     0.9590    -0.1050 H     1 <1>   0.0800 
 31 H      -10.6650     4.0170    -1.2280 H     1 <1>   0.0800 
 32 H      -10.6820     3.4570     0.4290 H     1 <1>   0.0800 
 33 H       -9.9270    -0.5460     0.3600 H     1 <1>   0.0800 
 34 H       -9.8920    -0.0080    -1.2980 H     1 <1>   0.0800 
 35 H      -11.5460     1.9040    -2.0130 H     1 <1>   0.0800 
 36 H      -12.6100     2.5510    -0.7890 H     1 <1>   0.0800 
 37 H      -12.2590    -1.7430     0.5350 H     1 <1>   0.0800 
 38 H      -13.8610    -1.0040     0.4650 H     1 <1>   0.0800 
 39 H      -13.3190     0.4120     2.2300 H     1 <1>   0.0800 
 40 H      -11.7990    -0.4690     2.4100 H     1 <1>   0.0800 
@<TRIPOS>BOND
  1   1   2  1   
  2   2   3  ar  
  3   2   4  ar  
  4   3   5  ar  
  5   3  22  1   
  6   4   6  ar  
  7   4  23  1   
  8   5   7  ar  
  9   5  24  1   
 10   6   7  ar  
 11   6  25  1   
 12   7   8  1   
 13   8   9  am  
 14   8  26  1   
 15   9  10  2   
 16   9  11  1   
 17  11  12  1   
 18  11  27  1   
 19  11  28  1   
 20  12  13  1   
 21  12  14  1   
 22  13  15  1   
 23  13  29  1   
 24  13  30  1   
 25  14  16  1   
 26  14  31  1   
 27  14  32  1   
 28  15  17  1   
 29  15  33  1   
 30  15  34  1   
 31  16  17  1   
 32  16  35  1   
 33  16  36  1   
 34  17  18  1   
 35  17  19  1   
 36  18  20  1   
 37  19  21  1   
 38  20  21  1   
 39  20  37  1   
 40  20  38  1   
 41  21  39  1   
 42  21  40  1   
@<TRIPOS>SUBSTRUCTURE
  1 ****  13 GROUP 4 **** **** 0

# MOE 2024.06 (io_trps.svl 2023.06)
