@<TRIPOS>MOLECULE
NONAME
41 43 1 0 0 
SMALL
USER_CHARGES


@<TRIPOS>ATOM
  1 S        0.0170     0.3070     0.1990 S.o2  1 <1>   1.0900 
  2 O        0.7100    -0.6000     1.0860 O.2   1 <1>  -0.6500 
  3 O        0.5610     1.5930    -0.1660 O.2   1 <1>  -0.6500 
  4 C       -0.4770    -0.5960    -1.2320 C.3   1 <1>  -0.0550 
  5 C       -1.6510     0.4700     0.7610 C.3   1 <1>  -0.0550 
  6 C       -1.5750    -1.5250    -0.7330 C.3   1 <1>   0.2000 
  7 C       -2.3280    -0.8750     0.4720 C.3   1 <1>   0.1900 
  8 O       -0.9740    -2.7050    -0.3130 O.3   1 <1>  -0.6800 
  9 N       -3.7820    -0.7140     0.2130 N.3   1 <1>  -0.8100 
 10 C       -4.4820     0.0420     1.2780 C.3   1 <1>   0.1100 
 11 C       -4.4340    -2.0350     0.0460 C.3   1 <1>   0.1100 
 12 C       -5.9370     0.2950     0.8770 C.3   1 <1>  -0.1600 
 13 C       -5.8830    -1.8570    -0.4080 C.3   1 <1>  -0.1600 
 14 C       -6.6740    -1.0200     0.6030 C.3   1 <1>   0.0630 
 15 C       -8.1060    -0.7750     0.1320 C.ar  1 <1>  -0.1430 
 16 C       -8.3690    -0.0790    -1.0410 C.ar  1 <1>  -0.1500 
 17 C       -9.1720    -1.2500     0.8820 C.ar  1 <1>  -0.1500 
 18 C       -9.6710     0.1370    -1.4550 C.ar  1 <1>  -0.1500 
 19 C      -10.4750    -1.0360     0.4700 C.ar  1 <1>  -0.1500 
 20 C      -10.7270    -0.3420    -0.7000 C.ar  1 <1>  -0.1500 
 21 H        0.3340    -1.1340    -1.6860 H     1 <1>   0.0800 
 22 H       -0.8980     0.0800    -1.9510 H     1 <1>   0.0800 
 23 H       -2.1360     1.2410     0.1940 H     1 <1>   0.0800 
 24 H       -1.6860     0.7090     1.8060 H     1 <1>   0.0800 
 25 H       -2.2390    -1.7660    -1.5450 H     1 <1>   0.0800 
 26 H       -2.2000    -1.5060     1.3370 H     1 <1>   0.0800 
 27 H       -0.2730    -2.5270     0.3550 H     1 <1>   0.4000 
 28 H       -4.0210     1.0000     1.4340 H     1 <1>   0.0800 
 29 H       -4.4450    -0.5070     2.2040 H     1 <1>   0.0800 
 30 H       -4.4050    -2.5770     0.9770 H     1 <1>   0.0800 
 31 H       -3.9250    -2.6280    -0.6930 H     1 <1>   0.0800 
 32 H       -5.9460     0.9180     0.0010 H     1 <1>   0.0800 
 33 H       -6.4400     0.8280     1.6640 H     1 <1>   0.0800 
 34 H       -6.3470    -2.8200    -0.5150 H     1 <1>   0.0800 
 35 H       -5.8840    -1.3820    -1.3730 H     1 <1>   0.0800 
 36 H       -6.7060    -1.5730     1.5260 H     1 <1>   0.0800 
 37 H       -7.5590     0.2990    -1.6400 H     1 <1>   0.1500 
 38 H       -8.9950    -1.7920     1.7940 H     1 <1>   0.1500 
 39 H       -9.8630     0.6770    -2.3660 H     1 <1>   0.1500 
 40 H      -11.2940    -1.4090     1.0590 H     1 <1>   0.1500 
 41 H      -11.7390    -0.1750    -1.0220 H     1 <1>   0.1500 
@<TRIPOS>BOND
  1   1   2  2   
  2   1   3  2   
  3   1   4  1   
  4   1   5  1   
  5   4   6  1   
  6   4  21  1   
  7   4  22  1   
  8   5   7  1   
  9   5  23  1   
 10   5  24  1   
 11   6   7  1   
 12   6   8  1   
 13   6  25  1   
 14   7   9  1   
 15   7  26  1   
 16   8  27  1   
 17   9  10  1   
 18   9  11  1   
 19  10  12  1   
 20  10  28  1   
 21  10  29  1   
 22  11  13  1   
 23  11  30  1   
 24  11  31  1   
 25  12  14  1   
 26  12  32  1   
 27  12  33  1   
 28  13  14  1   
 29  13  34  1   
 30  13  35  1   
 31  14  15  1   
 32  14  36  1   
 33  15  16  ar  
 34  15  17  ar  
 35  16  18  ar  
 36  16  37  1   
 37  17  19  ar  
 38  17  38  1   
 39  18  20  ar  
 40  18  39  1   
 41  19  20  ar  
 42  19  40  1   
 43  20  41  1   
@<TRIPOS>SUBSTRUCTURE
  1 ****   9 GROUP 4 **** **** 0

# MOE 2024.06 (io_trps.svl 2023.06)
