@<TRIPOS>MOLECULE
NONAME
38 40 1 0 0 
SMALL
USER_CHARGES


@<TRIPOS>ATOM
  1 O        0.1240     0.3880     0.0900 O.3   1 <1>  -0.6800 
  2 C        1.0110    -0.4950    -0.5140 C.3   1 <1>   0.2000 
  3 C        0.3200    -1.8630    -0.7410 C.3   1 <1>   0.0000 
  4 C        2.2670    -0.6920     0.3700 C.3   1 <1>   0.0000 
  5 C        1.3320    -2.7730    -1.4590 C.3   1 <1>   0.3430 
  6 C        0.0140    -2.5030     0.6290 C.3   1 <1>   0.1100 
  7 C       -0.9630    -1.7370    -1.5860 C.3   1 <1>  -0.2400 
  8 C        3.2120    -1.6440    -0.3870 C.3   1 <1>   0.3430 
  9 C        1.8560    -1.4000     1.6790 C.3   1 <1>   0.1100 
 10 C        2.9860     0.6390     0.6690 C.3   1 <1>  -0.2400 
 11 N        2.5520    -2.9760    -0.6040 N.4   1 <1>  -0.9590 
 12 N        1.2860    -2.7320     1.3620 N.3   1 <1>  -0.8100 
 13 C        2.2150    -3.6310     0.6740 C.3   1 <1>   0.7730 
 14 C        1.5890    -5.0120     0.4380 C.3   1 <1>  -0.2400 
 15 C        3.4760    -3.8820     1.5120 C.3   1 <1>  -0.2400 
 16 H        0.5090     1.2830     0.1690 H     1 <1>   0.4000 
 17 H        1.2850    -0.0630    -1.4630 H     1 <1>   0.0800 
 18 H        0.8680    -3.7190    -1.6790 H     1 <1>   0.0800 
 19 H        1.6130    -2.3210    -2.3950 H     1 <1>   0.0800 
 20 H       -0.5300    -3.4230     0.5130 H     1 <1>   0.0800 
 21 H       -0.6200    -1.8480     1.2040 H     1 <1>   0.0800 
 22 H       -1.6930    -1.1350    -1.0710 H     1 <1>   0.0800 
 23 H       -1.4000    -2.7030    -1.7690 H     1 <1>   0.0800 
 24 H       -0.7550    -1.2680    -2.5320 H     1 <1>   0.0800 
 25 H        4.1230    -1.7650     0.1740 H     1 <1>   0.0800 
 26 H        3.4700    -1.2060    -1.3370 H     1 <1>   0.0800 
 27 H        1.1180    -0.8100     2.1980 H     1 <1>   0.0800 
 28 H        2.6930    -1.4930     2.3480 H     1 <1>   0.0800 
 29 H        3.8930     0.4640     1.2230 H     1 <1>   0.0800 
 30 H        2.3620     1.2850     1.2620 H     1 <1>   0.0800 
 31 H        3.2390     1.1530    -0.2420 H     1 <1>   0.0800 
 32 H        3.1990    -3.6100    -1.0760 H     1 <1>   0.4500 
 33 H        0.7070    -5.0020    -0.1680 H     1 <1>   0.0800 
 34 H        1.3210    -5.4400     1.3880 H     1 <1>   0.0800 
 35 H        2.3000    -5.6720    -0.0240 H     1 <1>   0.0800 
 36 H        4.0460    -3.0030     1.7310 H     1 <1>   0.0800 
 37 H        4.1230    -4.5800     1.0150 H     1 <1>   0.0800 
 38 H        3.1890    -4.3210     2.4510 H     1 <1>   0.0800 
@<TRIPOS>BOND
  1   1   2  1   
  2   1  16  1   
  3   2   3  1   
  4   2   4  1   
  5   2  17  1   
  6   3   5  1   
  7   3   6  1   
  8   3   7  1   
  9   4   8  1   
 10   4   9  1   
 11   4  10  1   
 12   5  11  1   
 13   5  18  1   
 14   5  19  1   
 15   6  12  1   
 16   6  20  1   
 17   6  21  1   
 18   7  22  1   
 19   7  23  1   
 20   7  24  1   
 21   8  11  1   
 22   8  25  1   
 23   8  26  1   
 24   9  12  1   
 25   9  27  1   
 26   9  28  1   
 27  10  29  1   
 28  10  30  1   
 29  10  31  1   
 30  11  13  1   
 31  11  32  1   
 32  12  13  1   
 33  13  14  1   
 34  13  15  1   
 35  14  33  1   
 36  14  34  1   
 37  14  35  1   
 38  15  36  1   
 39  15  37  1   
 40  15  38  1   
@<TRIPOS>SUBSTRUCTURE
  1 ****  12 GROUP 4 **** **** 0

# MOE 2024.06 (io_trps.svl 2023.06)
