@<TRIPOS>MOLECULE
NONAME
34 34 1 0 0 
SMALL
USER_CHARGES


@<TRIPOS>ATOM
  1 O       -0.8130     0.3450    -1.3480 O.2   1 <1>  -0.5700 
  2 C       -1.5450     0.9470    -0.5970 C.2   1 <1>   0.4950 
  3 C       -1.3870     2.3230    -0.2370 C.2   1 <1>   0.0290 
  4 C       -2.7010     0.1500    -0.0170 C.3   1 <1>  -0.0990 
  5 C       -2.3500     2.9700     0.5170 C.2   1 <1>  -0.0380 
  6 C       -0.2090     3.0060    -0.6870 C.2   1 <1>   0.4950 
  7 C       -3.9590     1.0080     0.1890 C.3   1 <1>   0.0000 
  8 N       -2.2830     4.2720     0.8690 N.pl3 1 <1>  -0.9000 
  9 C       -3.5870     2.2420     1.0330 C.3   1 <1>  -0.0220 
 10 O       -0.2250     4.1470    -1.1000 O.2   1 <1>  -0.5700 
 11 C        1.1660     2.3400    -0.6150 C.3   1 <1>  -0.0990 
 12 C       -5.0300     0.1830     0.9200 C.3   1 <1>  -0.2400 
 13 C       -4.5340     1.4470    -1.1720 C.3   1 <1>  -0.2400 
 14 C        2.2330     3.2290     0.0480 C.3   1 <1>  -0.1600 
 15 C        3.5810     2.5080     0.1430 C.3   1 <1>  -0.2400 
 16 H       -2.3780    -0.2620     0.9210 H     1 <1>   0.0800 
 17 H       -2.9250    -0.6720    -0.6740 H     1 <1>   0.0800 
 18 H       -1.5310     4.8800     0.5000 H     1 <1>   0.4000 
 19 H       -2.9820     4.7800     1.4220 H     1 <1>   0.4000 
 20 H       -4.4230     2.9190     1.0500 H     1 <1>   0.0800 
 21 H       -3.3940     1.9450     2.0490 H     1 <1>   0.0800 
 22 H        1.4720     2.0950    -1.6160 H     1 <1>   0.0800 
 23 H        1.0980     1.4250    -0.0560 H     1 <1>   0.0800 
 24 H       -4.6680    -0.1520     1.8770 H     1 <1>   0.0800 
 25 H       -5.3010    -0.6830     0.3410 H     1 <1>   0.0800 
 26 H       -5.9160     0.7710     1.0820 H     1 <1>   0.0800 
 27 H       -3.8370     2.0560    -1.7190 H     1 <1>   0.0800 
 28 H       -5.4340     2.0210    -1.0330 H     1 <1>   0.0800 
 29 H       -4.7750     0.5900    -1.7760 H     1 <1>   0.0800 
 30 H        1.9060     3.5070     1.0350 H     1 <1>   0.0800 
 31 H        2.3540     4.1330    -0.5260 H     1 <1>   0.0800 
 32 H        3.4920     1.6140     0.7350 H     1 <1>   0.0800 
 33 H        4.3100     3.1510     0.6030 H     1 <1>   0.0800 
 34 H        3.9330     2.2400    -0.8380 H     1 <1>   0.0800 
@<TRIPOS>BOND
  1   1   2  2   
  2   2   3  1   
  3   2   4  1   
  4   3   5  2   
  5   3   6  1   
  6   4   7  1   
  7   4  16  1   
  8   4  17  1   
  9   5   8  1   
 10   5   9  1   
 11   6  10  2   
 12   6  11  1   
 13   7   9  1   
 14   7  12  1   
 15   7  13  1   
 16   8  18  1   
 17   8  19  1   
 18   9  20  1   
 19   9  21  1   
 20  11  14  1   
 21  11  22  1   
 22  11  23  1   
 23  12  24  1   
 24  12  25  1   
 25  12  26  1   
 26  13  27  1   
 27  13  28  1   
 28  13  29  1   
 29  14  15  1   
 30  14  30  1   
 31  14  31  1   
 32  15  32  1   
 33  15  33  1   
 34  15  34  1   
@<TRIPOS>SUBSTRUCTURE
  1 ****   3 GROUP 4 **** **** 0

# MOE 2024.06 (io_trps.svl 2023.06)
