@<TRIPOS>MOLECULE
NONAME
51 55 1 0 0 
SMALL
USER_CHARGES


@<TRIPOS>ATOM
  1 F        1.0820    -1.8140     2.1100 F     1 <1>  -0.3400 
  2 C        0.8260    -2.0100     0.8240 C.3   1 <1>   1.1580 
  3 F        1.9290    -1.7040     0.1510 F     1 <1>  -0.3400 
  4 F       -0.0300    -1.0540     0.4900 F     1 <1>  -0.3400 
  5 C        0.3020    -3.4160     0.5330 C.2   1 <1>  -0.1690 
  6 N        1.2760    -4.3810     0.6960 N.pl3 1 <1>   0.6010 
  7 C       -0.9470    -3.8370     0.1390 C.2   1 <1>  -0.1240 
  8 N        2.5360    -4.2640     1.1510 N.2   1 <1>  -0.7070 
  9 C        0.9860    -5.6860     0.3970 C.2   1 <1>  -0.0260 
 10 C       -1.1730    -5.2280    -0.1880 C.2   1 <1>   0.3490 
 11 C       -2.1650    -2.9100     0.0020 C.3   1 <1>  -0.0220 
 12 C        3.0480    -5.4880     1.1250 C.2   1 <1>   0.2030 
 13 N       -0.2250    -6.1130    -0.0640 N.2   1 <1>  -0.5760 
 14 C        2.1060    -6.3980     0.6600 C.2   1 <1>  -0.1500 
 15 C       -2.4730    -5.6590    -0.6790 C.ar  1 <1>   0.0860 
 16 C       -3.4730    -3.6160     0.3640 C.3   1 <1>  -0.0160 
 17 C        4.3990    -5.8750     1.5140 C.2   1 <1>   0.7160 
 18 C       -3.6150    -4.8930    -0.4370 C.ar  1 <1>  -0.1440 
 19 C       -2.6370    -6.8390    -1.4100 C.ar  1 <1>  -0.1500 
 20 O        4.7860    -5.6580     2.6520 O.2   1 <1>  -0.5700 
 21 N        5.2450    -6.5690     0.6620 N.am  1 <1>  -0.6600 
 22 C       -4.8580    -5.2880    -0.9050 C.ar  1 <1>  -0.1500 
 23 C       -3.8750    -7.2360    -1.8800 C.ar  1 <1>  -0.1500 
 24 C        5.6030    -6.1750    -0.7380 C.3   1 <1>   0.2200 
 25 C        6.2090    -7.5430     1.2480 C.3   1 <1>   0.1400 
 26 C       -4.9900    -6.4590    -1.6280 C.ar  1 <1>  -0.1500 
 27 C        7.0000    -5.5350    -0.7270 C.3   1 <1>  -0.1600 
 28 C        4.6100    -5.2320    -1.4220 C.3   1 <1>  -0.2400 
 29 C        7.6130    -6.9310     1.2810 C.3   1 <1>  -0.1600 
 30 C        8.0540    -6.4670    -0.1130 C.3   1 <1>  -0.1600 
 31 H       -2.2250    -2.5570    -1.0140 H     1 <1>   0.0800 
 32 H       -2.0980    -2.0600     0.6520 H     1 <1>   0.0800 
 33 H        2.2480    -7.4560     0.5410 H     1 <1>   0.1500 
 34 H       -4.3020    -2.9560     0.1720 H     1 <1>   0.0800 
 35 H       -3.4750    -3.8590     1.4130 H     1 <1>   0.0800 
 36 H       -1.7790    -7.4550    -1.6130 H     1 <1>   0.1500 
 37 H       -5.7310    -4.6900    -0.7090 H     1 <1>   0.1500 
 38 H       -3.9710    -8.1500    -2.4400 H     1 <1>   0.1500 
 39 H        5.6500    -7.0750    -1.3280 H     1 <1>   0.0800 
 40 H        6.2140    -8.4390     0.6500 H     1 <1>   0.0800 
 41 H        5.9080    -7.8140     2.2470 H     1 <1>   0.0800 
 42 H       -5.9560    -6.7660    -1.9920 H     1 <1>   0.1500 
 43 H        6.9600    -4.6170    -0.1640 H     1 <1>   0.0800 
 44 H        7.2930    -5.2890    -1.7320 H     1 <1>   0.0800 
 45 H        4.5230    -4.3040    -0.8850 H     1 <1>   0.0800 
 46 H        3.6480    -5.6990    -1.5180 H     1 <1>   0.0800 
 47 H        4.9540    -5.0060    -2.4150 H     1 <1>   0.0800 
 48 H        8.3100    -7.6550     1.6610 H     1 <1>   0.0800 
 49 H        7.6060    -6.0940     1.9590 H     1 <1>   0.0800 
 50 H        8.9980    -5.9540    -0.0430 H     1 <1>   0.0800 
 51 H        8.1860    -7.3250    -0.7500 H     1 <1>   0.0800 
@<TRIPOS>BOND
  1   1   2  1   
  2   2   3  1   
  3   2   4  1   
  4   2   5  1   
  5   5   6  1   
  6   5   7  2   
  7   6   8  1   
  8   6   9  1   
  9   7  10  1   
 10   7  11  1   
 11   8  12  2   
 12   9  13  1   
 13   9  14  2   
 14  10  13  2   
 15  10  15  1   
 16  11  16  1   
 17  11  31  1   
 18  11  32  1   
 19  12  14  1   
 20  12  17  1   
 21  14  33  1   
 22  15  18  ar  
 23  15  19  ar  
 24  16  18  1   
 25  16  34  1   
 26  16  35  1   
 27  17  20  2   
 28  17  21  am  
 29  18  22  ar  
 30  19  23  ar  
 31  19  36  1   
 32  21  24  1   
 33  21  25  1   
 34  22  26  ar  
 35  22  37  1   
 36  23  26  ar  
 37  23  38  1   
 38  24  27  1   
 39  24  28  1   
 40  24  39  1   
 41  25  29  1   
 42  25  40  1   
 43  25  41  1   
 44  26  42  1   
 45  27  30  1   
 46  27  43  1   
 47  27  44  1   
 48  28  45  1   
 49  28  46  1   
 50  28  47  1   
 51  29  30  1   
 52  29  48  1   
 53  29  49  1   
 54  30  50  1   
 55  30  51  1   
@<TRIPOS>SUBSTRUCTURE
  1 ****   9 GROUP 4 **** **** 0

# MOE 2024.06 (io_trps.svl 2023.06)
