@<TRIPOS>MOLECULE
NONAME
44 45 1 0 0 
SMALL
USER_CHARGES


@<TRIPOS>ATOM
  1 CL      -1.5770     1.6630    -2.7390 Cl    1 <1>  -0.1770 
  2 C       -1.6060     2.3310    -1.1220 C.ar  1 <1>   0.1770 
  3 C       -0.4210     2.5800    -0.4400 C.ar  1 <1>   0.0820 
  4 C       -2.8350     2.6020    -0.5540 C.ar  1 <1>  -0.1500 
  5 O        0.7550     2.2920    -1.0570 O.3   1 <1>  -0.3630 
  6 C       -0.5000     3.1150     0.8430 C.ar  1 <1>  -0.1500 
  7 C       -2.9230     3.1430     0.7220 C.ar  1 <1>  -0.0090 
  8 C        1.9990     2.4880    -0.4220 C.3   1 <1>   0.0400 
  9 C       -1.7360     3.3890     1.4070 C.ar  1 <1>  -0.1500 
 10 S       -4.5390     3.5240     1.4510 S.o2  1 <1>   1.4470 
 11 O       -4.3690     4.2610     2.6840 O.2   1 <1>  -0.6500 
 12 O       -5.3380     2.3190     1.4380 O.2   1 <1>  -0.6500 
 13 N       -5.1910     4.6130     0.3240 N.am  1 <1>  -0.8490 
 14 C       -6.6710     4.5750     0.3120 C.3   1 <1>   0.2760 
 15 C       -4.5320     5.9490     0.4460 C.3   1 <1>   0.2570 
 16 C       -7.1020     3.6600    -0.8460 C.3   1 <1>  -0.1600 
 17 C       -7.3870     5.9370     0.1820 C.3   1 <1>  -0.1600 
 18 C       -4.4840     6.7700    -0.8490 C.2   1 <1>   0.5690 
 19 C       -8.6270     3.4800    -0.8930 C.3   1 <1>  -0.1600 
 20 C       -8.9130     5.7640     0.1530 C.3   1 <1>  -0.1600 
 21 O       -4.3940     7.9690    -0.7940 O.2   1 <1>  -0.5700 
 22 N       -4.5330     6.1490    -2.0460 N.am  1 <1>  -0.8000 
 23 C       -9.3430     4.8330    -0.9860 C.3   1 <1>  -0.1600 
 24 H       -3.7310     2.3900    -1.1110 H     1 <1>   0.1500 
 25 H        0.3850     3.3240     1.4150 H     1 <1>   0.1500 
 26 H        2.7720     2.1770    -1.1010 H     1 <1>   0.0800 
 27 H        2.0350     1.8880     0.4700 H     1 <1>   0.0800 
 28 H        2.1140     3.5320    -0.1920 H     1 <1>   0.0800 
 29 H       -1.7790     3.8030     2.4020 H     1 <1>   0.1500 
 30 H       -7.0200     4.1380     1.2350 H     1 <1>   0.0800 
 31 H       -3.5050     5.8170     0.7320 H     1 <1>   0.0800 
 32 H       -4.9900     6.5280     1.2280 H     1 <1>   0.0800 
 33 H       -6.6500     2.6910    -0.7400 H     1 <1>   0.0800 
 34 H       -6.7720     4.0860    -1.7770 H     1 <1>   0.0800 
 35 H       -7.0950     6.4290    -0.7280 H     1 <1>   0.0800 
 36 H       -7.1470     6.5680     1.0180 H     1 <1>   0.0800 
 37 H       -8.9510     2.9640    -0.0050 H     1 <1>   0.0800 
 38 H       -8.8930     2.8720    -1.7410 H     1 <1>   0.0800 
 39 H       -9.3820     6.7250     0.0260 H     1 <1>   0.0800 
 40 H       -9.2460     5.3570     1.0930 H     1 <1>   0.0800 
 41 H       -4.5090     6.6880    -2.9110 H     1 <1>   0.3700 
 42 H       -4.6880     5.1420    -2.1190 H     1 <1>   0.3700 
 43 H      -10.4080     4.6810    -0.9460 H     1 <1>   0.0800 
 44 H       -9.1120     5.2950    -1.9310 H     1 <1>   0.0800 
@<TRIPOS>BOND
  1   1   2  1   
  2   2   3  ar  
  3   2   4  ar  
  4   3   5  1   
  5   3   6  ar  
  6   4   7  ar  
  7   4  24  1   
  8   5   8  1   
  9   6   9  ar  
 10   6  25  1   
 11   7   9  ar  
 12   7  10  1   
 13   8  26  1   
 14   8  27  1   
 15   8  28  1   
 16   9  29  1   
 17  10  11  2   
 18  10  12  2   
 19  10  13  am  
 20  13  14  1   
 21  13  15  1   
 22  14  16  1   
 23  14  17  1   
 24  14  30  1   
 25  15  18  1   
 26  15  31  1   
 27  15  32  1   
 28  16  19  1   
 29  16  33  1   
 30  16  34  1   
 31  17  20  1   
 32  17  35  1   
 33  17  36  1   
 34  18  21  2   
 35  18  22  am  
 36  19  23  1   
 37  19  37  1   
 38  19  38  1   
 39  20  23  1   
 40  20  39  1   
 41  20  40  1   
 42  22  41  1   
 43  22  42  1   
 44  23  43  1   
 45  23  44  1   
@<TRIPOS>SUBSTRUCTURE
  1 ****  13 GROUP 4 **** **** 0

# MOE 2024.06 (io_trps.svl 2023.06)
