@<TRIPOS>MOLECULE
NONAME
45 46 1 0 0 
SMALL
USER_CHARGES


@<TRIPOS>ATOM
  1 O       -2.1470     3.2640    -0.6510 O.3   1 <1>  -0.5600 
  2 C       -2.0330     1.8970    -0.3570 C.3   1 <1>   0.1200 
  3 C       -2.7980     4.0120     0.3400 C.3   1 <1>   0.1200 
  4 C       -3.4170     1.2640    -0.0770 C.3   1 <1>   0.3430 
  5 C       -4.2380     3.4950     0.5670 C.3   1 <1>   0.3430 
  6 N       -4.5220     2.2670    -0.2570 N.4   1 <1>  -0.9590 
  7 C       -5.8730     1.6640    -0.0190 C.3   1 <1>   0.3430 
  8 C       -7.0180     2.5750    -0.4720 C.3   1 <1>   0.1200 
  9 O       -8.2180     1.9070    -0.1770 O.3   1 <1>  -0.3630 
 10 C       -9.4240     2.4690    -0.4490 C.ar  1 <1>   0.0820 
 11 C      -10.5450     1.7490    -0.0670 C.ar  1 <1>  -0.1500 
 12 C       -9.5770     3.7010    -1.0760 C.ar  1 <1>  -0.1500 
 13 C      -11.8320     2.2280    -0.2920 C.ar  1 <1>  -0.1440 
 14 C      -10.8470     4.1920    -1.3080 C.ar  1 <1>  -0.1500 
 15 C      -11.9570     3.4630    -0.9200 C.ar  1 <1>  -0.1500 
 16 C      -13.1040     1.4530     0.1200 C.3   1 <1>   0.1430 
 17 C      -13.9220     2.2980     1.1080 C.3   1 <1>  -0.2400 
 18 C      -13.9530     1.1610    -1.1260 C.3   1 <1>  -0.2400 
 19 C      -12.8020     0.1070     0.8010 C.3   1 <1>  -0.2400 
 20 H       -1.3800     1.7790     0.4910 H     1 <1>   0.0800 
 21 H       -1.5710     1.4190    -1.2040 H     1 <1>   0.0800 
 22 H       -2.8170     5.0390     0.0190 H     1 <1>   0.0800 
 23 H       -2.2230     3.9550     1.2490 H     1 <1>   0.0800 
 24 H       -3.4270     0.8810     0.9300 H     1 <1>   0.0800 
 25 H       -3.5600     0.4290    -0.7430 H     1 <1>   0.0800 
 26 H       -4.9310     4.2800     0.3120 H     1 <1>   0.0800 
 27 H       -4.3690     3.2770     1.6150 H     1 <1>   0.0800 
 28 H       -4.4350     2.5710    -1.2390 H     1 <1>   0.4500 
 29 H       -5.9940     1.4510     1.0310 H     1 <1>   0.0800 
 30 H       -5.9510     0.7370    -0.5630 H     1 <1>   0.0800 
 31 H       -6.9800     2.7410    -1.5340 H     1 <1>   0.0800 
 32 H       -7.0180     3.5050     0.0670 H     1 <1>   0.0800 
 33 H      -10.3760     0.8040     0.4120 H     1 <1>   0.1500 
 34 H       -8.7390     4.2900    -1.3910 H     1 <1>   0.1500 
 35 H      -10.9790     5.1440    -1.7920 H     1 <1>   0.1500 
 36 H      -12.9310     3.8750    -1.1160 H     1 <1>   0.1500 
 37 H      -13.3230     2.5380     1.9690 H     1 <1>   0.0800 
 38 H      -14.7930     1.7610     1.4370 H     1 <1>   0.0800 
 39 H      -14.2470     3.2170     0.6580 H     1 <1>   0.0800 
 40 H      -14.2790     2.0690    -1.5970 H     1 <1>   0.0800 
 41 H      -14.8260     0.5890    -0.8660 H     1 <1>   0.0800 
 42 H      -13.3760     0.6000    -1.8400 H     1 <1>   0.0800 
 43 H      -12.2300     0.2580     1.6990 H     1 <1>   0.0800 
 44 H      -12.2510    -0.5360     0.1370 H     1 <1>   0.0800 
 45 H      -13.7140    -0.3950     1.0680 H     1 <1>   0.0800 
@<TRIPOS>BOND
  1   1   2  1   
  2   1   3  1   
  3   2   4  1   
  4   2  20  1   
  5   2  21  1   
  6   3   5  1   
  7   3  22  1   
  8   3  23  1   
  9   4   6  1   
 10   4  24  1   
 11   4  25  1   
 12   5   6  1   
 13   5  26  1   
 14   5  27  1   
 15   6   7  1   
 16   6  28  1   
 17   7   8  1   
 18   7  29  1   
 19   7  30  1   
 20   8   9  1   
 21   8  31  1   
 22   8  32  1   
 23   9  10  1   
 24  10  11  ar  
 25  10  12  ar  
 26  11  13  ar  
 27  11  33  1   
 28  12  14  ar  
 29  12  34  1   
 30  13  15  ar  
 31  13  16  1   
 32  14  15  ar  
 33  14  35  1   
 34  15  36  1   
 35  16  17  1   
 36  16  18  1   
 37  16  19  1   
 38  17  37  1   
 39  17  38  1   
 40  17  39  1   
 41  18  40  1   
 42  18  41  1   
 43  18  42  1   
 44  19  43  1   
 45  19  44  1   
 46  19  45  1   
@<TRIPOS>SUBSTRUCTURE
  1 ****   9 GROUP 4 **** **** 0

# MOE 2024.06 (io_trps.svl 2023.06)
