@<TRIPOS>MOLECULE
NONAME
32 33 1 0 0 
SMALL
USER_CHARGES


@<TRIPOS>ATOM
  1 I       -0.4650     0.0450     0.7460 I     1 <1>  -0.0810 
  2 C        1.4260    -0.8600     0.4040 C.ar  1 <1>   0.0810 
  3 C        2.0260    -0.7030    -0.8320 C.ar  1 <1>  -0.1500 
  4 C        2.0120    -1.5860     1.4230 C.ar  1 <1>  -0.1500 
  5 C        3.2590    -1.2940    -1.0440 C.ar  1 <1>  -0.1500 
  6 C        3.2450    -2.1680     1.1900 C.ar  1 <1>  -0.1500 
  7 C        3.8960    -2.0290    -0.0390 C.ar  1 <1>   0.0860 
  8 C        5.1940    -2.6380    -0.2590 C.2   1 <1>   0.5440 
  9 O        5.3120    -3.8390    -0.0980 O.2   1 <1>  -0.5700 
 10 N        6.2960    -1.8960    -0.6370 N.am  1 <1>  -0.6600 
 11 C        6.3730    -0.4120    -0.5290 C.3   1 <1>   0.1400 
 12 C        7.5800    -2.5450    -1.0270 C.3   1 <1>   0.1400 
 13 C        7.4630    -0.0230     0.4750 C.3   1 <1>  -0.1600 
 14 C        8.6740    -2.1720    -0.0230 C.3   1 <1>  -0.1600 
 15 C        8.8200    -0.6490     0.1150 C.3   1 <1>  -0.0800 
 16 C        9.8730    -0.3000     1.1720 C.3   1 <1>  -0.2400 
 17 H        1.5410    -0.1380    -1.6090 H     1 <1>   0.1500 
 18 H        1.5190    -1.6960     2.3730 H     1 <1>   0.1500 
 19 H        3.7430    -1.1950    -1.9990 H     1 <1>   0.1500 
 20 H        3.7230    -2.7460     1.9630 H     1 <1>   0.1500 
 21 H        5.4360     0.0040    -0.2050 H     1 <1>   0.0800 
 22 H        6.6060    -0.0030    -1.4970 H     1 <1>   0.0800 
 23 H        7.8560    -2.2080    -2.0110 H     1 <1>   0.0800 
 24 H        7.4720    -3.6160    -1.0640 H     1 <1>   0.0800 
 25 H        7.1590    -0.3480     1.4550 H     1 <1>   0.0800 
 26 H        7.5530     1.0490     0.4970 H     1 <1>   0.0800 
 27 H        9.6060    -2.6000    -0.3470 H     1 <1>   0.0800 
 28 H        8.4250    -2.6090     0.9290 H     1 <1>   0.0800 
 29 H        9.1420    -0.2480    -0.8320 H     1 <1>   0.0800 
 30 H        9.5860    -0.6860     2.1350 H     1 <1>   0.0800 
 31 H        9.9860     0.7670     1.2500 H     1 <1>   0.0800 
 32 H       10.8250    -0.7230     0.9030 H     1 <1>   0.0800 
@<TRIPOS>BOND
  1   1   2  1   
  2   2   3  ar  
  3   2   4  ar  
  4   3   5  ar  
  5   3  17  1   
  6   4   6  ar  
  7   4  18  1   
  8   5   7  ar  
  9   5  19  1   
 10   6   7  ar  
 11   6  20  1   
 12   7   8  1   
 13   8   9  2   
 14   8  10  am  
 15  10  11  1   
 16  10  12  1   
 17  11  13  1   
 18  11  21  1   
 19  11  22  1   
 20  12  14  1   
 21  12  23  1   
 22  12  24  1   
 23  13  15  1   
 24  13  25  1   
 25  13  26  1   
 26  14  15  1   
 27  14  27  1   
 28  14  28  1   
 29  15  16  1   
 30  15  29  1   
 31  16  30  1   
 32  16  31  1   
 33  16  32  1   
@<TRIPOS>SUBSTRUCTURE
  1 ****   8 GROUP 4 **** **** 0

# MOE 2024.06 (io_trps.svl 2023.06)
