@<TRIPOS>MOLECULE
NONAME
40 41 1 0 0 
SMALL
USER_CHARGES


@<TRIPOS>ATOM
  1 S        2.4530    -0.4370     1.7260 S.3   1 <1>  -0.0800 
  2 C        2.9700     0.2770     0.2470 C.2   1 <1>   0.4340 
  3 C        1.5070     0.9990     1.9490 C.2   1 <1>   0.1980 
  4 S        4.1350    -0.6340    -0.7440 S.3   1 <1>  -0.2860 
  5 N        2.4720     1.4220     0.0030 N.2   1 <1>  -0.3380 
  6 N        1.6260     1.8370     0.9950 N.2   1 <1>  -0.3380 
  7 C        0.6730     1.1090     3.2040 C.3   1 <1>  -0.0600 
  8 C        4.4830     0.5110    -2.1650 C.3   1 <1>   0.1310 
  9 C        5.4970     1.5710    -1.7670 C.2   1 <1>   0.5690 
 10 O        6.5850     1.5390    -2.2890 O.2   1 <1>  -0.5700 
 11 N        5.1410     2.5250    -0.8560 N.am  1 <1>  -0.5470 
 12 C        5.9540     3.5300    -0.3130 C.ar  1 <1>   0.1170 
 13 C        6.5210     3.3580     0.9530 C.ar  1 <1>  -0.1430 
 14 C        6.1810     4.7190    -1.0140 C.ar  1 <1>  -0.1430 
 15 C        7.3000     4.3640     1.5000 C.ar  1 <1>  -0.1500 
 16 C        6.3160     2.0850     1.7710 C.3   1 <1>  -0.0170 
 17 C        6.9630     5.7120    -0.4450 C.ar  1 <1>  -0.1500 
 18 C        5.5890     4.9720    -2.3980 C.3   1 <1>  -0.0170 
 19 C        7.5210     5.5380     0.8060 C.ar  1 <1>  -0.1500 
 20 C        5.1020     2.2270     2.6920 C.3   1 <1>  -0.2400 
 21 C        4.1430     5.4640    -2.2920 C.3   1 <1>  -0.2400 
 22 H        0.1440     2.0450     3.2090 H     1 <1>   0.0800 
 23 H        1.3070     1.0620     4.0700 H     1 <1>   0.0800 
 24 H       -0.0400     0.3050     3.2420 H     1 <1>   0.0800 
 25 H        3.5540     0.9580    -2.4660 H     1 <1>   0.0800 
 26 H        4.8740    -0.0920    -2.9630 H     1 <1>   0.0800 
 27 H        4.2060     2.4570    -0.4430 H     1 <1>   0.3700 
 28 H        7.7390     4.2390     2.4740 H     1 <1>   0.1500 
 29 H        7.1930     1.8950     2.3650 H     1 <1>   0.0800 
 30 H        6.1900     1.2340     1.1250 H     1 <1>   0.0800 
 31 H        7.1410     6.6300    -0.9760 H     1 <1>   0.1500 
 32 H        5.6310     4.0750    -2.9900 H     1 <1>   0.0800 
 33 H        6.1770     5.7110    -2.9130 H     1 <1>   0.0800 
 34 H        8.1270     6.3140     1.2390 H     1 <1>   0.1500 
 35 H        5.2660     3.0240     3.3960 H     1 <1>   0.0800 
 36 H        4.9370     1.3130     3.2330 H     1 <1>   0.0800 
 37 H        4.2250     2.4580     2.1170 H     1 <1>   0.0800 
 38 H        3.5320     4.7270    -1.8050 H     1 <1>   0.0800 
 39 H        3.7440     5.6530    -3.2720 H     1 <1>   0.0800 
 40 H        4.1050     6.3740    -1.7200 H     1 <1>   0.0800 
@<TRIPOS>BOND
  1   1   2  1   
  2   1   3  1   
  3   2   4  1   
  4   2   5  2   
  5   3   6  2   
  6   3   7  1   
  7   4   8  1   
  8   5   6  1   
  9   7  22  1   
 10   7  23  1   
 11   7  24  1   
 12   8   9  1   
 13   8  25  1   
 14   8  26  1   
 15   9  10  2   
 16   9  11  am  
 17  11  12  1   
 18  11  27  1   
 19  12  13  ar  
 20  12  14  ar  
 21  13  15  ar  
 22  13  16  1   
 23  14  17  ar  
 24  14  18  1   
 25  15  19  ar  
 26  15  28  1   
 27  16  20  1   
 28  16  29  1   
 29  16  30  1   
 30  17  19  ar  
 31  17  31  1   
 32  18  21  1   
 33  18  32  1   
 34  18  33  1   
 35  19  34  1   
 36  20  35  1   
 37  20  36  1   
 38  20  37  1   
 39  21  38  1   
 40  21  39  1   
 41  21  40  1   
@<TRIPOS>SUBSTRUCTURE
  1 ****  11 GROUP 4 **** **** 0

# MOE 2024.06 (io_trps.svl 2023.06)
