@<TRIPOS>MOLECULE
NONAME
36 37 1 0 0 
SMALL
USER_CHARGES


@<TRIPOS>ATOM
  1 S        0.3790    -0.4450    -0.8090 S.3   1 <1>  -0.4600 
  2 C        2.0320     0.2320    -1.1110 C.3   1 <1>   0.0700 
  3 C        0.7320    -2.1560    -0.3350 C.3   1 <1>   0.0700 
  4 C        2.9140    -0.0360     0.1160 C.3   1 <1>   0.3430 
  5 C        1.7570    -2.1570     0.8080 C.3   1 <1>   0.3430 
  6 N        3.0550    -1.5060     0.4210 N.4   1 <1>  -0.9590 
  7 C        4.0930    -1.7340     1.4640 C.3   1 <1>   0.4860 
  8 C        5.4320    -1.2900     0.9110 C.ar  1 <1>  -0.1430 
  9 C        6.0570    -2.0280    -0.0840 C.ar  1 <1>  -0.1500 
 10 C        6.0380    -0.1370     1.3870 C.ar  1 <1>  -0.1500 
 11 C        7.2670    -1.6150    -0.6160 C.ar  1 <1>  -0.1430 
 12 C        7.2480     0.2810     0.8630 C.ar  1 <1>  -0.1500 
 13 C        7.8680    -0.4520    -0.1450 C.ar  1 <1>   0.0830 
 14 C        7.9380    -2.4370    -1.7090 C.3   1 <1>  -0.0970 
 15 O        9.0520    -0.0860    -0.7000 O.3   1 <1>  -0.3620 
 16 C        9.7960     1.0140    -0.2210 C.3   1 <1>   0.0400 
 17 H        1.9140     1.2880    -1.2800 H     1 <1>   0.0800 
 18 H        2.4260    -0.2320    -1.9980 H     1 <1>   0.0800 
 19 H        1.0970    -2.6730    -1.2050 H     1 <1>   0.0800 
 20 H       -0.2010    -2.5930    -0.0210 H     1 <1>   0.0800 
 21 H        2.4900     0.4740     0.9660 H     1 <1>   0.0800 
 22 H        3.8870     0.3900    -0.0730 H     1 <1>   0.0800 
 23 H        1.9380    -3.1780     1.1010 H     1 <1>   0.0800 
 24 H        1.3300    -1.6410     1.6530 H     1 <1>   0.0800 
 25 H        3.4120    -1.9520    -0.4340 H     1 <1>   0.4500 
 26 H        4.1470    -2.7810     1.7160 H     1 <1>   0.0800 
 27 H        3.8580    -1.1780     2.3570 H     1 <1>   0.0800 
 28 H        5.6120    -2.9360    -0.4520 H     1 <1>   0.1500 
 29 H        5.5840     0.4480     2.1690 H     1 <1>   0.1500 
 30 H        7.6950     1.1780     1.2490 H     1 <1>   0.1500 
 31 H        7.3600    -3.3060    -1.9640 H     1 <1>   0.0800 
 32 H        8.9090    -2.7590    -1.3750 H     1 <1>   0.0800 
 33 H        8.0640    -1.8360    -2.5920 H     1 <1>   0.0800 
 34 H       10.7060     1.0730    -0.7900 H     1 <1>   0.0800 
 35 H       10.0240     0.8550     0.8180 H     1 <1>   0.0800 
 36 H        9.2210     1.9120    -0.3590 H     1 <1>   0.0800 
@<TRIPOS>BOND
  1   1   2  1   
  2   1   3  1   
  3   2   4  1   
  4   2  17  1   
  5   2  18  1   
  6   3   5  1   
  7   3  19  1   
  8   3  20  1   
  9   4   6  1   
 10   4  21  1   
 11   4  22  1   
 12   5   6  1   
 13   5  23  1   
 14   5  24  1   
 15   6   7  1   
 16   6  25  1   
 17   7   8  1   
 18   7  26  1   
 19   7  27  1   
 20   8   9  ar  
 21   8  10  ar  
 22   9  11  ar  
 23   9  28  1   
 24  10  12  ar  
 25  10  29  1   
 26  11  13  ar  
 27  11  14  1   
 28  12  13  ar  
 29  12  30  1   
 30  13  15  1   
 31  14  31  1   
 32  14  32  1   
 33  14  33  1   
 34  15  16  1   
 35  16  34  1   
 36  16  35  1   
 37  16  36  1   
@<TRIPOS>SUBSTRUCTURE
  1 ****   8 GROUP 4 **** **** 0

# MOE 2024.06 (io_trps.svl 2023.06)
