@<TRIPOS>MOLECULE
NONAME
48 49 1 0 0 
SMALL
USER_CHARGES


@<TRIPOS>ATOM
  1 O        2.6610    -6.2630    -0.2370 O.3   1 <1>  -0.5600 
  2 C        2.6480    -5.3290     0.8100 C.3   1 <1>   0.2000 
  3 C        3.7640    -7.1280    -0.3280 C.3   1 <1>   0.2000 
  4 C        3.8830    -4.3920     0.7190 C.3   1 <1>   0.3430 
  5 C        2.5310    -6.0620     2.1520 C.3   1 <1>  -0.2400 
  6 C        5.0960    -6.3910    -0.0230 C.3   1 <1>   0.3430 
  7 C        3.7420    -7.6910    -1.7480 C.3   1 <1>  -0.2400 
  8 N        4.9450    -4.9120    -0.2190 N.4   1 <1>  -0.9590 
  9 C        6.2540    -4.1910    -0.1160 C.3   1 <1>   0.3430 
 10 C        6.1630    -2.7310    -0.5670 C.3   1 <1>   0.1200 
 11 O        7.4370    -2.1660    -0.3890 O.3   1 <1>  -0.3630 
 12 C        7.6870    -0.8520    -0.6400 C.ar  1 <1>   0.0820 
 13 C        8.9470    -0.3450    -0.3140 C.ar  1 <1>  -0.1440 
 14 C        6.7270    -0.0130    -1.2050 C.ar  1 <1>  -0.1500 
 15 C        9.2120     0.9960    -0.5590 C.ar  1 <1>  -0.1500 
 16 C       10.0440    -1.2220     0.3060 C.3   1 <1>   0.0630 
 17 C        7.0120     1.3190    -1.4410 C.ar  1 <1>  -0.1500 
 18 C        8.2550     1.8240    -1.1170 C.ar  1 <1>  -0.1500 
 19 C       10.4310    -0.7130     1.6990 C.3   1 <1>  -0.2400 
 20 C       11.2740    -1.2890    -0.6070 C.3   1 <1>  -0.2400 
 21 H        1.7580    -4.7350     0.6790 H     1 <1>   0.0800 
 22 H        3.6220    -7.9350     0.3710 H     1 <1>   0.0800 
 23 H        4.2920    -4.2700     1.7080 H     1 <1>   0.0800 
 24 H        3.5520    -3.4220     0.3890 H     1 <1>   0.0800 
 25 H        3.4190    -6.6180     2.3910 H     1 <1>   0.0800 
 26 H        1.6880    -6.7310     2.1290 H     1 <1>   0.0800 
 27 H        2.3630    -5.3500     2.9410 H     1 <1>   0.0800 
 28 H        5.8700    -6.7820    -0.6630 H     1 <1>   0.0800 
 29 H        5.3810    -6.5950     0.9950 H     1 <1>   0.0800 
 30 H        3.8470    -6.9060    -2.4750 H     1 <1>   0.0800 
 31 H        2.8100    -8.2020    -1.9200 H     1 <1>   0.0800 
 32 H        4.5390    -8.3990    -1.8840 H     1 <1>   0.0800 
 33 H        4.5560    -4.8140    -1.1700 H     1 <1>   0.4500 
 34 H        6.9840    -4.6860    -0.7360 H     1 <1>   0.0800 
 35 H        6.6020    -4.2190     0.9030 H     1 <1>   0.0800 
 36 H        5.4700    -2.1750     0.0390 H     1 <1>   0.0800 
 37 H        5.9110    -2.6650    -1.6100 H     1 <1>   0.0800 
 38 H        5.7520    -0.3670    -1.4760 H     1 <1>   0.1500 
 39 H       10.1730     1.4110    -0.3150 H     1 <1>   0.1500 
 40 H        9.6880    -2.2290     0.4260 H     1 <1>   0.0800 
 41 H        6.2700     1.9650    -1.8780 H     1 <1>   0.1500 
 42 H        8.4810     2.8600    -1.2980 H     1 <1>   0.1500 
 43 H       10.8700     0.2670     1.6440 H     1 <1>   0.0800 
 44 H       11.1410    -1.3800     2.1550 H     1 <1>   0.0800 
 45 H        9.5580    -0.6620     2.3240 H     1 <1>   0.0800 
 46 H       11.7310    -0.3220    -0.7110 H     1 <1>   0.0800 
 47 H       10.9850    -1.6370    -1.5820 H     1 <1>   0.0800 
 48 H       12.0010    -1.9690    -0.2020 H     1 <1>   0.0800 
@<TRIPOS>BOND
  1   1   2  1   
  2   1   3  1   
  3   2   4  1   
  4   2   5  1   
  5   2  21  1   
  6   3   6  1   
  7   3   7  1   
  8   3  22  1   
  9   4   8  1   
 10   4  23  1   
 11   4  24  1   
 12   5  25  1   
 13   5  26  1   
 14   5  27  1   
 15   6   8  1   
 16   6  28  1   
 17   6  29  1   
 18   7  30  1   
 19   7  31  1   
 20   7  32  1   
 21   8   9  1   
 22   8  33  1   
 23   9  10  1   
 24   9  34  1   
 25   9  35  1   
 26  10  11  1   
 27  10  36  1   
 28  10  37  1   
 29  11  12  1   
 30  12  13  ar  
 31  12  14  ar  
 32  13  15  ar  
 33  13  16  1   
 34  14  17  ar  
 35  14  38  1   
 36  15  18  ar  
 37  15  39  1   
 38  16  19  1   
 39  16  20  1   
 40  16  40  1   
 41  17  18  ar  
 42  17  41  1   
 43  18  42  1   
 44  19  43  1   
 45  19  44  1   
 46  19  45  1   
 47  20  46  1   
 48  20  47  1   
 49  20  48  1   
@<TRIPOS>SUBSTRUCTURE
  1 ****  10 GROUP 4 **** **** 0

# MOE 2024.06 (io_trps.svl 2023.06)
