@<TRIPOS>MOLECULE
NONAME
47 49 1 0 0 
SMALL
USER_CHARGES


@<TRIPOS>ATOM
  1 S       -0.3680    -0.0960     0.2990 S.3   1 <1>  -0.0800 
  2 C       -0.4170    -1.8490     0.2950 C.2   1 <1>  -0.1100 
  3 C        0.4420    -0.0760    -1.2560 C.2   1 <1>  -0.1100 
  4 C        0.1510    -2.3470    -0.8220 C.2   1 <1>  -0.1810 
  5 C        0.6400    -1.3280    -1.7060 C.2   1 <1>  -0.1500 
  6 C        0.3090    -3.8300    -1.1580 C.3   1 <1>   0.3770 
  7 C       -0.9340    -4.5970    -0.7000 C.2   1 <1>  -0.1240 
  8 C        1.5950    -4.3140    -0.4850 C.2   1 <1>  -0.1240 
  9 C       -0.8540    -5.4600     0.3430 C.2   1 <1>  -0.0380 
 10 C       -2.1380    -4.3430    -1.4150 C.2   1 <1>   0.4950 
 11 C        1.5350    -5.2070     0.5410 C.2   1 <1>  -0.0380 
 12 C        2.7650    -3.7140    -1.0440 C.2   1 <1>   0.7060 
 13 N        0.3330    -5.7090     0.9870 N.pl3 1 <1>  -0.6000 
 14 C       -2.0770    -6.2110     0.8540 C.3   1 <1>  -0.0220 
 15 O       -2.2090    -3.6740    -2.4180 O.2   1 <1>  -0.5700 
 16 C       -3.4220    -4.9600    -0.8870 C.3   1 <1>  -0.0990 
 17 C        2.7420    -5.7660     1.2760 C.3   1 <1>  -0.1020 
 18 O        2.9860    -3.6970    -2.2370 O.2   1 <1>  -0.5700 
 19 O        3.6620    -3.1120    -0.2600 O.3   1 <1>  -0.4300 
 20 C       -3.1880    -6.3300    -0.2150 C.3   1 <1>   0.0000 
 21 C        3.2510    -2.3180     0.8300 C.3   1 <1>   0.1200 
 22 C       -4.4920    -6.8030     0.4460 C.3   1 <1>  -0.2400 
 23 C       -2.7830    -7.3710    -1.2770 C.3   1 <1>  -0.2400 
 24 C        4.5010    -1.7600     1.5010 C.3   1 <1>  -0.2400 
 25 H       -0.8690    -2.3330     1.1430 H     1 <1>   0.1500 
 26 H        0.6860     0.8840    -1.6760 H     1 <1>   0.1500 
 27 H        1.1170    -1.5820    -2.6390 H     1 <1>   0.1500 
 28 H        0.3990    -3.9530    -2.2250 H     1 <1>   0.0800 
 29 H        0.3420    -6.3700     1.7730 H     1 <1>   0.4000 
 30 H       -2.4510    -5.6850     1.7150 H     1 <1>   0.0800 
 31 H       -1.7900    -7.1970     1.1750 H     1 <1>   0.0800 
 32 H       -4.1190    -5.0630    -1.6990 H     1 <1>   0.0800 
 33 H       -3.8450    -4.2700    -0.1800 H     1 <1>   0.0800 
 34 H        2.7190    -6.8410     1.2490 H     1 <1>   0.0800 
 35 H        2.7290    -5.4440     2.3020 H     1 <1>   0.0800 
 36 H        3.6670    -5.4480     0.8310 H     1 <1>   0.0800 
 37 H        2.6870    -2.9190     1.5200 H     1 <1>   0.0800 
 38 H        2.6330    -1.5190     0.4550 H     1 <1>   0.0800 
 39 H       -4.8200    -6.1010     1.1930 H     1 <1>   0.0800 
 40 H       -4.3520    -7.7590     0.9200 H     1 <1>   0.0800 
 41 H       -5.2730    -6.9020    -0.2870 H     1 <1>   0.0800 
 42 H       -1.8580    -7.1040    -1.7570 H     1 <1>   0.0800 
 43 H       -3.5420    -7.4510    -2.0360 H     1 <1>   0.0800 
 44 H       -2.6550    -8.3400    -0.8280 H     1 <1>   0.0800 
 45 H        5.1180    -2.5630     1.8620 H     1 <1>   0.0800 
 46 H        4.2210    -1.1400     2.3320 H     1 <1>   0.0800 
 47 H        5.0600    -1.1640     0.8010 H     1 <1>   0.0800 
@<TRIPOS>BOND
  1   1   2  1   
  2   1   3  1   
  3   2   4  2   
  4   2  25  1   
  5   3   5  2   
  6   3  26  1   
  7   4   5  1   
  8   4   6  1   
  9   5  27  1   
 10   6   7  1   
 11   6   8  1   
 12   6  28  1   
 13   7   9  2   
 14   7  10  1   
 15   8  11  2   
 16   8  12  1   
 17   9  13  1   
 18   9  14  1   
 19  10  15  2   
 20  10  16  1   
 21  11  13  1   
 22  11  17  1   
 23  12  18  2   
 24  12  19  1   
 25  13  29  1   
 26  14  20  1   
 27  14  30  1   
 28  14  31  1   
 29  16  20  1   
 30  16  32  1   
 31  16  33  1   
 32  17  34  1   
 33  17  35  1   
 34  17  36  1   
 35  19  21  1   
 36  20  22  1   
 37  20  23  1   
 38  21  24  1   
 39  21  37  1   
 40  21  38  1   
 41  22  39  1   
 42  22  40  1   
 43  22  41  1   
 44  23  42  1   
 45  23  43  1   
 46  23  44  1   
 47  24  45  1   
 48  24  46  1   
 49  24  47  1   
@<TRIPOS>SUBSTRUCTURE
  1 ****   6 GROUP 4 **** **** 0

# MOE 2024.06 (io_trps.svl 2023.06)
