@<TRIPOS>MOLECULE
NONAME
37 37 1 0 0 
SMALL
USER_CHARGES


@<TRIPOS>ATOM
  1 O        0.4810     3.1060    -1.3370 O.2   1 <1>  -0.5700 
  2 C       -0.0010     2.6680    -0.3220 C.2   1 <1>   0.5690 
  3 N        0.5720     1.6820     0.4180 N.am  1 <1>  -0.7300 
  4 C       -1.3170     3.2440     0.1610 C.3   1 <1>  -0.0990 
  5 C        1.8260     0.9510     0.1440 C.3   1 <1>   0.2200 
  6 C       -2.4730     2.2360     0.0420 C.3   1 <1>  -0.1600 
  7 C        3.0130     1.9260     0.1170 C.3   1 <1>  -0.1600 
  8 C        1.6680     0.1440    -1.1450 C.3   1 <1>  -0.2400 
  9 C       -3.8090     2.8510     0.4740 C.3   1 <1>  -0.0170 
 10 C        4.3760     1.2190     0.1170 C.3   1 <1>  -0.2400 
 11 C       -4.9180     1.8150     0.3930 C.ar  1 <1>  -0.1440 
 12 C       -5.5570     1.5710    -0.8130 C.ar  1 <1>  -0.1500 
 13 C       -5.3000     1.1040     1.5200 C.ar  1 <1>  -0.1500 
 14 C       -6.5660     0.6270    -0.8920 C.ar  1 <1>  -0.1500 
 15 C       -6.3090     0.1590     1.4430 C.ar  1 <1>  -0.1500 
 16 C       -6.9430    -0.0800     0.2370 C.ar  1 <1>  -0.1500 
 17 H        0.0740     1.3560     1.2450 H     1 <1>   0.3700 
 18 H       -1.5390     4.1160    -0.4280 H     1 <1>   0.0800 
 19 H       -1.2010     3.5570     1.1820 H     1 <1>   0.0800 
 20 H        1.9800     0.2590     0.9560 H     1 <1>   0.0800 
 21 H       -2.2690     1.3730     0.6510 H     1 <1>   0.0800 
 22 H       -2.5500     1.9060    -0.9800 H     1 <1>   0.0800 
 23 H        2.9600     2.5590     0.9850 H     1 <1>   0.0800 
 24 H        2.9470     2.5540    -0.7550 H     1 <1>   0.0800 
 25 H        1.5910     0.8000    -1.9940 H     1 <1>   0.0800 
 26 H        0.7870    -0.4690    -1.0940 H     1 <1>   0.0800 
 27 H        2.5160    -0.4980    -1.2900 H     1 <1>   0.0800 
 28 H       -4.0510     3.6840    -0.1620 H     1 <1>   0.0800 
 29 H       -3.7340     3.2200     1.4820 H     1 <1>   0.0800 
 30 H        4.4640     0.5660     0.9680 H     1 <1>   0.0800 
 31 H        5.1640     1.9500     0.1650 H     1 <1>   0.0800 
 32 H        4.5090     0.6440    -0.7820 H     1 <1>   0.0800 
 33 H       -5.2690     2.1140    -1.6960 H     1 <1>   0.1500 
 34 H       -4.8130     1.2800     2.4630 H     1 <1>   0.1500 
 35 H       -7.0570     0.4420    -1.8310 H     1 <1>   0.1500 
 36 H       -6.6010    -0.3890     2.3210 H     1 <1>   0.1500 
 37 H       -7.7280    -0.8130     0.1760 H     1 <1>   0.1500 
@<TRIPOS>BOND
  1   1   2  2   
  2   2   3  am  
  3   2   4  1   
  4   3   5  1   
  5   3  17  1   
  6   4   6  1   
  7   4  18  1   
  8   4  19  1   
  9   5   7  1   
 10   5   8  1   
 11   5  20  1   
 12   6   9  1   
 13   6  21  1   
 14   6  22  1   
 15   7  10  1   
 16   7  23  1   
 17   7  24  1   
 18   8  25  1   
 19   8  26  1   
 20   8  27  1   
 21   9  11  1   
 22   9  28  1   
 23   9  29  1   
 24  10  30  1   
 25  10  31  1   
 26  10  32  1   
 27  11  12  ar  
 28  11  13  ar  
 29  12  14  ar  
 30  12  33  1   
 31  13  15  ar  
 32  13  34  1   
 33  14  16  ar  
 34  14  35  1   
 35  15  16  ar  
 36  15  36  1   
 37  16  37  1   
@<TRIPOS>SUBSTRUCTURE
  1 ****   6 GROUP 4 **** **** 0

# MOE 2024.06 (io_trps.svl 2023.06)
