@<TRIPOS>MOLECULE
NONAME
40 42 1 0 0 
SMALL
USER_CHARGES


@<TRIPOS>ATOM
  1 O        0.1010     1.1110    -1.3160 O.2   1 <1>  -0.5700 
  2 C        0.8000     1.8850    -0.7150 C.2   1 <1>   0.5690 
  3 N        2.1180     1.7040    -0.4320 N.am  1 <1>  -0.4200 
  4 C        0.3070     3.2160    -0.1820 C.3   1 <1>  -0.0190 
  5 C        2.6320     2.7690     0.2390 C.2   1 <1>   0.5690 
  6 C        2.8740     0.4700    -0.7710 C.3   1 <1>   0.1400 
  7 C        1.5710     3.8230     0.4850 C.3   1 <1>  -0.0190 
  8 C       -0.9350     3.0580     0.7180 C.3   1 <1>  -0.0220 
  9 O        3.7830     2.8860     0.5800 O.2   1 <1>  -0.5700 
 10 C        3.9450     0.7450    -1.8350 C.3   1 <1>  -0.0990 
 11 C        1.4520     4.1900     1.9770 C.3   1 <1>  -0.0220 
 12 C       -1.0240     4.1870     1.7250 C.2   1 <1>  -0.2880 
 13 C        5.3220     0.3970    -1.3160 C.2   1 <1>   0.5690 
 14 C        0.0630     4.7030     2.2980 C.2   1 <1>  -0.2880 
 15 O        5.8510    -0.5970    -1.7450 O.2   1 <1>  -0.5700 
 16 N        5.8710     1.2190    -0.3740 N.am  1 <1>  -0.5470 
 17 C        7.1000     1.1890     0.3010 C.ar  1 <1>   0.1170 
 18 C        7.2510     1.9980     1.4220 C.ar  1 <1>  -0.1500 
 19 C        8.1780     0.4020    -0.0950 C.ar  1 <1>  -0.1500 
 20 C        8.4380     2.0200     2.1310 C.ar  1 <1>  -0.1500 
 21 C        9.3660     0.4200     0.6120 C.ar  1 <1>  -0.1500 
 22 C        9.4990     1.2290     1.7270 C.ar  1 <1>  -0.1500 
 23 H        0.0370     3.8320    -1.0210 H     1 <1>   0.0800 
 24 H        2.1920    -0.2790    -1.1380 H     1 <1>   0.0800 
 25 H        3.3240     0.0830     0.1280 H     1 <1>   0.0800 
 26 H        1.8470     4.7090    -0.0580 H     1 <1>   0.0800 
 27 H       -0.8960     2.1250     1.2550 H     1 <1>   0.0800 
 28 H       -1.8150     3.0430     0.0990 H     1 <1>   0.0800 
 29 H        3.9370     1.7710    -2.1530 H     1 <1>   0.0800 
 30 H        3.7450     0.1330    -2.6960 H     1 <1>   0.0800 
 31 H        2.1870     4.9400     2.2130 H     1 <1>   0.0800 
 32 H        1.6490     3.3310     2.5950 H     1 <1>   0.0800 
 33 H       -2.0300     4.5080     1.9450 H     1 <1>   0.1500 
 34 H        0.0370     5.4900     3.0360 H     1 <1>   0.1500 
 35 H        5.2420     1.9620    -0.0400 H     1 <1>   0.3700 
 36 H        6.4310     2.6150     1.7420 H     1 <1>   0.1500 
 37 H        8.0970    -0.2290    -0.9600 H     1 <1>   0.1500 
 38 H        8.5380     2.6510     2.9970 H     1 <1>   0.1500 
 39 H       10.1880    -0.1960     0.2930 H     1 <1>   0.1500 
 40 H       10.4240     1.2430     2.2770 H     1 <1>   0.1500 
@<TRIPOS>BOND
  1   1   2  2   
  2   2   3  am  
  3   2   4  1   
  4   3   5  am  
  5   3   6  1   
  6   4   7  1   
  7   4   8  1   
  8   4  23  1   
  9   5   7  1   
 10   5   9  2   
 11   6  10  1   
 12   6  24  1   
 13   6  25  1   
 14   7  11  1   
 15   7  26  1   
 16   8  12  1   
 17   8  27  1   
 18   8  28  1   
 19  10  13  1   
 20  10  29  1   
 21  10  30  1   
 22  11  14  1   
 23  11  31  1   
 24  11  32  1   
 25  12  14  2   
 26  12  33  1   
 27  13  15  2   
 28  13  16  am  
 29  14  34  1   
 30  16  17  1   
 31  16  35  1   
 32  17  18  ar  
 33  17  19  ar  
 34  18  20  ar  
 35  18  36  1   
 36  19  21  ar  
 37  19  37  1   
 38  20  22  ar  
 39  20  38  1   
 40  21  22  ar  
 41  21  39  1   
 42  22  40  1   
@<TRIPOS>SUBSTRUCTURE
  1 ****   9 GROUP 4 **** **** 0

# MOE 2024.06 (io_trps.svl 2023.06)
