@<TRIPOS>MOLECULE
NONAME
40 41 1 0 0 
SMALL
USER_CHARGES


@<TRIPOS>ATOM
  1 O       -0.3840     0.1510     1.3400 O.3   1 <1>  -0.0190 
  2 N       -1.6110    -0.2400     1.1950 N.2   1 <1>  -0.4100 
  3 C       -0.4100     1.4130     1.0030 C.2   1 <1>   0.2980 
  4 C       -2.3020     0.7670     0.7920 C.2   1 <1>   0.4620 
  5 N       -1.5450     1.8620     0.6580 N.2   1 <1>  -0.5650 
  6 C        0.8790     2.2110     1.0540 C.3   1 <1>   0.0200 
  7 C       -3.7290     0.7570     0.5060 C.ar  1 <1>   0.0540 
  8 C        1.8850     1.7320    -0.0040 C.3   1 <1>  -0.1600 
  9 C       -4.3990     1.9000     0.0690 C.ar  1 <1>  -0.1500 
 10 C       -4.4860    -0.4050     0.6600 C.ar  1 <1>  -0.1500 
 11 C        3.1810     2.5520     0.0380 C.3   1 <1>  -0.1600 
 12 C       -5.7620     1.8940    -0.2060 C.ar  1 <1>   0.0830 
 13 C       -5.8420    -0.4320     0.3920 C.ar  1 <1>  -0.1500 
 14 C        4.1730     2.0630    -1.0200 C.3   1 <1>  -0.2400 
 15 O       -6.4280     3.0070    -0.6340 O.3   1 <1>  -0.3630 
 16 C       -6.4950     0.7170    -0.0430 C.ar  1 <1>   0.0830 
 17 C       -5.7720     4.2400    -0.8260 C.3   1 <1>   0.0400 
 18 O       -7.8300     0.7430    -0.3200 O.3   1 <1>  -0.3630 
 19 C       -8.6430    -0.3970    -0.1830 C.3   1 <1>   0.1200 
 20 C      -10.0660    -0.0090    -0.5730 C.3   1 <1>  -0.2400 
 21 H        1.3050     2.1160     2.0360 H     1 <1>   0.0800 
 22 H        0.6490     3.2490     0.8880 H     1 <1>   0.0800 
 23 H        1.4360     1.8190    -0.9790 H     1 <1>   0.0800 
 24 H        2.1120     0.6930     0.1650 H     1 <1>   0.0800 
 25 H       -3.8250     2.7980    -0.0530 H     1 <1>   0.1500 
 26 H       -4.0030    -1.3070     0.9950 H     1 <1>   0.1500 
 27 H        3.6340     2.4670     1.0120 H     1 <1>   0.0800 
 28 H        2.9600     3.5910    -0.1390 H     1 <1>   0.0800 
 29 H       -6.3700    -1.3560     0.5300 H     1 <1>   0.1500 
 30 H        4.4280     1.0320    -0.8520 H     1 <1>   0.0800 
 31 H        5.0750     2.6490    -0.9780 H     1 <1>   0.0800 
 32 H        3.7510     2.1590    -2.0060 H     1 <1>   0.0800 
 33 H       -6.5010     4.9550    -1.1620 H     1 <1>   0.0800 
 34 H       -5.0090     4.1170    -1.5740 H     1 <1>   0.0800 
 35 H       -5.3510     4.5610     0.1100 H     1 <1>   0.0800 
 36 H       -8.6050    -0.7220     0.8420 H     1 <1>   0.0800 
 37 H       -8.2660    -1.1650    -0.8360 H     1 <1>   0.0800 
 38 H      -10.4240     0.7720     0.0730 H     1 <1>   0.0800 
 39 H      -10.7170    -0.8600    -0.4800 H     1 <1>   0.0800 
 40 H      -10.0880     0.3320    -1.5930 H     1 <1>   0.0800 
@<TRIPOS>BOND
  1   1   2  1   
  2   1   3  1   
  3   2   4  2   
  4   3   5  2   
  5   3   6  1   
  6   4   5  1   
  7   4   7  1   
  8   6   8  1   
  9   6  21  1   
 10   6  22  1   
 11   7   9  ar  
 12   7  10  ar  
 13   8  11  1   
 14   8  23  1   
 15   8  24  1   
 16   9  12  ar  
 17   9  25  1   
 18  10  13  ar  
 19  10  26  1   
 20  11  14  1   
 21  11  27  1   
 22  11  28  1   
 23  12  15  1   
 24  12  16  ar  
 25  13  16  ar  
 26  13  29  1   
 27  14  30  1   
 28  14  31  1   
 29  14  32  1   
 30  15  17  1   
 31  16  18  1   
 32  17  33  1   
 33  17  34  1   
 34  17  35  1   
 35  18  19  1   
 36  19  20  1   
 37  19  36  1   
 38  19  37  1   
 39  20  38  1   
 40  20  39  1   
 41  20  40  1   
@<TRIPOS>SUBSTRUCTURE
  1 ****   7 GROUP 4 **** **** 0

# MOE 2024.06 (io_trps.svl 2023.06)
