@<TRIPOS>MOLECULE
NONAME
50 52 1 0 0 
SMALL
USER_CHARGES


@<TRIPOS>ATOM
  1 N        0.2330    -0.2510     0.0630 N.3   1 <1>  -0.8100 
  2 C        1.4920    -0.9260     0.4530 C.3   1 <1>   0.1100 
  3 C        0.3500     0.3280    -1.3020 C.3   1 <1>   0.1100 
  4 C       -0.9370    -1.1420     0.1920 C.3   1 <1>   0.2540 
  5 C        2.7110     0.0290     0.3710 C.3   1 <1>   0.3430 
  6 C        1.5830     1.2520    -1.4450 C.3   1 <1>   0.3430 
  7 C       -2.2210    -0.3800    -0.1000 C.ar  1 <1>  -0.1440 
  8 N        2.3020     1.3810    -0.1340 N.4   1 <1>  -0.9590 
  9 C       -2.6010     0.6790     0.7110 C.ar  1 <1>  -0.1500 
 10 C       -3.0190    -0.7290    -1.1790 C.ar  1 <1>  -0.1500 
 11 C        3.3960     2.3910    -0.1030 C.3   1 <1>   0.3430 
 12 C       -3.7620     1.3890     0.4520 C.ar  1 <1>  -0.1430 
 13 C       -4.1790    -0.0220    -1.4440 C.ar  1 <1>  -0.1500 
 14 C        2.8720     3.8200    -0.3190 C.3   1 <1>  -0.0800 
 15 C       -4.5480     1.0350    -0.6310 C.ar  1 <1>  -0.1500 
 16 C       -4.1770     2.5470     1.3420 C.3   1 <1>  -0.0970 
 17 C        4.0540     4.8060    -0.2450 C.3   1 <1>  -0.0220 
 18 C        1.7710     4.2220     0.6910 C.3   1 <1>  -0.1600 
 19 C        3.5720     6.2440    -0.2210 C.2   1 <1>  -0.2880 
 20 C        1.2070     5.6190     0.3830 C.3   1 <1>  -0.0220 
 21 C        2.3140     6.6000     0.0470 C.2   1 <1>  -0.2880 
 22 H        1.6650    -1.7770    -0.1850 H     1 <1>   0.0800 
 23 H        1.4050    -1.2900     1.4630 H     1 <1>   0.0800 
 24 H       -0.5290     0.9090    -1.5250 H     1 <1>   0.0800 
 25 H        0.4080    -0.4600    -2.0340 H     1 <1>   0.0800 
 26 H       -0.9890    -1.5250     1.1970 H     1 <1>   0.0800 
 27 H       -0.8410    -1.9780    -0.4800 H     1 <1>   0.0800 
 28 H        3.4560    -0.4000    -0.2780 H     1 <1>   0.0800 
 29 H        3.1450     0.1220     1.3530 H     1 <1>   0.0800 
 30 H        1.2490     2.2180    -1.7830 H     1 <1>   0.0800 
 31 H        2.2460     0.8510    -2.1940 H     1 <1>   0.0800 
 32 H        1.5520     1.6620     0.5180 H     1 <1>   0.4500 
 33 H       -1.9820     0.9480     1.5490 H     1 <1>   0.1500 
 34 H       -2.7470    -1.5500    -1.8190 H     1 <1>   0.1500 
 35 H        4.1270     2.1590    -0.8610 H     1 <1>   0.0800 
 36 H        3.8870     2.3510     0.8560 H     1 <1>   0.0800 
 37 H       -4.7970    -0.2940    -2.2820 H     1 <1>   0.1500 
 38 H        2.4650     3.8970    -1.3120 H     1 <1>   0.0800 
 39 H       -5.4520     1.5780    -0.8440 H     1 <1>   0.1500 
 40 H       -3.6540     2.5130     2.2810 H     1 <1>   0.0800 
 41 H       -5.2330     2.5000     1.5410 H     1 <1>   0.0800 
 42 H       -3.9560     3.4790     0.8550 H     1 <1>   0.0800 
 43 H        4.6920     4.6660    -1.1020 H     1 <1>   0.0800 
 44 H        4.6400     4.6350     0.6420 H     1 <1>   0.0800 
 45 H        2.1890     4.2340     1.6830 H     1 <1>   0.0800 
 46 H        0.9520     3.5260     0.6830 H     1 <1>   0.0800 
 47 H        4.3480     6.9620    -0.4380 H     1 <1>   0.1500 
 48 H        0.6580     5.9750     1.2380 H     1 <1>   0.0800 
 49 H        0.5270     5.5680    -0.4490 H     1 <1>   0.0800 
 50 H        1.9850     7.6270     0.0450 H     1 <1>   0.1500 
@<TRIPOS>BOND
  1   1   2  1   
  2   1   3  1   
  3   1   4  1   
  4   2   5  1   
  5   2  22  1   
  6   2  23  1   
  7   3   6  1   
  8   3  24  1   
  9   3  25  1   
 10   4   7  1   
 11   4  26  1   
 12   4  27  1   
 13   5   8  1   
 14   5  28  1   
 15   5  29  1   
 16   6   8  1   
 17   6  30  1   
 18   6  31  1   
 19   7   9  ar  
 20   7  10  ar  
 21   8  11  1   
 22   8  32  1   
 23   9  12  ar  
 24   9  33  1   
 25  10  13  ar  
 26  10  34  1   
 27  11  14  1   
 28  11  35  1   
 29  11  36  1   
 30  12  15  ar  
 31  12  16  1   
 32  13  15  ar  
 33  13  37  1   
 34  14  17  1   
 35  14  18  1   
 36  14  38  1   
 37  15  39  1   
 38  16  40  1   
 39  16  41  1   
 40  16  42  1   
 41  17  19  1   
 42  17  43  1   
 43  17  44  1   
 44  18  20  1   
 45  18  45  1   
 46  18  46  1   
 47  19  21  2   
 48  19  47  1   
 49  20  21  1   
 50  20  48  1   
 51  20  49  1   
 52  21  50  1   
@<TRIPOS>SUBSTRUCTURE
  1 ****   3 GROUP 4 **** **** 0

# MOE 2024.06 (io_trps.svl 2023.06)
