@<TRIPOS>MOLECULE
NONAME
46 47 1 0 0 
SMALL
USER_CHARGES


@<TRIPOS>ATOM
  1 N       -0.1660    -0.5260    -0.4480 N.pl3 1 <1>  -0.8380 
  2 C       -1.2420     0.2420    -0.0010 C.ar  1 <1>   0.1000 
  3 C        0.9780     0.1550    -1.1250 C.3   1 <1>   0.2090 
  4 C        0.1360    -1.7770     0.3030 C.3   1 <1>   0.2090 
  5 C       -2.5350     0.0470    -0.4990 C.ar  1 <1>  -0.1440 
  6 C       -1.0300     1.2080     0.9770 C.ar  1 <1>  -0.1500 
  7 C        2.2150     0.2580    -0.2080 C.3   1 <1>   0.3430 
  8 C        1.3750    -1.6080     1.2070 C.3   1 <1>   0.3430 
  9 C       -3.5910     0.8040     0.0040 C.ar  1 <1>  -0.1440 
 10 C       -2.7840    -0.9970    -1.5890 C.3   1 <1>  -0.0970 
 11 C       -2.0750     1.9660     1.4630 C.ar  1 <1>  -0.1500 
 12 N        2.5580    -1.0470     0.4640 N.4   1 <1>  -0.9590 
 13 C       -3.3510     1.7600     0.9790 C.ar  1 <1>  -0.1500 
 14 C       -5.0240     0.6200    -0.4780 C.3   1 <1>  -0.0970 
 15 C        3.7540    -0.9340     1.3250 C.3   1 <1>   0.4810 
 16 C        4.9430    -0.7150     0.4080 C.2   1 <1>  -0.2760 
 17 C        5.3680    -1.6750    -0.4280 C.2   1 <1>  -0.2880 
 18 C        5.5690     0.6690     0.5790 C.3   1 <1>  -0.1020 
 19 C        6.5340    -1.6420    -1.4070 C.3   1 <1>  -0.1020 
 20 H        1.2320    -0.3950    -2.0140 H     1 <1>   0.0800 
 21 H        0.6750     1.1420    -1.4320 H     1 <1>   0.0800 
 22 H       -0.7140    -2.0440     0.9090 H     1 <1>   0.0800 
 23 H        0.3000    -2.5770    -0.3980 H     1 <1>   0.0800 
 24 H       -0.0460     1.3700     1.3660 H     1 <1>   0.1500 
 25 H        2.0140     1.0050     0.5420 H     1 <1>   0.0800 
 26 H        3.0520     0.5990    -0.7940 H     1 <1>   0.0800 
 27 H        1.6270    -2.5650     1.6340 H     1 <1>   0.0800 
 28 H        1.1080    -0.9450     2.0130 H     1 <1>   0.0800 
 29 H       -3.5560    -0.6790    -2.2640 H     1 <1>   0.0800 
 30 H       -3.0760    -1.9280    -1.1380 H     1 <1>   0.0800 
 31 H       -1.9030    -1.1630    -2.1810 H     1 <1>   0.0800 
 32 H       -1.9030     2.7130     2.2180 H     1 <1>   0.1500 
 33 H        2.8200    -1.7000    -0.2850 H     1 <1>   0.4500 
 34 H       -4.1610     2.3540     1.3680 H     1 <1>   0.1500 
 35 H       -5.7150     1.1530     0.1500 H     1 <1>   0.0800 
 36 H       -5.2940    -0.4200    -0.4590 H     1 <1>   0.0800 
 37 H       -5.1230     0.9930    -1.4820 H     1 <1>   0.0800 
 38 H        3.6500    -0.1210     2.0250 H     1 <1>   0.0800 
 39 H        3.9000    -1.8500     1.8750 H     1 <1>   0.0800 
 40 H        4.8860    -2.6390    -0.4750 H     1 <1>   0.1500 
 41 H        5.9210     0.7910     1.5880 H     1 <1>   0.0800 
 42 H        4.8520     1.4430     0.3720 H     1 <1>   0.0800 
 43 H        6.4070     0.8230    -0.0730 H     1 <1>   0.0800 
 44 H        7.2420    -2.4130    -1.1540 H     1 <1>   0.0800 
 45 H        7.0550    -0.7050    -1.4100 H     1 <1>   0.0800 
 46 H        6.1790    -1.8280    -2.4060 H     1 <1>   0.0800 
@<TRIPOS>BOND
  1   1   2  1   
  2   1   3  1   
  3   1   4  1   
  4   2   5  ar  
  5   2   6  ar  
  6   3   7  1   
  7   3  20  1   
  8   3  21  1   
  9   4   8  1   
 10   4  22  1   
 11   4  23  1   
 12   5   9  ar  
 13   5  10  1   
 14   6  11  ar  
 15   6  24  1   
 16   7  12  1   
 17   7  25  1   
 18   7  26  1   
 19   8  12  1   
 20   8  27  1   
 21   8  28  1   
 22   9  13  ar  
 23   9  14  1   
 24  10  29  1   
 25  10  30  1   
 26  10  31  1   
 27  11  13  ar  
 28  11  32  1   
 29  12  15  1   
 30  12  33  1   
 31  13  34  1   
 32  14  35  1   
 33  14  36  1   
 34  14  37  1   
 35  15  16  1   
 36  15  38  1   
 37  15  39  1   
 38  16  17  2   
 39  16  18  1   
 40  17  19  1   
 41  17  40  1   
 42  18  41  1   
 43  18  42  1   
 44  18  43  1   
 45  19  44  1   
 46  19  45  1   
 47  19  46  1   
@<TRIPOS>SUBSTRUCTURE
  1 ****   1 GROUP 4 **** **** 0

# MOE 2024.06 (io_trps.svl 2023.06)
