@<TRIPOS>MOLECULE
NONAME
41 42 1 0 0 
SMALL
USER_CHARGES


@<TRIPOS>ATOM
  1 CL       2.3960    -3.4150     3.1510 Cl    1 <1>  -0.1770 
  2 C        1.1870    -3.1600     1.9090 C.ar  1 <1>   0.1770 
  3 C        1.5890    -2.7360     0.6430 C.ar  1 <1>   0.1170 
  4 C       -0.1350    -3.3830     2.2240 C.ar  1 <1>  -0.1500 
  5 N        2.9450    -2.5130     0.3620 N.am  1 <1>  -0.5470 
  6 C        0.5880    -2.5260    -0.2960 C.ar  1 <1>  -0.1500 
  7 C       -1.1500    -3.1870     1.2830 C.ar  1 <1>   0.0860 
  8 C        3.7130    -2.7490    -0.7350 C.2   1 <1>   0.5690 
  9 C       -0.7440    -2.7620     0.0050 C.ar  1 <1>   0.0830 
 10 C       -2.5300    -3.4190     1.6650 C.2   1 <1>   0.5440 
 11 O        4.8700    -2.4240    -0.7310 O.2   1 <1>  -0.5700 
 12 C        3.1630    -3.4420    -1.9600 C.3   1 <1>  -0.1790 
 13 O       -1.6310    -2.5450    -0.9870 O.3   1 <1>  -0.3620 
 14 O       -2.7970    -4.1820     2.5750 O.2   1 <1>  -0.5700 
 15 N       -3.5650    -2.8010     1.0260 N.am  1 <1>  -0.7300 
 16 C       -2.0600    -3.6700    -1.7250 C.3   1 <1>   0.0400 
 17 C       -5.0020    -3.1120     1.2140 C.3   1 <1>   0.1400 
 18 C       -5.4830    -4.1240     0.1630 C.3   1 <1>   0.2000 
 19 O       -5.2180    -3.6610    -1.1290 O.3   1 <1>  -0.5600 
 20 C       -6.9830    -4.3780     0.1910 C.3   1 <1>  -0.1600 
 21 C       -6.1720    -4.1180    -2.0390 C.3   1 <1>   0.1200 
 22 C       -7.2570    -4.8240    -1.2310 C.3   1 <1>  -0.1600 
 23 H       -0.3910    -3.7120     3.2170 H     1 <1>   0.1500 
 24 H        3.5140    -2.2050     1.1540 H     1 <1>   0.3700 
 25 H        0.8350    -2.1630    -1.2750 H     1 <1>   0.1500 
 26 H        2.4560    -4.1980    -1.6800 H     1 <1>   0.0800 
 27 H        3.9690    -3.9090    -2.4960 H     1 <1>   0.0800 
 28 H        2.6960    -2.7220    -2.6040 H     1 <1>   0.0800 
 29 H       -3.3530    -2.3540     0.1250 H     1 <1>   0.3700 
 30 H       -2.7910    -3.3430    -2.4430 H     1 <1>   0.0800 
 31 H       -2.5060    -4.3860    -1.0570 H     1 <1>   0.0800 
 32 H       -1.2140    -4.1020    -2.2290 H     1 <1>   0.0800 
 33 H       -5.5730    -2.2040     1.1310 H     1 <1>   0.0800 
 34 H       -5.1620    -3.5170     2.1990 H     1 <1>   0.0800 
 35 H       -4.9540    -5.0540     0.2870 H     1 <1>   0.0800 
 36 H       -7.5070    -3.4620     0.4000 H     1 <1>   0.0800 
 37 H       -7.2520    -5.1210     0.9200 H     1 <1>   0.0800 
 38 H       -5.6960    -4.7840    -2.7380 H     1 <1>   0.0800 
 39 H       -6.5660    -3.2610    -2.5580 H     1 <1>   0.0800 
 40 H       -8.2440    -4.5570    -1.5650 H     1 <1>   0.0800 
 41 H       -7.1300    -5.8890    -1.3220 H     1 <1>   0.0800 
@<TRIPOS>BOND
  1   1   2  1   
  2   2   3  ar  
  3   2   4  ar  
  4   3   5  1   
  5   3   6  ar  
  6   4   7  ar  
  7   4  23  1   
  8   5   8  am  
  9   5  24  1   
 10   6   9  ar  
 11   6  25  1   
 12   7   9  ar  
 13   7  10  1   
 14   8  11  2   
 15   8  12  1   
 16   9  13  1   
 17  10  14  2   
 18  10  15  am  
 19  12  26  1   
 20  12  27  1   
 21  12  28  1   
 22  13  16  1   
 23  15  17  1   
 24  15  29  1   
 25  16  30  1   
 26  16  31  1   
 27  16  32  1   
 28  17  18  1   
 29  17  33  1   
 30  17  34  1   
 31  18  19  1   
 32  18  20  1   
 33  18  35  1   
 34  19  21  1   
 35  20  22  1   
 36  20  36  1   
 37  20  37  1   
 38  21  22  1   
 39  21  38  1   
 40  21  39  1   
 41  22  40  1   
 42  22  41  1   
@<TRIPOS>SUBSTRUCTURE
  1 ****   9 GROUP 4 **** **** 0

# MOE 2024.06 (io_trps.svl 2023.06)
