@<TRIPOS>MOLECULE
NONAME
45 47 1 0 0 
SMALL
USER_CHARGES


@<TRIPOS>ATOM
  1 CL       1.8800    -0.8740    -2.3640 Cl    1 <1>  -0.1770 
  2 C        2.2470     0.2350    -1.0630 C.ar  1 <1>   0.1770 
  3 C        2.1720    -0.1410     0.2790 C.ar  1 <1>  -0.1440 
  4 C        2.6050     1.5170    -1.4350 C.ar  1 <1>  -0.1500 
  5 C        2.4700     0.8130     1.2480 C.ar  1 <1>  -0.1500 
  6 C        1.7810    -1.5390     0.7530 C.3   1 <1>   0.5940 
  7 C        2.8920     2.4400    -0.4510 C.ar  1 <1>   0.1770 
  8 C        2.8290     2.1010     0.8870 C.ar  1 <1>  -0.1500 
  9 S        2.9750    -2.7620     0.1720 S.3   1 <1>  -0.4600 
 10 N        0.4770    -2.0140     0.2540 N.am  1 <1>  -0.6600 
 11 CL       3.3400     4.0640    -0.9030 Cl    1 <1>  -0.1770 
 12 C        1.8000    -3.8320    -0.6930 C.3   1 <1>   0.1310 
 13 C        0.4550    -3.1870    -0.4380 C.2   1 <1>   0.5690 
 14 C       -0.7540    -1.2880     0.6520 C.3   1 <1>   0.1400 
 15 O       -0.5630    -3.7120    -0.8250 O.2   1 <1>  -0.5700 
 16 C       -1.2790    -0.4360    -0.5050 C.3   1 <1>  -0.0160 
 17 C       -2.5660     0.2530    -0.0880 C.ar  1 <1>  -0.1430 
 18 C       -3.7690    -0.4330    -0.1540 C.ar  1 <1>  -0.1500 
 19 C       -2.5490     1.5580     0.3710 C.ar  1 <1>  -0.1500 
 20 C       -4.9640     0.1670     0.2380 C.ar  1 <1>   0.0820 
 21 C       -3.7280     2.1700     0.7560 C.ar  1 <1>  -0.1500 
 22 O       -6.1440    -0.5210     0.2090 O.3   1 <1>  -0.3630 
 23 C       -4.9370     1.4980     0.6900 C.ar  1 <1>   0.0820 
 24 C       -6.2050    -1.8940    -0.1100 C.3   1 <1>   0.0400 
 25 O       -6.0180     2.2250     1.0900 O.3   1 <1>  -0.3630 
 26 C       -7.2840     2.0310     0.4990 C.3   1 <1>   0.0400 
 27 H        2.6580     1.7920    -2.4720 H     1 <1>   0.1500 
 28 H        2.4280     0.5610     2.2950 H     1 <1>   0.1500 
 29 H        1.7980    -1.5950     1.8280 H     1 <1>   0.0800 
 30 H        3.0610     2.8410     1.6340 H     1 <1>   0.1500 
 31 H        1.8570    -4.8170    -0.2710 H     1 <1>   0.0800 
 32 H        2.0450    -3.8320    -1.7390 H     1 <1>   0.0800 
 33 H       -0.5580    -0.6630     1.5070 H     1 <1>   0.0800 
 34 H       -1.5080    -2.0050     0.9310 H     1 <1>   0.0800 
 35 H       -1.4680    -1.0630    -1.3590 H     1 <1>   0.0800 
 36 H       -0.5500     0.3020    -0.7830 H     1 <1>   0.0800 
 37 H       -3.7490    -1.4440    -0.5140 H     1 <1>   0.1500 
 38 H       -1.6250     2.1060     0.4300 H     1 <1>   0.1500 
 39 H       -3.7170     3.1840     1.1120 H     1 <1>   0.1500 
 40 H       -7.2270    -2.2140    -0.0110 H     1 <1>   0.0800 
 41 H       -5.5830    -2.4410     0.5760 H     1 <1>   0.0800 
 42 H       -5.8770    -2.0320    -1.1250 H     1 <1>   0.0800 
 43 H       -7.8740     2.9120     0.6740 H     1 <1>   0.0800 
 44 H       -7.7540     1.1820     0.9610 H     1 <1>   0.0800 
 45 H       -7.1580     1.8720    -0.5570 H     1 <1>   0.0800 
@<TRIPOS>BOND
  1   1   2  1   
  2   2   3  ar  
  3   2   4  ar  
  4   3   5  ar  
  5   3   6  1   
  6   4   7  ar  
  7   4  27  1   
  8   5   8  ar  
  9   5  28  1   
 10   6   9  1   
 11   6  10  1   
 12   6  29  1   
 13   7   8  ar  
 14   7  11  1   
 15   8  30  1   
 16   9  12  1   
 17  10  13  am  
 18  10  14  1   
 19  12  13  1   
 20  12  31  1   
 21  12  32  1   
 22  13  15  2   
 23  14  16  1   
 24  14  33  1   
 25  14  34  1   
 26  16  17  1   
 27  16  35  1   
 28  16  36  1   
 29  17  18  ar  
 30  17  19  ar  
 31  18  20  ar  
 32  18  37  1   
 33  19  21  ar  
 34  19  38  1   
 35  20  22  1   
 36  20  23  ar  
 37  21  23  ar  
 38  21  39  1   
 39  22  24  1   
 40  23  25  1   
 41  24  40  1   
 42  24  41  1   
 43  24  42  1   
 44  25  26  1   
 45  26  43  1   
 46  26  44  1   
 47  26  45  1   
@<TRIPOS>SUBSTRUCTURE
  1 ****  16 GROUP 4 **** **** 0

# MOE 2024.06 (io_trps.svl 2023.06)
