@<TRIPOS>MOLECULE
NONAME
51 52 1 0 0 
SMALL
USER_CHARGES


@<TRIPOS>ATOM
  1 S       -0.0510    -0.1390     0.5610 S.3   1 <1>  -0.3320 
  2 C       -1.6370    -0.6880    -0.0900 C.ar  1 <1>   0.1020 
  3 C        0.9250    -1.6580     0.9560 C.3   1 <1>  -0.0100 
  4 C       -2.5170     0.2950    -0.5020 C.ar  1 <1>  -0.1500 
  5 C       -1.9770    -2.0270    -0.1840 C.ar  1 <1>  -0.1500 
  6 C       -3.7550    -0.0600    -1.0080 C.ar  1 <1>  -0.1500 
  7 C       -3.2170    -2.3790    -0.6910 C.ar  1 <1>  -0.1500 
  8 C       -4.1130    -1.3990    -1.0980 C.ar  1 <1>  -0.1430 
  9 C       -5.4790    -1.7840    -1.6360 C.3   1 <1>   0.4860 
 10 N       -6.3490    -2.1830    -0.4960 N.4   1 <1>  -0.9590 
 11 C       -7.6340    -2.7710    -0.9960 C.3   1 <1>   0.3430 
 12 C       -6.5830    -1.0410     0.4380 C.3   1 <1>   0.3430 
 13 C       -8.5270    -3.2530     0.1540 C.3   1 <1>  -0.0190 
 14 C       -7.4260    -1.5080     1.6270 C.3   1 <1>  -0.1600 
 15 C       -9.8450    -3.7380    -0.4410 C.2   1 <1>   0.5690 
 16 C       -8.7590    -2.1200     1.1730 C.3   1 <1>  -0.1600 
 17 O      -10.1980    -3.2020    -1.4670 O.2   1 <1>  -0.5700 
 18 N      -10.5870    -4.7290     0.1510 N.am  1 <1>  -0.6600 
 19 C      -10.2430    -5.4250     1.4220 C.3   1 <1>   0.1400 
 20 C      -11.8760    -5.1620    -0.4590 C.3   1 <1>   0.1400 
 21 C       -9.4750    -6.7080     1.1100 C.3   1 <1>  -0.2400 
 22 C      -13.0220    -4.3490     0.1390 C.3   1 <1>  -0.2400 
 23 H        1.8830    -1.3390     1.3260 H     1 <1>   0.0800 
 24 H        1.0370    -2.2260     0.0510 H     1 <1>   0.0800 
 25 H        0.3920    -2.2110     1.7080 H     1 <1>   0.0800 
 26 H       -2.2260     1.3290    -0.4250 H     1 <1>   0.1500 
 27 H       -1.2930    -2.7930     0.1280 H     1 <1>   0.1500 
 28 H       -4.4240     0.7200    -1.3300 H     1 <1>   0.1500 
 29 H       -3.4650    -3.4250    -0.7650 H     1 <1>   0.1500 
 30 H       -5.3690    -2.6050    -2.3260 H     1 <1>   0.0800 
 31 H       -5.9150    -0.9520    -2.1650 H     1 <1>   0.0800 
 32 H       -5.8330    -2.8990     0.0300 H     1 <1>   0.4500 
 33 H       -7.4340    -3.6000    -1.6560 H     1 <1>   0.0800 
 34 H       -8.1730    -2.0250    -1.5600 H     1 <1>   0.0800 
 35 H       -7.0990    -0.2470    -0.0770 H     1 <1>   0.0800 
 36 H       -5.6410    -0.6560     0.7980 H     1 <1>   0.0800 
 37 H       -8.0320    -4.0780     0.6280 H     1 <1>   0.0800 
 38 H       -7.6230    -0.6640     2.2650 H     1 <1>   0.0800 
 39 H       -6.8660    -2.2220     2.2050 H     1 <1>   0.0800 
 40 H       -9.2990    -2.4930     2.0270 H     1 <1>   0.0800 
 41 H       -9.3670    -1.3540     0.7190 H     1 <1>   0.0800 
 42 H      -11.1450    -5.6660     1.9580 H     1 <1>   0.0800 
 43 H       -9.6540    -4.7880     2.0570 H     1 <1>   0.0800 
 44 H      -12.0350    -6.2120    -0.2810 H     1 <1>   0.0800 
 45 H      -11.8480    -5.0120    -1.5250 H     1 <1>   0.0800 
 46 H      -10.0820    -7.3760     0.5250 H     1 <1>   0.0800 
 47 H       -9.2180    -7.2060     2.0270 H     1 <1>   0.0800 
 48 H       -8.5700    -6.4930     0.5740 H     1 <1>   0.0800 
 49 H      -13.0930    -4.5070     1.1990 H     1 <1>   0.0800 
 50 H      -13.9500    -4.6510    -0.3120 H     1 <1>   0.0800 
 51 H      -12.8750    -3.3030    -0.0600 H     1 <1>   0.0800 
@<TRIPOS>BOND
  1   1   2  1   
  2   1   3  1   
  3   2   4  ar  
  4   2   5  ar  
  5   3  23  1   
  6   3  24  1   
  7   3  25  1   
  8   4   6  ar  
  9   4  26  1   
 10   5   7  ar  
 11   5  27  1   
 12   6   8  ar  
 13   6  28  1   
 14   7   8  ar  
 15   7  29  1   
 16   8   9  1   
 17   9  10  1   
 18   9  30  1   
 19   9  31  1   
 20  10  11  1   
 21  10  12  1   
 22  10  32  1   
 23  11  13  1   
 24  11  33  1   
 25  11  34  1   
 26  12  14  1   
 27  12  35  1   
 28  12  36  1   
 29  13  15  1   
 30  13  16  1   
 31  13  37  1   
 32  14  16  1   
 33  14  38  1   
 34  14  39  1   
 35  15  17  2   
 36  15  18  am  
 37  16  40  1   
 38  16  41  1   
 39  18  19  1   
 40  18  20  1   
 41  19  21  1   
 42  19  42  1   
 43  19  43  1   
 44  20  22  1   
 45  20  44  1   
 46  20  45  1   
 47  21  46  1   
 48  21  47  1   
 49  21  48  1   
 50  22  49  1   
 51  22  50  1   
 52  22  51  1   
@<TRIPOS>SUBSTRUCTURE
  1 ****  10 GROUP 4 **** **** 0

# MOE 2024.06 (io_trps.svl 2023.06)
