@<TRIPOS>MOLECULE
NONAME
40 42 1 0 0 
SMALL
USER_CHARGES


@<TRIPOS>ATOM
  1 CL      -1.8660     0.3730     1.1310 Cl    1 <1>  -0.1770 
  2 C       -1.0560     1.8370     0.6280 C.ar  1 <1>   0.1770 
  3 C       -1.6700     2.6710    -0.2910 C.ar  1 <1>  -0.1440 
  4 C        0.1810     2.1380     1.1700 C.ar  1 <1>  -0.1500 
  5 C       -1.0090     3.8340    -0.6490 C.ar  1 <1>   0.1770 
  6 C       -3.0160     2.3140    -0.8860 C.3   1 <1>   0.4870 
  7 C        0.8270     3.3040     0.7930 C.ar  1 <1>  -0.1500 
  8 CL      -1.7540     4.9350    -1.7800 Cl    1 <1>  -0.1770 
  9 C        0.2290     4.1570    -0.1210 C.ar  1 <1>  -0.1500 
 10 N       -4.0790     2.5260     0.1310 N.4   1 <1>  -0.9590 
 11 C       -5.3900     1.9390    -0.3240 C.3   1 <1>   0.3430 
 12 C       -4.2430     3.9890     0.4710 C.3   1 <1>   0.3430 
 13 C       -6.5240     2.1390     0.7050 C.3   1 <1>   0.2090 
 14 C       -5.3520     4.2420     1.5140 C.3   1 <1>   0.2090 
 15 N       -6.6340     3.5590     1.1590 N.pl3 1 <1>  -0.8380 
 16 C       -7.6400     4.3440     0.5780 C.ar  1 <1>   0.1000 
 17 C       -7.6110     4.8340    -0.7340 C.ar  1 <1>   0.1900 
 18 C       -8.7530     4.6680     1.3430 C.ar  1 <1>  -0.1500 
 19 F       -6.5840     4.5570    -1.5040 F     1 <1>  -0.1900 
 20 C       -8.6230     5.6060    -1.2690 C.ar  1 <1>  -0.1500 
 21 C       -9.7790     5.4410     0.8240 C.ar  1 <1>  -0.1500 
 22 C       -9.7190     5.9110    -0.4790 C.ar  1 <1>  -0.1500 
 23 H        0.6350     1.4670     1.8800 H     1 <1>   0.1500 
 24 H       -2.9990     1.2790    -1.1870 H     1 <1>   0.0800 
 25 H       -3.2140     2.9140    -1.7600 H     1 <1>   0.0800 
 26 H        1.7920     3.5470     1.2080 H     1 <1>   0.1500 
 27 H        0.7210     5.0670    -0.4210 H     1 <1>   0.1500 
 28 H       -3.7930     2.0310     0.9870 H     1 <1>   0.4500 
 29 H       -5.2750     0.8840    -0.5110 H     1 <1>   0.0800 
 30 H       -5.6910     2.4040    -1.2480 H     1 <1>   0.0800 
 31 H       -4.4890     4.5400    -0.4220 H     1 <1>   0.0800 
 32 H       -3.3150     4.3850     0.8500 H     1 <1>   0.0800 
 33 H       -6.3510     1.5110     1.5620 H     1 <1>   0.0800 
 34 H       -7.4580     1.8320     0.2650 H     1 <1>   0.0800 
 35 H       -5.5240     5.3030     1.5960 H     1 <1>   0.0800 
 36 H       -5.0270     3.8940     2.4790 H     1 <1>   0.0800 
 37 H       -8.8100     4.3090     2.3550 H     1 <1>   0.1500 
 38 H       -8.5580     5.9620    -2.2820 H     1 <1>   0.1500 
 39 H      -10.6320     5.6790     1.4380 H     1 <1>   0.1500 
 40 H      -10.5210     6.5110    -0.8740 H     1 <1>   0.1500 
@<TRIPOS>BOND
  1   1   2  1   
  2   2   3  ar  
  3   2   4  ar  
  4   3   5  ar  
  5   3   6  1   
  6   4   7  ar  
  7   4  23  1   
  8   5   8  1   
  9   5   9  ar  
 10   6  10  1   
 11   6  24  1   
 12   6  25  1   
 13   7   9  ar  
 14   7  26  1   
 15   9  27  1   
 16  10  11  1   
 17  10  12  1   
 18  10  28  1   
 19  11  13  1   
 20  11  29  1   
 21  11  30  1   
 22  12  14  1   
 23  12  31  1   
 24  12  32  1   
 25  13  15  1   
 26  13  33  1   
 27  13  34  1   
 28  14  15  1   
 29  14  35  1   
 30  14  36  1   
 31  15  16  1   
 32  16  17  ar  
 33  16  18  ar  
 34  17  19  1   
 35  17  20  ar  
 36  18  21  ar  
 37  18  37  1   
 38  20  22  ar  
 39  20  38  1   
 40  21  22  ar  
 41  21  39  1   
 42  22  40  1   
@<TRIPOS>SUBSTRUCTURE
  1 ****  12 GROUP 4 **** **** 0

# MOE 2024.06 (io_trps.svl 2023.06)
