@<TRIPOS>MOLECULE
NONAME
48 49 1 0 0 
SMALL
USER_CHARGES


@<TRIPOS>ATOM
  1 I        1.1030    -0.5420     2.5010 I     1 <1>  -0.0810 
  2 C        0.1760    -2.0190     1.2660 C.ar  1 <1>   0.0810 
  3 C        0.6460    -2.2720    -0.0140 C.ar  1 <1>   0.0820 
  4 C       -0.9060    -2.6970     1.7980 C.ar  1 <1>  -0.1500 
  5 O        1.6950    -1.6060    -0.5390 O.3   1 <1>  -0.5330 
  6 C        0.0170    -3.2460    -0.7840 C.ar  1 <1>   0.0820 
  7 C       -1.5450    -3.6560     1.0240 C.ar  1 <1>  -0.1430 
  8 O        0.5150    -3.4700    -2.0330 O.3   1 <1>  -0.3630 
  9 C       -1.0760    -3.9340    -0.2570 C.ar  1 <1>  -0.1500 
 10 C       -2.7590    -4.3830     1.5720 C.3   1 <1>   0.4860 
 11 C        0.1100    -4.5800    -2.8070 C.3   1 <1>   0.0400 
 12 N       -3.9640    -3.8700     0.8670 N.4   1 <1>  -0.9590 
 13 C       -4.2110    -2.4290     1.1490 C.3   1 <1>   0.4860 
 14 C       -5.1890    -4.6830     1.0980 C.3   1 <1>   0.3430 
 15 C       -5.0270    -1.8830    -0.0030 C.ar  1 <1>  -0.1430 
 16 C       -5.0800    -6.0300     0.3800 C.3   1 <1>  -0.1600 
 17 C       -6.3930    -1.6790     0.1290 C.ar  1 <1>  -0.1500 
 18 C       -4.4030    -1.5900    -1.2080 C.ar  1 <1>  -0.1500 
 19 C       -6.3810    -6.8400     0.4870 C.3   1 <1>  -0.1600 
 20 C       -7.1310    -1.2030    -0.9410 C.ar  1 <1>  -0.1500 
 21 C       -5.1430    -1.1140    -2.2760 C.ar  1 <1>  -0.1500 
 22 C       -7.5650    -6.1540    -0.2040 C.3   1 <1>  -0.2400 
 23 C       -6.5070    -0.9240    -2.1430 C.ar  1 <1>  -0.1500 
 24 H       -1.2280    -2.4660     2.7990 H     1 <1>   0.1500 
 25 H        1.8820    -1.9320    -1.4430 H     1 <1>   0.4500 
 26 H       -1.5650    -4.6880    -0.8470 H     1 <1>   0.1500 
 27 H       -2.8460    -4.2210     2.6340 H     1 <1>   0.0800 
 28 H       -2.6430    -5.4400     1.3970 H     1 <1>   0.0800 
 29 H        0.7050    -4.5960    -3.7030 H     1 <1>   0.0800 
 30 H       -0.9280    -4.4690    -3.0650 H     1 <1>   0.0800 
 31 H        0.2770    -5.4810    -2.2440 H     1 <1>   0.0800 
 32 H       -3.7690    -3.8970    -0.1410 H     1 <1>   0.4500 
 33 H       -3.2820    -1.8850     1.1990 H     1 <1>   0.0800 
 34 H       -4.7360    -2.3040     2.0810 H     1 <1>   0.0800 
 35 H       -6.0440    -4.1590     0.7040 H     1 <1>   0.0800 
 36 H       -5.3470    -4.8370     2.1540 H     1 <1>   0.0800 
 37 H       -4.2900    -6.6190     0.8100 H     1 <1>   0.0800 
 38 H       -4.8630    -5.8710    -0.6620 H     1 <1>   0.0800 
 39 H       -6.9000    -1.8820     1.0560 H     1 <1>   0.1500 
 40 H       -3.3400    -1.7200    -1.3320 H     1 <1>   0.1500 
 41 H       -6.6240    -7.0190     1.5220 H     1 <1>   0.0800 
 42 H       -6.2280    -7.8010     0.0240 H     1 <1>   0.0800 
 43 H       -8.1920    -1.0450    -0.8420 H     1 <1>   0.1500 
 44 H       -4.6610    -0.8860    -3.2120 H     1 <1>   0.1500 
 45 H       -7.8350    -5.2350     0.2850 H     1 <1>   0.0800 
 46 H       -8.4230    -6.8040    -0.1790 H     1 <1>   0.0800 
 47 H       -7.3370    -5.9470    -1.2360 H     1 <1>   0.0800 
 48 H       -7.0820    -0.5520    -2.9750 H     1 <1>   0.1500 
@<TRIPOS>BOND
  1   1   2  1   
  2   2   3  ar  
  3   2   4  ar  
  4   3   5  1   
  5   3   6  ar  
  6   4   7  ar  
  7   4  24  1   
  8   5  25  1   
  9   6   8  1   
 10   6   9  ar  
 11   7   9  ar  
 12   7  10  1   
 13   8  11  1   
 14   9  26  1   
 15  10  12  1   
 16  10  27  1   
 17  10  28  1   
 18  11  29  1   
 19  11  30  1   
 20  11  31  1   
 21  12  13  1   
 22  12  14  1   
 23  12  32  1   
 24  13  15  1   
 25  13  33  1   
 26  13  34  1   
 27  14  16  1   
 28  14  35  1   
 29  14  36  1   
 30  15  17  ar  
 31  15  18  ar  
 32  16  19  1   
 33  16  37  1   
 34  16  38  1   
 35  17  20  ar  
 36  17  39  1   
 37  18  21  ar  
 38  18  40  1   
 39  19  22  1   
 40  19  41  1   
 41  19  42  1   
 42  20  23  ar  
 43  20  43  1   
 44  21  23  ar  
 45  21  44  1   
 46  22  45  1   
 47  22  46  1   
 48  22  47  1   
 49  23  48  1   
@<TRIPOS>SUBSTRUCTURE
  1 ****  12 GROUP 4 **** **** 0

# MOE 2024.06 (io_trps.svl 2023.06)
