@<TRIPOS>MOLECULE
NONAME
43 45 1 0 0 
SMALL
USER_CHARGES


@<TRIPOS>ATOM
  1 O       -0.4430     0.4710    -0.8490 O.3   1 <1>  -0.5600 
  2 C       -1.5890    -0.3430    -0.9000 C.3   1 <1>   0.2000 
  3 C       -0.2870     1.2460     0.3100 C.3   1 <1>   0.2000 
  4 C       -2.8770     0.5360    -0.7230 C.3   1 <1>   0.0580 
  5 C       -1.4040    -1.6080     0.0040 C.3   1 <1>  -0.0800 
  6 C       -1.3880     2.3130     0.3560 C.3   1 <1>   0.0580 
  7 C        1.1300     1.8510     0.3050 C.3   1 <1>  -0.1600 
  8 C       -2.7480     1.6310     0.3470 C.2   1 <1>  -0.2760 
  9 C       -4.1790    -0.2670    -0.5060 C.3   1 <1>  -0.1600 
 10 C        0.0710    -2.0340     0.1870 C.3   1 <1>  -0.2400 
 11 C       -2.1180    -2.8430    -0.5850 C.3   1 <1>  -0.2400 
 12 C       -1.2750     3.3490    -0.7870 C.3   1 <1>  -0.1600 
 13 C        1.2000     3.3020    -0.2090 C.3   1 <1>  -0.1600 
 14 C       -3.7350     1.9780     1.1810 C.2   1 <1>  -0.2880 
 15 C       -5.3690     0.6410    -0.1740 C.3   1 <1>  -0.1600 
 16 C        0.1610     3.5530    -1.3050 C.3   1 <1>  -0.1600 
 17 C       -5.1280     1.3760     1.1510 C.3   1 <1>  -0.0220 
 18 H       -1.6100    -0.7060    -1.9130 H     1 <1>   0.0800 
 19 H       -0.3890     0.5990     1.1630 H     1 <1>   0.0800 
 20 H       -2.9990     1.0490    -1.6600 H     1 <1>   0.0800 
 21 H       -1.8180    -1.3970     0.9750 H     1 <1>   0.0800 
 22 H       -1.2740     2.8430     1.2850 H     1 <1>   0.0800 
 23 H        1.7700     1.2220    -0.2900 H     1 <1>   0.0800 
 24 H        1.5130     1.8360     1.3090 H     1 <1>   0.0800 
 25 H       -4.0560    -0.9410     0.3220 H     1 <1>   0.0800 
 26 H       -4.4000    -0.8390    -1.3890 H     1 <1>   0.0800 
 27 H        0.5380    -2.1790    -0.7710 H     1 <1>   0.0800 
 28 H        0.1350    -2.9510     0.7440 H     1 <1>   0.0800 
 29 H        0.6340    -1.2950     0.7240 H     1 <1>   0.0800 
 30 H       -1.6920    -3.1000    -1.5390 H     1 <1>   0.0800 
 31 H       -3.1690    -2.6900    -0.7230 H     1 <1>   0.0800 
 32 H       -2.0020    -3.6870     0.0730 H     1 <1>   0.0800 
 33 H       -1.6640     4.2850    -0.4280 H     1 <1>   0.0800 
 34 H       -1.8860     3.0530    -1.6200 H     1 <1>   0.0800 
 35 H        2.1880     3.5020    -0.5860 H     1 <1>   0.0800 
 36 H        1.0160     3.9810     0.6050 H     1 <1>   0.0800 
 37 H       -3.6240     2.7320     1.9420 H     1 <1>   0.1500 
 38 H       -6.2710     0.0590    -0.1040 H     1 <1>   0.0800 
 39 H       -5.4950     1.3630    -0.9630 H     1 <1>   0.0800 
 40 H        0.2670     4.5480    -1.7000 H     1 <1>   0.0800 
 41 H        0.3430     2.8600    -2.1100 H     1 <1>   0.0800 
 42 H       -5.8620     2.1560     1.2580 H     1 <1>   0.0800 
 43 H       -5.2360     0.6960     1.9780 H     1 <1>   0.0800 
@<TRIPOS>BOND
  1   1   2  1   
  2   1   3  1   
  3   2   4  1   
  4   2   5  1   
  5   2  18  1   
  6   3   6  1   
  7   3   7  1   
  8   3  19  1   
  9   4   8  1   
 10   4   9  1   
 11   4  20  1   
 12   5  10  1   
 13   5  11  1   
 14   5  21  1   
 15   6   8  1   
 16   6  12  1   
 17   6  22  1   
 18   7  13  1   
 19   7  23  1   
 20   7  24  1   
 21   8  14  2   
 22   9  15  1   
 23   9  25  1   
 24   9  26  1   
 25  10  27  1   
 26  10  28  1   
 27  10  29  1   
 28  11  30  1   
 29  11  31  1   
 30  11  32  1   
 31  12  16  1   
 32  12  33  1   
 33  12  34  1   
 34  13  16  1   
 35  13  35  1   
 36  13  36  1   
 37  14  17  1   
 38  14  37  1   
 39  15  17  1   
 40  15  38  1   
 41  15  39  1   
 42  16  40  1   
 43  16  41  1   
 44  17  42  1   
 45  17  43  1   
@<TRIPOS>SUBSTRUCTURE
  1 ****   4 GROUP 4 **** **** 0

# MOE 2024.06 (io_trps.svl 2023.06)
