@<TRIPOS>MOLECULE
NONAME
30 30 1 0 0 
SMALL
USER_CHARGES


@<TRIPOS>ATOM
  1 S        0.2240     0.1770     0.8100 S.o2  1 <1>   1.4470 
  2 O        0.0100    -1.1930     1.2240 O.2   1 <1>  -0.6500 
  3 O        1.0800     1.0320     1.6060 O.2   1 <1>  -0.6500 
  4 N        0.9100     0.1210    -0.7450 N.am  1 <1>  -0.8490 
  5 C       -1.3800     0.9730     0.5250 C.ar  1 <1>  -0.0090 
  6 C        2.0540    -0.7910    -0.8050 C.3   1 <1>   0.1160 
  7 C        1.2940     1.4440    -1.2490 C.3   1 <1>   0.1160 
  8 C       -1.7150     2.1720     1.1440 C.ar  1 <1>  -0.1500 
  9 C       -2.3130     0.4050    -0.3330 C.ar  1 <1>  -0.1500 
 10 C       -2.9340     2.7930     0.9200 C.ar  1 <1>  -0.1440 
 11 C       -3.5350     1.0080    -0.5700 C.ar  1 <1>  -0.1500 
 12 C       -3.8540     2.2100     0.0560 C.ar  1 <1>   0.0830 
 13 C       -3.2540     4.1040     1.6230 C.3   1 <1>  -0.0970 
 14 O       -5.0360     2.8510    -0.1370 O.3   1 <1>  -0.3630 
 15 C       -6.0410     2.3230    -0.9740 C.3   1 <1>   0.0400 
 16 H        1.7460    -1.7860    -0.5280 H     1 <1>   0.0800 
 17 H        2.8270    -0.4670    -0.1280 H     1 <1>   0.0800 
 18 H        2.4490    -0.8280    -1.8050 H     1 <1>   0.0800 
 19 H        0.4410     2.1020    -1.2490 H     1 <1>   0.0800 
 20 H        1.6570     1.3620    -2.2590 H     1 <1>   0.0800 
 21 H        2.0650     1.8750    -0.6310 H     1 <1>   0.0800 
 22 H       -1.0030     2.6230     1.8150 H     1 <1>   0.1500 
 23 H       -2.0730    -0.5250    -0.8220 H     1 <1>   0.1500 
 24 H       -4.2210     0.5290    -1.2410 H     1 <1>   0.1500 
 25 H       -2.4430     4.4200     2.2530 H     1 <1>   0.0800 
 26 H       -4.1340     3.9850     2.2290 H     1 <1>   0.0800 
 27 H       -3.4410     4.8710     0.8930 H     1 <1>   0.0800 
 28 H       -6.8770     2.9990    -0.9570 H     1 <1>   0.0800 
 29 H       -6.3400     1.3620    -0.5960 H     1 <1>   0.0800 
 30 H       -5.6560     2.2440    -1.9750 H     1 <1>   0.0800 
@<TRIPOS>BOND
  1   1   2  2   
  2   1   3  2   
  3   1   4  am  
  4   1   5  1   
  5   4   6  1   
  6   4   7  1   
  7   5   8  ar  
  8   5   9  ar  
  9   6  16  1   
 10   6  17  1   
 11   6  18  1   
 12   7  19  1   
 13   7  20  1   
 14   7  21  1   
 15   8  10  ar  
 16   8  22  1   
 17   9  11  ar  
 18   9  23  1   
 19  10  12  ar  
 20  10  13  1   
 21  11  12  ar  
 22  11  24  1   
 23  12  14  1   
 24  13  25  1   
 25  13  26  1   
 26  13  27  1   
 27  14  15  1   
 28  15  28  1   
 29  15  29  1   
 30  15  30  1   
@<TRIPOS>SUBSTRUCTURE
  1 ****   5 GROUP 4 **** **** 0

# MOE 2024.06 (io_trps.svl 2023.06)
