@<TRIPOS>MOLECULE
NONAME
36 37 1 0 0 
SMALL
USER_CHARGES


@<TRIPOS>ATOM
  1 O       -0.8930    -0.4930    -1.0110 O.2   1 <1>  -0.5700 
  2 C       -0.6230    -1.4080    -0.2740 C.2   1 <1>   0.6300 
  3 N       -1.2250    -1.6320     0.9210 N.am  1 <1>  -0.7300 
  4 C        0.4520    -2.3950    -0.7000 C.3   1 <1>  -0.1000 
  5 C       -2.3890    -0.9690     1.5440 C.3   1 <1>   0.3640 
  6 C        0.2790    -3.2230    -1.9400 C.3   1 <1>  -0.2000 
  7 C        0.2440    -3.8810    -0.5970 C.3   1 <1>  -0.2000 
  8 C       -3.6570    -1.7230     1.1570 C.ar  1 <1>  -0.1440 
  9 C       -2.4880     0.5250     1.2320 C.3   1 <1>  -0.2400 
 10 C       -4.4470    -2.3080     2.1370 C.ar  1 <1>  -0.1500 
 11 C       -4.0390    -1.8420    -0.1730 C.ar  1 <1>  -0.1500 
 12 C       -5.5950    -2.9990     1.7910 C.ar  1 <1>  -0.1500 
 13 C       -5.1860    -2.5330    -0.5220 C.ar  1 <1>  -0.1500 
 14 C       -5.9730    -3.1190     0.4640 C.ar  1 <1>   0.0820 
 15 O       -7.1100    -3.8140     0.2130 O.3   1 <1>  -0.3620 
 16 C       -7.5850    -3.9870    -1.1010 C.3   1 <1>   0.1200 
 17 C       -8.8720    -4.8040    -1.0350 C.3   1 <1>  -0.2400 
 18 H       -0.9860    -2.5070     1.3810 H     1 <1>   0.3700 
 19 H        1.4360    -2.0060    -0.5120 H     1 <1>   0.1000 
 20 H       -2.2600    -1.0530     2.6090 H     1 <1>   0.0800 
 21 H        1.1320    -3.3730    -2.5780 H     1 <1>   0.1000 
 22 H       -0.6370    -3.1140    -2.4970 H     1 <1>   0.1000 
 23 H       -0.7020    -4.2670    -0.2560 H     1 <1>   0.1000 
 24 H        1.0730    -4.5020    -0.3060 H     1 <1>   0.1000 
 25 H       -2.7430     0.6900     0.2020 H     1 <1>   0.0800 
 26 H       -1.5560     1.0120     1.4520 H     1 <1>   0.0800 
 27 H       -3.2590     0.9650     1.8370 H     1 <1>   0.0800 
 28 H       -4.1770    -2.2300     3.1750 H     1 <1>   0.1500 
 29 H       -3.4370    -1.3920    -0.9450 H     1 <1>   0.1500 
 30 H       -6.2070    -3.4530     2.5490 H     1 <1>   0.1500 
 31 H       -5.4450    -2.6020    -1.5610 H     1 <1>   0.1500 
 32 H       -6.8330    -4.5070    -1.6700 H     1 <1>   0.0800 
 33 H       -7.7710    -3.0160    -1.5260 H     1 <1>   0.0800 
 34 H       -8.6760    -5.7640    -0.5930 H     1 <1>   0.0800 
 35 H       -9.2610    -4.9530    -2.0250 H     1 <1>   0.0800 
 36 H       -9.6090    -4.2830    -0.4500 H     1 <1>   0.0800 
@<TRIPOS>BOND
  1   1   2  2   
  2   2   3  am  
  3   2   4  1   
  4   3   5  1   
  5   3  18  1   
  6   4   6  1   
  7   4   7  1   
  8   4  19  1   
  9   5   8  1   
 10   5   9  1   
 11   5  20  1   
 12   6   7  1   
 13   6  21  1   
 14   6  22  1   
 15   7  23  1   
 16   7  24  1   
 17   8  10  ar  
 18   8  11  ar  
 19   9  25  1   
 20   9  26  1   
 21   9  27  1   
 22  10  12  ar  
 23  10  28  1   
 24  11  13  ar  
 25  11  29  1   
 26  12  14  ar  
 27  12  30  1   
 28  13  14  ar  
 29  13  31  1   
 30  14  15  1   
 31  15  16  1   
 32  16  17  1   
 33  16  32  1   
 34  16  33  1   
 35  17  34  1   
 36  17  35  1   
 37  17  36  1   
@<TRIPOS>SUBSTRUCTURE
  1 ****  11 GROUP 4 **** **** 0

# MOE 2024.06 (io_trps.svl 2023.06)
