@<TRIPOS>MOLECULE
NONAME
36 37 1 0 0 
SMALL
USER_CHARGES


@<TRIPOS>ATOM
  1 S        0.7790     0.6330    -0.7030 S.3   1 <1>  -0.3310 
  2 C       -0.9650     1.0790    -0.7560 C.ar  1 <1>   0.1020 
  3 C        1.3930     1.0920     0.9960 C.3   1 <1>   0.1310 
  4 C       -1.6390     0.8270    -1.9380 C.ar  1 <1>  -0.1500 
  5 C       -1.6170     1.6500     0.3270 C.ar  1 <1>  -0.1500 
  6 C        2.8680     0.7660     1.1800 C.2   1 <1>   0.5690 
  7 C       -2.9820     1.1480    -2.0410 C.ar  1 <1>  -0.1500 
  8 C       -2.9600     1.9680     0.2170 C.ar  1 <1>  -0.1500 
  9 O        3.3770     1.0210     2.2450 O.2   1 <1>  -0.5700 
 10 N        3.5700     0.2050     0.1620 N.am  1 <1>  -0.7300 
 11 C       -3.6410     1.7180    -0.9640 C.ar  1 <1>  -0.1500 
 12 C        4.9920    -0.1640     0.1910 C.3   1 <1>   0.2200 
 13 C        5.7300     0.6310    -0.8910 C.3   1 <1>  -0.1600 
 14 C        5.1160    -1.6720    -0.0440 C.3   1 <1>  -0.1600 
 15 C        7.2040     0.2070    -0.9830 C.3   1 <1>  -0.1600 
 16 C        6.5880    -2.1010    -0.1350 C.3   1 <1>  -0.1600 
 17 C        7.3320    -1.3040    -1.2160 C.3   1 <1>  -0.1600 
 18 H        0.8070     0.5410     1.7080 H     1 <1>   0.0800 
 19 H        1.2350     2.1460     1.1190 H     1 <1>   0.0800 
 20 H       -1.1170     0.3840    -2.7670 H     1 <1>   0.1500 
 21 H       -1.1080     1.8510     1.2480 H     1 <1>   0.1500 
 22 H       -3.5130     0.9550    -2.9570 H     1 <1>   0.1500 
 23 H       -3.4790     2.4120     1.0500 H     1 <1>   0.1500 
 24 H        3.0800     0.0130    -0.7150 H     1 <1>   0.3700 
 25 H       -4.6850     1.9670    -1.0450 H     1 <1>   0.1500 
 26 H        5.4100     0.0790     1.1550 H     1 <1>   0.0800 
 27 H        5.6760     1.6800    -0.6580 H     1 <1>   0.0800 
 28 H        5.2590     0.4670    -1.8440 H     1 <1>   0.0800 
 29 H        4.6180    -1.9370    -0.9600 H     1 <1>   0.0800 
 30 H        4.6430    -2.1970     0.7670 H     1 <1>   0.0800 
 31 H        7.7070     0.4710    -0.0680 H     1 <1>   0.0800 
 32 H        7.6830     0.7390    -1.7880 H     1 <1>   0.0800 
 33 H        6.6460    -3.1530    -0.3570 H     1 <1>   0.0800 
 34 H        7.0650    -1.9390     0.8170 H     1 <1>   0.0800 
 35 H        8.3720    -1.5820    -1.2150 H     1 <1>   0.0800 
 36 H        6.9270    -1.5520    -2.1820 H     1 <1>   0.0800 
@<TRIPOS>BOND
  1   1   2  1   
  2   1   3  1   
  3   2   4  ar  
  4   2   5  ar  
  5   3   6  1   
  6   3  18  1   
  7   3  19  1   
  8   4   7  ar  
  9   4  20  1   
 10   5   8  ar  
 11   5  21  1   
 12   6   9  2   
 13   6  10  am  
 14   7  11  ar  
 15   7  22  1   
 16   8  11  ar  
 17   8  23  1   
 18  10  12  1   
 19  10  24  1   
 20  11  25  1   
 21  12  13  1   
 22  12  14  1   
 23  12  26  1   
 24  13  15  1   
 25  13  27  1   
 26  13  28  1   
 27  14  16  1   
 28  14  29  1   
 29  14  30  1   
 30  15  17  1   
 31  15  31  1   
 32  15  32  1   
 33  16  17  1   
 34  16  33  1   
 35  16  34  1   
 36  17  35  1   
 37  17  36  1   
@<TRIPOS>SUBSTRUCTURE
  1 ****   1 GROUP 4 **** **** 0

# MOE 2024.06 (io_trps.svl 2023.06)
