@<TRIPOS>MOLECULE
NONAME
31 32 1 0 0 
SMALL
USER_CHARGES


@<TRIPOS>ATOM
  1 O       -1.6810     0.2910     0.8130 O.co2 1 <1>  -0.9000 
  2 C       -2.5220    -0.5670     1.1560 C.2   1 <1>   1.0320 
  3 O       -2.1050    -1.5540     1.7960 O.co2 1 <1>  -0.9000 
  4 C       -3.9340    -0.4040     0.8130 C.2   1 <1>  -0.0920 
  5 O       -4.8640    -1.2200     1.3220 O.3   1 <1>  -0.2800 
  6 C       -4.5650     0.5040     0.0040 C.2   1 <1>  -0.1810 
  7 C       -6.0380    -0.8540     0.8700 C.2   1 <1>  -0.0400 
  8 C       -5.9330     0.2130     0.0630 C.2   1 <1>  -0.1810 
  9 C       -3.9430     1.6190    -0.8190 C.3   1 <1>  -0.0590 
 10 C       -7.3110    -1.5760     1.2520 C.3   1 <1>   0.0200 
 11 C       -7.1330     0.8650    -0.5870 C.3   1 <1>   0.3810 
 12 C       -8.4710    -1.1680     0.3040 C.3   1 <1>   0.0000 
 13 O       -7.0330     2.2140    -0.3460 O.3   1 <1>  -0.6800 
 14 C       -8.4460     0.3620     0.0430 C.3   1 <1>  -0.1600 
 15 C       -9.8130    -1.5460     0.9500 C.3   1 <1>  -0.2400 
 16 C       -8.3520    -1.9320    -1.0290 C.3   1 <1>  -0.2400 
 17 H       -2.9230     1.3820    -1.0590 H     1 <1>   0.0800 
 18 H       -3.9580     2.5360    -0.2610 H     1 <1>   0.0800 
 19 H       -4.4840     1.7500    -1.7380 H     1 <1>   0.0800 
 20 H       -7.5410    -1.3120     2.2680 H     1 <1>   0.0800 
 21 H       -7.1450    -2.6380     1.2120 H     1 <1>   0.0800 
 22 H       -7.1190     0.7050    -1.6520 H     1 <1>   0.0800 
 23 H       -6.3030     2.3120     0.2980 H     1 <1>   0.4000 
 24 H       -9.2620     0.6390    -0.6000 H     1 <1>   0.0800 
 25 H       -8.5810     0.8610     0.9860 H     1 <1>   0.0800 
 26 H       -9.9470    -1.0200     1.8790 H     1 <1>   0.0800 
 27 H       -9.8510    -2.6020     1.1510 H     1 <1>   0.0800 
 28 H      -10.6310    -1.2940     0.2990 H     1 <1>   0.0800 
 29 H       -7.3970    -1.7590    -1.4920 H     1 <1>   0.0800 
 30 H       -9.1240    -1.6260    -1.7130 H     1 <1>   0.0800 
 31 H       -8.4470    -2.9910    -0.8650 H     1 <1>   0.0800 
@<TRIPOS>BOND
  1   1   2  ar  
  2   2   3  ar  
  3   2   4  1   
  4   4   5  1   
  5   4   6  2   
  6   5   7  1   
  7   6   8  1   
  8   6   9  1   
  9   7   8  2   
 10   7  10  1   
 11   8  11  1   
 12   9  17  1   
 13   9  18  1   
 14   9  19  1   
 15  10  12  1   
 16  10  20  1   
 17  10  21  1   
 18  11  13  1   
 19  11  14  1   
 20  11  22  1   
 21  12  14  1   
 22  12  15  1   
 23  12  16  1   
 24  13  23  1   
 25  14  24  1   
 26  14  25  1   
 27  15  26  1   
 28  15  27  1   
 29  15  28  1   
 30  16  29  1   
 31  16  30  1   
 32  16  31  1   
@<TRIPOS>SUBSTRUCTURE
  1 ****   8 GROUP 4 **** **** 0

# MOE 2024.06 (io_trps.svl 2023.06)
