@<TRIPOS>MOLECULE
NONAME
37 38 1 0 0 
SMALL
USER_CHARGES


@<TRIPOS>ATOM
  1 BR      -0.4670    -1.2170    -0.5280 Br    1 <1>  -0.0570 
  2 C        1.4600    -1.2480    -0.3050 C.2   1 <1>   0.0570 
  3 C        2.3590    -1.6760    -1.2650 C.2   1 <1>   0.1080 
  4 C        2.1600    -0.8710     0.7780 C.2   1 <1>  -0.3320 
  5 N        3.5720    -1.5780    -0.8220 N.2   1 <1>  -0.7070 
  6 C        2.0130    -2.1900    -2.6440 C.3   1 <1>  -0.0590 
  7 N        3.4810    -1.0730     0.4640 N.pl3 1 <1>   0.5840 
  8 C        1.6630    -0.3230     2.1090 C.3   1 <1>  -0.0600 
  9 S        4.8730    -0.7390     1.5460 S.o2  1 <1>   1.2950 
 10 O        4.7610    -1.5920     2.7180 O.2   1 <1>  -0.6500 
 11 O        4.9000     0.6850     1.8360 O.2   1 <1>  -0.6500 
 12 C        6.3050    -1.2350     0.5040 C.ar  1 <1>  -0.0090 
 13 C        6.9540    -0.3180    -0.3390 C.ar  1 <1>  -0.1440 
 14 C        6.7740    -2.5580     0.4900 C.ar  1 <1>  -0.1430 
 15 C        8.0460    -0.7010    -1.1020 C.ar  1 <1>  -0.1500 
 16 C        6.5140     1.1350    -0.4920 C.3   1 <1>  -0.0970 
 17 C        7.8690    -2.9180    -0.2820 C.ar  1 <1>  -0.1500 
 18 C        6.1280    -3.6840     1.2920 C.3   1 <1>  -0.0970 
 19 C        8.5140    -1.9970    -1.0770 C.ar  1 <1>  -0.1430 
 20 C        9.7140    -2.4020    -1.9130 C.3   1 <1>  -0.0970 
 21 H        1.4700    -1.4400    -3.1880 H     1 <1>   0.0800 
 22 H        1.4100    -3.0750    -2.5620 H     1 <1>   0.0800 
 23 H        2.9130    -2.4290    -3.1820 H     1 <1>   0.0800 
 24 H        0.5890    -0.2560     2.1130 H     1 <1>   0.0800 
 25 H        2.0630     0.6610     2.2850 H     1 <1>   0.0800 
 26 H        1.9640    -0.9680     2.9170 H     1 <1>   0.0800 
 27 H        8.5430     0.0160    -1.7310 H     1 <1>   0.1500 
 28 H        5.4570     1.1960    -0.6740 H     1 <1>   0.0800 
 29 H        7.0080     1.6080    -1.3220 H     1 <1>   0.0800 
 30 H        6.7570     1.6920     0.3950 H     1 <1>   0.0800 
 31 H        8.2270    -3.9320    -0.2700 H     1 <1>   0.1500 
 32 H        5.0630    -3.6920     1.1470 H     1 <1>   0.0800 
 33 H        6.3460    -3.5660     2.3390 H     1 <1>   0.0800 
 34 H        6.4990    -4.6450     0.9840 H     1 <1>   0.0800 
 35 H        9.7710    -1.8040    -2.8050 H     1 <1>   0.0800 
 36 H        9.6390    -3.4350    -2.2030 H     1 <1>   0.0800 
 37 H       10.6160    -2.2650    -1.3440 H     1 <1>   0.0800 
@<TRIPOS>BOND
  1   1   2  1   
  2   2   3  1   
  3   2   4  2   
  4   3   5  2   
  5   3   6  1   
  6   4   7  1   
  7   4   8  1   
  8   5   7  1   
  9   6  21  1   
 10   6  22  1   
 11   6  23  1   
 12   7   9  1   
 13   8  24  1   
 14   8  25  1   
 15   8  26  1   
 16   9  10  2   
 17   9  11  2   
 18   9  12  1   
 19  12  13  ar  
 20  12  14  ar  
 21  13  15  ar  
 22  13  16  1   
 23  14  17  ar  
 24  14  18  1   
 25  15  19  ar  
 26  15  27  1   
 27  16  28  1   
 28  16  29  1   
 29  16  30  1   
 30  17  19  ar  
 31  17  31  1   
 32  18  32  1   
 33  18  33  1   
 34  18  34  1   
 35  19  20  1   
 36  20  35  1   
 37  20  36  1   
 38  20  37  1   
@<TRIPOS>SUBSTRUCTURE
  1 ****   7 GROUP 4 **** **** 0

# MOE 2024.06 (io_trps.svl 2023.06)
