@<TRIPOS>MOLECULE
NONAME
45 46 1 0 0 
SMALL
USER_CHARGES


@<TRIPOS>ATOM
  1 CL       0.0550    -0.2570     0.6470 Cl    1 <1>  -0.1770 
  2 C        1.7880    -0.0310     0.4980 C.ar  1 <1>   0.1770 
  3 C        2.6290    -1.1240     0.6620 C.ar  1 <1>  -0.1440 
  4 C        2.2840     1.2360     0.2170 C.ar  1 <1>  -0.1440 
  5 C        3.9960    -0.9320     0.5410 C.ar  1 <1>  -0.1500 
  6 C        2.0750    -2.5070     0.9690 C.3   1 <1>  -0.0960 
  7 C        3.6550     1.4070     0.1000 C.ar  1 <1>  -0.1500 
  8 C        1.3460     2.4220     0.0410 C.3   1 <1>  -0.0960 
  9 C        4.5150     0.3220     0.2610 C.ar  1 <1>   0.0830 
 10 O        5.8660     0.4090     0.1610 O.3   1 <1>  -0.3630 
 11 C        6.5040     1.6210    -0.1790 C.3   1 <1>   0.1200 
 12 C        8.0170     1.3720    -0.2300 C.3   1 <1>   0.2000 
 13 O        8.4180     0.7660     0.9620 O.3   1 <1>  -0.6800 
 14 C        8.8290     2.6710    -0.4290 C.3   1 <1>   0.3430 
 15 N       10.2300     2.4920     0.0640 N.4   1 <1>  -0.9590 
 16 C       10.8500     3.7680     0.5160 C.3   1 <1>   0.3430 
 17 C       11.0870     1.7360    -0.8930 C.3   1 <1>   0.3430 
 18 C       12.1900     3.4770     1.1930 C.3   1 <1>  -0.1600 
 19 C       12.4310     1.4150    -0.2350 C.3   1 <1>  -0.1600 
 20 C       13.1300     2.6800     0.2790 C.3   1 <1>  -0.1600 
 21 H        4.6730    -1.7580     0.6620 H     1 <1>   0.1500 
 22 H        1.5230    -2.4850     1.8920 H     1 <1>   0.0800 
 23 H        2.8650    -3.2300     1.0620 H     1 <1>   0.0800 
 24 H        1.4170    -2.8220     0.1790 H     1 <1>   0.0800 
 25 H        4.0330     2.3870    -0.1140 H     1 <1>   0.1500 
 26 H        0.7740     2.5730     0.9390 H     1 <1>   0.0800 
 27 H        0.6680     2.2350    -0.7730 H     1 <1>   0.0800 
 28 H        1.8910     3.3240    -0.1700 H     1 <1>   0.0800 
 29 H        6.2630     2.3540     0.5720 H     1 <1>   0.0800 
 30 H        6.1370     1.9410    -1.1390 H     1 <1>   0.0800 
 31 H        8.2290     0.6870    -1.0330 H     1 <1>   0.0800 
 32 H        7.7500     0.0800     1.2020 H     1 <1>   0.4000 
 33 H        8.3520     3.4500     0.1420 H     1 <1>   0.0800 
 34 H        8.8210     2.9660    -1.4650 H     1 <1>   0.0800 
 35 H       10.1110     1.8760     0.8920 H     1 <1>   0.4500 
 36 H       10.1980     4.2690     1.2150 H     1 <1>   0.0800 
 37 H       11.0080     4.4160    -0.3300 H     1 <1>   0.0800 
 38 H       11.2530     2.3250    -1.7800 H     1 <1>   0.0800 
 39 H       10.6020     0.8150    -1.1760 H     1 <1>   0.0800 
 40 H       12.0170     2.9310     2.1050 H     1 <1>   0.0800 
 41 H       12.6590     4.4080     1.4610 H     1 <1>   0.0800 
 42 H       13.0650     0.9230    -0.9520 H     1 <1>   0.0800 
 43 H       12.2720     0.7270     0.5780 H     1 <1>   0.0800 
 44 H       14.0230     2.4090     0.8200 H     1 <1>   0.0800 
 45 H       13.4270     3.2930    -0.5560 H     1 <1>   0.0800 
@<TRIPOS>BOND
  1   1   2  1   
  2   2   3  ar  
  3   2   4  ar  
  4   3   5  ar  
  5   3   6  1   
  6   4   7  ar  
  7   4   8  1   
  8   5   9  ar  
  9   5  21  1   
 10   6  22  1   
 11   6  23  1   
 12   6  24  1   
 13   7   9  ar  
 14   7  25  1   
 15   8  26  1   
 16   8  27  1   
 17   8  28  1   
 18   9  10  1   
 19  10  11  1   
 20  11  12  1   
 21  11  29  1   
 22  11  30  1   
 23  12  13  1   
 24  12  14  1   
 25  12  31  1   
 26  13  32  1   
 27  14  15  1   
 28  14  33  1   
 29  14  34  1   
 30  15  16  1   
 31  15  17  1   
 32  15  35  1   
 33  16  18  1   
 34  16  36  1   
 35  16  37  1   
 36  17  19  1   
 37  17  38  1   
 38  17  39  1   
 39  18  20  1   
 40  18  40  1   
 41  18  41  1   
 42  19  20  1   
 43  19  42  1   
 44  19  43  1   
 45  20  44  1   
 46  20  45  1   
@<TRIPOS>SUBSTRUCTURE
  1 ****  11 GROUP 4 **** **** 0

# MOE 2024.06 (io_trps.svl 2023.06)
