@<TRIPOS>MOLECULE
NONAME
37 38 1 0 0 
SMALL
USER_CHARGES


@<TRIPOS>ATOM
  1 BR      -1.5940    -2.5400     2.9510 Br    1 <1>  -0.1110 
  2 C       -2.0750    -1.9300     1.1830 C.ar  1 <1>   0.1110 
  3 C       -1.0820    -1.8310     0.2100 C.ar  1 <1>   0.1170 
  4 C       -3.3990    -1.6120     0.9510 C.ar  1 <1>  -0.1500 
  5 N        0.2450    -2.1750     0.5370 N.am  1 <1>  -0.5470 
  6 C       -1.4810    -1.3820    -1.0460 C.ar  1 <1>  -0.1500 
  7 C       -3.7650    -1.1710    -0.3090 C.ar  1 <1>  -0.1500 
  8 C        1.3630    -2.3650    -0.2270 C.2   1 <1>   0.5690 
  9 C       -2.8050    -1.0570    -1.3010 C.ar  1 <1>  -0.1500 
 10 O        1.3790    -2.2460    -1.4270 O.2   1 <1>  -0.5700 
 11 C        2.6420    -2.7570     0.5030 C.3   1 <1>  -0.0190 
 12 C        3.8830    -2.5250    -0.3740 C.3   1 <1>   0.1960 
 13 C        2.5960    -4.2230     0.9730 C.3   1 <1>  -0.1600 
 14 N        5.1110    -2.8480     0.3740 N.am  1 <1>  -0.8490 
 15 C        3.9270    -4.6050     1.6350 C.3   1 <1>  -0.1600 
 16 S        6.5130    -2.4280    -0.4790 S.o2  1 <1>   1.3330 
 17 C        5.1260    -4.2690     0.7400 C.3   1 <1>   0.1960 
 18 O        6.2780    -2.6990    -1.8780 O.2   1 <1>  -0.6500 
 19 O        7.6440    -3.0270     0.1910 O.2   1 <1>  -0.6500 
 20 C        6.6190    -0.6680    -0.2330 C.3   1 <1>  -0.1350 
 21 H       -4.1280    -1.7070     1.7370 H     1 <1>   0.1500 
 22 H        0.3740    -2.3640     1.5320 H     1 <1>   0.3700 
 23 H       -0.7640    -1.2770    -1.8390 H     1 <1>   0.1500 
 24 H       -4.7910    -0.9170    -0.5170 H     1 <1>   0.1500 
 25 H       -3.0870    -0.7140    -2.2820 H     1 <1>   0.1500 
 26 H        2.7340    -2.1160     1.3610 H     1 <1>   0.0800 
 27 H        3.9020    -1.4940    -0.6830 H     1 <1>   0.0800 
 28 H        3.8230    -3.1330    -1.2630 H     1 <1>   0.0800 
 29 H        2.4260    -4.8630     0.1230 H     1 <1>   0.0800 
 30 H        1.7890    -4.3720     1.6690 H     1 <1>   0.0800 
 31 H        3.9340    -5.6580     1.8530 H     1 <1>   0.0800 
 32 H        4.0380    -4.0770     2.5660 H     1 <1>   0.0800 
 33 H        6.0290    -4.4990     1.2810 H     1 <1>   0.0800 
 34 H        5.1080    -4.8750    -0.1520 H     1 <1>   0.0800 
 35 H        5.7700    -0.1750    -0.6620 H     1 <1>   0.0800 
 36 H        7.5070    -0.2880    -0.6980 H     1 <1>   0.0800 
 37 H        6.6590    -0.4470     0.8160 H     1 <1>   0.0800 
@<TRIPOS>BOND
  1   1   2  1   
  2   2   3  ar  
  3   2   4  ar  
  4   3   5  1   
  5   3   6  ar  
  6   4   7  ar  
  7   4  21  1   
  8   5   8  am  
  9   5  22  1   
 10   6   9  ar  
 11   6  23  1   
 12   7   9  ar  
 13   7  24  1   
 14   8  10  2   
 15   8  11  1   
 16   9  25  1   
 17  11  12  1   
 18  11  13  1   
 19  11  26  1   
 20  12  14  1   
 21  12  27  1   
 22  12  28  1   
 23  13  15  1   
 24  13  29  1   
 25  13  30  1   
 26  14  16  am  
 27  14  17  1   
 28  15  17  1   
 29  15  31  1   
 30  15  32  1   
 31  16  18  2   
 32  16  19  2   
 33  16  20  1   
 34  17  33  1   
 35  17  34  1   
 36  20  35  1   
 37  20  36  1   
 38  20  37  1   
@<TRIPOS>SUBSTRUCTURE
  1 ****   8 GROUP 4 **** **** 0

# MOE 2024.06 (io_trps.svl 2023.06)
