@<TRIPOS>MOLECULE
NONAME
31 32 1 0 0 
SMALL
USER_CHARGES


@<TRIPOS>ATOM
  1 S       -0.6150    -0.6800     0.1670 S.o2  1 <1>   1.5510 
  2 O       -1.1910    -1.1670     1.4060 O.2   1 <1>  -0.6500 
  3 O       -0.7210    -1.4410    -1.0630 O.2   1 <1>  -0.6500 
  4 N       -1.1000     0.8960    -0.1020 N.2   1 <1>  -0.6380 
  5 C        1.1410    -0.4350     0.4760 C.2   1 <1>  -0.0630 
  6 C       -2.3220     1.0770    -0.3550 C.2   1 <1>   0.7110 
  7 C        1.7240    -0.4800     1.7360 C.2   1 <1>   0.1390 
  8 C        2.1830    -0.1540    -0.3480 C.2   1 <1>  -0.3020 
  9 N       -2.7230     2.3740    -0.5760 N.pl3 1 <1>  -0.5500 
 10 N       -3.2780     0.0860    -0.4280 N.2   1 <1>  -0.6610 
 11 N        3.0030    -0.2540     1.7090 N.2   1 <1>  -0.7070 
 12 N        3.2880    -0.0520     0.4120 N.pl3 1 <1>   0.3140 
 13 C       -4.0100     2.7310    -0.8650 C.2   1 <1>  -0.0380 
 14 C       -4.4910     0.4060    -0.6990 C.2   1 <1>   0.3760 
 15 C        4.6600     0.2350    -0.0530 C.3   1 <1>   0.0960 
 16 C       -4.9200     1.7350    -0.9300 C.2   1 <1>  -0.1360 
 17 C       -4.3100     4.2000    -1.0860 C.3   1 <1>  -0.1020 
 18 C        4.8540     1.7330    -0.3180 C.3   1 <1>  -0.2400 
 19 H        1.1760    -0.6810     2.6430 H     1 <1>   0.1500 
 20 H        2.1840    -0.0260    -1.4150 H     1 <1>   0.1500 
 21 H       -1.9700     3.0570    -0.5040 H     1 <1>   0.4000 
 22 H       -5.2340    -0.3690    -0.7560 H     1 <1>   0.0600 
 23 H        4.8420    -0.3300    -0.9490 H     1 <1>   0.0800 
 24 H        5.3470    -0.0950     0.7060 H     1 <1>   0.0800 
 25 H       -5.9580     1.9040    -1.1500 H     1 <1>   0.1500 
 26 H       -3.7340     4.5730    -1.9140 H     1 <1>   0.0800 
 27 H       -4.0620     4.7630    -0.2050 H     1 <1>   0.0800 
 28 H       -5.3530     4.3440    -1.3020 H     1 <1>   0.0800 
 29 H        4.1840     2.0700    -1.0890 H     1 <1>   0.0800 
 30 H        5.8640     1.9200    -0.6360 H     1 <1>   0.0800 
 31 H        4.6710     2.2920     0.5830 H     1 <1>   0.0800 
@<TRIPOS>BOND
  1   1   2  2   
  2   1   3  2   
  3   1   4  1   
  4   1   5  1   
  5   4   6  2   
  6   5   7  1   
  7   5   8  2   
  8   6   9  1   
  9   6  10  1   
 10   7  11  2   
 11   7  19  1   
 12   8  12  1   
 13   8  20  1   
 14   9  13  1   
 15   9  21  1   
 16  10  14  2   
 17  11  12  1   
 18  12  15  1   
 19  13  16  2   
 20  13  17  1   
 21  14  16  1   
 22  14  22  1   
 23  15  18  1   
 24  15  23  1   
 25  15  24  1   
 26  16  25  1   
 27  17  26  1   
 28  17  27  1   
 29  17  28  1   
 30  18  29  1   
 31  18  30  1   
 32  18  31  1   
@<TRIPOS>SUBSTRUCTURE
  1 ****   4 GROUP 4 **** **** 0

# MOE 2024.06 (io_trps.svl 2023.06)
