@<TRIPOS>MOLECULE
NONAME
37 38 1 0 0 
SMALL
USER_CHARGES


@<TRIPOS>ATOM
  1 S       -0.0250     0.4210     0.0100 S.3   1 <1>   0.1810 
  2 N        1.5970     0.9390     0.0100 N.2   1 <1>  -0.5100 
  3 C        0.3690    -1.2770     0.0070 C.2   1 <1>   0.1040 
  4 C        2.3460    -0.0920     0.0080 C.2   1 <1>   0.1080 
  5 N       -0.6040    -2.2620     0.0060 N.am  1 <1>  -0.4940 
  6 C        1.7270    -1.3940     0.0060 C.2   1 <1>  -0.0860 
  7 C        3.8500     0.1270     0.0070 C.3   1 <1>  -0.0590 
  8 C       -1.9790    -2.2400     0.0070 C.2   1 <1>   0.7160 
  9 C        2.3940    -2.6680     0.0030 C.2   1 <1>   0.8060 
 10 O       -2.5670    -1.1790     0.0080 O.2   1 <1>  -0.5700 
 11 C       -2.6860    -3.5010     0.0060 C.2   1 <1>  -0.0860 
 12 O        1.7830    -3.7240     0.0020 O.2   1 <1>  -0.5700 
 13 O        3.7290    -2.7190     0.0010 O.3   1 <1>  -0.4300 
 14 C       -4.0250    -3.7690     0.0020 C.2   1 <1>  -0.0400 
 15 C       -2.0890    -4.7850     0.0090 C.2   1 <1>  -0.1500 
 16 C        4.4320    -3.9430    -0.0020 C.3   1 <1>   0.1200 
 17 O       -4.2490    -5.0600     0.0030 O.3   1 <1>  -0.2800 
 18 C       -5.2420    -2.8620    -0.0030 C.3   1 <1>  -0.0600 
 19 C       -3.0940    -5.6810     0.0070 C.2   1 <1>  -0.0400 
 20 C        5.9250    -3.6270    -0.0040 C.3   1 <1>  -0.2400 
 21 C       -3.0850    -7.1930     0.0090 C.3   1 <1>  -0.0600 
 22 H       -0.2270    -3.2140     0.0030 H     1 <1>   0.3700 
 23 H        4.0730     1.1790     0.0090 H     1 <1>   0.0800 
 24 H        4.2890    -0.3070    -0.8720 H     1 <1>   0.0800 
 25 H        4.2900    -0.3110     0.8840 H     1 <1>   0.0800 
 26 H       -1.0350    -5.0000     0.0130 H     1 <1>   0.1500 
 27 H        4.1540    -4.4970    -0.8840 H     1 <1>   0.0800 
 28 H        4.1570    -4.4990     0.8780 H     1 <1>   0.0800 
 29 H       -4.9630    -1.8260    -0.0040 H     1 <1>   0.0800 
 30 H       -5.8380    -3.0570     0.8700 H     1 <1>   0.0800 
 31 H       -5.8330    -3.0600    -0.8770 H     1 <1>   0.0800 
 32 H        6.1850    -3.0650    -0.8830 H     1 <1>   0.0800 
 33 H        6.4880    -4.5430    -0.0070 H     1 <1>   0.0800 
 34 H        6.1880    -3.0670     0.8750 H     1 <1>   0.0800 
 35 H       -2.0750    -7.5610     0.0120 H     1 <1>   0.0800 
 36 H       -3.5890    -7.5590    -0.8670 H     1 <1>   0.0800 
 37 H       -3.5950    -7.5570     0.8820 H     1 <1>   0.0800 
@<TRIPOS>BOND
  1   1   2  1   
  2   1   3  1   
  3   2   4  2   
  4   3   5  1   
  5   3   6  2   
  6   4   6  1   
  7   4   7  1   
  8   5   8  am  
  9   5  22  1   
 10   6   9  1   
 11   7  23  1   
 12   7  24  1   
 13   7  25  1   
 14   8  10  2   
 15   8  11  1   
 16   9  12  2   
 17   9  13  1   
 18  11  14  2   
 19  11  15  1   
 20  13  16  1   
 21  14  17  1   
 22  14  18  1   
 23  15  19  2   
 24  15  26  1   
 25  16  20  1   
 26  16  27  1   
 27  16  28  1   
 28  17  19  1   
 29  18  29  1   
 30  18  30  1   
 31  18  31  1   
 32  19  21  1   
 33  20  32  1   
 34  20  33  1   
 35  20  34  1   
 36  21  35  1   
 37  21  36  1   
 38  21  37  1   
@<TRIPOS>SUBSTRUCTURE
  1 ****   5 GROUP 4 **** **** 0

# MOE 2024.06 (io_trps.svl 2023.06)
