@<TRIPOS>MOLECULE
NONAME
40 42 1 0 0 
SMALL
USER_CHARGES


@<TRIPOS>ATOM
  1 CL      -0.9410    -0.8490    -2.2290 Cl    1 <1>  -0.1770 
  2 C       -2.4430    -1.1510    -1.3890 C.ar  1 <1>   0.1770 
  3 C       -3.6210    -1.2980    -2.0990 C.ar  1 <1>   0.1600 
  4 C       -2.4500    -1.2430    -0.0150 C.ar  1 <1>  -0.1500 
  5 N       -4.8050    -1.5280    -1.5440 N.ar  1 <1>  -0.6200 
  6 C       -3.6740    -1.4820     0.5700 C.ar  1 <1>  -0.1500 
  7 C       -4.8190    -1.6160    -0.2200 C.ar  1 <1>   0.4270 
  8 N       -6.0750    -1.8580     0.2910 N.am  1 <1>  -0.5470 
  9 C       -6.5940    -1.8920     1.5500 C.2   1 <1>   0.5690 
 10 O       -5.9490    -1.6970     2.5510 O.2   1 <1>  -0.5700 
 11 C       -8.0880    -2.1990     1.6710 C.3   1 <1>   0.1710 
 12 N       -8.8700    -1.9100     0.4340 N.3   1 <1>  -0.8100 
 13 C      -10.1940    -2.5790     0.4840 C.3   1 <1>   0.1100 
 14 C       -9.0590    -0.4450     0.2540 C.3   1 <1>   0.1100 
 15 C      -11.0520    -2.2860    -0.7620 C.3   1 <1>   0.2090 
 16 C       -9.8870    -0.1140    -1.0020 C.3   1 <1>   0.2090 
 17 N      -11.2080    -0.8120    -0.9490 N.pl3 1 <1>  -0.8380 
 18 C      -12.3910    -0.1590    -0.6760 C.ar  1 <1>   0.7200 
 19 N      -13.5130    -0.8710    -0.7790 N.ar  1 <1>  -0.6200 
 20 N      -12.3140     1.1260    -0.3270 N.ar  1 <1>  -0.6200 
 21 C      -14.6320    -0.2390    -0.5250 C.ar  1 <1>   0.1600 
 22 C      -13.4490     1.7320    -0.0770 C.ar  1 <1>   0.1600 
 23 C      -14.6560     1.0850    -0.1630 C.ar  1 <1>  -0.1500 
 24 H       -3.5830    -1.2230    -3.1710 H     1 <1>   0.1500 
 25 H       -1.5470    -1.1330     0.5590 H     1 <1>   0.1500 
 26 H       -3.7400    -1.5670     1.6380 H     1 <1>   0.1500 
 27 H       -6.7860    -1.9800    -0.4340 H     1 <1>   0.3700 
 28 H       -8.4920    -1.6450     2.5000 H     1 <1>   0.0800 
 29 H       -8.1720    -3.2450     1.9060 H     1 <1>   0.0800 
 30 H      -10.7360    -2.2520     1.3540 H     1 <1>   0.0800 
 31 H      -10.0520    -3.6430     0.5580 H     1 <1>   0.0800 
 32 H       -8.1030     0.0400     0.1680 H     1 <1>   0.0800 
 33 H       -9.5660    -0.0310     1.1090 H     1 <1>   0.0800 
 34 H      -12.0060    -2.7710    -0.6540 H     1 <1>   0.0800 
 35 H      -10.5730    -2.7020    -1.6310 H     1 <1>   0.0800 
 36 H       -9.3510    -0.4440    -1.8750 H     1 <1>   0.0800 
 37 H      -10.0100     0.9510    -1.0850 H     1 <1>   0.0800 
 38 H      -15.5530    -0.7910    -0.6070 H     1 <1>   0.1500 
 39 H      -13.4140     2.7700     0.2040 H     1 <1>   0.1500 
 40 H      -15.5790     1.5920     0.0430 H     1 <1>   0.1500 
@<TRIPOS>BOND
  1   1   2  1   
  2   2   3  ar  
  3   2   4  ar  
  4   3   5  ar  
  5   3  24  1   
  6   4   6  ar  
  7   4  25  1   
  8   5   7  ar  
  9   6   7  ar  
 10   6  26  1   
 11   7   8  1   
 12   8   9  am  
 13   8  27  1   
 14   9  10  2   
 15   9  11  1   
 16  11  12  1   
 17  11  28  1   
 18  11  29  1   
 19  12  13  1   
 20  12  14  1   
 21  13  15  1   
 22  13  30  1   
 23  13  31  1   
 24  14  16  1   
 25  14  32  1   
 26  14  33  1   
 27  15  17  1   
 28  15  34  1   
 29  15  35  1   
 30  16  17  1   
 31  16  36  1   
 32  16  37  1   
 33  17  18  1   
 34  18  19  ar  
 35  18  20  ar  
 36  19  21  ar  
 37  20  22  ar  
 38  21  23  ar  
 39  21  38  1   
 40  22  23  ar  
 41  22  39  1   
 42  23  40  1   
@<TRIPOS>SUBSTRUCTURE
  1 ****  14 GROUP 4 **** **** 0

# MOE 2024.06 (io_trps.svl 2023.06)
