@<TRIPOS>MOLECULE
NONAME
37 37 1 0 0 
SMALL
USER_CHARGES


@<TRIPOS>ATOM
  1 O       -7.7380     3.5310     0.1710 O.3   1 <1>  -0.3630 
  2 C       -7.2730     2.2540     0.2240 C.ar  1 <1>   0.0830 
  3 C       -9.0620     3.8130    -0.2330 C.3   1 <1>   0.1200 
  4 C       -6.0290     2.0480     0.8160 C.ar  1 <1>  -0.1440 
  5 C       -7.9770     1.1690    -0.2930 C.ar  1 <1>  -0.1500 
  6 C       -9.2950     5.3170    -0.0900 C.3   1 <1>  -0.1600 
  7 C       -5.4990     0.7680     0.8840 C.ar  1 <1>  -0.1500 
  8 C       -5.2610     3.2180     1.3880 C.3   1 <1>   0.4870 
  9 C       -7.4400    -0.1040    -0.2200 C.ar  1 <1>  -0.1500 
 10 C      -10.7200     5.6970    -0.5100 C.3   1 <1>  -0.1600 
 11 C       -6.2030    -0.3040     0.3660 C.ar  1 <1>  -0.1500 
 12 N       -4.9900     4.1440     0.2730 N.4   1 <1>  -0.9060 
 13 C      -10.9530     7.2030    -0.3670 C.3   1 <1>  -0.2400 
 14 C       -4.3750     5.4200     0.6770 C.3   1 <1>   0.3430 
 15 C       -4.2420     6.2900    -0.5630 C.3   1 <1>  -0.2400 
 16 H       -9.7380     3.2620     0.3990 H     1 <1>   0.0800 
 17 H       -9.1810     3.5080    -1.2590 H     1 <1>   0.0800 
 18 H       -8.9390     1.2870    -0.7560 H     1 <1>   0.1500 
 19 H       -8.5920     5.8470    -0.7080 H     1 <1>   0.0800 
 20 H       -9.1430     5.6020     0.9370 H     1 <1>   0.0800 
 21 H       -4.5400     0.5850     1.3400 H     1 <1>   0.1500 
 22 H       -4.3410     2.8810     1.8360 H     1 <1>   0.0800 
 23 H       -5.8630     3.7040     2.1400 H     1 <1>   0.0800 
 24 H       -7.9850    -0.9420    -0.6200 H     1 <1>   0.1500 
 25 H      -11.4330     5.1710     0.1020 H     1 <1>   0.0800 
 26 H      -10.8870     5.4120    -1.5360 H     1 <1>   0.0800 
 27 H       -5.7930    -1.2990     0.4200 H     1 <1>   0.1500 
 28 H       -5.9170     4.3070    -0.1540 H     1 <1>   0.4500 
 29 H       -4.4340     3.6580    -0.4380 H     1 <1>   0.4500 
 30 H      -10.8170     7.5120     0.6550 H     1 <1>   0.0800 
 31 H      -11.9570     7.4500    -0.6640 H     1 <1>   0.0800 
 32 H      -10.2700     7.7540    -0.9900 H     1 <1>   0.0800 
 33 H       -3.4030     5.2460     1.1100 H     1 <1>   0.0800 
 34 H       -4.9960     5.9180     1.4060 H     1 <1>   0.0800 
 35 H       -3.6070     5.8230    -1.2950 H     1 <1>   0.0800 
 36 H       -3.7980     7.2310    -0.2900 H     1 <1>   0.0800 
 37 H       -5.2060     6.4920    -0.9960 H     1 <1>   0.0800 
@<TRIPOS>BOND
  1   1   2  1   
  2   1   3  1   
  3   2   4  ar  
  4   2   5  ar  
  5   3   6  1   
  6   3  16  1   
  7   3  17  1   
  8   4   7  ar  
  9   4   8  1   
 10   5   9  ar  
 11   5  18  1   
 12   6  10  1   
 13   6  19  1   
 14   6  20  1   
 15   7  11  ar  
 16   7  21  1   
 17   8  12  1   
 18   8  22  1   
 19   8  23  1   
 20   9  11  ar  
 21   9  24  1   
 22  10  13  1   
 23  10  25  1   
 24  10  26  1   
 25  11  27  1   
 26  12  14  1   
 27  12  28  1   
 28  12  29  1   
 29  13  30  1   
 30  13  31  1   
 31  13  32  1   
 32  14  15  1   
 33  14  33  1   
 34  14  34  1   
 35  15  35  1   
 36  15  36  1   
 37  15  37  1   
@<TRIPOS>SUBSTRUCTURE
  1 ****   1 GROUP 4 **** **** 0

# MOE 2024.06 (io_trps.svl 2023.06)
