@<TRIPOS>MOLECULE
NONAME
39 40 1 0 0 
SMALL
USER_CHARGES


@<TRIPOS>ATOM
  1 O        1.8620    -2.0860     0.5250 O.2   1 <1>  -0.5700 
  2 C        1.7070    -1.0310    -0.0320 C.2   1 <1>   0.5690 
  3 N        0.5000    -0.6940    -0.5170 N.am  1 <1>  -0.8000 
  4 C        2.8930    -0.0920    -0.1940 C.3   1 <1>  -0.0190 
  5 C        4.1470    -0.7700     0.3760 C.3   1 <1>   0.3430 
  6 C        2.6530     1.2770     0.4830 C.3   1 <1>  -0.1600 
  7 N        5.3880     0.0740     0.2440 N.4   1 <1>  -0.9590 
  8 C        3.9630     2.0230     0.8070 C.3   1 <1>  -0.1600 
  9 C        5.1450     1.5280    -0.0270 C.3   1 <1>   0.3430 
 10 C        6.3410    -0.5110    -0.7400 C.3   1 <1>   0.4860 
 11 C        7.6680     0.2130    -0.6170 C.ar  1 <1>  -0.1430 
 12 C        8.5180    -0.0530     0.4480 C.ar  1 <1>  -0.1500 
 13 C        8.0410     1.1530    -1.5680 C.ar  1 <1>  -0.1500 
 14 C        9.7200     0.6220     0.5710 C.ar  1 <1>  -0.1500 
 15 C        9.2420     1.8270    -1.4440 C.ar  1 <1>  -0.1500 
 16 C       10.0860     1.5720    -0.3770 C.ar  1 <1>   0.0820 
 17 O       11.2400     2.2810    -0.3310 O.3   1 <1>  -0.3620 
 18 C       12.2040     2.0610     0.6750 C.3   1 <1>   0.0400 
 19 H       -0.2830    -1.3420    -0.3930 H     1 <1>   0.3700 
 20 H        0.2740     0.1820    -0.9900 H     1 <1>   0.3700 
 21 H        3.0420     0.0490    -1.2490 H     1 <1>   0.0800 
 22 H        4.2870    -1.7240    -0.1070 H     1 <1>   0.0800 
 23 H        3.9650    -0.9690     1.4210 H     1 <1>   0.0800 
 24 H        2.1020     1.1390     1.4000 H     1 <1>   0.0800 
 25 H        2.0420     1.8830    -0.1660 H     1 <1>   0.0800 
 26 H        5.8770     0.0350     1.1470 H     1 <1>   0.4500 
 27 H        4.2020     1.9040     1.8500 H     1 <1>   0.0800 
 28 H        3.8240     3.0770     0.6350 H     1 <1>   0.0800 
 29 H        4.9220     1.6740    -1.0720 H     1 <1>   0.0800 
 30 H        6.0290     2.1000     0.2090 H     1 <1>   0.0800 
 31 H        5.9550    -0.4090    -1.7410 H     1 <1>   0.0800 
 32 H        6.4900    -1.5590    -0.5360 H     1 <1>   0.0800 
 33 H        8.2620    -0.7890     1.1920 H     1 <1>   0.1500 
 34 H        7.4120     1.3710    -2.4150 H     1 <1>   0.1500 
 35 H       10.3600     0.3990     1.4050 H     1 <1>   0.1500 
 36 H        9.5400     2.5580    -2.1760 H     1 <1>   0.1500 
 37 H       13.0340     2.7190     0.4910 H     1 <1>   0.0800 
 38 H       12.5320     1.0380     0.6260 H     1 <1>   0.0800 
 39 H       11.7680     2.2830     1.6320 H     1 <1>   0.0800 
@<TRIPOS>BOND
  1   1   2  2   
  2   2   3  am  
  3   2   4  1   
  4   3  19  1   
  5   3  20  1   
  6   4   5  1   
  7   4   6  1   
  8   4  21  1   
  9   5   7  1   
 10   5  22  1   
 11   5  23  1   
 12   6   8  1   
 13   6  24  1   
 14   6  25  1   
 15   7   9  1   
 16   7  10  1   
 17   7  26  1   
 18   8   9  1   
 19   8  27  1   
 20   8  28  1   
 21   9  29  1   
 22   9  30  1   
 23  10  11  1   
 24  10  31  1   
 25  10  32  1   
 26  11  12  ar  
 27  11  13  ar  
 28  12  14  ar  
 29  12  33  1   
 30  13  15  ar  
 31  13  34  1   
 32  14  16  ar  
 33  14  35  1   
 34  15  16  ar  
 35  15  36  1   
 36  16  17  1   
 37  17  18  1   
 38  18  37  1   
 39  18  38  1   
 40  18  39  1   
@<TRIPOS>SUBSTRUCTURE
  1 ****   7 GROUP 4 **** **** 0

# MOE 2024.06 (io_trps.svl 2023.06)
