@<TRIPOS>MOLECULE
NONAME
37 38 1 0 0 
SMALL
USER_CHARGES


@<TRIPOS>ATOM
  1 CL      -1.9910     0.8530     1.7670 Cl    1 <1>  -0.1770 
  2 C       -1.0460     2.0650     0.9320 C.ar  1 <1>   0.1770 
  3 C       -1.4310     2.5210    -0.3250 C.ar  1 <1>  -0.1440 
  4 C        0.0870     2.5460     1.5600 C.ar  1 <1>  -0.1500 
  5 C       -0.6460     3.4760    -0.9610 C.ar  1 <1>  -0.1500 
  6 C       -2.6830     1.9830    -1.0020 C.3   1 <1>   0.2540 
  7 C        0.8470     3.4980     0.9100 C.ar  1 <1>   0.1770 
  8 C        0.4940     3.9670    -0.3420 C.ar  1 <1>  -0.1500 
  9 N       -3.8930     2.5250    -0.3540 N.3   1 <1>  -0.8100 
 10 CL       2.2810     4.1210     1.6830 Cl    1 <1>  -0.1770 
 11 C       -5.1050     1.7830    -0.7390 C.3   1 <1>   0.1100 
 12 C       -4.0520     3.9820    -0.5310 C.3   1 <1>   0.1100 
 13 C       -6.3350     2.2860     0.0440 C.3   1 <1>   0.3430 
 14 C       -5.2750     4.5030     0.2510 C.3   1 <1>   0.3430 
 15 N       -6.5370     3.7710    -0.1220 N.4   1 <1>  -0.9590 
 16 C       -7.6860     4.2850     0.6920 C.3   1 <1>   0.3430 
 17 C       -9.0470     3.7660     0.2050 C.3   1 <1>   0.1200 
 18 O      -10.0250     4.3650     0.9780 O.3   1 <1>  -0.6800 
 19 H        0.3720     2.1860     2.5310 H     1 <1>   0.1500 
 20 H       -0.9130     3.8420    -1.9370 H     1 <1>   0.1500 
 21 H       -2.6790     0.9090    -0.9210 H     1 <1>   0.0800 
 22 H       -2.6810     2.2330    -2.0490 H     1 <1>   0.0800 
 23 H        1.1090     4.7060    -0.8250 H     1 <1>   0.1500 
 24 H       -4.9650     0.7370    -0.5180 H     1 <1>   0.0800 
 25 H       -5.2800     1.8780    -1.7980 H     1 <1>   0.0800 
 26 H       -4.1540     4.2210    -1.5760 H     1 <1>   0.0800 
 27 H       -3.1770     4.4870    -0.1590 H     1 <1>   0.0800 
 28 H       -6.1850     2.0560     1.0870 H     1 <1>   0.0800 
 29 H       -7.2080     1.7530    -0.2920 H     1 <1>   0.0800 
 30 H       -5.3910     5.5580     0.0640 H     1 <1>   0.0800 
 31 H       -5.0790     4.3720     1.3030 H     1 <1>   0.0800 
 32 H       -6.7150     3.9610    -1.1160 H     1 <1>   0.4500 
 33 H       -7.7050     5.3610     0.6400 H     1 <1>   0.0800 
 34 H       -7.5540     4.0010     1.7240 H     1 <1>   0.0800 
 35 H       -9.1310     2.7010     0.3330 H     1 <1>   0.0800 
 36 H       -9.2210     4.0390    -0.8210 H     1 <1>   0.0800 
 37 H      -10.9270     4.0850     0.7110 H     1 <1>   0.4000 
@<TRIPOS>BOND
  1   1   2  1   
  2   2   3  ar  
  3   2   4  ar  
  4   3   5  ar  
  5   3   6  1   
  6   4   7  ar  
  7   4  19  1   
  8   5   8  ar  
  9   5  20  1   
 10   6   9  1   
 11   6  21  1   
 12   6  22  1   
 13   7   8  ar  
 14   7  10  1   
 15   8  23  1   
 16   9  11  1   
 17   9  12  1   
 18  11  13  1   
 19  11  24  1   
 20  11  25  1   
 21  12  14  1   
 22  12  26  1   
 23  12  27  1   
 24  13  15  1   
 25  13  28  1   
 26  13  29  1   
 27  14  15  1   
 28  14  30  1   
 29  14  31  1   
 30  15  16  1   
 31  15  32  1   
 32  16  17  1   
 33  16  33  1   
 34  16  34  1   
 35  17  18  1   
 36  17  35  1   
 37  17  36  1   
 38  18  37  1   
@<TRIPOS>SUBSTRUCTURE
  1 ****   9 GROUP 4 **** **** 0

# MOE 2024.06 (io_trps.svl 2023.06)
