@<TRIPOS>MOLECULE
NONAME
48 49 1 0 0 
SMALL
USER_CHARGES


@<TRIPOS>ATOM
  1 O       -0.7830     5.0930     0.7410 O.3   1 <1>  -0.3630 
  2 C        0.4240     5.6850     0.5550 C.ar  1 <1>   0.0830 
  3 C       -1.9620     5.6560     0.2100 C.3   1 <1>   0.1200 
  4 C        0.6060     6.8720    -0.1490 C.ar  1 <1>  -0.1500 
  5 C        1.5230     5.0500     1.1090 C.ar  1 <1>  -0.1500 
  6 C       -3.1290     4.7500     0.5920 C.3   1 <1>   0.1200 
  7 C        1.8760     7.4050    -0.2900 C.ar  1 <1>  -0.1500 
  8 C        2.7900     5.5860     0.9660 C.ar  1 <1>  -0.1500 
  9 O       -4.3090     5.2900     0.0720 O.3   1 <1>  -0.5600 
 10 C        2.9740     6.7680     0.2670 C.ar  1 <1>  -0.1430 
 11 C       -5.4480     4.5490     0.3570 C.3   1 <1>   0.1200 
 12 C        4.3660     7.3580     0.1090 C.3   1 <1>  -0.0170 
 13 C       -6.6400     5.2870    -0.2670 C.3   1 <1>   0.3430 
 14 C        5.0330     6.8280    -1.1630 C.3   1 <1>  -0.2400 
 15 N       -7.9550     4.6240     0.0180 N.4   1 <1>  -0.9590 
 16 C       -8.0810     3.2970    -0.6590 C.3   1 <1>   0.3430 
 17 C       -9.0750     5.5330    -0.3660 C.3   1 <1>   0.3430 
 18 C       -9.3930     2.6290    -0.2450 C.3   1 <1>  -0.1600 
 19 C      -10.4090     4.9160     0.0550 C.3   1 <1>  -0.1600 
 20 C      -10.6050     3.5190    -0.5490 C.3   1 <1>  -0.1600 
 21 H       -1.8600     5.7090    -0.8590 H     1 <1>   0.0800 
 22 H       -2.0900     6.6360     0.6360 H     1 <1>   0.0800 
 23 H       -0.2190     7.3930    -0.5930 H     1 <1>   0.1500 
 24 H        1.3800     4.1340     1.6520 H     1 <1>   0.1500 
 25 H       -3.2130     4.6960     1.6640 H     1 <1>   0.0800 
 26 H       -2.9810     3.7690     0.1750 H     1 <1>   0.0800 
 27 H        2.0080     8.3220    -0.8380 H     1 <1>   0.1500 
 28 H        3.6330     5.0790     1.4010 H     1 <1>   0.1500 
 29 H       -5.5530     4.4880     1.4270 H     1 <1>   0.0800 
 30 H       -5.3270     3.5690    -0.0700 H     1 <1>   0.0800 
 31 H        4.9680     7.1040     0.9640 H     1 <1>   0.0800 
 32 H        4.3030     8.4310     0.0620 H     1 <1>   0.0800 
 33 H       -6.4890     5.3510    -1.3320 H     1 <1>   0.0800 
 34 H       -6.6520     6.2880     0.1330 H     1 <1>   0.0800 
 35 H        5.1160     5.7560    -1.1170 H     1 <1>   0.0800 
 36 H        6.0170     7.2480    -1.2690 H     1 <1>   0.0800 
 37 H        4.4470     7.0910    -2.0260 H     1 <1>   0.0800 
 38 H       -8.0360     4.4670     1.0320 H     1 <1>   0.4500 
 39 H       -7.2570     2.6570    -0.3870 H     1 <1>   0.0800 
 40 H       -8.0680     3.4310    -1.7290 H     1 <1>   0.0800 
 41 H       -9.0710     5.6870    -1.4330 H     1 <1>   0.0800 
 42 H       -8.9560     6.4920     0.1150 H     1 <1>   0.0800 
 43 H       -9.3620     2.3960     0.8050 H     1 <1>   0.0800 
 44 H       -9.4960     1.6980    -0.7760 H     1 <1>   0.0800 
 45 H      -11.2110     5.5580    -0.2690 H     1 <1>   0.0800 
 46 H      -10.4570     4.8630     1.1290 H     1 <1>   0.0800 
 47 H      -11.5000     3.0700    -0.1500 H     1 <1>   0.0800 
 48 H      -10.7300     3.6040    -1.6160 H     1 <1>   0.0800 
@<TRIPOS>BOND
  1   1   2  1   
  2   1   3  1   
  3   2   4  ar  
  4   2   5  ar  
  5   3   6  1   
  6   3  21  1   
  7   3  22  1   
  8   4   7  ar  
  9   4  23  1   
 10   5   8  ar  
 11   5  24  1   
 12   6   9  1   
 13   6  25  1   
 14   6  26  1   
 15   7  10  ar  
 16   7  27  1   
 17   8  10  ar  
 18   8  28  1   
 19   9  11  1   
 20  10  12  1   
 21  11  13  1   
 22  11  29  1   
 23  11  30  1   
 24  12  14  1   
 25  12  31  1   
 26  12  32  1   
 27  13  15  1   
 28  13  33  1   
 29  13  34  1   
 30  14  35  1   
 31  14  36  1   
 32  14  37  1   
 33  15  16  1   
 34  15  17  1   
 35  15  38  1   
 36  16  18  1   
 37  16  39  1   
 38  16  40  1   
 39  17  19  1   
 40  17  41  1   
 41  17  42  1   
 42  18  20  1   
 43  18  43  1   
 44  18  44  1   
 45  19  20  1   
 46  19  45  1   
 47  19  46  1   
 48  20  47  1   
 49  20  48  1   
@<TRIPOS>SUBSTRUCTURE
  1 ****   6 GROUP 4 **** **** 0

# MOE 2024.06 (io_trps.svl 2023.06)
