@<TRIPOS>MOLECULE
NONAME
43 44 1 0 0 
SMALL
USER_CHARGES


@<TRIPOS>ATOM
  1 O        0.3650    -0.2620     0.2510 O.2   1 <1>  -0.5700 
  2 C        0.3550    -1.4560     0.4690 C.2   1 <1>   0.7800 
  3 O       -0.7770    -2.1480     0.3610 O.3   1 <1>  -0.4300 
  4 N        1.4940    -2.1440     0.8000 N.am  1 <1>  -0.6600 
  5 C       -1.9890    -1.5040     0.0380 C.3   1 <1>   0.1200 
  6 C        1.5520    -3.6310     0.9010 C.3   1 <1>   0.1400 
  7 C        2.8110    -1.4530     0.9280 C.3   1 <1>   0.1400 
  8 C       -3.0880    -2.5600    -0.0110 C.3   1 <1>  -0.2400 
  9 C        2.5690    -4.1960    -0.1100 C.3   1 <1>   0.3430 
 10 C        3.8170    -2.0270    -0.0850 C.3   1 <1>   0.3430 
 11 N        3.9170    -3.5330     0.0020 N.4   1 <1>  -0.9590 
 12 C        4.8770    -4.0700    -1.0010 C.3   1 <1>   0.4860 
 13 C        6.2600    -3.5420    -0.6750 C.ar  1 <1>  -0.1440 
 14 C        6.9890    -4.0790     0.3770 C.ar  1 <1>  -0.1500 
 15 C        6.8070    -2.5110    -1.4270 C.ar  1 <1>  -0.1500 
 16 C        8.2440    -3.5840     0.6850 C.ar  1 <1>  -0.1500 
 17 C        8.0600    -2.0160    -1.1170 C.ar  1 <1>  -0.1500 
 18 C        8.7860    -2.5430    -0.0620 C.ar  1 <1>   0.0820 
 19 O       10.0030    -1.9960     0.1720 O.3   1 <1>  -0.3630 
 20 C       10.8640    -2.5060     1.1670 C.3   1 <1>   0.0400 
 21 H       -1.8770    -1.0200    -0.9180 H     1 <1>   0.0800 
 22 H       -2.1970    -0.7660     0.7940 H     1 <1>   0.0800 
 23 H        0.5870    -4.0670     0.7090 H     1 <1>   0.0800 
 24 H        1.8370    -3.9070     1.9020 H     1 <1>   0.0800 
 25 H        3.1840    -1.5800     1.9290 H     1 <1>   0.0800 
 26 H        2.7040    -0.3950     0.7560 H     1 <1>   0.0800 
 27 H       -2.8670    -3.2950    -0.7630 H     1 <1>   0.0800 
 28 H       -4.0260    -2.0940    -0.2540 H     1 <1>   0.0800 
 29 H       -3.1850    -3.0400     0.9470 H     1 <1>   0.0800 
 30 H        2.1740    -4.0440    -1.1020 H     1 <1>   0.0800 
 31 H        2.6660    -5.2580     0.0460 H     1 <1>   0.0800 
 32 H        4.7840    -1.5830     0.0940 H     1 <1>   0.0800 
 33 H        3.5020    -1.7400    -1.0740 H     1 <1>   0.0800 
 34 H        4.3140    -3.7460     0.9260 H     1 <1>   0.4500 
 35 H        4.5900    -3.7670    -1.9950 H     1 <1>   0.0800 
 36 H        4.8920    -5.1480    -0.9630 H     1 <1>   0.0800 
 37 H        6.5970    -4.8910     0.9670 H     1 <1>   0.1500 
 38 H        6.2750    -2.0820    -2.2590 H     1 <1>   0.1500 
 39 H        8.7900    -4.0170     1.5040 H     1 <1>   0.1500 
 40 H        8.4930    -1.2160    -1.6940 H     1 <1>   0.1500 
 41 H       11.7740    -1.9330     1.1450 H     1 <1>   0.0800 
 42 H       11.0770    -3.5380     0.9500 H     1 <1>   0.0800 
 43 H       10.3910    -2.4020     2.1270 H     1 <1>   0.0800 
@<TRIPOS>BOND
  1   1   2  2   
  2   2   3  1   
  3   2   4  am  
  4   3   5  1   
  5   4   6  1   
  6   4   7  1   
  7   5   8  1   
  8   5  21  1   
  9   5  22  1   
 10   6   9  1   
 11   6  23  1   
 12   6  24  1   
 13   7  10  1   
 14   7  25  1   
 15   7  26  1   
 16   8  27  1   
 17   8  28  1   
 18   8  29  1   
 19   9  11  1   
 20   9  30  1   
 21   9  31  1   
 22  10  11  1   
 23  10  32  1   
 24  10  33  1   
 25  11  12  1   
 26  11  34  1   
 27  12  13  1   
 28  12  35  1   
 29  12  36  1   
 30  13  14  ar  
 31  13  15  ar  
 32  14  16  ar  
 33  14  37  1   
 34  15  17  ar  
 35  15  38  1   
 36  16  18  ar  
 37  16  39  1   
 38  17  18  ar  
 39  17  40  1   
 40  18  19  1   
 41  19  20  1   
 42  20  41  1   
 43  20  42  1   
 44  20  43  1   
@<TRIPOS>SUBSTRUCTURE
  1 ****  10 GROUP 4 **** **** 0

# MOE 2024.06 (io_trps.svl 2023.06)
