@<TRIPOS>MOLECULE
NONAME
26 25 1 0 0 
SMALL
USER_CHARGES


@<TRIPOS>ATOM
  1 S        0.2760    -0.3540     0.3680 S.3   1 <1>   1.1120 
  2 C        1.8930    -0.3560    -0.3390 C.2   1 <1>   0.0770 
  3 C       -0.8460    -1.0890    -0.8340 C.3   1 <1>  -0.1520 
  4 C       -0.2000     1.3670     0.6020 C.3   1 <1>  -0.1520 
  5 N        2.0140     0.2570    -1.5490 N.pl3 1 <1>   0.8360 
  6 C        2.7840    -0.9950     0.4740 C.2   1 <1>  -0.0730 
  7 C       -0.5050    -2.5430    -1.1950 C.3   1 <1>  -0.2400 
  8 C       -1.5840     1.5570     1.2450 C.3   1 <1>  -0.2400 
  9 O        3.0630     0.2580    -2.2340 O.2   1 <1>  -0.5200 
 10 O        1.0250     0.8570    -2.0480 O.2   1 <1>  -0.5200 
 11 O        2.3890    -1.4720     1.5520 O.3   1 <1>  -0.8500 
 12 O        4.0840    -1.1280     0.1550 O.3   1 <1>  -0.3570 
 13 C        4.9360    -1.8070     1.0500 C.3   1 <1>   0.0400 
 14 H       -0.8430    -0.5060    -1.7370 H     1 <1>   0.0800 
 15 H       -1.8470    -1.0660    -0.4450 H     1 <1>   0.0800 
 16 H       -0.1920     1.8770    -0.3440 H     1 <1>   0.0800 
 17 H        0.5310     1.8470     1.2270 H     1 <1>   0.0800 
 18 H        0.4710    -2.6090    -1.6460 H     1 <1>   0.0800 
 19 H       -1.2260    -2.9270    -1.8970 H     1 <1>   0.0800 
 20 H       -0.5170    -3.1680    -0.3180 H     1 <1>   0.0800 
 21 H       -2.3590     1.1410     0.6240 H     1 <1>   0.0800 
 22 H       -1.7840     2.6080     1.3700 H     1 <1>   0.0800 
 23 H       -1.6220     1.0900     2.2150 H     1 <1>   0.0800 
 24 H        5.9270    -1.8180     0.6360 H     1 <1>   0.0800 
 25 H        4.5670    -2.8080     1.1780 H     1 <1>   0.0800 
 26 H        4.9250    -1.2870     1.9910 H     1 <1>   0.0800 
@<TRIPOS>BOND
  1   1   2  1   
  2   1   3  1   
  3   1   4  1   
  4   2   5  1   
  5   2   6  2   
  6   3   7  1   
  7   3  14  1   
  8   3  15  1   
  9   4   8  1   
 10   4  16  1   
 11   4  17  1   
 12   5   9  2   
 13   5  10  2   
 14   6  11  1   
 15   6  12  1   
 16   7  18  1   
 17   7  19  1   
 18   7  20  1   
 19   8  21  1   
 20   8  22  1   
 21   8  23  1   
 22  12  13  1   
 23  13  24  1   
 24  13  25  1   
 25  13  26  1   
@<TRIPOS>SUBSTRUCTURE
  1 ****   2 GROUP 4 **** **** 0

# MOE 2024.06 (io_trps.svl 2023.06)
