@<TRIPOS>MOLECULE
NONAME
33 34 1 0 0 
SMALL
USER_CHARGES


@<TRIPOS>ATOM
  1 CL       0.5610    -0.3980     2.3040 Cl    1 <1>  -0.1770 
  2 C        1.8170    -0.9680     1.2370 C.ar  1 <1>   0.1770 
  3 C        2.9650    -0.2150     1.0850 C.ar  1 <1>  -0.1500 
  4 C        1.6420    -2.1610     0.5620 C.ar  1 <1>  -0.1500 
  5 C        3.9720    -0.6540     0.2300 C.ar  1 <1>  -0.0230 
  6 C        2.6430    -2.6100    -0.2830 C.ar  1 <1>  -0.1500 
  7 N        5.1580     0.1080     0.0470 N.pl3 1 <1>   0.5930 
  8 C        3.7970    -1.8620    -0.4430 C.ar  1 <1>  -0.1500 
  9 N        6.4020    -0.4150     0.2430 N.2   1 <1>  -0.7070 
 10 C        5.2520     1.4350    -0.3060 C.2   1 <1>  -0.0680 
 11 C        7.2350     0.5580     0.0230 C.2   1 <1>   0.1080 
 12 N        4.1960     2.3180    -0.6160 N.pl3 1 <1>  -0.8840 
 13 C        6.5690     1.7340    -0.3220 C.2   1 <1>  -0.1500 
 14 C        8.7620     0.3860     0.1380 C.3   1 <1>   0.1810 
 15 C        9.1190    -0.0490     1.5670 C.3   1 <1>  -0.2400 
 16 C        9.5170     1.6880    -0.1760 C.3   1 <1>  -0.2400 
 17 C        9.2280    -0.6950    -0.8480 C.3   1 <1>  -0.2400 
 18 H        3.0760     0.7020     1.6360 H     1 <1>   0.1500 
 19 H        0.7380    -2.7270     0.6990 H     1 <1>   0.1500 
 20 H        2.5260    -3.5400    -0.8130 H     1 <1>   0.1500 
 21 H        4.5790    -2.2150    -1.0960 H     1 <1>   0.1500 
 22 H        4.3770     3.3170    -0.4690 H     1 <1>   0.4000 
 23 H        3.2480     2.0470    -0.3280 H     1 <1>   0.4000 
 24 H        7.0130     2.6810    -0.5610 H     1 <1>   0.1500 
 25 H        8.7860     0.6900     2.2730 H     1 <1>   0.0800 
 26 H       10.1810    -0.1800     1.6750 H     1 <1>   0.0800 
 27 H        8.6340    -0.9790     1.8030 H     1 <1>   0.0800 
 28 H        9.3030     2.0120    -1.1790 H     1 <1>   0.0800 
 29 H       10.5780     1.5390    -0.0880 H     1 <1>   0.0800 
 30 H        9.2270     2.4650     0.5090 H     1 <1>   0.0800 
 31 H        8.9720    -0.4140    -1.8530 H     1 <1>   0.0800 
 32 H        8.7450    -1.6300    -0.6270 H     1 <1>   0.0800 
 33 H       10.2920    -0.8370    -0.7870 H     1 <1>   0.0800 
@<TRIPOS>BOND
  1   1   2  1   
  2   2   3  ar  
  3   2   4  ar  
  4   3   5  ar  
  5   3  18  1   
  6   4   6  ar  
  7   4  19  1   
  8   5   7  1   
  9   5   8  ar  
 10   6   8  ar  
 11   6  20  1   
 12   7   9  1   
 13   7  10  1   
 14   8  21  1   
 15   9  11  2   
 16  10  12  1   
 17  10  13  2   
 18  11  13  1   
 19  11  14  1   
 20  12  22  1   
 21  12  23  1   
 22  13  24  1   
 23  14  15  1   
 24  14  16  1   
 25  14  17  1   
 26  15  25  1   
 27  15  26  1   
 28  15  27  1   
 29  16  28  1   
 30  16  29  1   
 31  16  30  1   
 32  17  31  1   
 33  17  32  1   
 34  17  33  1   
@<TRIPOS>SUBSTRUCTURE
  1 ****   7 GROUP 4 **** **** 0

# MOE 2024.06 (io_trps.svl 2023.06)
