@<TRIPOS>MOLECULE
NONAME
45 47 1 0 0 
SMALL
USER_CHARGES


@<TRIPOS>ATOM
  1 N       -3.5030     3.6420     1.2340 N.ar  1 <1>  -0.6200 
  2 C       -3.5430     3.2280    -0.0270 C.ar  1 <1>   0.1660 
  3 C       -3.5840     4.9500     1.4170 C.ar  1 <1>   0.1600 
  4 C       -3.6620     4.0850    -1.1130 C.ar  1 <1>  -0.1500 
  5 C       -3.4510     1.7200    -0.2730 C.3   1 <1>   0.2540 
  6 C       -3.7070     5.8790     0.3990 C.ar  1 <1>  -0.1500 
  7 C       -3.7490     5.4450    -0.9070 C.ar  1 <1>  -0.1500 
  8 N       -4.6280     0.9660     0.2350 N.3   1 <1>  -0.8100 
  9 C       -4.4820    -0.4890     0.0770 C.3   1 <1>   0.1100 
 10 C       -5.9150     1.4630    -0.2870 C.3   1 <1>   0.1100 
 11 C       -5.6440    -1.2310     0.7680 C.3   1 <1>   0.3430 
 12 C       -7.0940     0.7450     0.3940 C.3   1 <1>   0.3430 
 13 N       -6.9820    -0.7530     0.2780 N.4   1 <1>  -0.9590 
 14 C       -8.1040    -1.4330     0.9750 C.3   1 <1>   0.4860 
 15 C       -9.3930    -1.0600     0.2710 C.ar  1 <1>  -0.1430 
 16 C      -10.2480    -0.1230     0.8330 C.ar  1 <1>  -0.1500 
 17 C       -9.7210    -1.6440    -0.9440 C.ar  1 <1>  -0.1500 
 18 C      -11.4140     0.2440     0.1830 C.ar  1 <1>  -0.1430 
 19 C      -10.8870    -1.2810    -1.5940 C.ar  1 <1>  -0.1500 
 20 C      -11.7280    -0.3390    -1.0320 C.ar  1 <1>  -0.1500 
 21 C      -12.3500     1.2700     0.7990 C.3   1 <1>  -0.0970 
 22 H       -3.5480     5.3000     2.4340 H     1 <1>   0.1500 
 23 H       -3.6870     3.6980    -2.1150 H     1 <1>   0.1500 
 24 H       -2.5670     1.3640     0.2270 H     1 <1>   0.0800 
 25 H       -3.3320     1.5330    -1.3260 H     1 <1>   0.0800 
 26 H       -3.7670     6.9270     0.6310 H     1 <1>   0.1500 
 27 H       -3.8410     6.1370    -1.7270 H     1 <1>   0.1500 
 28 H       -3.5560    -0.8030     0.5290 H     1 <1>   0.0800 
 29 H       -4.4490    -0.7470    -0.9680 H     1 <1>   0.0800 
 30 H       -5.9640     1.3260    -1.3540 H     1 <1>   0.0800 
 31 H       -6.0080     2.5170    -0.0810 H     1 <1>   0.0800 
 32 H       -5.5650    -1.0590     1.8290 H     1 <1>   0.0800 
 33 H       -5.5420    -2.2890     0.5930 H     1 <1>   0.0800 
 34 H       -8.0160     1.0830    -0.0510 H     1 <1>   0.0800 
 35 H       -7.1030     1.0300     1.4330 H     1 <1>   0.0800 
 36 H       -7.0700    -0.9750    -0.7190 H     1 <1>   0.4500 
 37 H       -8.1440    -1.1270     2.0080 H     1 <1>   0.0800 
 38 H       -7.9750    -2.5020     0.9370 H     1 <1>   0.0800 
 39 H      -10.0170     0.3290     1.7830 H     1 <1>   0.1500 
 40 H       -9.0850    -2.3850    -1.3980 H     1 <1>   0.1500 
 41 H      -11.1460    -1.7330    -2.5370 H     1 <1>   0.1500 
 42 H      -12.6350    -0.0650    -1.5450 H     1 <1>   0.1500 
 43 H      -11.8060     1.9620     1.4150 H     1 <1>   0.0800 
 44 H      -13.0870     0.7720     1.4030 H     1 <1>   0.0800 
 45 H      -12.8540     1.8270     0.0300 H     1 <1>   0.0800 
@<TRIPOS>BOND
  1   1   2  ar  
  2   1   3  ar  
  3   2   4  ar  
  4   2   5  1   
  5   3   6  ar  
  6   3  22  1   
  7   4   7  ar  
  8   4  23  1   
  9   5   8  1   
 10   5  24  1   
 11   5  25  1   
 12   6   7  ar  
 13   6  26  1   
 14   7  27  1   
 15   8   9  1   
 16   8  10  1   
 17   9  11  1   
 18   9  28  1   
 19   9  29  1   
 20  10  12  1   
 21  10  30  1   
 22  10  31  1   
 23  11  13  1   
 24  11  32  1   
 25  11  33  1   
 26  12  13  1   
 27  12  34  1   
 28  12  35  1   
 29  13  14  1   
 30  13  36  1   
 31  14  15  1   
 32  14  37  1   
 33  14  38  1   
 34  15  16  ar  
 35  15  17  ar  
 36  16  18  ar  
 37  16  39  1   
 38  17  19  ar  
 39  17  40  1   
 40  18  20  ar  
 41  18  21  1   
 42  19  20  ar  
 43  19  41  1   
 44  20  42  1   
 45  21  43  1   
 46  21  44  1   
 47  21  45  1   
@<TRIPOS>SUBSTRUCTURE
  1 ****  12 GROUP 4 **** **** 0

# MOE 2024.06 (io_trps.svl 2023.06)
