@<TRIPOS>MOLECULE
NONAME
42 44 1 0 0 
SMALL
USER_CHARGES


@<TRIPOS>ATOM
  1 O       -6.7250     4.7830    -1.7960 O.2   1 <1>  -0.5700 
  2 C       -6.7960     3.7930    -1.0910 C.2   1 <1>   0.5440 
  3 N       -5.6090     3.1780    -0.7450 N.am  1 <1>  -0.6600 
  4 C       -8.0910     3.3690    -0.5890 C.ar  1 <1>   0.0860 
  5 C       -4.3470     3.4410    -1.4970 C.3   1 <1>   0.1400 
  6 C       -5.4380     2.3640     0.4930 C.3   1 <1>   0.1400 
  7 C       -8.5260     2.0200    -0.6450 C.ar  1 <1>   0.0820 
  8 C       -8.9500     4.2970    -0.0410 C.ar  1 <1>  -0.1500 
  9 C       -3.3020     4.0820    -0.5690 C.3   1 <1>   0.3430 
 10 C       -4.3570     2.9850     1.4010 C.3   1 <1>   0.3430 
 11 O       -7.6970     1.1140    -1.2210 O.3   1 <1>  -0.3630 
 12 C       -9.7520     1.6650    -0.1320 C.ar  1 <1>  -0.1500 
 13 C      -10.2070     3.9590     0.4870 C.ar  1 <1>   0.0000 
 14 N       -3.0640     3.2490     0.6680 N.4   1 <1>  -0.9590 
 15 C       -8.1760    -0.1200    -1.7140 C.3   1 <1>   0.0400 
 16 C      -10.6160     2.6110     0.4470 C.ar  1 <1>   0.0000 
 17 C      -11.0740     4.9140     1.0560 C.ar  1 <1>  -0.1500 
 18 C       -2.0600     3.8980     1.5630 C.3   1 <1>   0.2630 
 19 C      -11.8720     2.2670     0.9860 C.ar  1 <1>  -0.1500 
 20 C      -12.2880     4.5530     1.5710 C.ar  1 <1>  -0.1500 
 21 C      -12.6910     3.2130     1.5370 C.ar  1 <1>  -0.1500 
 22 H       -4.5290     4.0970    -2.3320 H     1 <1>   0.0800 
 23 H       -3.9700     2.5150    -1.8940 H     1 <1>   0.0800 
 24 H       -5.1640     1.3590     0.2220 H     1 <1>   0.0800 
 25 H       -6.3630     2.3120     1.0410 H     1 <1>   0.0800 
 26 H       -8.6550     5.3310    -0.0150 H     1 <1>   0.1500 
 27 H       -3.6570     5.0600    -0.2880 H     1 <1>   0.0800 
 28 H       -2.3790     4.2070    -1.1120 H     1 <1>   0.0800 
 29 H       -4.1780     2.3260     2.2350 H     1 <1>   0.0800 
 30 H       -4.7420     3.9120     1.7920 H     1 <1>   0.0800 
 31 H      -10.0940     0.6480    -0.1530 H     1 <1>   0.1500 
 32 H       -2.6950     2.3390     0.3560 H     1 <1>   0.4500 
 33 H       -7.3860    -0.5860    -2.2750 H     1 <1>   0.0800 
 34 H       -9.0190     0.0640    -2.3570 H     1 <1>   0.0800 
 35 H       -8.4530    -0.7470    -0.8850 H     1 <1>   0.0800 
 36 H      -10.7610     5.9430     1.0780 H     1 <1>   0.1500 
 37 H       -2.4240     4.8560     1.9000 H     1 <1>   0.0800 
 38 H       -1.1310     4.0480     1.0380 H     1 <1>   0.0800 
 39 H       -1.8700     3.2790     2.4250 H     1 <1>   0.0800 
 40 H      -12.1810     1.2380     0.9560 H     1 <1>   0.1500 
 41 H      -12.9460     5.2860     2.0050 H     1 <1>   0.1500 
 42 H      -13.6500     2.9460     1.9470 H     1 <1>   0.1500 
@<TRIPOS>BOND
  1   1   2  2   
  2   2   3  am  
  3   2   4  1   
  4   3   5  1   
  5   3   6  1   
  6   4   7  ar  
  7   4   8  ar  
  8   5   9  1   
  9   5  22  1   
 10   5  23  1   
 11   6  10  1   
 12   6  24  1   
 13   6  25  1   
 14   7  11  1   
 15   7  12  ar  
 16   8  13  ar  
 17   8  26  1   
 18   9  14  1   
 19   9  27  1   
 20   9  28  1   
 21  10  14  1   
 22  10  29  1   
 23  10  30  1   
 24  11  15  1   
 25  12  16  ar  
 26  12  31  1   
 27  13  16  ar  
 28  13  17  ar  
 29  14  18  1   
 30  14  32  1   
 31  15  33  1   
 32  15  34  1   
 33  15  35  1   
 34  16  19  ar  
 35  17  20  ar  
 36  17  36  1   
 37  18  37  1   
 38  18  38  1   
 39  18  39  1   
 40  19  21  ar  
 41  19  40  1   
 42  20  21  ar  
 43  20  41  1   
 44  21  42  1   
@<TRIPOS>SUBSTRUCTURE
  1 ****   4 GROUP 4 **** **** 0

# MOE 2024.06 (io_trps.svl 2023.06)
