@<TRIPOS>MOLECULE
NONAME
33 33 1 0 0 
SMALL
USER_CHARGES


@<TRIPOS>ATOM
  1 O        0.2050     1.0980    -1.1210 O.2   1 <1>  -0.5700 
  2 C        0.0940     1.7050    -0.0720 C.2   1 <1>   0.6900 
  3 N        1.1720     2.2280     0.5840 N.am  1 <1>  -0.6600 
  4 N       -1.1260     1.9020     0.4800 N.am  1 <1>  -0.7300 
  5 C        2.5080     1.5710     0.6270 C.3   1 <1>   0.2200 
  6 C        1.2540     3.7040     0.7220 C.3   1 <1>   0.1400 
  7 C       -2.4000     1.3960    -0.0610 C.3   1 <1>   0.1400 
  8 C        3.3610     2.0840    -0.5400 C.3   1 <1>  -0.1600 
  9 C        2.4210     0.0430     0.6610 C.3   1 <1>  -0.2400 
 10 C        2.1010     4.2760    -0.4220 C.3   1 <1>  -0.1600 
 11 C       -3.4790     2.4630     0.1230 C.3   1 <1>  -0.1600 
 12 C        3.4870     3.6160    -0.4990 C.3   1 <1>  -0.1600 
 13 C       -4.8300     1.9900    -0.4240 C.3   1 <1>  -0.2400 
 14 H       -1.1340     2.2540     1.4340 H     1 <1>   0.3700 
 15 H        2.9820     1.8760     1.5450 H     1 <1>   0.0800 
 16 H        1.6990     3.9470     1.6720 H     1 <1>   0.0800 
 17 H        0.2680     4.1370     0.6890 H     1 <1>   0.0800 
 18 H       -2.6720     0.4940     0.4590 H     1 <1>   0.0800 
 19 H       -2.2860     1.1660    -1.1080 H     1 <1>   0.0800 
 20 H        2.9050     1.7790    -1.4660 H     1 <1>   0.0800 
 21 H        4.3400     1.6420    -0.4930 H     1 <1>   0.0800 
 22 H        2.0800    -0.3470    -0.2810 H     1 <1>   0.0800 
 23 H        1.7520    -0.2720     1.4410 H     1 <1>   0.0800 
 24 H        3.3930    -0.3700     0.8580 H     1 <1>   0.0800 
 25 H        2.2120     5.3370    -0.2900 H     1 <1>   0.0800 
 26 H        1.5770     4.1140    -1.3490 H     1 <1>   0.0800 
 27 H       -3.1830     3.3570    -0.3980 H     1 <1>   0.0800 
 28 H       -3.5840     2.6920     1.1690 H     1 <1>   0.0800 
 29 H        4.0060     3.9600    -1.3770 H     1 <1>   0.0800 
 30 H        4.0650     3.9020     0.3630 H     1 <1>   0.0800 
 31 H       -4.7540     1.7720    -1.4750 H     1 <1>   0.0800 
 32 H       -5.5720     2.7570    -0.2870 H     1 <1>   0.0800 
 33 H       -5.1560     1.1030     0.0920 H     1 <1>   0.0800 
@<TRIPOS>BOND
  1   1   2  2   
  2   2   3  am  
  3   2   4  am  
  4   3   5  1   
  5   3   6  1   
  6   4   7  1   
  7   4  14  1   
  8   5   8  1   
  9   5   9  1   
 10   5  15  1   
 11   6  10  1   
 12   6  16  1   
 13   6  17  1   
 14   7  11  1   
 15   7  18  1   
 16   7  19  1   
 17   8  12  1   
 18   8  20  1   
 19   8  21  1   
 20   9  22  1   
 21   9  23  1   
 22   9  24  1   
 23  10  12  1   
 24  10  25  1   
 25  10  26  1   
 26  11  13  1   
 27  11  27  1   
 28  11  28  1   
 29  12  29  1   
 30  12  30  1   
 31  13  31  1   
 32  13  32  1   
 33  13  33  1   
@<TRIPOS>SUBSTRUCTURE
  1 ****   2 GROUP 4 **** **** 0

# MOE 2024.06 (io_trps.svl 2023.06)
