@<TRIPOS>MOLECULE
NONAME
30 30 1 0 0 
SMALL
USER_CHARGES


@<TRIPOS>ATOM
  1 CL      -0.3160    -0.7070    -0.0250 Cl    1 <1>  -0.1770 
  2 C       -1.4300     0.6490    -0.0130 C.ar  1 <1>   0.1770 
  3 C       -1.0380     1.9970    -0.0020 C.ar  1 <1>   0.0820 
  4 C       -2.7710     0.3050    -0.0140 C.ar  1 <1>  -0.1500 
  5 O        0.2280     2.5020     0.0010 O.3   1 <1>  -0.3630 
  6 C       -2.0320     2.9650     0.0060 C.ar  1 <1>  -0.1500 
  7 C       -3.7450     1.2880    -0.0060 C.ar  1 <1>  -0.1500 
  8 C        1.3960     1.7180     0.0020 C.3   1 <1>   0.1200 
  9 C       -3.3730     2.6200     0.0040 C.ar  1 <1>  -0.1500 
 10 C        2.6000     2.6610     0.0130 C.3   1 <1>  -0.1600 
 11 C        3.9190     1.8770     0.0150 C.3   1 <1>  -0.1600 
 12 C        5.1240     2.8270     0.0260 C.3   1 <1>  -0.1600 
 13 C        6.4410     2.0480     0.0280 C.3   1 <1>   0.0700 
 14 S        7.8280     3.2640     0.0420 S.3   1 <1>  -0.2660 
 15 C        9.2840     2.2000     0.0410 C.1   1 <1>   0.5930 
 16 N       10.1820     1.5030     0.0410 N.1   1 <1>  -0.5570 
 17 H       -3.0500    -0.7330    -0.0230 H     1 <1>   0.1500 
 18 H       -1.7470     4.0020     0.0140 H     1 <1>   0.1500 
 19 H       -4.7870     1.0170    -0.0070 H     1 <1>   0.1500 
 20 H        1.4010     1.1130    -0.8880 H     1 <1>   0.0800 
 21 H        1.3920     1.1020     0.8840 H     1 <1>   0.0800 
 22 H       -4.1260     3.3900     0.0110 H     1 <1>   0.1500 
 23 H        2.5480     3.2810     0.8920 H     1 <1>   0.0800 
 24 H        2.5570     3.2920    -0.8580 H     1 <1>   0.0800 
 25 H        3.9630     1.2520    -0.8610 H     1 <1>   0.0800 
 26 H        3.9550     1.2410     0.8840 H     1 <1>   0.0800 
 27 H        5.0810     3.4510     0.9030 H     1 <1>   0.0800 
 28 H        5.0890     3.4620    -0.8420 H     1 <1>   0.0800 
 29 H        6.5490     1.4470    -0.8580 H     1 <1>   0.0800 
 30 H        6.5410     1.4360     0.9080 H     1 <1>   0.0800 
@<TRIPOS>BOND
  1   1   2  1   
  2   2   3  ar  
  3   2   4  ar  
  4   3   5  1   
  5   3   6  ar  
  6   4   7  ar  
  7   4  17  1   
  8   5   8  1   
  9   6   9  ar  
 10   6  18  1   
 11   7   9  ar  
 12   7  19  1   
 13   8  10  1   
 14   8  20  1   
 15   8  21  1   
 16   9  22  1   
 17  10  11  1   
 18  10  23  1   
 19  10  24  1   
 20  11  12  1   
 21  11  25  1   
 22  11  26  1   
 23  12  13  1   
 24  12  27  1   
 25  12  28  1   
 26  13  14  1   
 27  13  29  1   
 28  13  30  1   
 29  14  15  1   
 30  15  16  3   
@<TRIPOS>SUBSTRUCTURE
  1 ****   8 GROUP 4 **** **** 0

# MOE 2024.06 (io_trps.svl 2023.06)
