@<TRIPOS>MOLECULE
NONAME
48 50 1 0 0 
SMALL
USER_CHARGES


@<TRIPOS>ATOM
  1 O        0.0660     1.3070     2.0060 O.2   1 <1>  -0.5700 
  2 C        0.0420     1.9340     0.9670 C.2   1 <1>   0.5440 
  3 N        1.1700     2.0220     0.1840 N.am  1 <1>  -0.5470 
  4 C       -1.1710     2.6210     0.5640 C.ar  1 <1>   0.0860 
  5 C        2.4000     1.3550     0.2900 C.ar  1 <1>   0.1170 
  6 C       -2.0010     3.2160     1.5120 C.ar  1 <1>  -0.1500 
  7 C       -1.5630     2.7120    -0.7730 C.ar  1 <1>  -0.1500 
  8 C        3.5490     1.9790    -0.1750 C.ar  1 <1>  -0.1500 
  9 C        2.5080     0.0770     0.8260 C.ar  1 <1>  -0.1500 
 10 C       -3.1620     3.8750     1.1510 C.ar  1 <1>  -0.1500 
 11 C       -2.7240     3.3670    -1.1430 C.ar  1 <1>  -0.1500 
 12 C        4.8070     1.3730    -0.1190 C.ar  1 <1>   0.0860 
 13 C        3.7340    -0.5530     0.8930 C.ar  1 <1>  -0.1500 
 14 C       -3.5370     3.9500    -0.1820 C.ar  1 <1>  -0.1430 
 15 C        6.0200     2.0140    -0.5940 C.2   1 <1>   0.4230 
 16 C        4.8650     0.0880     0.4260 C.ar  1 <1>  -0.1500 
 17 C       -4.8240     4.6500    -0.5830 C.3   1 <1>   0.4860 
 18 O        7.0810     1.4510    -0.6560 O.2   1 <1>  -0.5700 
 19 C        5.9980     3.4630    -1.0420 C.3   1 <1>  -0.1790 
 20 N       -5.9820     3.8380    -0.1240 N.4   1 <1>  -0.9590 
 21 C       -5.9850     2.4280    -0.6460 C.3   1 <1>   0.3430 
 22 C       -7.3100     4.4990    -0.3560 C.3   1 <1>   0.3430 
 23 C       -7.1760     1.6240    -0.0740 C.3   1 <1>   0.1200 
 24 C       -8.4830     3.5800     0.0610 C.3   1 <1>   0.1200 
 25 O       -8.0130     2.4320     0.7130 O.3   1 <1>  -0.5600 
 26 H        1.1330     2.7440    -0.5320 H     1 <1>   0.3700 
 27 H       -1.7210     3.1550     2.5520 H     1 <1>   0.1500 
 28 H       -0.9540     2.2530    -1.5330 H     1 <1>   0.1500 
 29 H        3.4530     2.9650    -0.5860 H     1 <1>   0.1500 
 30 H        1.6320    -0.4300     1.1920 H     1 <1>   0.1500 
 31 H       -3.7620     4.3240     1.9260 H     1 <1>   0.1500 
 32 H       -2.9840     3.4130    -2.1880 H     1 <1>   0.1500 
 33 H        3.8070    -1.5420     1.3120 H     1 <1>   0.1500 
 34 H        5.8170    -0.4140     0.4840 H     1 <1>   0.1500 
 35 H       -4.8560     4.7710    -1.6530 H     1 <1>   0.0800 
 36 H       -4.8540     5.6280    -0.1280 H     1 <1>   0.0800 
 37 H        5.5950     4.0850    -0.2650 H     1 <1>   0.0800 
 38 H        5.4100     3.5630    -1.9340 H     1 <1>   0.0800 
 39 H        7.0000     3.7920    -1.2550 H     1 <1>   0.0800 
 40 H       -5.9060     3.7230     0.8980 H     1 <1>   0.4500 
 41 H       -5.0680     1.9290    -0.3780 H     1 <1>   0.0800 
 42 H       -6.0500     2.4340    -1.7210 H     1 <1>   0.0800 
 43 H       -7.4240     4.7540    -1.3970 H     1 <1>   0.0800 
 44 H       -7.3680     5.4140     0.2110 H     1 <1>   0.0800 
 45 H       -6.8160     0.8250     0.5500 H     1 <1>   0.0800 
 46 H       -7.7610     1.1910    -0.8680 H     1 <1>   0.0800 
 47 H       -9.0580     3.2780    -0.7980 H     1 <1>   0.0800 
 48 H       -9.1400     4.0990     0.7390 H     1 <1>   0.0800 
@<TRIPOS>BOND
  1   1   2  2   
  2   2   3  am  
  3   2   4  1   
  4   3   5  1   
  5   3  26  1   
  6   4   6  ar  
  7   4   7  ar  
  8   5   8  ar  
  9   5   9  ar  
 10   6  10  ar  
 11   6  27  1   
 12   7  11  ar  
 13   7  28  1   
 14   8  12  ar  
 15   8  29  1   
 16   9  13  ar  
 17   9  30  1   
 18  10  14  ar  
 19  10  31  1   
 20  11  14  ar  
 21  11  32  1   
 22  12  15  1   
 23  12  16  ar  
 24  13  16  ar  
 25  13  33  1   
 26  14  17  1   
 27  15  18  2   
 28  15  19  1   
 29  16  34  1   
 30  17  20  1   
 31  17  35  1   
 32  17  36  1   
 33  19  37  1   
 34  19  38  1   
 35  19  39  1   
 36  20  21  1   
 37  20  22  1   
 38  20  40  1   
 39  21  23  1   
 40  21  41  1   
 41  21  42  1   
 42  22  24  1   
 43  22  43  1   
 44  22  44  1   
 45  23  25  1   
 46  23  45  1   
 47  23  46  1   
 48  24  25  1   
 49  24  47  1   
 50  24  48  1   
@<TRIPOS>SUBSTRUCTURE
  1 ****   4 GROUP 4 **** **** 0

# MOE 2024.06 (io_trps.svl 2023.06)
