@<TRIPOS>MOLECULE
NONAME
48 50 1 0 0 
SMALL
USER_CHARGES


@<TRIPOS>ATOM
  1 S       -0.0800    -0.2100     1.4460 S.o2  1 <1>   1.4470 
  2 O        0.3350     0.8300     2.3630 O.2   1 <1>  -0.6500 
  3 O       -0.6700    -1.4150     1.9900 O.2   1 <1>  -0.6500 
  4 N       -1.2090     0.5030     0.3970 N.am  1 <1>  -0.8490 
  5 C        1.3050    -0.6650     0.3470 C.ar  1 <1>  -0.0090 
  6 C       -2.5210     0.6420     1.0400 C.3   1 <1>   0.1960 
  7 C       -0.7030     1.7720    -0.1390 C.3   1 <1>   0.1960 
  8 C        1.2080    -1.6420    -0.6480 C.ar  1 <1>  -0.1440 
  9 C        2.5180     0.0000     0.4820 C.ar  1 <1>  -0.1500 
 10 C       -3.6330     0.6220    -0.0130 C.3   1 <1>  -0.1600 
 11 C       -1.5550     2.3310    -1.2860 C.3   1 <1>  -0.1600 
 12 C        2.2970    -1.9210    -1.4580 C.ar  1 <1>  -0.1500 
 13 C       -0.0800    -2.4250    -0.8820 C.3   1 <1>  -0.0970 
 14 C        3.6270    -0.2650    -0.3160 C.ar  1 <1>   0.0860 
 15 C       -4.0160     1.9930    -0.5940 C.3   1 <1>  -0.1600 
 16 C       -2.8600     2.9810    -0.8060 C.3   1 <1>  -0.1600 
 17 C        3.4880    -1.2420    -1.2980 C.ar  1 <1>  -0.1500 
 18 C        4.8670     0.4590    -0.1240 C.2   1 <1>   0.5440 
 19 O        4.8480     1.6420     0.1320 O.2   1 <1>  -0.5700 
 20 N        6.0570    -0.2210    -0.2020 N.am  1 <1>  -0.4940 
 21 C        7.3500     0.2600    -0.1920 C.2   1 <1>   0.4420 
 22 S        8.6120    -0.9280    -0.1520 S.3   1 <1>  -0.0800 
 23 N        7.8130     1.4570    -0.2190 N.2   1 <1>  -0.3380 
 24 C        9.7430     0.3800    -0.1730 C.2   1 <1>   0.1980 
 25 N        9.1800     1.5170    -0.2080 N.2   1 <1>  -0.3380 
 26 C       11.2180     0.0490    -0.1490 C.3   1 <1>  -0.0600 
 27 H       -2.5640     1.5290     1.6500 H     1 <1>   0.0800 
 28 H       -2.6970    -0.2010     1.6880 H     1 <1>   0.0800 
 29 H        0.2880     1.6150    -0.5300 H     1 <1>   0.0800 
 30 H       -0.6230     2.5030     0.6500 H     1 <1>   0.0800 
 31 H        2.6160     0.7630     1.2380 H     1 <1>   0.1500 
 32 H       -4.5150     0.2020     0.4370 H     1 <1>   0.0800 
 33 H       -3.3430    -0.0450    -0.8070 H     1 <1>   0.0800 
 34 H       -1.7430     1.5680    -2.0210 H     1 <1>   0.0800 
 35 H       -0.9710     3.0960    -1.7660 H     1 <1>   0.0800 
 36 H        2.2210    -2.6710    -2.2270 H     1 <1>   0.1500 
 37 H       -0.9040    -1.7560    -1.0550 H     1 <1>   0.0800 
 38 H       -0.3040    -3.0380    -0.0260 H     1 <1>   0.0800 
 39 H        0.0050    -3.0690    -1.7380 H     1 <1>   0.0800 
 40 H       -4.7370     2.4590     0.0550 H     1 <1>   0.0800 
 41 H       -4.5060     1.8250    -1.5380 H     1 <1>   0.0800 
 42 H       -3.1760     3.7080    -1.5340 H     1 <1>   0.0800 
 43 H       -2.6750     3.5180     0.1090 H     1 <1>   0.0800 
 44 H        4.3110    -1.4670    -1.9530 H     1 <1>   0.1500 
 45 H        5.9800    -1.2320    -0.2350 H     1 <1>   0.3700 
 46 H       11.4550    -0.4980     0.7450 H     1 <1>   0.0800 
 47 H       11.7930     0.9570    -0.1650 H     1 <1>   0.0800 
 48 H       11.4750    -0.5420    -1.0080 H     1 <1>   0.0800 
@<TRIPOS>BOND
  1   1   2  2   
  2   1   3  2   
  3   1   4  am  
  4   1   5  1   
  5   4   6  1   
  6   4   7  1   
  7   5   8  ar  
  8   5   9  ar  
  9   6  10  1   
 10   6  27  1   
 11   6  28  1   
 12   7  11  1   
 13   7  29  1   
 14   7  30  1   
 15   8  12  ar  
 16   8  13  1   
 17   9  14  ar  
 18   9  31  1   
 19  10  15  1   
 20  10  32  1   
 21  10  33  1   
 22  11  16  1   
 23  11  34  1   
 24  11  35  1   
 25  12  17  ar  
 26  12  36  1   
 27  13  37  1   
 28  13  38  1   
 29  13  39  1   
 30  14  17  ar  
 31  14  18  1   
 32  15  16  1   
 33  15  40  1   
 34  15  41  1   
 35  16  42  1   
 36  16  43  1   
 37  17  44  1   
 38  18  19  2   
 39  18  20  am  
 40  20  21  1   
 41  20  45  1   
 42  21  22  1   
 43  21  23  2   
 44  22  24  1   
 45  23  25  1   
 46  24  25  2   
 47  24  26  1   
 48  26  46  1   
 49  26  47  1   
 50  26  48  1   
@<TRIPOS>SUBSTRUCTURE
  1 ****   9 GROUP 4 **** **** 0

# MOE 2024.06 (io_trps.svl 2023.06)
