@<TRIPOS>MOLECULE
NONAME
30 31 1 0 0 
SMALL
USER_CHARGES


@<TRIPOS>ATOM
  1 O       -0.0630     0.3180    -0.0190 O.3   1 <1>  -0.8500 
  2 C       -0.0290     1.5480    -0.0120 C.2   1 <1>   0.1910 
  3 N       -1.2680     2.2140    -0.0050 N.pl3 1 <1>  -0.5360 
  4 C        1.1550     2.2650    -0.0090 C.2   1 <1>  -0.1240 
  5 C       -1.3120     3.5670     0.0030 C.cat 1 <1>   0.7390 
  6 C       -2.4390     1.5000    -0.0080 C.2   1 <1>   0.1910 
  7 C        1.0590     3.6540     0.0000 C.2   1 <1>   0.9370 
  8 C        2.4560     1.4470    -0.0160 C.3   1 <1>  -0.0220 
  9 N       -0.1630     4.2540     0.0060 N.pl3 1 <1>  -0.6850 
 10 C       -2.5520     4.2250     0.0090 C.2   1 <1>  -0.1800 
 11 C       -3.6570     2.1230    -0.0020 C.2   1 <1>  -0.1500 
 12 O        1.9800     4.4730     0.0040 O.2   1 <1>  -0.5700 
 13 C        3.7870     2.2170    -0.0130 C.3   1 <1>  -0.1600 
 14 C       -3.7270     3.5200     0.0070 C.2   1 <1>  -0.1500 
 15 C        4.9830     1.2570    -0.0210 C.3   1 <1>  -0.1600 
 16 C        6.3070     2.0270    -0.0170 C.3   1 <1>  -0.2400 
 17 H       -2.3710     0.4220    -0.0150 H     1 <1>   0.1500 
 18 H        2.4310     0.8080    -0.8830 H     1 <1>   0.0800 
 19 H        2.4330     0.7960     0.8420 H     1 <1>   0.0800 
 20 H       -0.1090     5.2610     0.0120 H     1 <1>   0.4500 
 21 H       -2.5670     5.2980     0.0160 H     1 <1>   0.1500 
 22 H       -4.5640     1.5440    -0.0040 H     1 <1>   0.1500 
 23 H        3.8400     2.8370     0.8650 H     1 <1>   0.0800 
 24 H        3.8370     2.8490    -0.8830 H     1 <1>   0.0800 
 25 H       -4.6880     4.0080     0.0110 H     1 <1>   0.1500 
 26 H        4.9390     0.6310    -0.8960 H     1 <1>   0.0800 
 27 H        4.9410     0.6200     0.8460 H     1 <1>   0.0800 
 28 H        6.3780     2.6550    -0.8880 H     1 <1>   0.0800 
 29 H        7.1330     1.3390    -0.0230 H     1 <1>   0.0800 
 30 H        6.3800     2.6440     0.8620 H     1 <1>   0.0800 
@<TRIPOS>BOND
  1   1   2  1   
  2   2   3  1   
  3   2   4  2   
  4   3   5  ar  
  5   3   6  1   
  6   4   7  1   
  7   4   8  1   
  8   5   9  ar  
  9   5  10  1   
 10   6  11  2   
 11   6  17  1   
 12   7   9  1   
 13   7  12  2   
 14   8  13  1   
 15   8  18  1   
 16   8  19  1   
 17   9  20  1   
 18  10  14  2   
 19  10  21  1   
 20  11  14  1   
 21  11  22  1   
 22  13  15  1   
 23  13  23  1   
 24  13  24  1   
 25  14  25  1   
 26  15  16  1   
 27  15  26  1   
 28  15  27  1   
 29  16  28  1   
 30  16  29  1   
 31  16  30  1   
@<TRIPOS>SUBSTRUCTURE
  1 ****   4 GROUP 4 **** **** 0

# MOE 2024.06 (io_trps.svl 2023.06)
