@<TRIPOS>MOLECULE
NONAME
45 47 1 0 0 
SMALL
USER_CHARGES


@<TRIPOS>ATOM
  1 F        0.1330     1.3600    -1.0050 F     1 <1>  -0.1900 
  2 C        1.3420     1.7300    -0.6840 C.ar  1 <1>   0.1900 
  3 C        2.3050     1.7940    -1.6730 C.ar  1 <1>  -0.1500 
  4 C        1.6170     2.0440     0.6320 C.ar  1 <1>  -0.1500 
  5 C        3.5860     2.1910    -1.3290 C.ar  1 <1>  -0.1500 
  6 C        2.9010     2.4400     0.9670 C.ar  1 <1>  -0.1500 
  7 C        3.8880     2.5200    -0.0110 C.ar  1 <1>  -0.1430 
  8 C        5.2900     2.9650     0.3620 C.3   1 <1>   0.4870 
  9 N        5.5140     4.3460    -0.1490 N.4   1 <1>  -0.9590 
 10 C        6.9390     4.7530    -0.0180 C.3   1 <1>   0.3430 
 11 C        4.5870     5.3320     0.4780 C.3   1 <1>   0.3430 
 12 C        7.1510     6.0930    -0.7190 C.3   1 <1>  -0.1600 
 13 C        4.7440     6.6840    -0.2120 C.3   1 <1>  -0.1600 
 14 C        6.2010     7.1870    -0.1940 C.3   1 <1>  -0.0190 
 15 C        6.3430     8.4610    -1.0330 C.2   1 <1>   0.5690 
 16 O        6.0270     8.3850    -2.1970 O.2   1 <1>  -0.5700 
 17 N        6.8100     9.6280    -0.4950 N.am  1 <1>  -0.6600 
 18 C        6.9090    10.8640    -1.3050 C.3   1 <1>   0.1400 
 19 C        7.2670     9.8750     0.8930 C.3   1 <1>   0.1400 
 20 C        7.1830    11.9740    -0.2970 C.3   1 <1>  -0.1600 
 21 C        7.8780    11.2710     0.8650 C.3   1 <1>  -0.1600 
 22 H        2.0480     1.5350    -2.6860 H     1 <1>   0.1500 
 23 H        0.8380     1.9740     1.3720 H     1 <1>   0.1500 
 24 H        4.3370     2.2320    -2.1000 H     1 <1>   0.1500 
 25 H        3.1160     2.6780     1.9960 H     1 <1>   0.1500 
 26 H        6.0030     2.2870    -0.0790 H     1 <1>   0.0800 
 27 H        5.4130     2.9390     1.4330 H     1 <1>   0.0800 
 28 H        5.2790     4.3310    -1.1510 H     1 <1>   0.4500 
 29 H        7.5810     4.0120    -0.4670 H     1 <1>   0.0800 
 30 H        7.2010     4.8450     1.0240 H     1 <1>   0.0800 
 31 H        4.8090     5.4310     1.5280 H     1 <1>   0.0800 
 32 H        3.5650     5.0000     0.3760 H     1 <1>   0.0800 
 33 H        7.0070     5.9610    -1.7780 H     1 <1>   0.0800 
 34 H        8.1700     6.4100    -0.5760 H     1 <1>   0.0800 
 35 H        4.1130     7.4060     0.2760 H     1 <1>   0.0800 
 36 H        4.3960     6.5970    -1.2280 H     1 <1>   0.0800 
 37 H        6.4630     7.3960     0.8260 H     1 <1>   0.0800 
 38 H        6.0000    11.0410    -1.8540 H     1 <1>   0.0800 
 39 H        7.7310    10.7670    -1.9940 H     1 <1>   0.0800 
 40 H        7.9930     9.1440     1.2020 H     1 <1>   0.0800 
 41 H        6.4170     9.8580     1.5540 H     1 <1>   0.0800 
 42 H        6.2450    12.3880     0.0300 H     1 <1>   0.0800 
 43 H        7.7830    12.7590    -0.7220 H     1 <1>   0.0800 
 44 H        8.9320    11.1890     0.6620 H     1 <1>   0.0800 
 45 H        7.7410    11.7900     1.7970 H     1 <1>   0.0800 
@<TRIPOS>BOND
  1   1   2  1   
  2   2   3  ar  
  3   2   4  ar  
  4   3   5  ar  
  5   3  22  1   
  6   4   6  ar  
  7   4  23  1   
  8   5   7  ar  
  9   5  24  1   
 10   6   7  ar  
 11   6  25  1   
 12   7   8  1   
 13   8   9  1   
 14   8  26  1   
 15   8  27  1   
 16   9  10  1   
 17   9  11  1   
 18   9  28  1   
 19  10  12  1   
 20  10  29  1   
 21  10  30  1   
 22  11  13  1   
 23  11  31  1   
 24  11  32  1   
 25  12  14  1   
 26  12  33  1   
 27  12  34  1   
 28  13  14  1   
 29  13  35  1   
 30  13  36  1   
 31  14  15  1   
 32  14  37  1   
 33  15  16  2   
 34  15  17  am  
 35  17  18  1   
 36  17  19  1   
 37  18  20  1   
 38  18  38  1   
 39  18  39  1   
 40  19  21  1   
 41  19  40  1   
 42  19  41  1   
 43  20  21  1   
 44  20  42  1   
 45  20  43  1   
 46  21  44  1   
 47  21  45  1   
@<TRIPOS>SUBSTRUCTURE
  1 ****  13 GROUP 4 **** **** 0

# MOE 2024.06 (io_trps.svl 2023.06)
