@<TRIPOS>MOLECULE
NONAME
52 54 1 0 0 
SMALL
USER_CHARGES


@<TRIPOS>ATOM
  1 S        0.8180    -0.2540    -1.6750 S.o2  1 <1>   1.4470 
  2 O        0.5210    -1.6400    -1.4000 O.2   1 <1>  -0.6500 
  3 O        1.7200     0.1190    -2.7370 O.2   1 <1>  -0.6500 
  4 N       -0.6570     0.5100    -2.1240 N.am  1 <1>  -0.7570 
  5 C        1.2560     0.6310    -0.1530 C.ar  1 <1>  -0.0090 
  6 C       -1.8380     0.5100    -1.4070 C.ar  1 <1>   0.1990 
  7 C        0.5950     0.3690     1.0430 C.ar  1 <1>  -0.1500 
  8 C        2.2450     1.6090    -0.1460 C.ar  1 <1>  -0.1500 
  9 C       -2.5160     1.7040    -1.1960 C.ar  1 <1>  -0.1500 
 10 C       -2.3880    -0.6550    -0.8800 C.ar  1 <1>  -0.1500 
 11 C        0.9060     1.0580     2.2020 C.ar  1 <1>  -0.1500 
 12 C        2.5640     2.3010     1.0090 C.ar  1 <1>  -0.1500 
 13 C       -3.6940     1.7350    -0.4750 C.ar  1 <1>  -0.1500 
 14 C       -3.5630    -0.6210    -0.1560 C.ar  1 <1>  -0.1500 
 15 C        1.8930     2.0260     2.1860 C.ar  1 <1>  -0.1500 
 16 C       -4.2530     0.5730     0.0600 C.ar  1 <1>   0.0860 
 17 C       -5.4900     0.6230     0.8120 C.2   1 <1>   0.5440 
 18 O       -5.6160     1.4490     1.6960 O.2   1 <1>  -0.5700 
 19 N       -6.5440    -0.2300     0.5540 N.am  1 <1>  -0.6600 
 20 C       -6.6790    -0.9950    -0.7290 C.3   1 <1>   0.1400 
 21 C       -7.7290    -0.2540     1.4700 C.3   1 <1>   0.1400 
 22 C       -8.1470    -1.1960    -1.1370 C.3   1 <1>   0.1400 
 23 C       -8.5340    -1.5580     1.3550 C.3   1 <1>   0.1400 
 24 N       -8.9340    -1.8580    -0.0540 N.am  1 <1>  -0.6600 
 25 C       -9.9560    -2.7170    -0.3490 C.2   1 <1>   0.7800 
 26 O      -10.2960    -2.9640    -1.4900 O.2   1 <1>  -0.5700 
 27 O      -10.5870    -3.2980     0.6730 O.3   1 <1>  -0.4300 
 28 C      -11.6490    -4.1960     0.4480 C.3   1 <1>   0.1200 
 29 C      -12.1520    -4.6810     1.8040 C.3   1 <1>  -0.2400 
 30 H       -0.4450     1.3130    -2.7050 H     1 <1>   0.4200 
 31 H       -0.1740    -0.3840     1.0690 H     1 <1>   0.1500 
 32 H        2.7770     1.8330    -1.0560 H     1 <1>   0.1500 
 33 H       -2.1140     2.6190    -1.5930 H     1 <1>   0.1500 
 34 H       -1.8960    -1.5970    -1.0410 H     1 <1>   0.1500 
 35 H        0.3810     0.8400     3.1170 H     1 <1>   0.1500 
 36 H        3.3350     3.0530     0.9930 H     1 <1>   0.1500 
 37 H       -4.2010     2.6710    -0.3100 H     1 <1>   0.1500 
 38 H       -3.9600    -1.5330     0.2560 H     1 <1>   0.1500 
 39 H        2.1380     2.5630     3.0870 H     1 <1>   0.1500 
 40 H       -6.2190    -1.9610    -0.6130 H     1 <1>   0.0800 
 41 H       -6.1680    -0.4730    -1.5190 H     1 <1>   0.0800 
 42 H       -8.3680     0.5800     1.2360 H     1 <1>   0.0800 
 43 H       -7.3980    -0.1350     2.4880 H     1 <1>   0.0800 
 44 H       -8.1830    -1.7930    -2.0330 H     1 <1>   0.0800 
 45 H       -8.5890    -0.2410    -1.3590 H     1 <1>   0.0800 
 46 H       -9.4130    -1.4810     1.9710 H     1 <1>   0.0800 
 47 H       -7.9380    -2.3720     1.7290 H     1 <1>   0.0800 
 48 H      -11.2820    -5.0160    -0.1450 H     1 <1>   0.0800 
 49 H      -12.4250    -3.6780    -0.0900 H     1 <1>   0.0800 
 50 H      -11.3640    -5.1860     2.3330 H     1 <1>   0.0800 
 51 H      -12.9650    -5.3700     1.6630 H     1 <1>   0.0800 
 52 H      -12.5040    -3.8500     2.3880 H     1 <1>   0.0800 
@<TRIPOS>BOND
  1   1   2  2   
  2   1   3  2   
  3   1   4  am  
  4   1   5  1   
  5   4   6  1   
  6   4  30  1   
  7   5   7  ar  
  8   5   8  ar  
  9   6   9  ar  
 10   6  10  ar  
 11   7  11  ar  
 12   7  31  1   
 13   8  12  ar  
 14   8  32  1   
 15   9  13  ar  
 16   9  33  1   
 17  10  14  ar  
 18  10  34  1   
 19  11  15  ar  
 20  11  35  1   
 21  12  15  ar  
 22  12  36  1   
 23  13  16  ar  
 24  13  37  1   
 25  14  16  ar  
 26  14  38  1   
 27  15  39  1   
 28  16  17  1   
 29  17  18  2   
 30  17  19  am  
 31  19  20  1   
 32  19  21  1   
 33  20  22  1   
 34  20  40  1   
 35  20  41  1   
 36  21  23  1   
 37  21  42  1   
 38  21  43  1   
 39  22  24  1   
 40  22  44  1   
 41  22  45  1   
 42  23  24  1   
 43  23  46  1   
 44  23  47  1   
 45  24  25  am  
 46  25  26  2   
 47  25  27  1   
 48  27  28  1   
 49  28  29  1   
 50  28  48  1   
 51  28  49  1   
 52  29  50  1   
 53  29  51  1   
 54  29  52  1   
@<TRIPOS>SUBSTRUCTURE
  1 ****  14 GROUP 4 **** **** 0

# MOE 2024.06 (io_trps.svl 2023.06)
