@<TRIPOS>MOLECULE
NONAME
40 41 1 0 0 
SMALL
USER_CHARGES


@<TRIPOS>ATOM
  1 O       -0.5950     0.6140    -0.5820 O.2   1 <1>  -0.5700 
  2 C       -0.7710     1.7180    -0.1240 C.2   1 <1>   0.5690 
  3 N       -1.8210     2.0870     0.6490 N.am  1 <1>  -0.4200 
  4 C        0.1620     2.9190    -0.3830 C.3   1 <1>   0.2510 
  5 C       -1.7740     3.4050     0.9510 C.2   1 <1>   0.5690 
  6 C       -2.9350     1.1970     1.0140 C.3   1 <1>   0.2780 
  7 N        1.5710     2.8280     0.1340 N.3   1 <1>  -0.8100 
  8 C       -0.5710     4.0710     0.3310 C.3   1 <1>  -0.0990 
  9 O       -2.5750     4.0020     1.6210 O.2   1 <1>  -0.5700 
 10 C       -4.0710     1.3990     0.0280 C.2   1 <1>  -0.2880 
 11 C        2.4190     3.9100    -0.4220 C.3   1 <1>   0.1100 
 12 C        2.1900     1.5000    -0.1050 C.3   1 <1>   0.1100 
 13 C       -4.4890     0.4940    -0.8620 C.2   1 <1>  -0.3000 
 14 C        3.8600     3.8540     0.1260 C.3   1 <1>   0.3430 
 15 C        3.6370     1.4210     0.4220 C.3   1 <1>   0.3430 
 16 N        4.5020     2.5210    -0.1330 N.4   1 <1>  -0.9590 
 17 C        5.8830     2.4840     0.4120 C.3   1 <1>   0.3430 
 18 C        6.6350     1.2950    -0.1730 C.3   1 <1>  -0.2400 
 19 H        0.1740     3.0890    -1.4460 H     1 <1>   0.0800 
 20 H       -3.2680     1.4250     2.0120 H     1 <1>   0.0800 
 21 H       -2.6000     0.1740     0.9910 H     1 <1>   0.0800 
 22 H       -0.9020     4.8150    -0.3690 H     1 <1>   0.0800 
 23 H        0.0170     4.5210     1.1090 H     1 <1>   0.0800 
 24 H       -4.5200     2.3750     0.1200 H     1 <1>   0.1500 
 25 H        1.9990     4.8670    -0.1630 H     1 <1>   0.0800 
 26 H        2.4440     3.8430    -1.4970 H     1 <1>   0.0800 
 27 H        2.1700     1.2630    -1.1550 H     1 <1>   0.0800 
 28 H        1.6280     0.7420     0.4140 H     1 <1>   0.0800 
 29 H       -5.2980     0.6600    -1.5520 H     1 <1>   0.1500 
 30 H       -4.0570    -0.4860    -0.9810 H     1 <1>   0.1500 
 31 H        3.8270     4.0400     1.1870 H     1 <1>   0.0800 
 32 H        4.4420     4.6360    -0.3310 H     1 <1>   0.0800 
 33 H        4.0490     0.4600     0.1630 H     1 <1>   0.0800 
 34 H        3.6090     1.4910     1.4970 H     1 <1>   0.0800 
 35 H        4.5530     2.3900    -1.1510 H     1 <1>   0.4500 
 36 H        5.8580     2.4170     1.4880 H     1 <1>   0.0800 
 37 H        6.4030     3.3910     0.1430 H     1 <1>   0.0800 
 38 H        6.2100     0.3620     0.1470 H     1 <1>   0.0800 
 39 H        7.6540     1.3220     0.1720 H     1 <1>   0.0800 
 40 H        6.6500     1.3400    -1.2480 H     1 <1>   0.0800 
@<TRIPOS>BOND
  1   1   2  2   
  2   2   3  am  
  3   2   4  1   
  4   3   5  am  
  5   3   6  1   
  6   4   7  1   
  7   4   8  1   
  8   4  19  1   
  9   5   8  1   
 10   5   9  2   
 11   6  10  1   
 12   6  20  1   
 13   6  21  1   
 14   7  11  1   
 15   7  12  1   
 16   8  22  1   
 17   8  23  1   
 18  10  13  2   
 19  10  24  1   
 20  11  14  1   
 21  11  25  1   
 22  11  26  1   
 23  12  15  1   
 24  12  27  1   
 25  12  28  1   
 26  13  29  1   
 27  13  30  1   
 28  14  16  1   
 29  14  31  1   
 30  14  32  1   
 31  15  16  1   
 32  15  33  1   
 33  15  34  1   
 34  16  17  1   
 35  16  35  1   
 36  17  18  1   
 37  17  36  1   
 38  17  37  1   
 39  18  38  1   
 40  18  39  1   
 41  18  40  1   
@<TRIPOS>SUBSTRUCTURE
  1 ****   4 GROUP 4 **** **** 0

# MOE 2024.06 (io_trps.svl 2023.06)
