@<TRIPOS>MOLECULE
NONAME
29 28 1 0 0 
SMALL
USER_CHARGES


@<TRIPOS>ATOM
  1 CL       0.4590    -0.9570     1.1610 Cl    1 <1>  -0.2900 
  2 C        1.2120    -1.5010    -0.3270 C.3   1 <1>   1.0080 
  3 CL       1.2640    -0.0870    -1.3780 Cl    1 <1>  -0.2900 
  4 CL       0.1280    -2.6330    -1.1260 Cl    1 <1>  -0.2900 
  5 C        2.6550    -2.0710    -0.0990 C.2   1 <1>  -0.0380 
  6 N        3.7180    -1.2500    -0.4200 N.pl3 1 <1>  -0.9000 
  7 C        2.8610    -3.3480     0.4010 C.2   1 <1>   0.0290 
  8 C        1.8310    -4.2320     0.8300 C.2   1 <1>   0.7060 
  9 C        4.1500    -3.9390     0.5730 C.2   1 <1>   0.7060 
 10 O        0.9500    -3.9000     1.5980 O.2   1 <1>  -0.5700 
 11 O        1.8220    -5.4720     0.3260 O.3   1 <1>  -0.4300 
 12 O        4.4310    -4.6600     1.5130 O.2   1 <1>  -0.5700 
 13 O        5.1020    -3.6940    -0.3420 O.3   1 <1>  -0.4300 
 14 C        0.8470    -6.4340     0.6720 C.3   1 <1>   0.1200 
 15 C        6.3750    -4.3090    -0.3110 C.3   1 <1>   0.1200 
 16 C       -0.3760    -6.2470    -0.2230 C.3   1 <1>  -0.2400 
 17 C        6.2750    -5.6830    -0.9710 C.3   1 <1>  -0.2400 
 18 H        4.7050    -1.5500    -0.3610 H     1 <1>   0.4000 
 19 H        3.6210    -0.2960    -0.8030 H     1 <1>   0.4000 
 20 H        1.2810    -7.4060     0.5130 H     1 <1>   0.0800 
 21 H        0.5960    -6.3310     1.7150 H     1 <1>   0.0800 
 22 H        7.0540    -3.6810    -0.8600 H     1 <1>   0.0800 
 23 H        6.7150    -4.3830     0.7090 H     1 <1>   0.0800 
 24 H       -0.0960    -6.3190    -1.2590 H     1 <1>   0.0800 
 25 H       -0.8340    -5.2920    -0.0380 H     1 <1>   0.0800 
 26 H       -1.1000    -7.0130    -0.0100 H     1 <1>   0.0800 
 27 H        5.9200    -5.5870    -1.9820 H     1 <1>   0.0800 
 28 H        5.6110    -6.3200    -0.4140 H     1 <1>   0.0800 
 29 H        7.2450    -6.1450    -0.9920 H     1 <1>   0.0800 
@<TRIPOS>BOND
  1   1   2  1   
  2   2   3  1   
  3   2   4  1   
  4   2   5  1   
  5   5   6  1   
  6   5   7  2   
  7   6  18  1   
  8   6  19  1   
  9   7   8  1   
 10   7   9  1   
 11   8  10  2   
 12   8  11  1   
 13   9  12  2   
 14   9  13  1   
 15  11  14  1   
 16  13  15  1   
 17  14  16  1   
 18  14  20  1   
 19  14  21  1   
 20  15  17  1   
 21  15  22  1   
 22  15  23  1   
 23  16  24  1   
 24  16  25  1   
 25  16  26  1   
 26  17  27  1   
 27  17  28  1   
 28  17  29  1   
@<TRIPOS>SUBSTRUCTURE
  1 ****   7 GROUP 4 **** **** 0

# MOE 2024.06 (io_trps.svl 2023.06)
