@<TRIPOS>MOLECULE
NONAME
43 44 1 0 0 
SMALL
USER_CHARGES


@<TRIPOS>ATOM
  1 CL       0.4680     0.1680    -1.9470 Cl    1 <1>  -0.1770 
  2 C       -0.4070     1.1240    -0.7740 C.ar  1 <1>   0.1770 
  3 C        0.1670     2.2620    -0.2190 C.ar  1 <1>  -0.1440 
  4 C       -1.6760     0.7080    -0.4200 C.ar  1 <1>  -0.1500 
  5 C       -0.5570     2.9890     0.7170 C.ar  1 <1>  -0.1500 
  6 C        1.5660     2.7140    -0.6070 C.3   1 <1>   0.2640 
  7 C       -2.3770     1.4500     0.5090 C.ar  1 <1>   0.1770 
  8 C       -1.8320     2.5850     1.0820 C.ar  1 <1>  -0.1500 
  9 O        2.4720     2.1690     0.3260 O.3   1 <1>  -0.3630 
 10 CL      -3.9810     0.9450     0.9720 Cl    1 <1>  -0.1770 
 11 C        3.7900     2.0530     0.0180 C.ar  1 <1>   0.0830 
 12 C        4.5380     0.9500     0.4620 C.ar  1 <1>   0.0830 
 13 C        4.4230     3.0470    -0.7200 C.ar  1 <1>  -0.1500 
 14 O        4.0730    -0.1070     1.1870 O.3   1 <1>  -0.3620 
 15 C        5.8870     0.8820     0.1610 C.ar  1 <1>  -0.1500 
 16 C        5.7730     2.9610    -1.0140 C.ar  1 <1>  -0.1500 
 17 C        2.7080    -0.4680     1.2120 C.3   1 <1>   0.0400 
 18 C        6.5150     1.8790    -0.5680 C.ar  1 <1>  -0.1430 
 19 C        7.9960     1.7860    -0.8490 C.3   1 <1>   0.4860 
 20 N        8.6740     2.3000     0.3590 N.4   1 <1>  -0.9060 
 21 C       10.1600     2.2840     0.2460 C.3   1 <1>   0.3430 
 22 C       10.8320     2.8310     1.5120 C.3   1 <1>   0.1200 
 23 O       12.1970     2.8050     1.2970 O.3   1 <1>  -0.6800 
 24 H       -2.1080    -0.1720    -0.8570 H     1 <1>   0.1500 
 25 H       -0.1310     3.8690     1.1690 H     1 <1>   0.1500 
 26 H        1.6420     3.7860    -0.5650 H     1 <1>   0.0800 
 27 H        1.8340     2.3740    -1.5920 H     1 <1>   0.0800 
 28 H       -2.4000     3.1420     1.8060 H     1 <1>   0.1500 
 29 H        3.8760     3.9060    -1.0630 H     1 <1>   0.1500 
 30 H        6.4290     0.0200     0.5120 H     1 <1>   0.1500 
 31 H        6.2280     3.7500    -1.5910 H     1 <1>   0.1500 
 32 H        2.6280    -1.4510     1.6380 H     1 <1>   0.0800 
 33 H        2.3260    -0.4720     0.2060 H     1 <1>   0.0800 
 34 H        2.1700     0.2350     1.8230 H     1 <1>   0.0800 
 35 H        8.2490     2.3820    -1.7110 H     1 <1>   0.0800 
 36 H        8.2730     0.7610    -1.0350 H     1 <1>   0.0800 
 37 H        8.3560     1.7320     1.1550 H     1 <1>   0.4500 
 38 H        8.3240     3.2500     0.5300 H     1 <1>   0.4500 
 39 H       10.4680     2.8890    -0.5920 H     1 <1>   0.0800 
 40 H       10.5040     1.2750     0.0840 H     1 <1>   0.0800 
 41 H       10.6170     2.2140     2.3670 H     1 <1>   0.0800 
 42 H       10.5450     3.8520     1.6990 H     1 <1>   0.0800 
 43 H       12.6980     3.1430     2.0710 H     1 <1>   0.4000 
@<TRIPOS>BOND
  1   1   2  1   
  2   2   3  ar  
  3   2   4  ar  
  4   3   5  ar  
  5   3   6  1   
  6   4   7  ar  
  7   4  24  1   
  8   5   8  ar  
  9   5  25  1   
 10   6   9  1   
 11   6  26  1   
 12   6  27  1   
 13   7   8  ar  
 14   7  10  1   
 15   8  28  1   
 16   9  11  1   
 17  11  12  ar  
 18  11  13  ar  
 19  12  14  1   
 20  12  15  ar  
 21  13  16  ar  
 22  13  29  1   
 23  14  17  1   
 24  15  18  ar  
 25  15  30  1   
 26  16  18  ar  
 27  16  31  1   
 28  17  32  1   
 29  17  33  1   
 30  17  34  1   
 31  18  19  1   
 32  19  20  1   
 33  19  35  1   
 34  19  36  1   
 35  20  21  1   
 36  20  37  1   
 37  20  38  1   
 38  21  22  1   
 39  21  39  1   
 40  21  40  1   
 41  22  23  1   
 42  22  41  1   
 43  22  42  1   
 44  23  43  1   
@<TRIPOS>SUBSTRUCTURE
  1 ****  11 GROUP 4 **** **** 0

# MOE 2024.06 (io_trps.svl 2023.06)
