@<TRIPOS>MOLECULE
NONAME
56 57 1 0 0 
SMALL
USER_CHARGES


@<TRIPOS>ATOM
  1 O        0.5330     0.6670    -0.1600 O.3   1 <1>  -0.5600 
  2 C       -0.5450     1.4930    -0.4880 C.3   1 <1>   0.1200 
  3 C        1.7460     1.3240     0.0410 C.3   1 <1>   0.1200 
  4 C       -0.5640     1.7570    -1.9970 C.3   1 <1>   0.1200 
  5 C        2.8000     0.2640     0.3770 C.3   1 <1>   0.1100 
  6 O       -1.6780     2.5220    -2.3140 O.3   1 <1>  -0.6800 
  7 N        4.1360     0.8550     0.6300 N.3   1 <1>  -0.8100 
  8 C        4.2020     1.5310     1.9500 C.3   1 <1>   0.1100 
  9 C        5.1770    -0.1980     0.5620 C.3   1 <1>   0.1100 
 10 C        5.6130     2.1010     2.2410 C.3   1 <1>   0.3430 
 11 C        6.5940     0.3610     0.8380 C.3   1 <1>   0.3430 
 12 N        6.5490     1.8510     1.0820 N.4   1 <1>  -0.9590 
 13 C        7.8750     2.5420     1.1490 C.3   1 <1>   0.4230 
 14 C        7.6780     4.0560     1.3170 C.3   1 <1>  -0.1600 
 15 C        8.6860     2.2630    -0.1250 C.3   1 <1>  -0.1600 
 16 C        9.0020     4.8190     1.2570 C.3   1 <1>   0.3430 
 17 C        9.9920     3.0560    -0.1630 C.3   1 <1>   0.3430 
 18 N        9.7100     4.5120    -0.0150 N.4   1 <1>  -0.9590 
 19 C       10.9630     5.3230    -0.1010 C.3   1 <1>   0.3430 
 20 C       11.4880     5.3480    -1.5380 C.3   1 <1>  -0.1600 
 21 C       12.7030     6.2740    -1.6560 C.3   1 <1>  -0.2400 
 22 H       -0.4780     2.4120     0.0680 H     1 <1>   0.0800 
 23 H       -1.4390     0.9680    -0.2020 H     1 <1>   0.0800 
 24 H        1.6220     2.0160     0.8540 H     1 <1>   0.0800 
 25 H        2.0170     1.8440    -0.8610 H     1 <1>   0.0800 
 26 H       -0.6180     0.8340    -2.5480 H     1 <1>   0.0800 
 27 H        0.3060     2.3130    -2.2990 H     1 <1>   0.0800 
 28 H        2.8610    -0.4030    -0.4670 H     1 <1>   0.0800 
 29 H        2.4770    -0.3030     1.2330 H     1 <1>   0.0800 
 30 H       -2.4980     2.0040    -2.1980 H     1 <1>   0.4000 
 31 H        3.9310     0.8400     2.7320 H     1 <1>   0.0800 
 32 H        3.4940     2.3410     1.9800 H     1 <1>   0.0800 
 33 H        5.1660    -0.6470    -0.4180 H     1 <1>   0.0800 
 34 H        4.9590    -0.9790     1.2730 H     1 <1>   0.0800 
 35 H        6.0010     1.6460     3.1380 H     1 <1>   0.0800 
 36 H        5.5120     3.1560     2.4240 H     1 <1>   0.0800 
 37 H        7.2100     0.1360    -0.0150 H     1 <1>   0.0800 
 38 H        7.0160    -0.1440     1.6910 H     1 <1>   0.0800 
 39 H        5.9980     2.1890     0.2740 H     1 <1>   0.4500 
 40 H        8.4240     2.1670     1.9990 H     1 <1>   0.0800 
 41 H        7.2380     4.2690     2.2740 H     1 <1>   0.0800 
 42 H        7.0230     4.4370     0.5520 H     1 <1>   0.0800 
 43 H        8.1080     2.5050    -1.0000 H     1 <1>   0.0800 
 44 H        8.9510     1.2230    -0.1750 H     1 <1>   0.0800 
 45 H        9.6220     4.5410     2.0950 H     1 <1>   0.0800 
 46 H        8.8090     5.8790     1.3220 H     1 <1>   0.0800 
 47 H       10.4940     2.8690    -1.0990 H     1 <1>   0.0800 
 48 H       10.6430     2.7290     0.6340 H     1 <1>   0.0800 
 49 H        9.1210     4.8190    -0.8040 H     1 <1>   0.4500 
 50 H       11.7170     4.9240     0.5590 H     1 <1>   0.0800 
 51 H       10.7580     6.3380     0.2020 H     1 <1>   0.0800 
 52 H       10.7220     5.7060    -2.2040 H     1 <1>   0.0800 
 53 H       11.7880     4.3630    -1.8510 H     1 <1>   0.0800 
 54 H       12.4460     7.2840    -1.3840 H     1 <1>   0.0800 
 55 H       13.0610     6.2840    -2.6720 H     1 <1>   0.0800 
 56 H       13.5070     5.9390    -1.0230 H     1 <1>   0.0800 
@<TRIPOS>BOND
  1   1   2  1   
  2   1   3  1   
  3   2   4  1   
  4   2  22  1   
  5   2  23  1   
  6   3   5  1   
  7   3  24  1   
  8   3  25  1   
  9   4   6  1   
 10   4  26  1   
 11   4  27  1   
 12   5   7  1   
 13   5  28  1   
 14   5  29  1   
 15   6  30  1   
 16   7   8  1   
 17   7   9  1   
 18   8  10  1   
 19   8  31  1   
 20   8  32  1   
 21   9  11  1   
 22   9  33  1   
 23   9  34  1   
 24  10  12  1   
 25  10  35  1   
 26  10  36  1   
 27  11  12  1   
 28  11  37  1   
 29  11  38  1   
 30  12  13  1   
 31  12  39  1   
 32  13  14  1   
 33  13  15  1   
 34  13  40  1   
 35  14  16  1   
 36  14  41  1   
 37  14  42  1   
 38  15  17  1   
 39  15  43  1   
 40  15  44  1   
 41  16  18  1   
 42  16  45  1   
 43  16  46  1   
 44  17  18  1   
 45  17  47  1   
 46  17  48  1   
 47  18  19  1   
 48  18  49  1   
 49  19  20  1   
 50  19  50  1   
 51  19  51  1   
 52  20  21  1   
 53  20  52  1   
 54  20  53  1   
 55  21  54  1   
 56  21  55  1   
 57  21  56  1   
@<TRIPOS>SUBSTRUCTURE
  1 ****  12 GROUP 4 **** **** 0

# MOE 2024.06 (io_trps.svl 2023.06)
