@<TRIPOS>MOLECULE
NONAME
40 42 1 0 0 
SMALL
USER_CHARGES


@<TRIPOS>ATOM
  1 CL       1.1140     0.3080     0.0110 Cl    1 <1>  -0.1770 
  2 C        1.1240     1.8960    -0.7280 C.ar  1 <1>   0.1770 
  3 C        2.2900     2.6640    -0.7480 C.ar  1 <1>   0.1170 
  4 C       -0.0510     2.3370    -1.3120 C.ar  1 <1>  -0.1500 
  5 N        3.4880     2.2460    -0.1400 N.am  1 <1>  -0.5470 
  6 C        2.2230     3.8860    -1.4140 C.ar  1 <1>   0.1770 
  7 C       -0.0880     3.5650    -1.9520 C.ar  1 <1>  -0.1500 
  8 C        3.7280     2.0140     1.1810 C.2   1 <1>   0.5690 
  9 CL       3.6500     4.8970    -1.5170 Cl    1 <1>  -0.1770 
 10 C        1.0580     4.3410    -2.0060 C.ar  1 <1>  -0.1500 
 11 O        2.8780     2.0930     2.0350 O.2   1 <1>  -0.5700 
 12 C        5.1690     1.6770     1.5620 C.3   1 <1>   0.1710 
 13 N        6.1710     2.2210     0.5970 N.3   1 <1>  -0.8100 
 14 C        7.4670     1.5430     0.7490 C.3   1 <1>   0.1100 
 15 C        6.3220     3.6790     0.7680 C.3   1 <1>   0.1100 
 16 C        8.4190     2.0080    -0.3530 C.3   1 <1>  -0.1600 
 17 C        7.2170     4.2310    -0.3390 C.3   1 <1>  -0.1600 
 18 C        8.5720     3.5230    -0.3220 C.3   1 <1>   0.5600 
 19 O        9.3500     3.9260    -1.3960 O.3   1 <1>  -0.5600 
 20 O        9.2930     3.8860     0.8110 O.3   1 <1>  -0.5600 
 21 C       10.1130     5.0110    -1.0140 C.3   1 <1>   0.1200 
 22 C       10.1260     4.9450     0.5010 C.3   1 <1>   0.1200 
 23 H       -0.9290     1.7160    -1.2670 H     1 <1>   0.1500 
 24 H        4.3620     2.3430    -0.6710 H     1 <1>   0.3700 
 25 H       -1.0010     3.9120    -2.4070 H     1 <1>   0.1500 
 26 H        1.0510     5.2940    -2.5040 H     1 <1>   0.1500 
 27 H        5.2430     0.6050     1.5890 H     1 <1>   0.0800 
 28 H        5.3680     2.0480     2.5520 H     1 <1>   0.0800 
 29 H        7.3330     0.4770     0.6680 H     1 <1>   0.0800 
 30 H        7.8890     1.7630     1.7170 H     1 <1>   0.0800 
 31 H        6.7580     3.8930     1.7310 H     1 <1>   0.0800 
 32 H        5.3620     4.1640     0.7180 H     1 <1>   0.0800 
 33 H        8.0170     1.7120    -1.3040 H     1 <1>   0.0800 
 34 H        9.3810     1.5490    -0.2290 H     1 <1>   0.0800 
 35 H        7.3450     5.2890    -0.2100 H     1 <1>   0.0800 
 36 H        6.7400     4.0590    -1.2860 H     1 <1>   0.0800 
 37 H        9.6400     5.9120    -1.3660 H     1 <1>   0.0800 
 38 H       11.0980     4.9170    -1.4360 H     1 <1>   0.0800 
 39 H       11.1090     4.7370     0.8840 H     1 <1>   0.0800 
 40 H        9.7340     5.8440     0.9430 H     1 <1>   0.0800 
@<TRIPOS>BOND
  1   1   2  1   
  2   2   3  ar  
  3   2   4  ar  
  4   3   5  1   
  5   3   6  ar  
  6   4   7  ar  
  7   4  23  1   
  8   5   8  am  
  9   5  24  1   
 10   6   9  1   
 11   6  10  ar  
 12   7  10  ar  
 13   7  25  1   
 14   8  11  2   
 15   8  12  1   
 16  10  26  1   
 17  12  13  1   
 18  12  27  1   
 19  12  28  1   
 20  13  14  1   
 21  13  15  1   
 22  14  16  1   
 23  14  29  1   
 24  14  30  1   
 25  15  17  1   
 26  15  31  1   
 27  15  32  1   
 28  16  18  1   
 29  16  33  1   
 30  16  34  1   
 31  17  18  1   
 32  17  35  1   
 33  17  36  1   
 34  18  19  1   
 35  18  20  1   
 36  19  21  1   
 37  20  22  1   
 38  21  22  1   
 39  21  37  1   
 40  21  38  1   
 41  22  39  1   
 42  22  40  1   
@<TRIPOS>SUBSTRUCTURE
  1 ****  13 GROUP 4 **** **** 0

# MOE 2024.06 (io_trps.svl 2023.06)
