@<TRIPOS>MOLECULE
NONAME
43 44 1 0 0 
SMALL
USER_CHARGES


@<TRIPOS>ATOM
  1 BR       0.0180     0.3790     0.1700 Br    1 <1>  -0.1110 
  2 C        1.8710     0.8770     0.3050 C.ar  1 <1>   0.1110 
  3 C        2.2820     2.0750    -0.2430 C.ar  1 <1>  -0.1500 
  4 C        2.7460     0.0240     0.9480 C.ar  1 <1>  -0.1500 
  5 C        3.6190     2.4230    -0.1410 C.ar  1 <1>  -0.1500 
  6 C        4.0790     0.3910     1.0380 C.ar  1 <1>  -0.1500 
  7 C        4.5380     1.5900     0.4950 C.ar  1 <1>  -0.0090 
  8 S        6.2860     2.0650     0.6140 S.o2  1 <1>   1.4470 
  9 O        7.0910     0.9250     0.9990 O.2   1 <1>  -0.6500 
 10 O        6.3950     3.2870     1.3750 O.2   1 <1>  -0.6500 
 11 N        6.6990     2.4330    -0.9890 N.am  1 <1>  -0.8490 
 12 C        7.8750     3.3500    -1.0960 C.3   1 <1>   0.2570 
 13 C        6.7960     1.2480    -1.8480 C.3   1 <1>   0.1960 
 14 C        9.2880     2.7470    -0.9800 C.2   1 <1>   0.5690 
 15 C        6.7870     1.6450    -3.3230 C.3   1 <1>  -0.2400 
 16 O       10.1380     3.1530    -1.7370 O.2   1 <1>  -0.5700 
 17 N        9.5680     1.7830    -0.0630 N.am  1 <1>  -0.7300 
 18 C       10.8710     1.1360     0.1420 C.3   1 <1>   0.2200 
 19 C       10.7460    -0.3380    -0.2230 C.3   1 <1>  -0.1600 
 20 C       11.1650     1.1030     1.6360 C.3   1 <1>  -0.1600 
 21 C       10.1080    -1.0150     0.9950 C.3   1 <1>  -0.1600 
 22 C       10.3720    -0.0870     2.1880 C.3   1 <1>  -0.1600 
 23 H        1.5740     2.7180    -0.7350 H     1 <1>   0.1500 
 24 H        2.3920    -0.9010     1.3660 H     1 <1>   0.1500 
 25 H        3.9580     3.3550    -0.5610 H     1 <1>   0.1500 
 26 H        4.7730    -0.2640     1.5390 H     1 <1>   0.1500 
 27 H        7.7970     4.1360    -0.3670 H     1 <1>   0.0800 
 28 H        7.8260     3.8390    -2.0510 H     1 <1>   0.0800 
 29 H        5.9450     0.6110    -1.6710 H     1 <1>   0.0800 
 30 H        7.6820     0.6770    -1.6200 H     1 <1>   0.0800 
 31 H        7.6960     2.1490    -3.5950 H     1 <1>   0.0800 
 32 H        5.9430     2.2760    -3.5340 H     1 <1>   0.0800 
 33 H        6.7100     0.7600    -3.9290 H     1 <1>   0.0800 
 34 H        8.8170     1.3870     0.5200 H     1 <1>   0.3700 
 35 H       11.6420     1.6380    -0.4200 H     1 <1>   0.0800 
 36 H       11.7350    -0.7360    -0.3660 H     1 <1>   0.0800 
 37 H       10.1810    -0.4860    -1.1260 H     1 <1>   0.0800 
 38 H       10.9140     2.0310     2.1210 H     1 <1>   0.0800 
 39 H       12.2160     0.9170     1.7720 H     1 <1>   0.0800 
 40 H       10.5270    -1.9940     1.1560 H     1 <1>   0.0800 
 41 H        9.0450    -1.1120     0.8460 H     1 <1>   0.0800 
 42 H        9.4340     0.2550     2.5910 H     1 <1>   0.0800 
 43 H       10.9210    -0.5890     2.9660 H     1 <1>   0.0800 
@<TRIPOS>BOND
  1   1   2  1   
  2   2   3  ar  
  3   2   4  ar  
  4   3   5  ar  
  5   3  23  1   
  6   4   6  ar  
  7   4  24  1   
  8   5   7  ar  
  9   5  25  1   
 10   6   7  ar  
 11   6  26  1   
 12   7   8  1   
 13   8   9  2   
 14   8  10  2   
 15   8  11  am  
 16  11  12  1   
 17  11  13  1   
 18  12  14  1   
 19  12  27  1   
 20  12  28  1   
 21  13  15  1   
 22  13  29  1   
 23  13  30  1   
 24  14  16  2   
 25  14  17  am  
 26  15  31  1   
 27  15  32  1   
 28  15  33  1   
 29  17  18  1   
 30  17  34  1   
 31  18  19  1   
 32  18  20  1   
 33  18  35  1   
 34  19  21  1   
 35  19  36  1   
 36  19  37  1   
 37  20  22  1   
 38  20  38  1   
 39  20  39  1   
 40  21  22  1   
 41  21  40  1   
 42  21  41  1   
 43  22  42  1   
 44  22  43  1   
@<TRIPOS>SUBSTRUCTURE
  1 ****   8 GROUP 4 **** **** 0

# MOE 2024.06 (io_trps.svl 2023.06)
