@<TRIPOS>MOLECULE
NONAME
44 45 1 0 0 
SMALL
USER_CHARGES


@<TRIPOS>ATOM
  1 O        0.7900    -1.2430    -1.4400 O.2   1 <1>  -0.5700 
  2 C        0.7590    -1.6350    -0.2990 C.2   1 <1>   0.5690 
  3 N       -0.3980    -1.9860     0.3460 N.am  1 <1>  -0.5470 
  4 C        2.0730    -1.7640     0.4800 C.3   1 <1>  -0.0190 
  5 C       -1.7360    -1.9770    -0.0810 C.ar  1 <1>   0.1170 
  6 C        2.8250    -0.4250     0.5500 C.3   1 <1>  -0.2400 
  7 C        2.9800    -2.8450    -0.1290 C.3   1 <1>  -0.2400 
  8 C       -2.6650    -2.7370     0.6200 C.ar  1 <1>  -0.1500 
  9 C       -2.1860    -1.2370    -1.1690 C.ar  1 <1>  -0.1500 
 10 C       -3.9970    -2.7620     0.2490 C.ar  1 <1>  -0.1500 
 11 C       -3.5150    -1.2600    -1.5490 C.ar  1 <1>  -0.1500 
 12 C       -4.4330    -2.0190    -0.8390 C.ar  1 <1>  -0.1430 
 13 C       -5.8930    -2.0310    -1.2510 C.3   1 <1>   0.4860 
 14 N       -6.6660    -1.1830    -0.3040 N.4   1 <1>  -0.9590 
 15 C       -8.1340    -1.3450    -0.5020 C.3   1 <1>   0.3430 
 16 C       -6.2420     0.2480    -0.3720 C.3   1 <1>   0.3430 
 17 C       -8.8890    -0.5720     0.5810 C.3   1 <1>  -0.1600 
 18 C       -6.9650     1.0520     0.7100 C.3   1 <1>  -0.1600 
 19 C       -8.4890     0.9090     0.6050 C.3   1 <1>  -0.1600 
 20 H       -0.2550    -2.3630     1.2800 H     1 <1>   0.3700 
 21 H        1.8430    -2.0600     1.4880 H     1 <1>   0.0800 
 22 H        3.0950    -0.0970    -0.4390 H     1 <1>   0.0800 
 23 H        3.7210    -0.5240     1.1370 H     1 <1>   0.0800 
 24 H        2.2020     0.3280     0.9980 H     1 <1>   0.0800 
 25 H        3.2470    -2.5800    -1.1380 H     1 <1>   0.0800 
 26 H        2.4690    -3.7910    -0.1520 H     1 <1>   0.0800 
 27 H        3.8800    -2.9550     0.4490 H     1 <1>   0.0800 
 28 H       -2.3400    -3.3220     1.4630 H     1 <1>   0.1500 
 29 H       -1.4950    -0.6340    -1.7320 H     1 <1>   0.1500 
 30 H       -4.6810    -3.3720     0.8140 H     1 <1>   0.1500 
 31 H       -3.8140    -0.6800    -2.4060 H     1 <1>   0.1500 
 32 H       -6.2570    -3.0450    -1.2240 H     1 <1>   0.0800 
 33 H       -5.9950    -1.6580    -2.2560 H     1 <1>   0.0800 
 34 H       -6.4320    -1.5080     0.6420 H     1 <1>   0.4500 
 35 H       -8.4050    -2.3880    -0.4500 H     1 <1>   0.0800 
 36 H       -8.4160    -0.9690    -1.4720 H     1 <1>   0.0800 
 37 H       -6.4800     0.6550    -1.3420 H     1 <1>   0.0800 
 38 H       -5.1770     0.3290    -0.2220 H     1 <1>   0.0800 
 39 H       -8.6970    -1.0200     1.5410 H     1 <1>   0.0800 
 40 H       -9.9470    -0.6500     0.3970 H     1 <1>   0.0800 
 41 H       -6.6970     2.0900     0.6130 H     1 <1>   0.0800 
 42 H       -6.6310     0.7250     1.6790 H     1 <1>   0.0800 
 43 H       -8.9610     1.4020     1.4400 H     1 <1>   0.0800 
 44 H       -8.8340     1.3900    -0.2950 H     1 <1>   0.0800 
@<TRIPOS>BOND
  1   1   2  2   
  2   2   3  am  
  3   2   4  1   
  4   3   5  1   
  5   3  20  1   
  6   4   6  1   
  7   4   7  1   
  8   4  21  1   
  9   5   8  ar  
 10   5   9  ar  
 11   6  22  1   
 12   6  23  1   
 13   6  24  1   
 14   7  25  1   
 15   7  26  1   
 16   7  27  1   
 17   8  10  ar  
 18   8  28  1   
 19   9  11  ar  
 20   9  29  1   
 21  10  12  ar  
 22  10  30  1   
 23  11  12  ar  
 24  11  31  1   
 25  12  13  1   
 26  13  14  1   
 27  13  32  1   
 28  13  33  1   
 29  14  15  1   
 30  14  16  1   
 31  14  34  1   
 32  15  17  1   
 33  15  35  1   
 34  15  36  1   
 35  16  18  1   
 36  16  37  1   
 37  16  38  1   
 38  17  19  1   
 39  17  39  1   
 40  17  40  1   
 41  18  19  1   
 42  18  41  1   
 43  18  42  1   
 44  19  43  1   
 45  19  44  1   
@<TRIPOS>SUBSTRUCTURE
  1 ****  11 GROUP 4 **** **** 0

# MOE 2024.06 (io_trps.svl 2023.06)
