@<TRIPOS>MOLECULE
NONAME
27 26 1 0 0 
SMALL
USER_CHARGES


@<TRIPOS>ATOM
  1 O       -0.0880     0.0220    -0.5660 O.2   1 <1>  -0.5700 
  2 C       -0.1530     1.1340    -0.0850 C.2   1 <1>   0.7060 
  3 O        0.9460     1.6480     0.4780 O.3   1 <1>  -0.4300 
  4 C       -1.3710     1.9120    -0.0860 C.2   1 <1>   0.0290 
  5 C        2.1700     0.9410     0.5240 C.3   1 <1>   0.0400 
  6 C       -1.1590     3.2710     0.3310 C.2   1 <1>   0.7060 
  7 C       -2.5750     1.3820    -0.4380 C.2   1 <1>  -0.2880 
  8 O       -1.5370     3.7060     1.3980 O.2   1 <1>  -0.5700 
  9 O       -0.5300     4.0820    -0.5240 O.3   1 <1>  -0.4300 
 10 C       -3.9500     2.0330    -0.5300 C.3   1 <1>   0.0580 
 11 C       -0.2700     5.4350    -0.2110 C.3   1 <1>   0.0400 
 12 C       -3.9260     3.4530    -1.1050 C.3   1 <1>  -0.2400 
 13 C       -4.6240     2.0110     0.8420 C.3   1 <1>  -0.2400 
 14 H        2.8990     1.5550     1.0210 H     1 <1>   0.0800 
 15 H        2.4880     0.7280    -0.4820 H     1 <1>   0.0800 
 16 H        2.0220     0.0250     1.0690 H     1 <1>   0.0800 
 17 H       -2.6370     0.3380    -0.6970 H     1 <1>   0.1500 
 18 H       -4.5420     1.4340    -1.2030 H     1 <1>   0.0800 
 19 H       -1.2050     5.9380    -0.0360 H     1 <1>   0.0800 
 20 H        0.2440     5.8850    -1.0420 H     1 <1>   0.0800 
 21 H        0.3450     5.4760     0.6720 H     1 <1>   0.0800 
 22 H       -3.5350     4.1590    -0.3970 H     1 <1>   0.0800 
 23 H       -4.9260     3.7600    -1.3540 H     1 <1>   0.0800 
 24 H       -3.3310     3.4830    -2.0000 H     1 <1>   0.0800 
 25 H       -4.0630     2.5990     1.5470 H     1 <1>   0.0800 
 26 H       -4.6830     1.0020     1.2100 H     1 <1>   0.0800 
 27 H       -5.6200     2.4100     0.7770 H     1 <1>   0.0800 
@<TRIPOS>BOND
  1   1   2  2   
  2   2   3  1   
  3   2   4  1   
  4   3   5  1   
  5   4   6  1   
  6   4   7  2   
  7   5  14  1   
  8   5  15  1   
  9   5  16  1   
 10   6   8  2   
 11   6   9  1   
 12   7  10  1   
 13   7  17  1   
 14   9  11  1   
 15  10  12  1   
 16  10  13  1   
 17  10  18  1   
 18  11  19  1   
 19  11  20  1   
 20  11  21  1   
 21  12  22  1   
 22  12  23  1   
 23  12  24  1   
 24  13  25  1   
 25  13  26  1   
 26  13  27  1   
@<TRIPOS>SUBSTRUCTURE
  1 ****   4 GROUP 4 **** **** 0

# MOE 2024.06 (io_trps.svl 2023.06)
