@<TRIPOS>MOLECULE
NONAME
53 55 1 0 0 
SMALL
USER_CHARGES


@<TRIPOS>ATOM
  1 O       -0.2270     0.1520    -0.7750 O.3   1 <1>  -0.5600 
  2 C       -1.3770     0.4300    -1.5250 C.3   1 <1>   0.4800 
  3 C        0.4750     1.3280    -0.5460 C.3   1 <1>   0.2000 
  4 O       -1.3930     1.8090    -1.7000 O.3   1 <1>  -0.5600 
  5 C       -2.6640    -0.0770    -0.8340 C.3   1 <1>  -0.0800 
  6 C       -0.1160     2.2940    -1.5470 C.3   1 <1>   0.1200 
  7 C        1.9820     1.0600    -0.7000 C.3   1 <1>   0.3430 
  8 C       -2.7600     0.2330     0.6880 C.3   1 <1>   0.0580 
  9 C       -2.9050    -1.5810    -1.1440 C.3   1 <1>  -0.0800 
 10 N        2.3150    -0.3010    -0.1760 N.4   1 <1>  -0.9590 
 11 C       -3.8790    -0.5630     1.3470 C.2   1 <1>  -0.2880 
 12 C       -3.0160     1.7200     0.9700 C.3   1 <1>  -0.2400 
 13 C       -4.3090    -1.9960    -0.6660 C.3   1 <1>  -0.0220 
 14 C       -1.8410    -2.5220    -0.5430 C.3   1 <1>  -0.2400 
 15 C        2.3040    -0.3660     1.3140 C.3   1 <1>   0.3430 
 16 C        3.5620    -0.8620    -0.7660 C.3   1 <1>   0.3430 
 17 C       -4.5780    -1.5370     0.7590 C.2   1 <1>  -0.2760 
 18 C        2.4280    -1.8230     1.7610 C.3   1 <1>  -0.1600 
 19 C        3.7110    -2.3260    -0.3500 C.3   1 <1>  -0.1600 
 20 C       -5.7120    -2.2770     1.4470 C.3   1 <1>  -0.1020 
 21 C        3.6770    -2.4940     1.1750 C.3   1 <1>  -0.1600 
 22 H       -1.2680    -0.0210    -2.4970 H     1 <1>   0.0800 
 23 H        0.2460     1.6590     0.4530 H     1 <1>   0.0800 
 24 H       -3.4750     0.4400    -1.3140 H     1 <1>   0.0800 
 25 H        0.3820     2.2530    -2.5010 H     1 <1>   0.0800 
 26 H       -0.1560     3.3070    -1.1850 H     1 <1>   0.0800 
 27 H        2.5540     1.8200    -0.1920 H     1 <1>   0.0800 
 28 H        2.2240     1.1060    -1.7480 H     1 <1>   0.0800 
 29 H       -1.8440    -0.0540     1.1730 H     1 <1>   0.0800 
 30 H       -2.8860    -1.7150    -2.2120 H     1 <1>   0.0800 
 31 H        1.5170    -0.8860    -0.4840 H     1 <1>   0.4500 
 32 H       -4.0650    -0.2600     2.3630 H     1 <1>   0.1500 
 33 H       -3.9240     2.0360     0.4880 H     1 <1>   0.0800 
 34 H       -2.2090     2.3310     0.6180 H     1 <1>   0.0800 
 35 H       -3.1190     1.8860     2.0270 H     1 <1>   0.0800 
 36 H       -4.4070    -3.0660    -0.7340 H     1 <1>   0.0800 
 37 H       -5.0550    -1.5610    -1.3090 H     1 <1>   0.0800 
 38 H       -1.8050    -2.4270     0.5270 H     1 <1>   0.0800 
 39 H       -0.8680    -2.3140    -0.9460 H     1 <1>   0.0800 
 40 H       -2.0790    -3.5440    -0.7780 H     1 <1>   0.0800 
 41 H        1.3820     0.0440     1.6960 H     1 <1>   0.0800 
 42 H        3.1260     0.2070     1.7120 H     1 <1>   0.0800 
 43 H        4.4150    -0.3000    -0.4200 H     1 <1>   0.0800 
 44 H        3.5240    -0.7980    -1.8420 H     1 <1>   0.0800 
 45 H        1.5460    -2.3620     1.4620 H     1 <1>   0.0800 
 46 H        2.4760    -1.8580     2.8360 H     1 <1>   0.0800 
 47 H        4.6440    -2.7070    -0.7300 H     1 <1>   0.0800 
 48 H        2.9220    -2.9050    -0.7990 H     1 <1>   0.0800 
 49 H       -6.6240    -2.1540     0.8930 H     1 <1>   0.0800 
 50 H       -5.8630    -1.8960     2.4410 H     1 <1>   0.0800 
 51 H       -5.4820    -3.3260     1.5170 H     1 <1>   0.0800 
 52 H        3.6820    -3.5410     1.4280 H     1 <1>   0.0800 
 53 H        4.5600    -2.0500     1.6050 H     1 <1>   0.0800 
@<TRIPOS>BOND
  1   1   2  1   
  2   1   3  1   
  3   2   4  1   
  4   2   5  1   
  5   2  22  1   
  6   3   6  1   
  7   3   7  1   
  8   3  23  1   
  9   4   6  1   
 10   5   8  1   
 11   5   9  1   
 12   5  24  1   
 13   6  25  1   
 14   6  26  1   
 15   7  10  1   
 16   7  27  1   
 17   7  28  1   
 18   8  11  1   
 19   8  12  1   
 20   8  29  1   
 21   9  13  1   
 22   9  14  1   
 23   9  30  1   
 24  10  15  1   
 25  10  16  1   
 26  10  31  1   
 27  11  17  2   
 28  11  32  1   
 29  12  33  1   
 30  12  34  1   
 31  12  35  1   
 32  13  17  1   
 33  13  36  1   
 34  13  37  1   
 35  14  38  1   
 36  14  39  1   
 37  14  40  1   
 38  15  18  1   
 39  15  41  1   
 40  15  42  1   
 41  16  19  1   
 42  16  43  1   
 43  16  44  1   
 44  17  20  1   
 45  18  21  1   
 46  18  45  1   
 47  18  46  1   
 48  19  21  1   
 49  19  47  1   
 50  19  48  1   
 51  20  49  1   
 52  20  50  1   
 53  20  51  1   
 54  21  52  1   
 55  21  53  1   
@<TRIPOS>SUBSTRUCTURE
  1 ****   1 GROUP 4 **** **** 0

# MOE 2024.06 (io_trps.svl 2023.06)
