@<TRIPOS>MOLECULE
NONAME
28 28 1 0 0 
SMALL
USER_CHARGES


@<TRIPOS>ATOM
  1 O       -0.0210    -0.1550    -0.7770 O.3   1 <1>  -0.3630 
  2 C       -0.9380    -0.9570    -0.1720 C.ar  1 <1>   0.0830 
  3 C        1.0700     0.3280    -0.0190 C.3   1 <1>   0.1200 
  4 C       -0.6110    -2.0370     0.6580 C.ar  1 <1>   0.0830 
  5 C       -2.2700    -0.6730    -0.4230 C.ar  1 <1>  -0.1500 
  6 C        1.5790     1.6110    -0.6730 C.3   1 <1>   0.1200 
  7 O        0.6780    -2.3850     0.8960 O.3   1 <1>  -0.3630 
  8 C       -1.6200    -2.7810     1.2510 C.ar  1 <1>  -0.1500 
  9 C       -3.2730    -1.4280     0.1600 C.ar  1 <1>  -0.1500 
 10 O        2.6360     2.1200     0.0690 O.3   1 <1>  -0.6800 
 11 C        1.1460    -3.5700     0.2830 C.3   1 <1>   0.1200 
 12 C       -2.9480    -2.4790     1.0010 C.ar  1 <1>  -0.1500 
 13 C        1.2570    -3.3680    -1.2320 C.3   1 <1>   0.1200 
 14 O        1.8890    -4.4690    -1.7960 O.3   1 <1>  -0.6800 
 15 H        1.8420    -0.4190    -0.0210 H     1 <1>   0.0800 
 16 H        0.7290     0.5180     0.9830 H     1 <1>   0.0800 
 17 H       -2.5180     0.1450    -1.0760 H     1 <1>   0.1500 
 18 H        0.8030     2.3560    -0.7120 H     1 <1>   0.0800 
 19 H        1.9410     1.4060    -1.6650 H     1 <1>   0.0800 
 20 H       -1.3680    -3.5960     1.9050 H     1 <1>   0.1500 
 21 H       -4.3050    -1.1970    -0.0390 H     1 <1>   0.1500 
 22 H        2.3330     2.4200     0.9480 H     1 <1>   0.4000 
 23 H        0.4680    -4.3730     0.5120 H     1 <1>   0.0800 
 24 H        2.1120    -3.7810     0.7040 H     1 <1>   0.0800 
 25 H       -3.7280    -3.0620     1.4600 H     1 <1>   0.1500 
 26 H        1.8350    -2.4900    -1.4640 H     1 <1>   0.0800 
 27 H        0.2790    -3.2880    -1.6740 H     1 <1>   0.0800 
 28 H        2.8400    -4.4760    -1.5720 H     1 <1>   0.4000 
@<TRIPOS>BOND
  1   1   2  1   
  2   1   3  1   
  3   2   4  ar  
  4   2   5  ar  
  5   3   6  1   
  6   3  15  1   
  7   3  16  1   
  8   4   7  1   
  9   4   8  ar  
 10   5   9  ar  
 11   5  17  1   
 12   6  10  1   
 13   6  18  1   
 14   6  19  1   
 15   7  11  1   
 16   8  12  ar  
 17   8  20  1   
 18   9  12  ar  
 19   9  21  1   
 20  10  22  1   
 21  11  13  1   
 22  11  23  1   
 23  11  24  1   
 24  12  25  1   
 25  13  14  1   
 26  13  26  1   
 27  13  27  1   
 28  14  28  1   
@<TRIPOS>SUBSTRUCTURE
  1 ****   2 GROUP 4 **** **** 0

# MOE 2024.06 (io_trps.svl 2023.06)
