@<TRIPOS>MOLECULE
NONAME
53 54 1 0 0 
SMALL
USER_CHARGES


@<TRIPOS>ATOM
  1 O        0.4810     2.9230     1.9170 O.2   1 <1>  -0.5700 
  2 C        0.0550     2.6000     0.8360 C.2   1 <1>   0.5690 
  3 N        0.7720     1.8030     0.0030 N.am  1 <1>  -0.7300 
  4 C       -1.3040     3.0950     0.3860 C.3   1 <1>  -0.0990 
  5 C        2.0750     1.2340     0.3690 C.3   1 <1>   0.2200 
  6 C       -2.3800     1.9990     0.4900 C.3   1 <1>  -0.1600 
  7 C        3.1740     2.2140    -0.0260 C.3   1 <1>  -0.1600 
  8 C        2.2840    -0.0910    -0.3540 C.3   1 <1>  -0.1600 
  9 C       -3.7500     2.4720    -0.0210 C.3   1 <1>  -0.0800 
 10 C        4.5690     1.6750     0.3110 C.3   1 <1>   0.5030 
 11 C        3.6550    -0.7040    -0.0330 C.3   1 <1>   0.5030 
 12 C       -4.3640     3.6100     0.7950 C.3   1 <1>  -0.1600 
 13 C       -4.8090     1.3760     0.0500 C.3   1 <1>  -0.1600 
 14 N        4.7350     0.2900    -0.1640 N.4   1 <1>  -0.9060 
 15 C        4.8730     1.7580     1.8090 C.3   1 <1>  -0.2400 
 16 C        5.6240     2.4920    -0.4320 C.3   1 <1>  -0.2400 
 17 C        3.6920    -1.3360     1.3610 C.3   1 <1>  -0.2400 
 18 C        3.9770    -1.7940    -1.0540 C.3   1 <1>  -0.2400 
 19 C       -5.8710     3.5250     0.5410 C.3   1 <1>  -0.1600 
 20 C       -6.1420     2.1210    -0.0110 C.3   1 <1>  -0.1600 
 21 H        0.3840     1.5610    -0.9100 H     1 <1>   0.3700 
 22 H       -1.2300     3.4440    -0.6270 H     1 <1>   0.0800 
 23 H       -1.5760     3.9320     1.0040 H     1 <1>   0.0800 
 24 H        2.0870     1.0770     1.4360 H     1 <1>   0.0800 
 25 H       -2.4640     1.6880     1.5180 H     1 <1>   0.0800 
 26 H       -2.0730     1.1430    -0.0850 H     1 <1>   0.0800 
 27 H        3.0200     3.1440     0.4930 H     1 <1>   0.0800 
 28 H        3.1050     2.4160    -1.0800 H     1 <1>   0.0800 
 29 H        2.2000     0.0680    -1.4140 H     1 <1>   0.0800 
 30 H        1.5100    -0.7810    -0.0640 H     1 <1>   0.0800 
 31 H       -3.6650     2.7920    -1.0470 H     1 <1>   0.0800 
 32 H       -3.9670     4.5690     0.5110 H     1 <1>   0.0800 
 33 H       -4.1760     3.4490     1.8430 H     1 <1>   0.0800 
 34 H       -4.7380     0.8600     0.9920 H     1 <1>   0.0800 
 35 H       -4.7100     0.6640    -0.7510 H     1 <1>   0.0800 
 36 H        5.5710    -0.0930     0.2810 H     1 <1>   0.4500 
 37 H        4.9480     0.3550    -1.1600 H     1 <1>   0.4500 
 38 H        4.0990     1.3260     2.4120 H     1 <1>   0.0800 
 39 H        4.9400     2.7910     2.1050 H     1 <1>   0.0800 
 40 H        5.8120     1.2910     2.0460 H     1 <1>   0.0800 
 41 H        5.4760     2.4510    -1.4970 H     1 <1>   0.0800 
 42 H        6.6180     2.1510    -0.2000 H     1 <1>   0.0800 
 43 H        5.5590     3.5260    -0.1380 H     1 <1>   0.0800 
 44 H        3.3470    -0.6680     2.1250 H     1 <1>   0.0800 
 45 H        4.6800    -1.6790     1.6100 H     1 <1>   0.0800 
 46 H        3.0370    -2.1890     1.3880 H     1 <1>   0.0800 
 47 H        3.9920    -1.4020    -2.0560 H     1 <1>   0.0800 
 48 H        3.2240    -2.5630    -1.0200 H     1 <1>   0.0800 
 49 H        4.9240    -2.2590    -0.8430 H     1 <1>   0.0800 
 50 H       -6.1680     4.2630    -0.1850 H     1 <1>   0.0800 
 51 H       -6.4170     3.6960     1.4530 H     1 <1>   0.0800 
 52 H       -6.9000     1.6100     0.5580 H     1 <1>   0.0800 
 53 H       -6.4670     2.1960    -1.0350 H     1 <1>   0.0800 
@<TRIPOS>BOND
  1   1   2  2   
  2   2   3  am  
  3   2   4  1   
  4   3   5  1   
  5   3  21  1   
  6   4   6  1   
  7   4  22  1   
  8   4  23  1   
  9   5   7  1   
 10   5   8  1   
 11   5  24  1   
 12   6   9  1   
 13   6  25  1   
 14   6  26  1   
 15   7  10  1   
 16   7  27  1   
 17   7  28  1   
 18   8  11  1   
 19   8  29  1   
 20   8  30  1   
 21   9  12  1   
 22   9  13  1   
 23   9  31  1   
 24  10  14  1   
 25  10  15  1   
 26  10  16  1   
 27  11  14  1   
 28  11  17  1   
 29  11  18  1   
 30  12  19  1   
 31  12  32  1   
 32  12  33  1   
 33  13  20  1   
 34  13  34  1   
 35  13  35  1   
 36  14  36  1   
 37  14  37  1   
 38  15  38  1   
 39  15  39  1   
 40  15  40  1   
 41  16  41  1   
 42  16  42  1   
 43  16  43  1   
 44  17  44  1   
 45  17  45  1   
 46  17  46  1   
 47  18  47  1   
 48  18  48  1   
 49  18  49  1   
 50  19  20  1   
 51  19  50  1   
 52  19  51  1   
 53  20  52  1   
 54  20  53  1   
@<TRIPOS>SUBSTRUCTURE
  1 ****   3 GROUP 4 **** **** 0

# MOE 2024.06 (io_trps.svl 2023.06)
