@<TRIPOS>MOLECULE
NONAME
51 53 1 0 0 
SMALL
USER_CHARGES


@<TRIPOS>ATOM
  1 CL       1.2960    -0.8850     1.0650 Cl    1 <1>  -0.1770 
  2 C        2.7560     0.0450     1.2910 C.ar  1 <1>   0.1770 
  3 C        3.7640    -0.0370     0.3520 C.ar  1 <1>  -0.1500 
  4 C        2.8760     0.8480     2.4100 C.ar  1 <1>  -0.1500 
  5 C        4.9270     0.6980     0.5240 C.ar  1 <1>   0.1000 
  6 C        4.0360     1.5850     2.5890 C.ar  1 <1>  -0.1500 
  7 N        5.9370     0.6100    -0.4240 N.pl3 1 <1>  -0.8380 
  8 C        5.0510     1.5080     1.6510 C.ar  1 <1>  -0.1500 
  9 C        7.1810    -0.0930     0.0100 C.3   1 <1>   0.2090 
 10 C        6.2380     1.8570    -1.1910 C.3   1 <1>   0.2090 
 11 C        8.1300    -0.3250    -1.1800 C.3   1 <1>   0.1100 
 12 C        7.2190     1.5820    -2.3480 C.3   1 <1>   0.1100 
 13 N        8.4670     0.9460    -1.8720 N.3   1 <1>  -0.8100 
 14 C        9.4270     0.7200    -2.9950 C.3   1 <1>   0.1710 
 15 C       10.8510     0.3990    -2.5340 C.2   1 <1>   0.5690 
 16 O       11.6100    -0.1470    -3.2990 O.2   1 <1>  -0.5700 
 17 N       11.1630     0.7480    -1.2540 N.am  1 <1>  -0.5470 
 18 C       12.2720     0.5240    -0.4210 C.ar  1 <1>   0.1170 
 19 C       12.1030     0.6590     0.9620 C.ar  1 <1>   0.0830 
 20 C       13.5230     0.1830    -0.9180 C.ar  1 <1>  -0.1500 
 21 O       10.8530     0.9930     1.4110 O.3   1 <1>  -0.3630 
 22 C       13.1820     0.4510     1.8160 C.ar  1 <1>  -0.1500 
 23 C       14.5960    -0.0250    -0.0690 C.ar  1 <1>   0.0830 
 24 C       10.6090     1.2240     2.7810 C.3   1 <1>   0.0400 
 25 C       14.4230     0.1100     1.3040 C.ar  1 <1>  -0.1500 
 26 O       15.7800    -0.3560    -0.6500 O.3   1 <1>  -0.3620 
 27 C       16.9270    -0.6180     0.1260 C.3   1 <1>   0.0400 
 28 H        3.6570    -0.6640    -0.5120 H     1 <1>   0.1500 
 29 H        2.0750     0.8930     3.1260 H     1 <1>   0.1500 
 30 H        4.1460     2.2160     3.4540 H     1 <1>   0.1500 
 31 H        5.9520     2.0770     1.7860 H     1 <1>   0.1500 
 32 H        6.9180    -1.0410     0.4470 H     1 <1>   0.0800 
 33 H        7.6890     0.4920     0.7560 H     1 <1>   0.0800 
 34 H        6.6690     2.5900    -0.5320 H     1 <1>   0.0800 
 35 H        5.3210     2.2570    -1.5860 H     1 <1>   0.0800 
 36 H        7.6590    -1.0050    -1.8690 H     1 <1>   0.0800 
 37 H        9.0260    -0.7950    -0.8130 H     1 <1>   0.0800 
 38 H        7.4530     2.5160    -2.8280 H     1 <1>   0.0800 
 39 H        6.7330     0.9460    -3.0690 H     1 <1>   0.0800 
 40 H        9.4860     1.6090    -3.5950 H     1 <1>   0.0800 
 41 H        9.0760    -0.0810    -3.6230 H     1 <1>   0.0800 
 42 H       10.3500     1.1320    -0.7570 H     1 <1>   0.3700 
 43 H       13.6750     0.0770    -1.9750 H     1 <1>   0.1500 
 44 H       13.0810     0.5460     2.8800 H     1 <1>   0.1500 
 45 H        9.5760     1.5000     2.8950 H     1 <1>   0.0800 
 46 H       11.2400     2.0270     3.1180 H     1 <1>   0.0800 
 47 H       10.8070     0.3200     3.3300 H     1 <1>   0.0800 
 48 H       15.2370    -0.0440     1.9870 H     1 <1>   0.1500 
 49 H       17.7310    -0.8680    -0.5430 H     1 <1>   0.0800 
 50 H       16.7250    -1.4480     0.7800 H     1 <1>   0.0800 
 51 H       17.1790     0.2650     0.6860 H     1 <1>   0.0800 
@<TRIPOS>BOND
  1   1   2  1   
  2   2   3  ar  
  3   2   4  ar  
  4   3   5  ar  
  5   3  28  1   
  6   4   6  ar  
  7   4  29  1   
  8   5   7  1   
  9   5   8  ar  
 10   6   8  ar  
 11   6  30  1   
 12   7   9  1   
 13   7  10  1   
 14   8  31  1   
 15   9  11  1   
 16   9  32  1   
 17   9  33  1   
 18  10  12  1   
 19  10  34  1   
 20  10  35  1   
 21  11  13  1   
 22  11  36  1   
 23  11  37  1   
 24  12  13  1   
 25  12  38  1   
 26  12  39  1   
 27  13  14  1   
 28  14  15  1   
 29  14  40  1   
 30  14  41  1   
 31  15  16  2   
 32  15  17  am  
 33  17  18  1   
 34  17  42  1   
 35  18  19  ar  
 36  18  20  ar  
 37  19  21  1   
 38  19  22  ar  
 39  20  23  ar  
 40  20  43  1   
 41  21  24  1   
 42  22  25  ar  
 43  22  44  1   
 44  23  25  ar  
 45  23  26  1   
 46  24  45  1   
 47  24  46  1   
 48  24  47  1   
 49  25  48  1   
 50  26  27  1   
 51  27  49  1   
 52  27  50  1   
 53  27  51  1   
@<TRIPOS>SUBSTRUCTURE
  1 ****  11 GROUP 4 **** **** 0

# MOE 2024.06 (io_trps.svl 2023.06)
