@<TRIPOS>MOLECULE
NONAME
39 39 1 0 0 
SMALL
USER_CHARGES


@<TRIPOS>ATOM
  1 S        0.0130    -0.3770     0.8880 S.o2  1 <1>   1.3330 
  2 O        0.8990    -1.5170     0.8300 O.2   1 <1>  -0.6500 
  3 O        0.1180     0.5780     1.9640 O.2   1 <1>  -0.6500 
  4 N       -1.6050    -1.0110     0.8790 N.am  1 <1>  -0.6930 
  5 C        0.0840     0.4740    -0.6940 C.3   1 <1>  -0.0550 
  6 C       -2.7360    -0.2110     0.7840 C.ar  1 <1>   0.1990 
  7 C       -1.7500    -2.4770     1.0470 C.3   1 <1>   0.1160 
  8 C        1.4430     1.1270    -1.0060 C.3   1 <1>  -0.2400 
  9 C       -2.9610     0.8550     1.6470 C.ar  1 <1>  -0.1500 
 10 C       -3.6860    -0.4580    -0.2020 C.ar  1 <1>  -0.1500 
 11 C       -4.0880     1.6440     1.5250 C.ar  1 <1>  -0.1500 
 12 C       -4.8140     0.3310    -0.3210 C.ar  1 <1>  -0.1500 
 13 C       -5.0510     1.4040     0.5430 C.ar  1 <1>   0.0860 
 14 C       -6.2330     2.2360     0.4350 C.2   1 <1>   0.5440 
 15 O       -6.2100     3.3960     0.8010 O.2   1 <1>  -0.5700 
 16 N       -7.4000     1.7290    -0.0670 N.am  1 <1>  -0.7300 
 17 C       -8.6550     2.4710    -0.2360 C.3   1 <1>   0.2200 
 18 C       -9.6880     1.8840     0.7190 C.3   1 <1>  -0.2400 
 19 C       -9.0980     2.3310    -1.6880 C.3   1 <1>  -0.2400 
 20 H       -0.6710     1.2360    -0.7110 H     1 <1>   0.0800 
 21 H       -0.1450    -0.2260    -1.4740 H     1 <1>   0.0800 
 22 H       -1.2250    -2.7900     1.9340 H     1 <1>   0.0800 
 23 H       -1.3290    -2.9860     0.1970 H     1 <1>   0.0800 
 24 H       -2.7870    -2.7470     1.1470 H     1 <1>   0.0800 
 25 H        1.6840     1.8550    -0.2510 H     1 <1>   0.0800 
 26 H        1.4100     1.6170    -1.9630 H     1 <1>   0.0800 
 27 H        2.2180     0.3800    -1.0240 H     1 <1>   0.0800 
 28 H       -2.2510     1.0660     2.4280 H     1 <1>   0.1500 
 29 H       -3.5290    -1.2740    -0.8830 H     1 <1>   0.1500 
 30 H       -4.2360     2.4680     2.2040 H     1 <1>   0.1500 
 31 H       -5.5200     0.1190    -1.1040 H     1 <1>   0.1500 
 32 H       -7.4680     0.7310    -0.2570 H     1 <1>   0.3700 
 33 H       -8.5020     3.5140    -0.0060 H     1 <1>   0.0800 
 34 H       -9.8620     0.8450     0.5070 H     1 <1>   0.0800 
 35 H      -10.6170     2.4150     0.6220 H     1 <1>   0.0800 
 36 H       -9.3450     1.9910     1.7330 H     1 <1>   0.0800 
 37 H       -9.2640     1.3000    -1.9420 H     1 <1>   0.0800 
 38 H       -8.3490     2.7440    -2.3390 H     1 <1>   0.0800 
 39 H      -10.0130     2.8730    -1.8430 H     1 <1>   0.0800 
@<TRIPOS>BOND
  1   1   2  2   
  2   1   3  2   
  3   1   4  am  
  4   1   5  1   
  5   4   6  1   
  6   4   7  1   
  7   5   8  1   
  8   5  20  1   
  9   5  21  1   
 10   6   9  ar  
 11   6  10  ar  
 12   7  22  1   
 13   7  23  1   
 14   7  24  1   
 15   8  25  1   
 16   8  26  1   
 17   8  27  1   
 18   9  11  ar  
 19   9  28  1   
 20  10  12  ar  
 21  10  29  1   
 22  11  13  ar  
 23  11  30  1   
 24  12  13  ar  
 25  12  31  1   
 26  13  14  1   
 27  14  15  2   
 28  14  16  am  
 29  16  17  1   
 30  16  32  1   
 31  17  18  1   
 32  17  19  1   
 33  17  33  1   
 34  18  34  1   
 35  18  35  1   
 36  18  36  1   
 37  19  37  1   
 38  19  38  1   
 39  19  39  1   
@<TRIPOS>SUBSTRUCTURE
  1 ****  12 GROUP 4 **** **** 0

# MOE 2024.06 (io_trps.svl 2023.06)
