@<TRIPOS>MOLECULE
NONAME
52 54 1 0 0 
SMALL
USER_CHARGES


@<TRIPOS>ATOM
  1 F       12.2780    -3.8420     1.9910 F     1 <1>  -0.1900 
  2 C       11.1140    -4.2240     1.5300 C.ar  1 <1>   0.1900 
  3 C       10.6060    -5.4450     1.9320 C.ar  1 <1>  -0.1500 
  4 C       10.4370    -3.3920     0.6590 C.ar  1 <1>  -0.1500 
  5 C        9.3750    -5.8410     1.4400 C.ar  1 <1>  -0.1500 
  6 C        9.2060    -3.8020     0.1760 C.ar  1 <1>  -0.1500 
  7 C        8.6650    -5.0280     0.5620 C.ar  1 <1>   0.1000 
  8 N        7.4300    -5.4540     0.0870 N.pl3 1 <1>  -0.8380 
  9 C        7.3780    -5.8280    -1.3570 C.3   1 <1>   0.2090 
 10 C        6.2440    -4.6790     0.5530 C.3   1 <1>   0.2090 
 11 C        6.0670    -6.5740    -1.6850 C.3   1 <1>   0.3430 
 12 C        4.9360    -5.4300     0.2260 C.3   1 <1>   0.3430 
 13 N        4.8420    -5.8220    -1.2280 N.4   1 <1>  -0.9590 
 14 C        3.5640    -6.5150    -1.5940 C.3   1 <1>   0.3430 
 15 C        2.4280    -5.4960    -1.8570 C.3   1 <1>   0.2000 
 16 O        2.9910    -4.2760    -2.2500 O.3   1 <1>  -0.6800 
 17 C        1.5220    -5.2690    -0.6360 C.3   1 <1>   0.1200 
 18 O        0.7540    -4.1030    -0.8450 O.3   1 <1>  -0.3630 
 19 C        0.0580    -3.5390     0.1730 C.ar  1 <1>   0.0830 
 20 C       -0.2950    -4.2210     1.3340 C.ar  1 <1>  -0.1500 
 21 C       -0.2970    -2.2070     0.0210 C.ar  1 <1>  -0.1500 
 22 C       -0.9870    -3.5580     2.3430 C.ar  1 <1>   0.0830 
 23 C       -0.9840    -1.5480     1.0240 C.ar  1 <1>  -0.1500 
 24 O       -1.3690    -4.1430     3.5060 O.3   1 <1>  -0.3630 
 25 C       -1.3230    -2.2230     2.1830 C.ar  1 <1>  -0.1500 
 26 C       -1.3000    -5.5390     3.6910 C.3   1 <1>   0.0400 
 27 H       11.1640    -6.0640     2.6110 H     1 <1>   0.1500 
 28 H       10.8670    -2.4500     0.3720 H     1 <1>   0.1500 
 29 H        8.9540    -6.7850     1.7340 H     1 <1>   0.1500 
 30 H        8.6650    -3.1700    -0.5020 H     1 <1>   0.1500 
 31 H        8.2180    -6.4630    -1.5880 H     1 <1>   0.0800 
 32 H        7.4560    -4.9430    -1.9650 H     1 <1>   0.0800 
 33 H        6.2340    -3.7100     0.0830 H     1 <1>   0.0800 
 34 H        6.3150    -4.5300     1.6170 H     1 <1>   0.0800 
 35 H        6.1010    -7.5350    -1.1980 H     1 <1>   0.0800 
 36 H        6.0180    -6.7430    -2.7480 H     1 <1>   0.0800 
 37 H        4.1060    -4.7980     0.4900 H     1 <1>   0.0800 
 38 H        4.8960    -6.3130     0.8420 H     1 <1>   0.0800 
 39 H        4.7820    -4.9330    -1.7640 H     1 <1>   0.4500 
 40 H        3.2750    -7.2210    -0.8330 H     1 <1>   0.0800 
 41 H        3.7140    -7.0680    -2.5060 H     1 <1>   0.0800 
 42 H        1.8150    -5.8530    -2.6680 H     1 <1>   0.0800 
 43 H        2.2720    -3.6000    -2.2760 H     1 <1>   0.4000 
 44 H        2.1030    -5.1290     0.2570 H     1 <1>   0.0800 
 45 H        0.8500    -6.0990    -0.5040 H     1 <1>   0.0800 
 46 H       -0.0430    -5.2530     1.4540 H     1 <1>   0.1500 
 47 H       -0.0340    -1.6870    -0.8820 H     1 <1>   0.1500 
 48 H       -1.2560    -0.5130     0.9050 H     1 <1>   0.1500 
 49 H       -1.8570    -1.7200     2.9700 H     1 <1>   0.1500 
 50 H       -1.7400    -5.7690     4.6450 H     1 <1>   0.0800 
 51 H       -0.2690    -5.8430     3.6840 H     1 <1>   0.0800 
 52 H       -1.8550    -6.0230     2.9070 H     1 <1>   0.0800 
@<TRIPOS>BOND
  1   1   2  1   
  2   2   3  ar  
  3   2   4  ar  
  4   3   5  ar  
  5   3  27  1   
  6   4   6  ar  
  7   4  28  1   
  8   5   7  ar  
  9   5  29  1   
 10   6   7  ar  
 11   6  30  1   
 12   7   8  1   
 13   8   9  1   
 14   8  10  1   
 15   9  11  1   
 16   9  31  1   
 17   9  32  1   
 18  10  12  1   
 19  10  33  1   
 20  10  34  1   
 21  11  13  1   
 22  11  35  1   
 23  11  36  1   
 24  12  13  1   
 25  12  37  1   
 26  12  38  1   
 27  13  14  1   
 28  13  39  1   
 29  14  15  1   
 30  14  40  1   
 31  14  41  1   
 32  15  16  1   
 33  15  17  1   
 34  15  42  1   
 35  16  43  1   
 36  17  18  1   
 37  17  44  1   
 38  17  45  1   
 39  18  19  1   
 40  19  20  ar  
 41  19  21  ar  
 42  20  22  ar  
 43  20  46  1   
 44  21  23  ar  
 45  21  47  1   
 46  22  24  1   
 47  22  25  ar  
 48  23  25  ar  
 49  23  48  1   
 50  24  26  1   
 51  25  49  1   
 52  26  50  1   
 53  26  51  1   
 54  26  52  1   
@<TRIPOS>SUBSTRUCTURE
  1 ****  12 GROUP 4 **** **** 0

# MOE 2024.06 (io_trps.svl 2023.06)
