@<TRIPOS>MOLECULE
NONAME
44 46 1 0 0 
SMALL
USER_CHARGES


@<TRIPOS>ATOM
  1 CL       0.4750    -0.4580     2.7830 Cl    1 <1>  -0.1770 
  2 C        1.7170    -1.2030     1.8120 C.ar  1 <1>   0.1770 
  3 C        1.4690    -2.3040     1.0010 C.ar  1 <1>  -0.0090 
  4 C        2.9710    -0.6240     1.8790 C.ar  1 <1>  -0.1500 
  5 S       -0.1550    -3.0950     0.8550 S.o2  1 <1>   1.4470 
  6 C        2.5320    -2.7820     0.2440 C.ar  1 <1>  -0.1500 
  7 C        4.0080    -1.1300     1.1200 C.ar  1 <1>  -0.1500 
  8 O        0.0600    -4.4630     0.4340 O.2   1 <1>  -0.6500 
  9 O       -1.0100    -2.8670     1.9970 O.2   1 <1>  -0.6500 
 10 N       -0.8510    -2.2930    -0.4660 N.am  1 <1>  -0.8490 
 11 C        3.8110    -2.2260     0.2790 C.ar  1 <1>   0.0860 
 12 C       -1.3990    -0.9710    -0.1170 C.3   1 <1>   0.1960 
 13 C       -1.9080    -3.1030    -1.0950 C.3   1 <1>   0.1960 
 14 C        4.8810    -2.7690    -0.5380 C.2   1 <1>   0.5440 
 15 C       -2.0330    -0.2900    -1.3440 C.3   1 <1>   0.1200 
 16 C       -2.5360    -2.3690    -2.2940 C.3   1 <1>   0.1200 
 17 O        4.6400    -3.3200    -1.5930 O.2   1 <1>  -0.5700 
 18 N        6.1780    -2.6750    -0.1410 N.am  1 <1>  -0.7300 
 19 O       -3.0150    -1.1110    -1.9090 O.3   1 <1>  -0.5600 
 20 C        7.3600    -3.0640    -0.9400 C.3   1 <1>   0.2840 
 21 C        8.4770    -2.0490    -0.7160 C.ar  1 <1>   0.1670 
 22 N        8.7890    -1.7670     0.5460 N.ar  1 <1>  -0.6200 
 23 C        9.1000    -1.4700    -1.8120 C.ar  1 <1>  -0.1500 
 24 C        9.7630    -0.8860     0.7140 C.ar  1 <1>   0.1600 
 25 C       10.1100    -0.5520    -1.6200 C.ar  1 <1>  -0.1500 
 26 C       10.4430    -0.2590    -0.3160 C.ar  1 <1>  -0.1500 
 27 H        3.1290     0.2250     2.5220 H     1 <1>   0.1500 
 28 H        2.3680    -3.6260    -0.4090 H     1 <1>   0.1500 
 29 H        4.9770    -0.6640     1.1730 H     1 <1>   0.1500 
 30 H       -0.6140    -0.3390     0.2560 H     1 <1>   0.0800 
 31 H       -2.1480    -1.0650     0.6530 H     1 <1>   0.0800 
 32 H       -2.6770    -3.3300    -0.3750 H     1 <1>   0.0800 
 33 H       -1.4930    -4.0330    -1.4440 H     1 <1>   0.0800 
 34 H       -1.2860    -0.0830    -2.0900 H     1 <1>   0.0800 
 35 H       -2.5040     0.6330    -1.0560 H     1 <1>   0.0800 
 36 H       -3.3660    -2.9320    -2.6820 H     1 <1>   0.0800 
 37 H       -1.8090    -2.2370    -3.0760 H     1 <1>   0.0800 
 38 H        6.4480    -2.2310     0.7400 H     1 <1>   0.3700 
 39 H        7.0990    -3.1180    -1.9830 H     1 <1>   0.0800 
 40 H        7.6950    -4.0340    -0.6190 H     1 <1>   0.0800 
 41 H        8.7990    -1.7330    -2.8110 H     1 <1>   0.1500 
 42 H       10.0340    -0.6480     1.7280 H     1 <1>   0.1500 
 43 H       10.6130    -0.0850    -2.4500 H     1 <1>   0.1500 
 44 H       11.2230     0.4470    -0.0960 H     1 <1>   0.1500 
@<TRIPOS>BOND
  1   1   2  1   
  2   2   3  ar  
  3   2   4  ar  
  4   3   5  1   
  5   3   6  ar  
  6   4   7  ar  
  7   4  27  1   
  8   5   8  2   
  9   5   9  2   
 10   5  10  am  
 11   6  11  ar  
 12   6  28  1   
 13   7  11  ar  
 14   7  29  1   
 15  10  12  1   
 16  10  13  1   
 17  11  14  1   
 18  12  15  1   
 19  12  30  1   
 20  12  31  1   
 21  13  16  1   
 22  13  32  1   
 23  13  33  1   
 24  14  17  2   
 25  14  18  am  
 26  15  19  1   
 27  15  34  1   
 28  15  35  1   
 29  16  19  1   
 30  16  36  1   
 31  16  37  1   
 32  18  20  1   
 33  18  38  1   
 34  20  21  1   
 35  20  39  1   
 36  20  40  1   
 37  21  22  ar  
 38  21  23  ar  
 39  22  24  ar  
 40  23  25  ar  
 41  23  41  1   
 42  24  26  ar  
 43  24  42  1   
 44  25  26  ar  
 45  25  43  1   
 46  26  44  1   
@<TRIPOS>SUBSTRUCTURE
  1 ****  11 GROUP 4 **** **** 0

# MOE 2024.06 (io_trps.svl 2023.06)
