@<TRIPOS>MOLECULE
NONAME
25 25 1 0 0 
SMALL
USER_CHARGES


@<TRIPOS>ATOM
  1 BR      -0.9410     0.5030    -2.4640 Br    1 <1>  -0.1110 
  2 C       -2.0380     1.1540    -1.0260 C.ar  1 <1>   0.1110 
  3 C       -3.1600     0.4310    -0.6690 C.ar  1 <1>  -0.1500 
  4 C       -1.6780     2.3250    -0.3890 C.ar  1 <1>  -0.1500 
  5 C       -3.9580     0.9000     0.3650 C.ar  1 <1>  -0.1430 
  6 C       -2.4740     2.7840     0.6460 C.ar  1 <1>  -0.1500 
  7 C       -3.6060     2.0750     1.0210 C.ar  1 <1>  -0.1500 
  8 C       -5.2030     0.1430     0.7700 C.3   1 <1>   0.4870 
  9 N       -6.3070     0.6810    -0.0510 N.4   1 <1>  -0.9060 
 10 C       -7.6180     0.0360     0.2480 C.3   1 <1>   0.3430 
 11 C       -8.7490     0.6140    -0.6120 C.3   1 <1>   0.1200 
 12 O       -9.9110    -0.0420    -0.2560 O.3   1 <1>  -0.6800 
 13 H       -3.3810    -0.4790    -1.2020 H     1 <1>   0.1500 
 14 H       -0.7950     2.8610    -0.6940 H     1 <1>   0.1500 
 15 H       -2.2090     3.6940     1.1600 H     1 <1>   0.1500 
 16 H       -4.2010     2.4570     1.8350 H     1 <1>   0.1500 
 17 H       -5.4010     0.2930     1.8200 H     1 <1>   0.0800 
 18 H       -5.0700    -0.9120     0.5870 H     1 <1>   0.0800 
 19 H       -6.0510     0.5560    -1.0380 H     1 <1>   0.4500 
 20 H       -6.3480     1.6950     0.1100 H     1 <1>   0.4500 
 21 H       -7.8690     0.1850     1.2860 H     1 <1>   0.0800 
 22 H       -7.5540    -1.0240     0.0620 H     1 <1>   0.0800 
 23 H       -8.5740     0.4370    -1.6600 H     1 <1>   0.0800 
 24 H       -8.8880     1.6650    -0.4230 H     1 <1>   0.0800 
 25 H      -10.6860     0.2790    -0.7680 H     1 <1>   0.4000 
@<TRIPOS>BOND
  1   1   2  1   
  2   2   3  ar  
  3   2   4  ar  
  4   3   5  ar  
  5   3  13  1   
  6   4   6  ar  
  7   4  14  1   
  8   5   7  ar  
  9   5   8  1   
 10   6   7  ar  
 11   6  15  1   
 12   7  16  1   
 13   8   9  1   
 14   8  17  1   
 15   8  18  1   
 16   9  10  1   
 17   9  19  1   
 18   9  20  1   
 19  10  11  1   
 20  10  21  1   
 21  10  22  1   
 22  11  12  1   
 23  11  23  1   
 24  11  24  1   
 25  12  25  1   
@<TRIPOS>SUBSTRUCTURE
  1 ****   5 GROUP 4 **** **** 0

# MOE 2024.06 (io_trps.svl 2023.06)
