@<TRIPOS>MOLECULE
NONAME
30 30 1 0 0 
SMALL
USER_CHARGES


@<TRIPOS>ATOM
  1 O       -0.0100     0.5670     1.3010 O.2   1 <1>  -0.5700 
  2 C        0.1590     1.6030     0.7090 C.2   1 <1>   0.5690 
  3 N        1.3530     1.9980     0.1740 N.am  1 <1>  -0.5470 
  4 C       -1.0210     2.5470     0.5530 C.3   1 <1>  -0.0990 
  5 C        2.6090     1.3700     0.1310 C.ar  1 <1>   0.1170 
  6 C       -1.4960     2.6780    -0.9030 C.3   1 <1>  -0.2400 
  7 C        2.7920     0.0070     0.3300 C.ar  1 <1>  -0.1500 
  8 C        3.7250     2.1490    -0.1410 C.ar  1 <1>  -0.1500 
  9 C        4.0500    -0.5660     0.2640 C.ar  1 <1>   0.0820 
 10 C        4.9910     1.5950    -0.2120 C.ar  1 <1>   0.0820 
 11 O        4.1200    -1.9060     0.4720 O.3   1 <1>  -0.3630 
 12 C        5.1590     0.2290    -0.0080 C.ar  1 <1>  -0.1500 
 13 O        6.0110     2.4500    -0.4830 O.3   1 <1>  -0.3630 
 14 C        5.3520    -2.5920     0.4750 C.3   1 <1>   0.0400 
 15 C        7.3460     2.0020    -0.5610 C.3   1 <1>   0.0400 
 16 H        1.3350     2.9210    -0.2530 H     1 <1>   0.3700 
 17 H       -0.7460     3.5120     0.9380 H     1 <1>   0.0800 
 18 H       -1.8320     2.1770     1.1550 H     1 <1>   0.0800 
 19 H       -0.7180     3.0830    -1.5260 H     1 <1>   0.0800 
 20 H       -2.3510     3.3280    -0.9550 H     1 <1>   0.0800 
 21 H       -1.7760     1.7120    -1.2860 H     1 <1>   0.0800 
 22 H        1.9530    -0.6310     0.5360 H     1 <1>   0.1500 
 23 H        3.6210     3.2050    -0.3000 H     1 <1>   0.1500 
 24 H        6.1340    -0.2070    -0.0610 H     1 <1>   0.1500 
 25 H        5.1550    -3.6290     0.6790 H     1 <1>   0.0800 
 26 H        5.9780    -2.1800     1.2470 H     1 <1>   0.0800 
 27 H        5.8100    -2.4900    -0.4930 H     1 <1>   0.0800 
 28 H        7.9700     2.8500    -0.7770 H     1 <1>   0.0800 
 29 H        7.4260     1.2780    -1.3530 H     1 <1>   0.0800 
 30 H        7.6260     1.5730     0.3850 H     1 <1>   0.0800 
@<TRIPOS>BOND
  1   1   2  2   
  2   2   3  am  
  3   2   4  1   
  4   3   5  1   
  5   3  16  1   
  6   4   6  1   
  7   4  17  1   
  8   4  18  1   
  9   5   7  ar  
 10   5   8  ar  
 11   6  19  1   
 12   6  20  1   
 13   6  21  1   
 14   7   9  ar  
 15   7  22  1   
 16   8  10  ar  
 17   8  23  1   
 18   9  11  1   
 19   9  12  ar  
 20  10  12  ar  
 21  10  13  1   
 22  11  14  1   
 23  12  24  1   
 24  13  15  1   
 25  14  25  1   
 26  14  26  1   
 27  14  27  1   
 28  15  28  1   
 29  15  29  1   
 30  15  30  1   
@<TRIPOS>SUBSTRUCTURE
  1 ****   5 GROUP 4 **** **** 0

# MOE 2024.06 (io_trps.svl 2023.06)
