@<TRIPOS>MOLECULE
NONAME
47 49 1 0 0 
SMALL
USER_CHARGES


@<TRIPOS>ATOM
  1 S       -1.7850    -0.6330     1.2920 S.o2  1 <1>   1.3330 
  2 O       -0.8540    -0.8640     0.2120 O.2   1 <1>  -0.6500 
  3 O       -2.0790    -1.6890     2.2340 O.2   1 <1>  -0.6500 
  4 N       -3.2480    -0.1150     0.6150 N.am  1 <1>  -0.8490 
  5 C       -1.2610     0.7910     2.2220 C.3   1 <1>  -0.1350 
  6 C       -3.0550     0.6510    -0.6320 C.3   1 <1>   0.1960 
  7 C       -4.1570    -1.2480     0.3650 C.3   1 <1>   0.1960 
  8 C       -4.3850     1.1890    -1.1830 C.3   1 <1>   0.1400 
  9 C       -5.5220    -0.7950    -0.1850 C.3   1 <1>   0.1400 
 10 N       -5.3700     0.0830    -1.3870 N.am  1 <1>  -0.6600 
 11 C       -6.0970    -0.0190    -2.5490 C.2   1 <1>   0.5690 
 12 O       -5.9330     0.7580    -3.4600 O.2   1 <1>  -0.5700 
 13 C       -7.1370    -1.1160    -2.7550 C.3   1 <1>   0.0440 
 14 C       -8.2990    -1.0570    -1.7650 C.ar  1 <1>  -0.1440 
 15 C       -8.7540    -2.2110    -1.1460 C.ar  1 <1>  -0.1500 
 16 C       -8.9150     0.1500    -1.4740 C.ar  1 <1>  -0.1500 
 17 C       -9.7990    -2.1530    -0.2420 C.ar  1 <1>  -0.1500 
 18 C       -9.9600     0.2010    -0.5710 C.ar  1 <1>  -0.1500 
 19 C      -10.4210    -0.9470     0.0640 C.ar  1 <1>   0.0000 
 20 C      -11.5120    -0.8910     1.0090 C.ar  1 <1>   0.0000 
 21 C      -12.6720    -1.6340     0.8100 C.ar  1 <1>  -0.1500 
 22 C      -11.4360    -0.0910     2.1460 C.ar  1 <1>  -0.1500 
 23 C      -13.7180    -1.5850     1.7140 C.ar  1 <1>  -0.1500 
 24 C      -12.4790    -0.0360     3.0530 C.ar  1 <1>  -0.1500 
 25 C      -13.6220    -0.7850     2.8390 C.ar  1 <1>  -0.1500 
 26 H       -1.1080     1.6280     1.5710 H     1 <1>   0.0800 
 27 H       -0.3410     0.5770     2.7290 H     1 <1>   0.0800 
 28 H       -2.0050     1.0470     2.9500 H     1 <1>   0.0800 
 29 H       -2.5970     0.0280    -1.3830 H     1 <1>   0.0800 
 30 H       -2.3970     1.4820    -0.4490 H     1 <1>   0.0800 
 31 H       -4.3300    -1.7820     1.2840 H     1 <1>   0.0800 
 32 H       -3.7010    -1.9330    -0.3310 H     1 <1>   0.0800 
 33 H       -4.1960     1.7020    -2.1100 H     1 <1>   0.0800 
 34 H       -4.7960     1.9010    -0.4890 H     1 <1>   0.0800 
 35 H       -6.0460    -0.2500     0.5810 H     1 <1>   0.0800 
 36 H       -6.0990    -1.6700    -0.4170 H     1 <1>   0.0800 
 37 H       -6.6400    -2.0650    -2.6970 H     1 <1>   0.0800 
 38 H       -7.5360    -1.0250    -3.7490 H     1 <1>   0.0800 
 39 H       -8.2990    -3.1620    -1.3620 H     1 <1>   0.1500 
 40 H       -8.5830     1.0570    -1.9510 H     1 <1>   0.1500 
 41 H      -10.1420    -3.0530     0.2370 H     1 <1>   0.1500 
 42 H      -10.4330     1.1440    -0.3560 H     1 <1>   0.1500 
 43 H      -12.7530    -2.2540    -0.0650 H     1 <1>   0.1500 
 44 H      -10.5480     0.4900     2.3190 H     1 <1>   0.1500 
 45 H      -14.6060    -2.1670     1.5420 H     1 <1>   0.1500 
 46 H      -12.4010     0.5870     3.9270 H     1 <1>   0.1500 
 47 H      -14.4350    -0.7440     3.5430 H     1 <1>   0.1500 
@<TRIPOS>BOND
  1   1   2  2   
  2   1   3  2   
  3   1   4  am  
  4   1   5  1   
  5   4   6  1   
  6   4   7  1   
  7   5  26  1   
  8   5  27  1   
  9   5  28  1   
 10   6   8  1   
 11   6  29  1   
 12   6  30  1   
 13   7   9  1   
 14   7  31  1   
 15   7  32  1   
 16   8  10  1   
 17   8  33  1   
 18   8  34  1   
 19   9  10  1   
 20   9  35  1   
 21   9  36  1   
 22  10  11  am  
 23  11  12  2   
 24  11  13  1   
 25  13  14  1   
 26  13  37  1   
 27  13  38  1   
 28  14  15  ar  
 29  14  16  ar  
 30  15  17  ar  
 31  15  39  1   
 32  16  18  ar  
 33  16  40  1   
 34  17  19  ar  
 35  17  41  1   
 36  18  19  ar  
 37  18  42  1   
 38  19  20  1   
 39  20  21  ar  
 40  20  22  ar  
 41  21  23  ar  
 42  21  43  1   
 43  22  24  ar  
 44  22  44  1   
 45  23  25  ar  
 46  23  45  1   
 47  24  25  ar  
 48  24  46  1   
 49  25  47  1   
@<TRIPOS>SUBSTRUCTURE
  1 ****   9 GROUP 4 **** **** 0

# MOE 2024.06 (io_trps.svl 2023.06)
