@<TRIPOS>MOLECULE
NONAME
55 57 1 0 0 
SMALL
USER_CHARGES


@<TRIPOS>ATOM
  1 S       -0.1050     0.3790    -0.8110 S.o2  1 <1>   1.2580 
  2 O        0.1650     1.5910    -1.5480 O.2   1 <1>  -0.6500 
  3 O        0.5870    -0.8050    -1.2700 O.2   1 <1>  -0.6500 
  4 C       -1.8860     0.0080    -0.7920 C.2   1 <1>  -0.0630 
  5 C        0.2910     0.7040     0.9140 C.3   1 <1>  -0.0550 
  6 C       -2.9900     0.8370    -1.0210 C.2   1 <1>  -0.1970 
  7 C       -2.3850    -1.2790    -0.5770 C.2   1 <1>  -0.0630 
  8 C        1.7880     0.9470     1.1650 C.3   1 <1>  -0.1600 
  9 N       -4.1060     0.0260    -1.1160 N.pl3 1 <1>   0.3340 
 10 C       -3.2100     2.2480    -1.1620 C.2   1 <1>  -0.0930 
 11 S       -1.5150    -2.7700     0.0000 S.o2  1 <1>   1.2580 
 12 C       -3.7320    -1.2550    -0.8610 C.2   1 <1>  -0.2370 
 13 C        2.0650     1.2320     2.6440 C.3   1 <1>  -0.2400 
 14 C       -5.3570     0.5180    -1.4550 C.2   1 <1>  -0.1810 
 15 C       -4.4520     2.7230    -1.4670 C.2   1 <1>  -0.1500 
 16 C       -2.1100     3.2760    -0.9590 C.3   1 <1>  -0.1020 
 17 O       -2.4940    -3.6140     0.6490 O.2   1 <1>  -0.6500 
 18 O       -0.3940    -2.3610     0.8150 O.2   1 <1>  -0.6500 
 19 C       -0.9590    -3.5850    -1.5020 C.3   1 <1>  -0.0550 
 20 C       -4.6170    -2.3680    -0.9530 C.2   1 <1>   0.5690 
 21 C       -5.5460     1.8470    -1.6330 C.2   1 <1>  -0.1500 
 22 C       -0.1770    -4.8830    -1.2430 C.3   1 <1>  -0.1600 
 23 O       -4.3600    -3.2170    -1.7860 O.2   1 <1>  -0.5700 
 24 C       -5.7950    -2.4840    -0.1110 C.ar  1 <1>   0.0860 
 25 C        0.2640    -5.5370    -2.5560 C.3   1 <1>  -0.2400 
 26 C       -5.8880    -1.8250     1.1180 C.ar  1 <1>  -0.1500 
 27 C       -6.8890    -3.2550    -0.5070 C.ar  1 <1>  -0.1500 
 28 C       -7.0230    -1.9180     1.9020 C.ar  1 <1>  -0.1500 
 29 C       -8.0260    -3.3530     0.2730 C.ar  1 <1>  -0.1500 
 30 C       -8.0960    -2.6810     1.4800 C.ar  1 <1>  -0.1500 
 31 H       -0.0230    -0.1180     1.5260 H     1 <1>   0.0800 
 32 H       -0.2530     1.5670     1.2420 H     1 <1>   0.0800 
 33 H        2.1220     1.7800     0.5680 H     1 <1>   0.0800 
 34 H        2.3440     0.0760     0.8590 H     1 <1>   0.0800 
 35 H        1.7580     0.3980     3.2520 H     1 <1>   0.0800 
 36 H        1.5370     2.1120     2.9670 H     1 <1>   0.0800 
 37 H        3.1190     1.3920     2.7950 H     1 <1>   0.0800 
 38 H       -6.1550    -0.1920    -1.5700 H     1 <1>   0.1500 
 39 H       -4.6400     3.7760    -1.5890 H     1 <1>   0.1500 
 40 H       -1.4910     3.0160    -0.1230 H     1 <1>   0.0800 
 41 H       -2.5260     4.2470    -0.7620 H     1 <1>   0.0800 
 42 H       -1.5130     3.3540    -1.8490 H     1 <1>   0.0800 
 43 H       -0.3360    -2.9210    -2.0670 H     1 <1>   0.0800 
 44 H       -1.8140    -3.8180    -2.1080 H     1 <1>   0.0800 
 45 H       -6.5050     2.2600    -1.8960 H     1 <1>   0.1500 
 46 H       -0.7970    -5.5690    -0.6900 H     1 <1>   0.0800 
 47 H        0.6900    -4.6610    -0.6430 H     1 <1>   0.0800 
 48 H       -0.5920    -5.7840    -3.1600 H     1 <1>   0.0800 
 49 H        0.8090    -6.4420    -2.3500 H     1 <1>   0.0800 
 50 H        0.9030    -4.8730    -3.1110 H     1 <1>   0.0800 
 51 H       -5.0610    -1.2360     1.4740 H     1 <1>   0.1500 
 52 H       -6.8430    -3.7870    -1.4430 H     1 <1>   0.1500 
 53 H       -7.0720    -1.4010     2.8460 H     1 <1>   0.1500 
 54 H       -8.8560    -3.9540    -0.0560 H     1 <1>   0.1500 
 55 H       -8.9800    -2.7560     2.0900 H     1 <1>   0.1500 
@<TRIPOS>BOND
  1   1   2  2   
  2   1   3  2   
  3   1   4  1   
  4   1   5  1   
  5   4   6  2   
  6   4   7  1   
  7   5   8  1   
  8   5  31  1   
  9   5  32  1   
 10   6   9  1   
 11   6  10  1   
 12   7  11  1   
 13   7  12  2   
 14   8  13  1   
 15   8  33  1   
 16   8  34  1   
 17   9  12  1   
 18   9  14  1   
 19  10  15  2   
 20  10  16  1   
 21  11  17  2   
 22  11  18  2   
 23  11  19  1   
 24  12  20  1   
 25  13  35  1   
 26  13  36  1   
 27  13  37  1   
 28  14  21  2   
 29  14  38  1   
 30  15  21  1   
 31  15  39  1   
 32  16  40  1   
 33  16  41  1   
 34  16  42  1   
 35  19  22  1   
 36  19  43  1   
 37  19  44  1   
 38  20  23  2   
 39  20  24  1   
 40  21  45  1   
 41  22  25  1   
 42  22  46  1   
 43  22  47  1   
 44  24  26  ar  
 45  24  27  ar  
 46  25  48  1   
 47  25  49  1   
 48  25  50  1   
 49  26  28  ar  
 50  26  51  1   
 51  27  29  ar  
 52  27  52  1   
 53  28  30  ar  
 54  28  53  1   
 55  29  30  ar  
 56  29  54  1   
 57  30  55  1   
@<TRIPOS>SUBSTRUCTURE
  1 ****   7 GROUP 4 **** **** 0

# MOE 2024.06 (io_trps.svl 2023.06)
