@<TRIPOS>MOLECULE
NONAME
40 42 1 0 0 
SMALL
USER_CHARGES


@<TRIPOS>ATOM
  1 CL      -1.5630     1.9660    -2.5280 Cl    1 <1>  -0.1770 
  2 C       -0.7650     2.6590    -1.1380 C.ar  1 <1>   0.1770 
  3 C       -1.3150     2.4770     0.1190 C.ar  1 <1>  -0.1440 
  4 C        0.3960     3.3920    -1.3250 C.ar  1 <1>  -0.1500 
  5 C       -0.6600     3.0660     1.1860 C.ar  1 <1>   0.1900 
  6 C       -2.5730     1.6630     0.3250 C.3   1 <1>   0.4860 
  7 C        1.0320     3.9650    -0.2330 C.ar  1 <1>  -0.1500 
  8 F       -1.1650     2.9300     2.3820 F     1 <1>  -0.1900 
  9 C        0.5010     3.8030     1.0360 C.ar  1 <1>  -0.1500 
 10 N       -3.7430     2.4240    -0.1910 N.4   1 <1>  -0.9590 
 11 C       -3.9880     3.6840     0.6110 C.3   1 <1>   0.3430 
 12 C       -4.9820     1.5630    -0.2390 C.3   1 <1>   0.3430 
 13 C       -5.2210     4.4710     0.1190 C.3   1 <1>   0.2090 
 14 C       -6.2200     2.3340    -0.7450 C.3   1 <1>   0.2090 
 15 N       -6.4180     3.5830     0.0450 N.pl3 1 <1>  -0.8380 
 16 C       -7.6480     4.2160    -0.0900 C.ar  1 <1>   0.1000 
 17 C       -8.5270     4.2390     0.9830 C.ar  1 <1>  -0.1500 
 18 C       -8.0230     4.8320    -1.2810 C.ar  1 <1>  -0.1500 
 19 C       -9.7490     4.8660     0.8550 C.ar  1 <1>   0.1770 
 20 C       -9.2520     5.4600    -1.4020 C.ar  1 <1>  -0.1500 
 21 CL     -10.8450     4.8880     2.2130 Cl    1 <1>  -0.1770 
 22 C      -10.1250     5.4780    -0.3270 C.ar  1 <1>  -0.1500 
 23 H        0.8010     3.5120    -2.3160 H     1 <1>   0.1500 
 24 H       -2.7070     1.4410     1.3710 H     1 <1>   0.0800 
 25 H       -2.4770     0.7310    -0.2090 H     1 <1>   0.0800 
 26 H        1.9370     4.5340    -0.3720 H     1 <1>   0.1500 
 27 H        0.9800     4.2420     1.8960 H     1 <1>   0.1500 
 28 H       -3.5180     2.7030    -1.1560 H     1 <1>   0.4500 
 29 H       -3.1240     4.3260     0.5640 H     1 <1>   0.0800 
 30 H       -4.1500     3.4260     1.6450 H     1 <1>   0.0800 
 31 H       -5.2030     1.1950     0.7500 H     1 <1>   0.0800 
 32 H       -4.8150     0.7120    -0.8790 H     1 <1>   0.0800 
 33 H       -5.0240     4.8950    -0.8500 H     1 <1>   0.0800 
 34 H       -5.4230     5.2810     0.8000 H     1 <1>   0.0800 
 35 H       -7.0940     1.7120    -0.6470 H     1 <1>   0.0800 
 36 H       -6.1010     2.5770    -1.7860 H     1 <1>   0.0800 
 37 H       -8.2570     3.7710     1.9100 H     1 <1>   0.1500 
 38 H       -7.3510     4.8220    -2.1180 H     1 <1>   0.1500 
 39 H       -9.5310     5.9330    -2.3280 H     1 <1>   0.1500 
 40 H      -11.0840     5.9600    -0.3990 H     1 <1>   0.1500 
@<TRIPOS>BOND
  1   1   2  1   
  2   2   3  ar  
  3   2   4  ar  
  4   3   5  ar  
  5   3   6  1   
  6   4   7  ar  
  7   4  23  1   
  8   5   8  1   
  9   5   9  ar  
 10   6  10  1   
 11   6  24  1   
 12   6  25  1   
 13   7   9  ar  
 14   7  26  1   
 15   9  27  1   
 16  10  11  1   
 17  10  12  1   
 18  10  28  1   
 19  11  13  1   
 20  11  29  1   
 21  11  30  1   
 22  12  14  1   
 23  12  31  1   
 24  12  32  1   
 25  13  15  1   
 26  13  33  1   
 27  13  34  1   
 28  14  15  1   
 29  14  35  1   
 30  14  36  1   
 31  15  16  1   
 32  16  17  ar  
 33  16  18  ar  
 34  17  19  ar  
 35  17  37  1   
 36  18  20  ar  
 37  18  38  1   
 38  19  21  1   
 39  19  22  ar  
 40  20  22  ar  
 41  20  39  1   
 42  22  40  1   
@<TRIPOS>SUBSTRUCTURE
  1 ****  11 GROUP 4 **** **** 0

# MOE 2024.06 (io_trps.svl 2023.06)
