@<TRIPOS>MOLECULE
NONAME
42 43 1 0 0 
SMALL
USER_CHARGES


@<TRIPOS>ATOM
  1 O        0.1340     0.4870     0.2190 O.2   1 <1>  -0.5700 
  2 C       -0.6770     1.3670    -0.0160 C.2   1 <1>   0.5440 
  3 N       -0.2030     2.6620    -0.1620 N.am  1 <1>  -0.2980 
  4 C       -2.0870     1.0340    -0.1250 C.ar  1 <1>   0.0860 
  5 N       -0.9390     3.8240    -0.2860 N.2   1 <1>  -0.5120 
  6 C        1.2550     2.9360    -0.2700 C.3   1 <1>   0.6410 
  7 C       -3.0910     1.7730     0.5030 C.ar  1 <1>  -0.1500 
  8 C       -2.4860    -0.0800    -0.8660 C.ar  1 <1>  -0.1500 
  9 C       -0.1680     4.8100    -0.4120 C.2   1 <1>   0.3280 
 10 O        1.7850     2.5950     0.9730 O.3   1 <1>  -0.6800 
 11 C        1.9050     2.2490    -1.5280 C.2   1 <1>   0.6590 
 12 C        1.3000     4.4650    -0.3830 C.3   1 <1>  -0.0990 
 13 C       -4.4250     1.4260     0.3890 C.ar  1 <1>  -0.1500 
 14 C       -3.8170    -0.4340    -0.9840 C.ar  1 <1>  -0.1500 
 15 C       -0.6350     6.2450    -0.6080 C.3   1 <1>  -0.0990 
 16 O        1.5250     2.5590    -2.6310 O.2   1 <1>  -0.5700 
 17 O        2.9130     1.3670    -1.4600 O.3   1 <1>  -0.4300 
 18 C       -4.7910     0.3200    -0.3560 C.ar  1 <1>  -0.1500 
 19 C       -0.2600     7.2000     0.5460 C.3   1 <1>  -0.0800 
 20 C        3.4240     0.6650    -0.3470 C.3   1 <1>   0.0400 
 21 C       -1.3100     8.3110     0.6750 C.3   1 <1>  -0.2400 
 22 C        1.1160     7.8510     0.3340 C.3   1 <1>  -0.2400 
 23 H       -2.8210     2.6340     1.0890 H     1 <1>   0.1500 
 24 H       -1.7330    -0.6750    -1.3540 H     1 <1>   0.1500 
 25 H        1.3990     1.7180     1.1880 H     1 <1>   0.4000 
 26 H        1.7760     4.7880    -1.2890 H     1 <1>   0.0800 
 27 H        1.7860     4.9030     0.4670 H     1 <1>   0.0800 
 28 H       -5.1790     2.0170     0.8810 H     1 <1>   0.1500 
 29 H       -4.0960    -1.2970    -1.5640 H     1 <1>   0.1500 
 30 H       -1.7070     6.2080    -0.6960 H     1 <1>   0.0800 
 31 H       -0.2600     6.6190    -1.5430 H     1 <1>   0.0800 
 32 H       -5.8290     0.0480    -0.4470 H     1 <1>   0.1500 
 33 H       -0.2510     6.6450     1.4710 H     1 <1>   0.0800 
 34 H        4.1540    -0.0390    -0.7060 H     1 <1>   0.0800 
 35 H        2.6240     0.1350     0.1380 H     1 <1>   0.0800 
 36 H        3.8950     1.3590     0.3260 H     1 <1>   0.0800 
 37 H       -1.3720     8.8840    -0.2340 H     1 <1>   0.0800 
 38 H       -1.0560     8.9750     1.4820 H     1 <1>   0.0800 
 39 H       -2.2780     7.8900     0.8830 H     1 <1>   0.0800 
 40 H        1.1230     8.4350    -0.5700 H     1 <1>   0.0800 
 41 H        1.8980     7.1200     0.2700 H     1 <1>   0.0800 
 42 H        1.3450     8.5040     1.1570 H     1 <1>   0.0800 
@<TRIPOS>BOND
  1   1   2  2   
  2   2   3  am  
  3   2   4  1   
  4   3   5  1   
  5   3   6  1   
  6   4   7  ar  
  7   4   8  ar  
  8   5   9  2   
  9   6  10  1   
 10   6  11  1   
 11   6  12  1   
 12   7  13  ar  
 13   7  23  1   
 14   8  14  ar  
 15   8  24  1   
 16   9  12  1   
 17   9  15  1   
 18  10  25  1   
 19  11  16  2   
 20  11  17  1   
 21  12  26  1   
 22  12  27  1   
 23  13  18  ar  
 24  13  28  1   
 25  14  18  ar  
 26  14  29  1   
 27  15  19  1   
 28  15  30  1   
 29  15  31  1   
 30  17  20  1   
 31  18  32  1   
 32  19  21  1   
 33  19  22  1   
 34  19  33  1   
 35  20  34  1   
 36  20  35  1   
 37  20  36  1   
 38  21  37  1   
 39  21  38  1   
 40  21  39  1   
 41  22  40  1   
 42  22  41  1   
 43  22  42  1   
@<TRIPOS>SUBSTRUCTURE
  1 ****   3 GROUP 4 **** **** 0

# MOE 2024.06 (io_trps.svl 2023.06)
