@<TRIPOS>MOLECULE
NONAME
38 39 1 0 0 
SMALL
USER_CHARGES


@<TRIPOS>ATOM
  1 BR       0.7420     0.0750    -1.9070 Br    1 <1>  -0.1110 
  2 C       -0.8700    -0.6180    -1.0980 C.ar  1 <1>   0.1110 
  3 C       -0.7770    -1.6880    -0.2110 C.ar  1 <1>   0.1170 
  4 C       -2.0660    -0.0160    -1.4370 C.ar  1 <1>  -0.1500 
  5 N        0.4860    -2.2430     0.0760 N.am  1 <1>  -0.5470 
  6 C       -1.9700    -2.1500     0.3390 C.ar  1 <1>  -0.1500 
  7 C       -3.2350    -0.4960    -0.8720 C.ar  1 <1>  -0.1500 
  8 C        0.9110    -3.1810     0.9790 C.2   1 <1>   0.5690 
  9 C       -3.1820    -1.5610     0.0140 C.ar  1 <1>  -0.1500 
 10 O        0.1780    -3.7370     1.7590 O.2   1 <1>  -0.5700 
 11 C        2.3870    -3.5510     1.0070 C.3   1 <1>   0.1310 
 12 S        3.4210    -2.3420     0.0390 S.3   1 <1>  -0.2860 
 13 C        5.0710    -3.0350     0.1810 C.2   1 <1>   0.2430 
 14 N        5.3280    -4.1260     0.8090 N.2   1 <1>  -0.3380 
 15 N        6.1460    -2.4620    -0.3590 N.pl3 1 <1>   0.0480 
 16 N        6.6460    -4.3050     0.6920 N.2   1 <1>  -0.3380 
 17 C        7.1170    -3.3160     0.0020 C.2   1 <1>   0.0060 
 18 C        6.2230    -1.2120    -1.1480 C.3   1 <1>   0.0960 
 19 C        8.5840    -3.1200    -0.3700 C.3   1 <1>   0.0200 
 20 C        6.4120    -0.0020    -0.2270 C.3   1 <1>  -0.2400 
 21 C        9.5140    -4.1670     0.2570 C.3   1 <1>  -0.2400 
 22 H       -2.0850     0.8090    -2.1270 H     1 <1>   0.1500 
 23 H        1.2460    -1.8330    -0.4710 H     1 <1>   0.3700 
 24 H       -1.9660    -2.9760     1.0270 H     1 <1>   0.1500 
 25 H       -4.1810    -0.0450    -1.1180 H     1 <1>   0.1500 
 26 H       -4.0900    -1.9360     0.4540 H     1 <1>   0.1500 
 27 H        2.5370    -4.5210     0.5710 H     1 <1>   0.0800 
 28 H        2.7550    -3.5470     2.0160 H     1 <1>   0.0800 
 29 H        5.3170    -1.1020    -1.7170 H     1 <1>   0.0800 
 30 H        7.0450    -1.2830    -1.8380 H     1 <1>   0.0800 
 31 H        8.8990    -2.1440    -0.0480 H     1 <1>   0.0800 
 32 H        8.6800    -3.1680    -1.4400 H     1 <1>   0.0800 
 33 H        5.5780     0.0880     0.4470 H     1 <1>   0.0800 
 34 H        6.4690     0.8970    -0.8150 H     1 <1>   0.0800 
 35 H        7.3200    -0.0960     0.3410 H     1 <1>   0.0800 
 36 H        9.4420    -4.1310     1.3300 H     1 <1>   0.0800 
 37 H       10.5330    -3.9800    -0.0290 H     1 <1>   0.0800 
 38 H        9.2370    -5.1530    -0.0720 H     1 <1>   0.0800 
@<TRIPOS>BOND
  1   1   2  1   
  2   2   3  ar  
  3   2   4  ar  
  4   3   5  1   
  5   3   6  ar  
  6   4   7  ar  
  7   4  22  1   
  8   5   8  am  
  9   5  23  1   
 10   6   9  ar  
 11   6  24  1   
 12   7   9  ar  
 13   7  25  1   
 14   8  10  2   
 15   8  11  1   
 16   9  26  1   
 17  11  12  1   
 18  11  27  1   
 19  11  28  1   
 20  12  13  1   
 21  13  14  2   
 22  13  15  1   
 23  14  16  1   
 24  15  17  1   
 25  15  18  1   
 26  16  17  2   
 27  17  19  1   
 28  18  20  1   
 29  18  29  1   
 30  18  30  1   
 31  19  21  1   
 32  19  31  1   
 33  19  32  1   
 34  20  33  1   
 35  20  34  1   
 36  20  35  1   
 37  21  36  1   
 38  21  37  1   
 39  21  38  1   
@<TRIPOS>SUBSTRUCTURE
  1 ****  12 GROUP 4 **** **** 0

# MOE 2024.06 (io_trps.svl 2023.06)
