@<TRIPOS>MOLECULE
NONAME
32 32 1 0 0 
SMALL
USER_CHARGES


@<TRIPOS>ATOM
  1 CL      -1.2700    -0.7750    -0.7360 Cl    1 <1>  -0.1770 
  2 C       -2.1500     0.5830    -0.0750 C.ar  1 <1>   0.1770 
  3 C       -1.8090     1.8790    -0.4380 C.ar  1 <1>  -0.1440 
  4 C       -3.1800     0.3240     0.8070 C.ar  1 <1>  -0.1500 
  5 C       -2.5340     2.9270     0.1100 C.ar  1 <1>  -0.1500 
  6 C       -0.6730     2.1540    -1.4110 C.3   1 <1>  -0.0960 
  7 C       -3.9040     1.3740     1.3510 C.ar  1 <1>   0.1990 
  8 C       -3.5690     2.6750     0.9950 C.ar  1 <1>  -0.1500 
  9 N       -4.9340     1.1100     2.2360 N.am  1 <1>  -0.7570 
 10 S       -6.5850     1.4290     1.9060 S.o2  1 <1>   1.3330 
 11 O       -6.6500     2.7460     1.3250 O.2   1 <1>  -0.6500 
 12 O       -7.2480     1.1410     3.1530 O.2   1 <1>  -0.6500 
 13 C       -6.9920     0.1690     0.6960 C.3   1 <1>  -0.0550 
 14 C       -8.4610     0.1990     0.2440 C.3   1 <1>  -0.1600 
 15 C       -8.7490    -0.8970    -0.7890 C.3   1 <1>  -0.1600 
 16 C      -10.2140    -0.8610    -1.2310 C.3   1 <1>  -0.2400 
 17 H       -3.4160    -0.6890     1.0730 H     1 <1>   0.1500 
 18 H       -2.2990     3.9460    -0.1490 H     1 <1>   0.1500 
 19 H        0.2490     1.7620    -1.0200 H     1 <1>   0.0800 
 20 H       -0.5510     3.2100    -1.5750 H     1 <1>   0.0800 
 21 H       -0.8760     1.6830    -2.3560 H     1 <1>   0.0800 
 22 H       -4.1270     3.4960     1.4100 H     1 <1>   0.1500 
 23 H       -4.7630     1.3670     3.2050 H     1 <1>   0.4200 
 24 H       -6.7780    -0.7960     1.1140 H     1 <1>   0.0800 
 25 H       -6.3630     0.2990    -0.1640 H     1 <1>   0.0800 
 26 H       -8.6800     1.1640    -0.1820 H     1 <1>   0.0800 
 27 H       -9.0980     0.0640     1.1030 H     1 <1>   0.0800 
 28 H       -8.5340    -1.8640    -0.3640 H     1 <1>   0.0800 
 29 H       -8.1170    -0.7620    -1.6500 H     1 <1>   0.0800 
 30 H      -10.8670    -1.0160    -0.3900 H     1 <1>   0.0800 
 31 H      -10.4000    -1.6350    -1.9550 H     1 <1>   0.0800 
 32 H      -10.4490     0.0890    -1.6800 H     1 <1>   0.0800 
@<TRIPOS>BOND
  1   1   2  1   
  2   2   3  ar  
  3   2   4  ar  
  4   3   5  ar  
  5   3   6  1   
  6   4   7  ar  
  7   4  17  1   
  8   5   8  ar  
  9   5  18  1   
 10   6  19  1   
 11   6  20  1   
 12   6  21  1   
 13   7   8  ar  
 14   7   9  1   
 15   8  22  1   
 16   9  10  am  
 17   9  23  1   
 18  10  11  2   
 19  10  12  2   
 20  10  13  1   
 21  13  14  1   
 22  13  24  1   
 23  13  25  1   
 24  14  15  1   
 25  14  26  1   
 26  14  27  1   
 27  15  16  1   
 28  15  28  1   
 29  15  29  1   
 30  16  30  1   
 31  16  31  1   
 32  16  32  1   
@<TRIPOS>SUBSTRUCTURE
  1 ****   7 GROUP 4 **** **** 0

# MOE 2024.06 (io_trps.svl 2023.06)
