@<TRIPOS>MOLECULE
NONAME
33 34 1 0 0 
SMALL
USER_CHARGES


@<TRIPOS>ATOM
  1 CL      -0.5160    -0.7060    -0.7040 Cl    1 <1>  -0.1770 
  2 C       -1.4720     0.7440    -0.5320 C.ar  1 <1>   0.1770 
  3 C       -2.8380     0.6420    -0.3800 C.ar  1 <1>  -0.1500 
  4 C       -0.8420     1.9730    -0.5550 C.ar  1 <1>  -0.1500 
  5 C       -3.6080     1.7900    -0.2470 C.ar  1 <1>   0.1990 
  6 C       -1.6030     3.1220    -0.4200 C.ar  1 <1>  -0.1500 
  7 N       -4.9830     1.6950    -0.1150 N.am  1 <1>  -0.7570 
  8 C       -2.9790     3.0390    -0.2650 C.ar  1 <1>  -0.1430 
  9 S       -5.7500     0.9640     1.2200 S.o2  1 <1>   1.5760 
 10 C       -3.7840     4.3250    -0.1050 C.3   1 <1>  -0.0960 
 11 O       -6.0370     2.0410     2.1320 O.2   1 <1>  -0.6500 
 12 O       -5.0350    -0.2280     1.6040 O.2   1 <1>  -0.6500 
 13 N       -7.1760     0.5210     0.4450 N.am  1 <1>  -0.8490 
 14 C       -6.9900    -0.6310    -0.4520 C.3   1 <1>   0.1960 
 15 C       -8.2330     0.2130     1.4180 C.3   1 <1>   0.1960 
 16 C       -8.3180    -1.0270    -1.1210 C.3   1 <1>   0.1200 
 17 C       -9.5330    -0.2100     0.7080 C.3   1 <1>   0.1200 
 18 O       -9.2960    -1.2880    -0.1540 O.3   1 <1>  -0.5600 
 19 H       -3.3010    -0.3270    -0.3650 H     1 <1>   0.1500 
 20 H        0.2250     2.0260    -0.6750 H     1 <1>   0.1500 
 21 H       -1.1110     4.0800    -0.4350 H     1 <1>   0.1500 
 22 H       -5.4840     2.5580    -0.2730 H     1 <1>   0.4200 
 23 H       -4.4540     4.4480    -0.9360 H     1 <1>   0.0800 
 24 H       -3.1360     5.1820    -0.0640 H     1 <1>   0.0800 
 25 H       -4.3530     4.2930     0.8080 H     1 <1>   0.0800 
 26 H       -6.6140    -1.4790     0.0980 H     1 <1>   0.0800 
 27 H       -6.2720    -0.3850    -1.2150 H     1 <1>   0.0800 
 28 H       -8.4330     1.0830     2.0210 H     1 <1>   0.0800 
 29 H       -7.9140    -0.5810     2.0730 H     1 <1>   0.0800 
 30 H       -8.1890    -1.9200    -1.7070 H     1 <1>   0.0800 
 31 H       -8.6680    -0.2370    -1.7620 H     1 <1>   0.0800 
 32 H       -9.9320     0.6080     0.1340 H     1 <1>   0.0800 
 33 H      -10.2670    -0.5210     1.4290 H     1 <1>   0.0800 
@<TRIPOS>BOND
  1   1   2  1   
  2   2   3  ar  
  3   2   4  ar  
  4   3   5  ar  
  5   3  19  1   
  6   4   6  ar  
  7   4  20  1   
  8   5   7  1   
  9   5   8  ar  
 10   6   8  ar  
 11   6  21  1   
 12   7   9  am  
 13   7  22  1   
 14   8  10  1   
 15   9  11  2   
 16   9  12  2   
 17   9  13  am  
 18  10  23  1   
 19  10  24  1   
 20  10  25  1   
 21  13  14  1   
 22  13  15  1   
 23  14  16  1   
 24  14  26  1   
 25  14  27  1   
 26  15  17  1   
 27  15  28  1   
 28  15  29  1   
 29  16  18  1   
 30  16  30  1   
 31  16  31  1   
 32  17  18  1   
 33  17  32  1   
 34  17  33  1   
@<TRIPOS>SUBSTRUCTURE
  1 ****   7 GROUP 4 **** **** 0

# MOE 2024.06 (io_trps.svl 2023.06)
