@<TRIPOS>MOLECULE
NONAME
49 50 1 0 0 
SMALL
USER_CHARGES


@<TRIPOS>ATOM
  1 O        0.6560    -0.5930    -0.2870 O.2   1 <1>  -0.5700 
  2 C        0.7310    -1.4350     0.5870 C.2   1 <1>   0.6900 
  3 N        1.9440    -1.6760     1.1580 N.am  1 <1>  -0.6600 
  4 N       -0.3240    -2.1870     1.0010 N.am  1 <1>  -0.5470 
  5 C        2.7120    -2.8300     0.6170 C.3   1 <1>   0.1400 
  6 C        2.8040    -0.4930     1.4560 C.3   1 <1>   0.1400 
  7 C       -1.6500    -2.2750     0.5510 C.ar  1 <1>   0.1170 
  8 C        3.4940    -2.4020    -0.6440 C.3   1 <1>   0.3430 
  9 C        3.5960    -0.0680     0.2020 C.3   1 <1>   0.3430 
 10 C       -2.5960    -2.8610     1.3830 C.ar  1 <1>  -0.1500 
 11 C       -2.0670    -1.8200    -0.6970 C.ar  1 <1>  -0.1500 
 12 N        4.3860    -1.2120    -0.3920 N.4   1 <1>  -0.9590 
 13 C       -3.9150    -2.9880     0.9880 C.ar  1 <1>  -0.1500 
 14 C       -3.3850    -1.9450    -1.0940 C.ar  1 <1>  -0.1500 
 15 C        5.0670    -0.8090    -1.6500 C.3   1 <1>   0.3430 
 16 C       -4.3200    -2.5310    -0.2560 C.ar  1 <1>  -0.1430 
 17 C        6.2350     0.1160    -1.3300 C.3   1 <1>  -0.2400 
 18 C       -5.7690    -2.6650    -0.6930 C.3   1 <1>  -0.0170 
 19 C       -6.5730    -1.4280    -0.2780 C.3   1 <1>  -0.1600 
 20 C       -8.0410    -1.5380    -0.7090 C.3   1 <1>  -0.1600 
 21 C       -8.8310    -0.2960    -0.2880 C.3   1 <1>  -0.2400 
 22 H       -0.1280    -2.6970     1.8570 H     1 <1>   0.3700 
 23 H        2.0340    -3.6270     0.3590 H     1 <1>   0.0800 
 24 H        3.3880    -3.2020     1.3670 H     1 <1>   0.0800 
 25 H        3.4780    -0.7270     2.2610 H     1 <1>   0.0800 
 26 H        2.1830     0.3280     1.7740 H     1 <1>   0.0800 
 27 H        2.7780    -2.1550    -1.4130 H     1 <1>   0.0800 
 28 H        4.0810    -3.2340    -0.9950 H     1 <1>   0.0800 
 29 H        4.2560     0.7430     0.4620 H     1 <1>   0.0800 
 30 H        2.8930     0.3010    -0.5280 H     1 <1>   0.0800 
 31 H       -2.3050    -3.2210     2.3530 H     1 <1>   0.1500 
 32 H       -1.3660    -1.3640    -1.3700 H     1 <1>   0.1500 
 33 H        5.1060    -1.4890     0.2870 H     1 <1>   0.4500 
 34 H       -4.6300    -3.4420     1.6520 H     1 <1>   0.1500 
 35 H       -3.6830    -1.5800    -2.0620 H     1 <1>   0.1500 
 36 H        4.3700    -0.3150    -2.3090 H     1 <1>   0.0800 
 37 H        5.4460    -1.6830    -2.1550 H     1 <1>   0.0800 
 38 H        5.8990     1.0470    -0.9110 H     1 <1>   0.0800 
 39 H        6.7610     0.3430    -2.2400 H     1 <1>   0.0800 
 40 H        6.9290    -0.3570    -0.6580 H     1 <1>   0.0800 
 41 H       -6.1990    -3.5460    -0.2490 H     1 <1>   0.0800 
 42 H       -5.8120    -2.7850    -1.7620 H     1 <1>   0.0800 
 43 H       -6.1290    -0.5550    -0.7250 H     1 <1>   0.0800 
 44 H       -6.5170    -1.3160     0.7920 H     1 <1>   0.0800 
 45 H       -8.4870    -2.4090    -0.2600 H     1 <1>   0.0800 
 46 H       -8.0970    -1.6470    -1.7790 H     1 <1>   0.0800 
 47 H       -8.8070    -0.1790     0.7810 H     1 <1>   0.0800 
 48 H       -9.8570    -0.3890    -0.6000 H     1 <1>   0.0800 
 49 H       -8.4150     0.5860    -0.7420 H     1 <1>   0.0800 
@<TRIPOS>BOND
  1   1   2  2   
  2   2   3  am  
  3   2   4  am  
  4   3   5  1   
  5   3   6  1   
  6   4   7  1   
  7   4  22  1   
  8   5   8  1   
  9   5  23  1   
 10   5  24  1   
 11   6   9  1   
 12   6  25  1   
 13   6  26  1   
 14   7  10  ar  
 15   7  11  ar  
 16   8  12  1   
 17   8  27  1   
 18   8  28  1   
 19   9  12  1   
 20   9  29  1   
 21   9  30  1   
 22  10  13  ar  
 23  10  31  1   
 24  11  14  ar  
 25  11  32  1   
 26  12  15  1   
 27  12  33  1   
 28  13  16  ar  
 29  13  34  1   
 30  14  16  ar  
 31  14  35  1   
 32  15  17  1   
 33  15  36  1   
 34  15  37  1   
 35  16  18  1   
 36  17  38  1   
 37  17  39  1   
 38  17  40  1   
 39  18  19  1   
 40  18  41  1   
 41  18  42  1   
 42  19  20  1   
 43  19  43  1   
 44  19  44  1   
 45  20  21  1   
 46  20  45  1   
 47  20  46  1   
 48  21  47  1   
 49  21  48  1   
 50  21  49  1   
@<TRIPOS>SUBSTRUCTURE
  1 ****   4 GROUP 4 **** **** 0

# MOE 2024.06 (io_trps.svl 2023.06)
