@<TRIPOS>MOLECULE
NONAME
37 38 1 0 0 
SMALL
USER_CHARGES


@<TRIPOS>ATOM
  1 BR      -0.5770     0.1940     1.1500 Br    1 <1>  -0.1110 
  2 C        0.5300     1.6590     0.5530 C.ar  1 <1>   0.1110 
  3 C       -0.0600     2.8740     0.2150 C.ar  1 <1>   0.0820 
  4 C        1.8930     1.4450     0.4780 C.ar  1 <1>  -0.1500 
  5 O       -1.4100     2.9850     0.3220 O.3   1 <1>  -0.3630 
  6 C        0.7670     3.9120    -0.2140 C.ar  1 <1>  -0.1500 
  7 C        2.6850     2.4920     0.0490 C.ar  1 <1>   0.1770 
  8 C       -2.0860     4.1690    -0.0300 C.3   1 <1>   0.1200 
  9 C        2.1390     3.7170    -0.2960 C.ar  1 <1>  -0.1500 
 10 CL       4.4120     2.2670    -0.0600 Cl    1 <1>  -0.1770 
 11 C       -3.5780     3.9390     0.2040 C.3   1 <1>  -0.1600 
 12 C       -4.3960     5.1610    -0.2230 C.3   1 <1>   0.1100 
 13 N       -5.7980     5.0260     0.2070 N.3   1 <1>  -0.8100 
 14 C       -6.5460     4.0140    -0.5720 C.3   1 <1>   0.1100 
 15 C       -6.4840     6.3330     0.2030 C.3   1 <1>   0.1100 
 16 C       -7.9880     3.8610    -0.0480 C.3   1 <1>   0.3430 
 17 C       -7.9250     6.2100     0.7400 C.3   1 <1>   0.3430 
 18 N       -8.7080     5.1770    -0.0160 N.4   1 <1>  -0.9060 
 19 H        2.3230     0.4980     0.7450 H     1 <1>   0.1500 
 20 H        0.3680     4.8710    -0.4870 H     1 <1>   0.1500 
 21 H       -1.8870     4.3760    -1.0670 H     1 <1>   0.0800 
 22 H       -1.7190     4.9680     0.5920 H     1 <1>   0.0800 
 23 H        2.7860     4.5100    -0.6260 H     1 <1>   0.1500 
 24 H       -3.7370     3.7540     1.2520 H     1 <1>   0.0800 
 25 H       -3.8760     3.0760    -0.3610 H     1 <1>   0.0800 
 26 H       -4.3410     5.2970    -1.2910 H     1 <1>   0.0800 
 27 H       -3.9680     6.0300     0.2490 H     1 <1>   0.0800 
 28 H       -6.0610     3.0570    -0.4860 H     1 <1>   0.0800 
 29 H       -6.5600     4.2840    -1.6140 H     1 <1>   0.0800 
 30 H       -6.4970     6.7410    -0.7940 H     1 <1>   0.0800 
 31 H       -5.9430     7.0180     0.8340 H     1 <1>   0.0800 
 32 H       -7.9410     3.4500     0.9470 H     1 <1>   0.0800 
 33 H       -8.5220     3.1610    -0.6710 H     1 <1>   0.0800 
 34 H       -8.4140     7.1680     0.6740 H     1 <1>   0.0800 
 35 H       -7.8720     5.9340     1.7810 H     1 <1>   0.0800 
 36 H       -9.6350     5.0590     0.4100 H     1 <1>   0.4500 
 37 H       -8.8440     5.5040    -0.9790 H     1 <1>   0.4500 
@<TRIPOS>BOND
  1   1   2  1   
  2   2   3  ar  
  3   2   4  ar  
  4   3   5  1   
  5   3   6  ar  
  6   4   7  ar  
  7   4  19  1   
  8   5   8  1   
  9   6   9  ar  
 10   6  20  1   
 11   7   9  ar  
 12   7  10  1   
 13   8  11  1   
 14   8  21  1   
 15   8  22  1   
 16   9  23  1   
 17  11  12  1   
 18  11  24  1   
 19  11  25  1   
 20  12  13  1   
 21  12  26  1   
 22  12  27  1   
 23  13  14  1   
 24  13  15  1   
 25  14  16  1   
 26  14  28  1   
 27  14  29  1   
 28  15  17  1   
 29  15  30  1   
 30  15  31  1   
 31  16  18  1   
 32  16  32  1   
 33  16  33  1   
 34  17  18  1   
 35  17  34  1   
 36  17  35  1   
 37  18  36  1   
 38  18  37  1   
@<TRIPOS>SUBSTRUCTURE
  1 ****   8 GROUP 4 **** **** 0

# MOE 2024.06 (io_trps.svl 2023.06)
