@<TRIPOS>MOLECULE
NONAME
36 36 1 0 0 
SMALL
USER_CHARGES


@<TRIPOS>ATOM
  1 O        0.9670     4.5380     1.6350 O.2   1 <1>  -0.5700 
  2 C        0.2310     3.7690     1.0630 C.2   1 <1>   0.5690 
  3 N        0.6810     2.5900     0.5660 N.am  1 <1>  -0.7300 
  4 C       -1.2370     4.1440     0.9030 C.3   1 <1>   0.1810 
  5 C        2.0640     2.1080     0.6180 C.3   1 <1>   0.2780 
  6 O       -1.9640     3.1210     0.2340 O.3   1 <1>  -0.3630 
  7 C        2.3370     1.3810    -0.6810 C.2   1 <1>  -0.2880 
  8 C       -3.2890     3.2470    -0.0470 C.ar  1 <1>   0.0830 
  9 C        2.6200     0.0800    -0.7980 C.2   1 <1>  -0.3000 
 10 C       -3.9050     2.2100    -0.7480 C.ar  1 <1>  -0.1430 
 11 C       -4.0270     4.3650     0.3350 C.ar  1 <1>  -0.1500 
 12 C       -5.2560     2.3120    -1.0740 C.ar  1 <1>  -0.1430 
 13 C       -3.0680     0.9920    -1.1440 C.3   1 <1>  -0.0970 
 14 C       -5.3690     4.4590     0.0200 C.ar  1 <1>  -0.1430 
 15 C       -5.9720     3.4330    -0.6850 C.ar  1 <1>  -0.1500 
 16 C       -5.9910     1.2310    -1.8560 C.3   1 <1>  -0.0970 
 17 C       -6.1800     5.6740     0.4330 C.3   1 <1>  -0.0970 
 18 H        0.0140     1.9750     0.0930 H     1 <1>   0.3700 
 19 H       -1.3100     5.0460     0.3240 H     1 <1>   0.0800 
 20 H       -1.6720     4.2910     1.8740 H     1 <1>   0.0800 
 21 H        2.1770     1.4410     1.4560 H     1 <1>   0.0800 
 22 H        2.7440     2.9350     0.7370 H     1 <1>   0.0800 
 23 H        2.2770     2.0410    -1.5300 H     1 <1>   0.1500 
 24 H        2.8100    -0.4090    -1.7380 H     1 <1>   0.1500 
 25 H        2.6870    -0.6060     0.0290 H     1 <1>   0.1500 
 26 H       -3.5750     5.1720     0.8770 H     1 <1>   0.1500 
 27 H       -2.4560     0.6810    -0.3180 H     1 <1>   0.0800 
 28 H       -2.4290     1.2500    -1.9690 H     1 <1>   0.0800 
 29 H       -3.6700     0.1510    -1.4270 H     1 <1>   0.0800 
 30 H       -7.0150     3.5140    -0.9330 H     1 <1>   0.1500 
 31 H       -6.0520     0.3320    -1.2690 H     1 <1>   0.0800 
 32 H       -5.4720     1.0210    -2.7730 H     1 <1>   0.0800 
 33 H       -6.9900     1.5410    -2.1020 H     1 <1>   0.0800 
 34 H       -5.7090     6.1870     1.2510 H     1 <1>   0.0800 
 35 H       -7.1650     5.3750     0.7430 H     1 <1>   0.0800 
 36 H       -6.2670     6.3510    -0.3980 H     1 <1>   0.0800 
@<TRIPOS>BOND
  1   1   2  2   
  2   2   3  am  
  3   2   4  1   
  4   3   5  1   
  5   3  18  1   
  6   4   6  1   
  7   4  19  1   
  8   4  20  1   
  9   5   7  1   
 10   5  21  1   
 11   5  22  1   
 12   6   8  1   
 13   7   9  2   
 14   7  23  1   
 15   8  10  ar  
 16   8  11  ar  
 17   9  24  1   
 18   9  25  1   
 19  10  12  ar  
 20  10  13  1   
 21  11  14  ar  
 22  11  26  1   
 23  12  15  ar  
 24  12  16  1   
 25  13  27  1   
 26  13  28  1   
 27  13  29  1   
 28  14  15  ar  
 29  14  17  1   
 30  15  30  1   
 31  16  31  1   
 32  16  32  1   
 33  16  33  1   
 34  17  34  1   
 35  17  35  1   
 36  17  36  1   
@<TRIPOS>SUBSTRUCTURE
  1 ****   6 GROUP 4 **** **** 0

# MOE 2024.06 (io_trps.svl 2023.06)
