@<TRIPOS>MOLECULE
NONAME
32 33 1 0 0 
SMALL
USER_CHARGES


@<TRIPOS>ATOM
  1 F        0.2260     0.3990     0.2970 F     1 <1>  -0.1900 
  2 C        1.4470     0.8550     0.2080 C.ar  1 <1>   0.1900 
  3 C        2.4850     0.0790     0.6910 C.ar  1 <1>  -0.1500 
  4 C        1.6560     2.0940    -0.3660 C.ar  1 <1>  -0.1500 
  5 C        3.7800     0.5620     0.5960 C.ar  1 <1>  -0.1500 
  6 C        2.9530     2.5690    -0.4570 C.ar  1 <1>  -0.1500 
  7 C        4.0160     1.8120     0.0200 C.ar  1 <1>   0.0830 
  8 O        5.2520     2.3580    -0.1120 O.3   1 <1>  -0.3630 
  9 C        6.4070     1.6790     0.3150 C.3   1 <1>   0.1200 
 10 C        7.6040     2.5870     0.0140 C.3   1 <1>   0.3430 
 11 N        8.9120     1.9800     0.4250 N.4   1 <1>  -0.9590 
 12 C       10.0410     2.9300     0.2710 C.3   1 <1>   0.3430 
 13 C        9.2980     0.7740    -0.3530 C.3   1 <1>   0.3430 
 14 C       11.2810     2.0470     0.2680 C.3   1 <1>  -0.1600 
 15 C       10.8000     0.6520    -0.1430 C.3   1 <1>  -0.1600 
 16 H        2.2740    -0.8800     1.1300 H     1 <1>   0.1500 
 17 H        0.8230     2.6680    -0.7300 H     1 <1>   0.1500 
 18 H        4.5770    -0.0480     0.9760 H     1 <1>   0.1500 
 19 H        3.1440     3.5310    -0.8980 H     1 <1>   0.1500 
 20 H        6.4690     0.7560    -0.2320 H     1 <1>   0.0800 
 21 H        6.3170     1.5000     1.3720 H     1 <1>   0.0800 
 22 H        7.4610     3.5160     0.5410 H     1 <1>   0.0800 
 23 H        7.6210     2.7980    -1.0430 H     1 <1>   0.0800 
 24 H        8.8770     1.7170     1.4200 H     1 <1>   0.4500 
 25 H       10.0690     3.6550     1.0690 H     1 <1>   0.0800 
 26 H        9.9630     3.4410    -0.6750 H     1 <1>   0.0800 
 27 H        9.0950     0.9340    -1.4000 H     1 <1>   0.0800 
 28 H        8.7750    -0.1080    -0.0160 H     1 <1>   0.0800 
 29 H       11.7140     2.0200     1.2530 H     1 <1>   0.0800 
 30 H       12.0170     2.4340    -0.4160 H     1 <1>   0.0800 
 31 H       11.2790     0.3140    -1.0460 H     1 <1>   0.0800 
 32 H       11.0040    -0.0610     0.6380 H     1 <1>   0.0800 
@<TRIPOS>BOND
  1   1   2  1   
  2   2   3  ar  
  3   2   4  ar  
  4   3   5  ar  
  5   3  16  1   
  6   4   6  ar  
  7   4  17  1   
  8   5   7  ar  
  9   5  18  1   
 10   6   7  ar  
 11   6  19  1   
 12   7   8  1   
 13   8   9  1   
 14   9  10  1   
 15   9  20  1   
 16   9  21  1   
 17  10  11  1   
 18  10  22  1   
 19  10  23  1   
 20  11  12  1   
 21  11  13  1   
 22  11  24  1   
 23  12  14  1   
 24  12  25  1   
 25  12  26  1   
 26  13  15  1   
 27  13  27  1   
 28  13  28  1   
 29  14  15  1   
 30  14  29  1   
 31  14  30  1   
 32  15  31  1   
 33  15  32  1   
@<TRIPOS>SUBSTRUCTURE
  1 ****   9 GROUP 4 **** **** 0

# MOE 2024.06 (io_trps.svl 2023.06)
