@<TRIPOS>MOLECULE
NONAME
30 32 1 0 0 
SMALL
USER_CHARGES


@<TRIPOS>ATOM
  1 CL       9.2010    -0.9800    -1.1580 Cl    1 <1>  -0.1770 
  2 C        7.7320    -1.7180    -0.5860 C.ar  1 <1>   0.4870 
  3 N        7.7700    -2.9980    -0.3110 N.ar  1 <1>  -0.6200 
  4 C        6.5850    -0.9380    -0.4440 C.ar  1 <1>   0.2270 
  5 C        6.6160    -3.5270     0.1250 C.ar  1 <1>   0.4700 
  6 N        6.2770     0.3810    -0.6560 N.2   1 <1>  -0.5650 
  7 C        5.4780    -1.6120     0.0120 C.ar  1 <1>   0.1050 
  8 N        5.4630    -2.9200     0.3030 N.ar  1 <1>  -0.5670 
  9 C        5.0330     0.4690    -0.3270 C.2   1 <1>   0.0360 
 10 N        4.4790    -0.7040     0.0860 N.pl3 1 <1>   0.0480 
 11 C        3.1020    -0.9760     0.5410 C.3   1 <1>   0.4560 
 12 O        2.3040     0.1630     0.4000 O.3   1 <1>  -0.5600 
 13 C        2.4150    -2.0720    -0.2870 C.3   1 <1>   0.2000 
 14 C        0.9740    -0.2560     0.3810 C.3   1 <1>   0.2000 
 15 O        2.4720    -3.3140     0.3660 O.3   1 <1>  -0.6800 
 16 C        0.9830    -1.5500    -0.4370 C.3   1 <1>   0.2000 
 17 C        0.0700     0.8310    -0.2100 C.3   1 <1>   0.1200 
 18 O        0.0460    -2.4420     0.0660 O.3   1 <1>  -0.6800 
 19 O       -1.2500     0.3990    -0.1790 O.3   1 <1>  -0.6800 
 20 H        6.6550    -4.5810     0.3520 H     1 <1>   0.1500 
 21 H        4.4550     1.3780    -0.3650 H     1 <1>   0.1500 
 22 H        3.1080    -1.2430     1.5840 H     1 <1>   0.0800 
 23 H        2.8780    -2.1680    -1.2540 H     1 <1>   0.0800 
 24 H        0.6910    -0.4530     1.4030 H     1 <1>   0.0800 
 25 H        3.4110    -3.6110     0.4270 H     1 <1>   0.4000 
 26 H        0.7510    -1.3540    -1.4700 H     1 <1>   0.0800 
 27 H        0.3320     1.0310    -1.2340 H     1 <1>   0.0800 
 28 H        0.1330     1.7380     0.3660 H     1 <1>   0.0800 
 29 H        0.5460    -3.2370     0.3740 H     1 <1>   0.4000 
 30 H       -1.3030    -0.5780    -0.2800 H     1 <1>   0.4000 
@<TRIPOS>BOND
  1   1   2  1   
  2   2   3  ar  
  3   2   4  ar  
  4   3   5  ar  
  5   4   6  1   
  6   4   7  ar  
  7   5   8  ar  
  8   5  20  1   
  9   6   9  2   
 10   7   8  ar  
 11   7  10  1   
 12   9  10  1   
 13   9  21  1   
 14  10  11  1   
 15  11  12  1   
 16  11  13  1   
 17  11  22  1   
 18  12  14  1   
 19  13  15  1   
 20  13  16  1   
 21  13  23  1   
 22  14  16  1   
 23  14  17  1   
 24  14  24  1   
 25  15  25  1   
 26  16  18  1   
 27  16  26  1   
 28  17  19  1   
 29  17  27  1   
 30  17  28  1   
 31  18  29  1   
 32  19  30  1   
@<TRIPOS>SUBSTRUCTURE
  1 ****  10 GROUP 4 **** **** 0

# MOE 2024.06 (io_trps.svl 2023.06)
