@<TRIPOS>MOLECULE
NONAME
37 38 1 0 0 
SMALL
USER_CHARGES


@<TRIPOS>ATOM
  1 F       -3.1420     0.6560    -3.4070 F     1 <1>  -0.1900 
  2 C       -3.1450     1.0430    -2.1610 C.ar  1 <1>   0.1900 
  3 C       -4.1300     0.5580    -1.3210 C.ar  1 <1>  -0.1500 
  4 C       -2.1710     1.9210    -1.7300 C.ar  1 <1>  -0.1500 
  5 C       -4.1460     0.9740     0.0040 C.ar  1 <1>  -0.1440 
  6 C       -2.1860     2.3260    -0.4060 C.ar  1 <1>  -0.1500 
  7 C       -3.1670     1.8540     0.4540 C.ar  1 <1>  -0.1500 
  8 C       -5.2260     0.4790     0.9480 C.3   1 <1>   0.4870 
  9 N       -6.5180     1.0970     0.5590 N.4   1 <1>  -0.9590 
 10 C       -6.5120     2.5990     0.5710 C.3   1 <1>   0.3430 
 11 C       -7.7060     0.5610     1.2970 C.3   1 <1>   0.3430 
 12 C       -7.8620     3.1700     0.0670 C.3   1 <1>   0.1100 
 13 C       -9.0210     1.1190     0.6990 C.3   1 <1>   0.1100 
 14 N       -8.7890     2.1070    -0.3900 N.3   1 <1>  -0.8100 
 15 C      -10.0820     2.6850    -0.8680 C.3   1 <1>   0.1710 
 16 C      -11.0820     1.6540    -1.4070 C.2   1 <1>   0.5690 
 17 O      -11.9030     1.1820    -0.6620 O.2   1 <1>  -0.5700 
 18 N      -11.0350     1.2600    -2.6950 N.am  1 <1>  -0.8000 
 19 H       -4.8560    -0.1300    -1.7170 H     1 <1>   0.1500 
 20 H       -1.4200     2.2740    -2.4150 H     1 <1>   0.1500 
 21 H       -1.4310     3.0060    -0.0480 H     1 <1>   0.1500 
 22 H       -3.1500     2.1820     1.4800 H     1 <1>   0.1500 
 23 H       -4.9770     0.7430     1.9630 H     1 <1>   0.0800 
 24 H       -5.2940    -0.5950     0.8800 H     1 <1>   0.0800 
 25 H       -6.7100     0.8730    -0.4280 H     1 <1>   0.4500 
 26 H       -5.7240     2.9660    -0.0670 H     1 <1>   0.0800 
 27 H       -6.3220     2.9640     1.5660 H     1 <1>   0.0800 
 28 H       -7.6480     0.8330     2.3380 H     1 <1>   0.0800 
 29 H       -7.7270    -0.5150     1.2370 H     1 <1>   0.0800 
 30 H       -7.6670     3.8500    -0.7460 H     1 <1>   0.0800 
 31 H       -8.3200     3.7380     0.8600 H     1 <1>   0.0800 
 32 H       -9.6040     1.5670     1.4870 H     1 <1>   0.0800 
 33 H       -9.5930     0.2900     0.3170 H     1 <1>   0.0800 
 34 H       -9.8830     3.3930    -1.6520 H     1 <1>   0.0800 
 35 H      -10.5590     3.2160    -0.0620 H     1 <1>   0.0800 
 36 H      -11.7120     0.5740    -3.0340 H     1 <1>   0.3700 
 37 H      -10.3340     1.5760    -3.3650 H     1 <1>   0.3700 
@<TRIPOS>BOND
  1   1   2  1   
  2   2   3  ar  
  3   2   4  ar  
  4   3   5  ar  
  5   3  19  1   
  6   4   6  ar  
  7   4  20  1   
  8   5   7  ar  
  9   5   8  1   
 10   6   7  ar  
 11   6  21  1   
 12   7  22  1   
 13   8   9  1   
 14   8  23  1   
 15   8  24  1   
 16   9  10  1   
 17   9  11  1   
 18   9  25  1   
 19  10  12  1   
 20  10  26  1   
 21  10  27  1   
 22  11  13  1   
 23  11  28  1   
 24  11  29  1   
 25  12  14  1   
 26  12  30  1   
 27  12  31  1   
 28  13  14  1   
 29  13  32  1   
 30  13  33  1   
 31  14  15  1   
 32  15  16  1   
 33  15  34  1   
 34  15  35  1   
 35  16  17  2   
 36  16  18  am  
 37  18  36  1   
 38  18  37  1   
@<TRIPOS>SUBSTRUCTURE
  1 ****   9 GROUP 4 **** **** 0

# MOE 2024.06 (io_trps.svl 2023.06)
