@<TRIPOS>MOLECULE
NONAME
40 41 1 0 0 
SMALL
USER_CHARGES


@<TRIPOS>ATOM
  1 BR      -2.2780     1.1320     2.3780 Br    1 <1>  -0.1110 
  2 C       -1.1650     2.1760     1.1990 C.ar  1 <1>   0.1110 
  3 C       -1.5270     2.3290    -0.1310 C.ar  1 <1>  -0.1440 
  4 C       -0.0270     2.7520     1.7310 C.ar  1 <1>  -0.1500 
  5 C       -0.7010     3.0870    -0.9490 C.ar  1 <1>  -0.1500 
  6 C       -2.7870     1.6890    -0.6790 C.3   1 <1>   0.4870 
  7 C        0.7820     3.5090     0.9020 C.ar  1 <1>  -0.1500 
  8 C        0.4450     3.6740    -0.4320 C.ar  1 <1>  -0.1500 
  9 N       -3.9750     2.4010    -0.1340 N.4   1 <1>  -0.9590 
 10 C       -5.2380     1.6740    -0.4790 C.3   1 <1>   0.3430 
 11 C       -4.0080     3.8340    -0.5530 C.3   1 <1>   0.3430 
 12 C       -6.4610     2.3420     0.1590 C.3   1 <1>  -0.0190 
 13 C       -5.1920     4.5370     0.1140 C.3   1 <1>  -0.1600 
 14 C       -7.7070     1.6040    -0.2960 C.2   1 <1>   0.6590 
 15 C       -6.5250     3.8400    -0.2000 C.3   1 <1>  -0.1600 
 16 O       -7.6660     0.8110    -1.2010 O.2   1 <1>  -0.5700 
 17 O       -8.8200     1.8850     0.3610 O.3   1 <1>  -0.4300 
 18 C      -10.0460     1.2720     0.0340 C.3   1 <1>   0.1200 
 19 C      -11.1140     1.8220     0.9740 C.3   1 <1>  -0.2400 
 20 H        0.2250     2.6120     2.7680 H     1 <1>   0.1500 
 21 H       -0.9290     3.2290    -1.9920 H     1 <1>   0.1500 
 22 H       -2.8110     0.6510    -0.3860 H     1 <1>   0.0800 
 23 H       -2.7850     1.7370    -1.7560 H     1 <1>   0.0800 
 24 H        1.6750     3.9680     1.2930 H     1 <1>   0.1500 
 25 H        1.0840     4.2610    -1.0710 H     1 <1>   0.1500 
 26 H       -3.8640     2.3890     0.8900 H     1 <1>   0.4500 
 27 H       -5.1820     0.6510    -0.1440 H     1 <1>   0.0800 
 28 H       -5.3680     1.6640    -1.5500 H     1 <1>   0.0800 
 29 H       -4.1080     3.9000    -1.6250 H     1 <1>   0.0800 
 30 H       -3.0930     4.3280    -0.2670 H     1 <1>   0.0800 
 31 H       -6.3960     2.2320     1.2270 H     1 <1>   0.0800 
 32 H       -5.2350     5.5550    -0.2350 H     1 <1>   0.0800 
 33 H       -5.0340     4.5710     1.1780 H     1 <1>   0.0800 
 34 H       -7.3210     4.3130     0.3510 H     1 <1>   0.0800 
 35 H       -6.7460     3.9490    -1.2500 H     1 <1>   0.0800 
 36 H       -9.9400     0.2060     0.1520 H     1 <1>   0.0800 
 37 H      -10.2810     1.5000    -0.9920 H     1 <1>   0.0800 
 38 H      -10.8650     1.5950     1.9950 H     1 <1>   0.0800 
 39 H      -12.0630     1.3710     0.7470 H     1 <1>   0.0800 
 40 H      -11.2050     2.8870     0.8520 H     1 <1>   0.0800 
@<TRIPOS>BOND
  1   1   2  1   
  2   2   3  ar  
  3   2   4  ar  
  4   3   5  ar  
  5   3   6  1   
  6   4   7  ar  
  7   4  20  1   
  8   5   8  ar  
  9   5  21  1   
 10   6   9  1   
 11   6  22  1   
 12   6  23  1   
 13   7   8  ar  
 14   7  24  1   
 15   8  25  1   
 16   9  10  1   
 17   9  11  1   
 18   9  26  1   
 19  10  12  1   
 20  10  27  1   
 21  10  28  1   
 22  11  13  1   
 23  11  29  1   
 24  11  30  1   
 25  12  14  1   
 26  12  15  1   
 27  12  31  1   
 28  13  15  1   
 29  13  32  1   
 30  13  33  1   
 31  14  16  2   
 32  14  17  1   
 33  15  34  1   
 34  15  35  1   
 35  17  18  1   
 36  18  19  1   
 37  18  36  1   
 38  18  37  1   
 39  19  38  1   
 40  19  39  1   
 41  19  40  1   
@<TRIPOS>SUBSTRUCTURE
  1 ****   9 GROUP 4 **** **** 0

# MOE 2024.06 (io_trps.svl 2023.06)
