@<TRIPOS>MOLECULE
NONAME
35 35 1 0 0 
SMALL
USER_CHARGES


@<TRIPOS>ATOM
  1 S       -5.3160    -2.5350     1.1020 S.3   1 <1>  -0.3320 
  2 C       -3.6330    -2.6440     0.4730 C.ar  1 <1>   0.1020 
  3 C       -6.1360    -4.1490     0.7350 C.3   1 <1>  -0.0100 
  4 C       -3.1330    -3.7960    -0.1120 C.ar  1 <1>  -0.1500 
  5 C       -2.8450    -1.5150     0.5970 C.ar  1 <1>  -0.1500 
  6 C       -1.8270    -3.8130    -0.5710 C.ar  1 <1>  -0.1500 
  7 C       -1.5410    -1.5340     0.1360 C.ar  1 <1>  -0.1500 
  8 C       -1.0250    -2.6850    -0.4450 C.ar  1 <1>  -0.1430 
  9 C        0.4060    -2.7110    -0.9270 C.3   1 <1>   0.4860 
 10 N        1.2240    -3.1230     0.2350 N.4   1 <1>  -0.9060 
 11 C        2.6790    -3.2390     0.0440 C.3   1 <1>   0.5030 
 12 C        3.0210    -4.2680    -1.0750 C.3   1 <1>   0.1200 
 13 C        3.2360    -1.8500    -0.2830 C.3   1 <1>  -0.2400 
 14 C        3.2250    -3.7010     1.3970 C.3   1 <1>  -0.2400 
 15 O        4.3900    -4.4970    -1.1790 O.3   1 <1>  -0.6800 
 16 H       -7.1500    -4.0830     1.0870 H     1 <1>   0.0800 
 17 H       -5.6020    -4.9220     1.2570 H     1 <1>   0.0800 
 18 H       -6.1130    -4.3000    -0.3290 H     1 <1>   0.0800 
 19 H       -3.7440    -4.6720    -0.2140 H     1 <1>   0.1500 
 20 H       -3.2600    -0.6310     1.0500 H     1 <1>   0.1500 
 21 H       -1.4550    -4.7150    -1.0280 H     1 <1>   0.1500 
 22 H       -0.9470    -0.6400     0.2370 H     1 <1>   0.1500 
 23 H        0.6960    -1.7310    -1.2710 H     1 <1>   0.0800 
 24 H        0.5080    -3.4140    -1.7380 H     1 <1>   0.0800 
 25 H        0.8570    -4.0150     0.5800 H     1 <1>   0.4500 
 26 H        1.0470    -2.4540     0.9910 H     1 <1>   0.4500 
 27 H        2.6760    -3.9350    -2.0380 H     1 <1>   0.0800 
 28 H        2.5680    -5.2180    -0.8470 H     1 <1>   0.0800 
 29 H        4.3120    -1.8850    -0.2950 H     1 <1>   0.0800 
 30 H        2.9170    -1.5120    -1.2520 H     1 <1>   0.0800 
 31 H        2.9460    -1.1290     0.4610 H     1 <1>   0.0800 
 32 H        2.8570    -4.6800     1.6480 H     1 <1>   0.0800 
 33 H        2.9710    -3.0110     2.1820 H     1 <1>   0.0800 
 34 H        4.2990    -3.7640     1.3580 H     1 <1>   0.0800 
 35 H        4.8450    -3.8440    -1.7510 H     1 <1>   0.4000 
@<TRIPOS>BOND
  1   1   2  1   
  2   1   3  1   
  3   2   4  ar  
  4   2   5  ar  
  5   3  16  1   
  6   3  17  1   
  7   3  18  1   
  8   4   6  ar  
  9   4  19  1   
 10   5   7  ar  
 11   5  20  1   
 12   6   8  ar  
 13   6  21  1   
 14   7   8  ar  
 15   7  22  1   
 16   8   9  1   
 17   9  10  1   
 18   9  23  1   
 19   9  24  1   
 20  10  11  1   
 21  10  25  1   
 22  10  26  1   
 23  11  12  1   
 24  11  13  1   
 25  11  14  1   
 26  12  15  1   
 27  12  27  1   
 28  12  28  1   
 29  13  29  1   
 30  13  30  1   
 31  13  31  1   
 32  14  32  1   
 33  14  33  1   
 34  14  34  1   
 35  15  35  1   
@<TRIPOS>SUBSTRUCTURE
  1 ****   8 GROUP 4 **** **** 0

# MOE 2024.06 (io_trps.svl 2023.06)
