@<TRIPOS>MOLECULE
NONAME
34 35 1 0 0 
SMALL
USER_CHARGES


@<TRIPOS>ATOM
  1 O        1.0880    -1.4490    -1.4120 O.3   1 <1>  -0.5600 
  2 C        1.7570    -0.2150    -1.4260 C.3   1 <1>   0.1200 
  3 C        0.4290    -1.7350    -0.2090 C.3   1 <1>   0.1200 
  4 C        2.7240    -0.0750    -0.2260 C.3   1 <1>   0.3430 
  5 C        1.4330    -1.8230     0.9640 C.3   1 <1>   0.3430 
  6 N        2.7990    -1.3530     0.5600 N.4   1 <1>  -0.9590 
  7 C        3.7770    -1.3140     1.6800 C.3   1 <1>   0.4860 
  8 C        5.1390    -0.9470     1.1240 C.ar  1 <1>  -0.1440 
  9 C        5.7980    -1.8190     0.2690 C.ar  1 <1>  -0.1500 
 10 C        5.7350     0.2610     1.4510 C.ar  1 <1>  -0.1500 
 11 C        7.0280    -1.5010    -0.2810 C.ar  1 <1>   0.0820 
 12 C        6.9670     0.5950     0.9170 C.ar  1 <1>  -0.1500 
 13 O        7.5290    -2.4620    -1.1090 O.3   1 <1>  -0.3630 
 14 C        7.6180    -0.2700     0.0510 C.ar  1 <1>   0.0820 
 15 C        8.8350    -2.4190    -1.6390 C.3   1 <1>   0.0400 
 16 O        8.8080     0.1400    -0.4380 O.3   1 <1>  -0.5320 
 17 H        1.0250     0.5750    -1.4190 H     1 <1>   0.0800 
 18 H        2.3060    -0.1540    -2.3500 H     1 <1>   0.0800 
 19 H       -0.0870    -2.6730    -0.3290 H     1 <1>   0.0800 
 20 H       -0.3050    -0.9690    -0.0290 H     1 <1>   0.0800 
 21 H        2.3840     0.7270     0.4070 H     1 <1>   0.0800 
 22 H        3.7000     0.1950    -0.5960 H     1 <1>   0.0800 
 23 H        1.4830    -2.8450     1.3020 H     1 <1>   0.0800 
 24 H        1.0610    -1.2290     1.7830 H     1 <1>   0.0800 
 25 H        3.1390    -2.0430    -0.1270 H     1 <1>   0.4500 
 26 H        3.8350    -2.2790     2.1570 H     1 <1>   0.0800 
 27 H        3.4730    -0.5860     2.4140 H     1 <1>   0.0800 
 28 H        5.3700    -2.7710     0.0080 H     1 <1>   0.1500 
 29 H        5.2540     0.9540     2.1220 H     1 <1>   0.1500 
 30 H        7.4180     1.5350     1.1800 H     1 <1>   0.1500 
 31 H        9.0100    -3.3340    -2.1750 H     1 <1>   0.0800 
 32 H        9.5380    -2.3280    -0.8300 H     1 <1>   0.0800 
 33 H        8.9120    -1.5820    -2.3100 H     1 <1>   0.0800 
 34 H        9.0890     1.0080    -0.0970 H     1 <1>   0.4500 
@<TRIPOS>BOND
  1   1   2  1   
  2   1   3  1   
  3   2   4  1   
  4   2  17  1   
  5   2  18  1   
  6   3   5  1   
  7   3  19  1   
  8   3  20  1   
  9   4   6  1   
 10   4  21  1   
 11   4  22  1   
 12   5   6  1   
 13   5  23  1   
 14   5  24  1   
 15   6   7  1   
 16   6  25  1   
 17   7   8  1   
 18   7  26  1   
 19   7  27  1   
 20   8   9  ar  
 21   8  10  ar  
 22   9  11  ar  
 23   9  28  1   
 24  10  12  ar  
 25  10  29  1   
 26  11  13  1   
 27  11  14  ar  
 28  12  14  ar  
 29  12  30  1   
 30  13  15  1   
 31  14  16  1   
 32  15  31  1   
 33  15  32  1   
 34  15  33  1   
 35  16  34  1   
@<TRIPOS>SUBSTRUCTURE
  1 ****   8 GROUP 4 **** **** 0

# MOE 2024.06 (io_trps.svl 2023.06)
