@<TRIPOS>MOLECULE
NONAME
62 65 1 0 0 
SMALL
USER_CHARGES


@<TRIPOS>ATOM
  1 S       -0.0100     0.2840     1.8710 S.o2  1 <1>   1.4470 
  2 O       -0.8730    -0.1440     2.9460 O.2   1 <1>  -0.6500 
  3 O        1.1130     1.1540     2.1500 O.2   1 <1>  -0.6500 
  4 N        0.7420    -1.1660     1.2840 N.am  1 <1>  -0.6930 
  5 C       -0.9350     0.8890     0.4340 C.ar  1 <1>  -0.0090 
  6 C       -0.0290    -2.1820     0.7330 C.ar  1 <1>   0.1990 
  7 C        1.9760    -1.5540     2.0090 C.3   1 <1>   0.1960 
  8 C       -0.4440     1.9220    -0.3560 C.ar  1 <1>  -0.1500 
  9 C       -2.1420     0.3080     0.0630 C.ar  1 <1>  -0.1500 
 10 C       -0.1040    -2.3360    -0.6790 C.ar  1 <1>   0.0000 
 11 C       -0.6970    -3.0570     1.5580 C.ar  1 <1>  -0.1500 
 12 C        3.2070    -1.0500     1.2430 C.3   1 <1>   0.2000 
 13 C       -1.1270     2.3540    -1.4790 C.ar  1 <1>  -0.1500 
 14 C       -2.8280     0.7340    -1.0600 C.ar  1 <1>  -0.1500 
 15 C       -0.8060    -3.4460    -1.2020 C.ar  1 <1>   0.0000 
 16 C        0.4810    -1.4340    -1.5970 C.ar  1 <1>  -0.1500 
 17 C       -1.4130    -4.1330     1.0360 C.ar  1 <1>  -0.1500 
 18 O        3.2710    -1.6890     0.0000 O.3   1 <1>  -0.6800 
 19 C        4.5220    -1.3060     2.0030 C.3   1 <1>   0.3430 
 20 C       -2.3230     1.7600    -1.8380 C.ar  1 <1>  -0.1430 
 21 C       -1.4570    -4.3260    -0.3170 C.ar  1 <1>  -0.1500 
 22 C       -0.8460    -3.6370    -2.5980 C.ar  1 <1>  -0.1500 
 23 C        0.4170    -1.6380    -2.9480 C.ar  1 <1>  -0.1500 
 24 N        5.6760    -1.2630     1.0550 N.4   1 <1>  -0.9590 
 25 C       -3.0770     2.2200    -3.0730 C.3   1 <1>  -0.0970 
 26 C       -0.2470    -2.7570    -3.4540 C.ar  1 <1>  -0.1500 
 27 C        6.8220    -2.1000     1.5020 C.3   1 <1>   0.3430 
 28 C        6.0730     0.1290     0.7010 C.3   1 <1>   0.3430 
 29 C        7.8710    -2.1670     0.3910 C.3   1 <1>  -0.1600 
 30 C        7.1080     0.0940    -0.4240 C.3   1 <1>  -0.1600 
 31 C        8.3220    -0.7690    -0.0550 C.3   1 <1>  -0.1600 
 32 H        2.0260    -2.6250     2.1120 H     1 <1>   0.0800 
 33 H        1.9580    -1.1300     3.0000 H     1 <1>   0.0800 
 34 H        0.4850     2.3990    -0.0920 H     1 <1>   0.1500 
 35 H       -2.5500    -0.4940     0.6560 H     1 <1>   0.1500 
 36 H       -0.6740    -2.9200     2.6250 H     1 <1>   0.1500 
 37 H        3.1040     0.0060     1.0640 H     1 <1>   0.0800 
 38 H       -0.7220     3.1560    -2.0730 H     1 <1>   0.1500 
 39 H       -3.7570     0.2600    -1.3270 H     1 <1>   0.1500 
 40 H        0.9780    -0.5550    -1.2310 H     1 <1>   0.1500 
 41 H       -1.9230    -4.8030     1.7070 H     1 <1>   0.1500 
 42 H        2.3610    -1.7640    -0.3740 H     1 <1>   0.4000 
 43 H        4.4650    -2.2840     2.4510 H     1 <1>   0.0800 
 44 H        4.6460    -0.5830     2.7930 H     1 <1>   0.0800 
 45 H       -1.9990    -5.1600    -0.7270 H     1 <1>   0.1500 
 46 H       -1.3660    -4.4960    -2.9830 H     1 <1>   0.1500 
 47 H        0.8670    -0.9420    -3.6360 H     1 <1>   0.1500 
 48 H        5.2850    -1.6840     0.1900 H     1 <1>   0.4500 
 49 H       -2.8720     1.5550    -3.8930 H     1 <1>   0.0800 
 50 H       -2.7800     3.2150    -3.3520 H     1 <1>   0.0800 
 51 H       -4.1350     2.2220    -2.8840 H     1 <1>   0.0800 
 52 H       -0.2840    -2.9080    -4.5200 H     1 <1>   0.1500 
 53 H        6.4850    -3.0970     1.7360 H     1 <1>   0.0800 
 54 H        7.2630    -1.6710     2.3880 H     1 <1>   0.0800 
 55 H        6.4940     0.6200     1.5630 H     1 <1>   0.0800 
 56 H        5.2110     0.6880     0.3740 H     1 <1>   0.0800 
 57 H        7.4650    -2.7050    -0.4480 H     1 <1>   0.0800 
 58 H        8.7230    -2.7200     0.7440 H     1 <1>   0.0800 
 59 H        7.4350     1.0980    -0.6340 H     1 <1>   0.0800 
 60 H        6.6460    -0.2870    -1.3190 H     1 <1>   0.0800 
 61 H        8.9820    -0.8520    -0.9020 H     1 <1>   0.0800 
 62 H        8.8700    -0.2960     0.7430 H     1 <1>   0.0800 
@<TRIPOS>BOND
  1   1   2  2   
  2   1   3  2   
  3   1   4  am  
  4   1   5  1   
  5   4   6  1   
  6   4   7  1   
  7   5   8  ar  
  8   5   9  ar  
  9   6  10  ar  
 10   6  11  ar  
 11   7  12  1   
 12   7  32  1   
 13   7  33  1   
 14   8  13  ar  
 15   8  34  1   
 16   9  14  ar  
 17   9  35  1   
 18  10  15  ar  
 19  10  16  ar  
 20  11  17  ar  
 21  11  36  1   
 22  12  18  1   
 23  12  19  1   
 24  12  37  1   
 25  13  20  ar  
 26  13  38  1   
 27  14  20  ar  
 28  14  39  1   
 29  15  21  ar  
 30  15  22  ar  
 31  16  23  ar  
 32  16  40  1   
 33  17  21  ar  
 34  17  41  1   
 35  18  42  1   
 36  19  24  1   
 37  19  43  1   
 38  19  44  1   
 39  20  25  1   
 40  21  45  1   
 41  22  26  ar  
 42  22  46  1   
 43  23  26  ar  
 44  23  47  1   
 45  24  27  1   
 46  24  28  1   
 47  24  48  1   
 48  25  49  1   
 49  25  50  1   
 50  25  51  1   
 51  26  52  1   
 52  27  29  1   
 53  27  53  1   
 54  27  54  1   
 55  28  30  1   
 56  28  55  1   
 57  28  56  1   
 58  29  31  1   
 59  29  57  1   
 60  29  58  1   
 61  30  31  1   
 62  30  59  1   
 63  30  60  1   
 64  31  61  1   
 65  31  62  1   
@<TRIPOS>SUBSTRUCTURE
  1 ****   4 GROUP 4 **** **** 0

# MOE 2024.06 (io_trps.svl 2023.06)
