@<TRIPOS>MOLECULE
NONAME
40 41 1 0 0 
SMALL
USER_CHARGES


@<TRIPOS>ATOM
  1 BR      -0.4850    -0.2080     1.2500 Br    1 <1>  -0.1110 
  2 C        0.5840    -1.6860     0.6190 C.ar  1 <1>   0.1110 
  3 C       -0.0330    -2.8790     0.2650 C.ar  1 <1>   0.0820 
  4 C        1.9520    -1.5030     0.5390 C.ar  1 <1>  -0.1500 
  5 O       -1.3860    -2.9680     0.3760 O.3   1 <1>  -0.3630 
  6 C        0.7760    -3.9200    -0.1850 C.ar  1 <1>  -0.1500 
  7 C        2.7450    -2.5460     0.0870 C.ar  1 <1>  -0.1430 
  8 C       -2.0810    -4.1300    -0.0070 C.3   1 <1>   0.1200 
  9 C        2.1490    -3.7480    -0.2700 C.ar  1 <1>  -0.1500 
 10 C        4.2500    -2.3800    -0.0130 C.3   1 <1>  -0.0960 
 11 C       -3.5700    -3.8790     0.2250 C.3   1 <1>  -0.1600 
 12 C       -4.4070    -5.0730    -0.2420 C.3   1 <1>   0.1100 
 13 N       -5.8120    -4.9240     0.1770 N.3   1 <1>  -0.8100 
 14 C       -6.5320    -3.8760    -0.5810 C.3   1 <1>   0.1100 
 15 C       -6.5220    -6.2170     0.1270 C.3   1 <1>   0.1100 
 16 C       -7.9770    -3.7110    -0.0690 C.3   1 <1>   0.3430 
 17 C       -7.9660    -6.0830     0.6510 C.3   1 <1>   0.3430 
 18 N       -8.7210    -5.0140    -0.0830 N.4   1 <1>  -0.9060 
 19 H        2.3810    -0.5600     0.8260 H     1 <1>   0.1500 
 20 H        0.3610    -4.8670    -0.4710 H     1 <1>   0.1500 
 21 H       -1.7310    -4.9500     0.5950 H     1 <1>   0.0800 
 22 H       -1.8800    -4.3140    -1.0490 H     1 <1>   0.0800 
 23 H        2.7600    -4.5630    -0.6190 H     1 <1>   0.1500 
 24 H        4.5130    -1.3410    -0.0940 H     1 <1>   0.0800 
 25 H        4.6260    -2.8930    -0.8800 H     1 <1>   0.0800 
 26 H        4.7200    -2.7890     0.8640 H     1 <1>   0.0800 
 27 H       -3.8480    -2.9950    -0.3180 H     1 <1>   0.0800 
 28 H       -3.7320    -3.7200     1.2770 H     1 <1>   0.0800 
 29 H       -3.9990    -5.9620     0.2110 H     1 <1>   0.0800 
 30 H       -4.3420    -5.1820    -1.3120 H     1 <1>   0.0800 
 31 H       -6.5380    -4.1160    -1.6310 H     1 <1>   0.0800 
 32 H       -6.0300    -2.9320    -0.4620 H     1 <1>   0.0800 
 33 H       -6.0000    -6.9310     0.7440 H     1 <1>   0.0800 
 34 H       -6.5310    -6.5960    -0.8810 H     1 <1>   0.0800 
 35 H       -8.4900    -2.9840    -0.6770 H     1 <1>   0.0800 
 36 H       -7.9330    -3.3300     0.9380 H     1 <1>   0.0800 
 37 H       -7.9210    -5.8380     1.7000 H     1 <1>   0.0800 
 38 H       -8.4720    -7.0290     0.5520 H     1 <1>   0.0800 
 39 H       -8.8520    -5.3100    -1.0570 H     1 <1>   0.4500 
 40 H       -9.6500    -4.8910     0.3350 H     1 <1>   0.4500 
@<TRIPOS>BOND
  1   1   2  1   
  2   2   3  ar  
  3   2   4  ar  
  4   3   5  1   
  5   3   6  ar  
  6   4   7  ar  
  7   4  19  1   
  8   5   8  1   
  9   6   9  ar  
 10   6  20  1   
 11   7   9  ar  
 12   7  10  1   
 13   8  11  1   
 14   8  21  1   
 15   8  22  1   
 16   9  23  1   
 17  10  24  1   
 18  10  25  1   
 19  10  26  1   
 20  11  12  1   
 21  11  27  1   
 22  11  28  1   
 23  12  13  1   
 24  12  29  1   
 25  12  30  1   
 26  13  14  1   
 27  13  15  1   
 28  14  16  1   
 29  14  31  1   
 30  14  32  1   
 31  15  17  1   
 32  15  33  1   
 33  15  34  1   
 34  16  18  1   
 35  16  35  1   
 36  16  36  1   
 37  17  18  1   
 38  17  37  1   
 39  17  38  1   
 40  18  39  1   
 41  18  40  1   
@<TRIPOS>SUBSTRUCTURE
  1 ****   8 GROUP 4 **** **** 0

# MOE 2024.06 (io_trps.svl 2023.06)
