@<TRIPOS>MOLECULE
NONAME
32 33 1 0 0 
SMALL
USER_CHARGES


@<TRIPOS>ATOM
  1 S       -2.3440     0.5840    -2.0650 S.3   1 <1>  -0.4600 
  2 C       -0.5420     0.6110    -1.9020 C.3   1 <1>   0.0700 
  3 C       -2.7240     1.8670    -0.8490 C.3   1 <1>   0.0700 
  4 C       -0.2600     1.8460    -1.0400 C.3   1 <1>   0.2000 
  5 C       -1.4260     2.0180    -0.0520 C.3   1 <1>   0.2200 
  6 O        0.9570     1.6960    -0.3300 O.3   1 <1>  -0.4300 
  7 N       -1.3770     3.3240     0.6530 N.am  1 <1>  -0.7300 
  8 C        2.1460     1.8440    -0.9200 C.2   1 <1>   0.6340 
  9 C       -2.1460     3.7010     1.6860 C.2   1 <1>   0.6900 
 10 O        2.1750     2.0830    -2.1090 O.2   1 <1>  -0.5700 
 11 C        3.3390     1.7060    -0.1030 C.ar  1 <1>   0.0860 
 12 O       -2.3320     4.8760     1.8940 O.2   1 <1>  -0.5700 
 13 N       -2.7080     2.7930     2.4870 N.am  1 <1>  -0.8000 
 14 C        4.6110     1.7560    -0.6790 C.ar  1 <1>  -0.1500 
 15 C        3.2750     1.5190     1.2810 C.ar  1 <1>  -0.1500 
 16 C        5.7580     1.6230     0.0820 C.ar  1 <1>  -0.1500 
 17 C        4.4190     1.3860     2.0470 C.ar  1 <1>  -0.1500 
 18 C        5.6640     1.4370     1.4490 C.ar  1 <1>  -0.1500 
 19 H       -0.2550    -0.3010    -1.4110 H     1 <1>   0.0800 
 20 H       -0.1120     0.6860    -2.8850 H     1 <1>   0.0800 
 21 H       -2.9700     2.7590    -1.3970 H     1 <1>   0.0800 
 22 H       -3.5500     1.5340    -0.2460 H     1 <1>   0.0800 
 23 H       -0.1940     2.7160    -1.6710 H     1 <1>   0.0800 
 24 H       -1.3800     1.2190     0.6670 H     1 <1>   0.0800 
 25 H       -0.9920     4.1080     0.1250 H     1 <1>   0.3700 
 26 H       -3.1940     3.1480     3.3090 H     1 <1>   0.3700 
 27 H       -2.3180     1.8590     2.5650 H     1 <1>   0.3700 
 28 H        4.6990     1.9020    -1.7420 H     1 <1>   0.1500 
 29 H        2.3160     1.4800     1.7680 H     1 <1>   0.1500 
 30 H        6.7260     1.6650    -0.3890 H     1 <1>   0.1500 
 31 H        4.3420     1.2430     3.1120 H     1 <1>   0.1500 
 32 H        6.5560     1.3330     2.0430 H     1 <1>   0.1500 
@<TRIPOS>BOND
  1   1   2  1   
  2   1   3  1   
  3   2   4  1   
  4   2  19  1   
  5   2  20  1   
  6   3   5  1   
  7   3  21  1   
  8   3  22  1   
  9   4   5  1   
 10   4   6  1   
 11   4  23  1   
 12   5   7  1   
 13   5  24  1   
 14   6   8  1   
 15   7   9  am  
 16   7  25  1   
 17   8  10  2   
 18   8  11  1   
 19   9  12  2   
 20   9  13  am  
 21  11  14  ar  
 22  11  15  ar  
 23  13  26  1   
 24  13  27  1   
 25  14  16  ar  
 26  14  28  1   
 27  15  17  ar  
 28  15  29  1   
 29  16  18  ar  
 30  16  30  1   
 31  17  18  ar  
 32  17  31  1   
 33  18  32  1   
@<TRIPOS>SUBSTRUCTURE
  1 ****   6 GROUP 4 **** **** 0

# MOE 2024.06 (io_trps.svl 2023.06)
