@<TRIPOS>MOLECULE
NONAME
49 51 1 0 0 
SMALL
USER_CHARGES


@<TRIPOS>ATOM
  1 O        0.3600     1.0350    -2.0750 O.2   1 <1>  -0.5700 
  2 C        0.7690     1.8050    -1.2410 C.2   1 <1>   0.5690 
  3 N        0.0210     2.5790    -0.4260 N.am  1 <1>  -0.6600 
  4 C        2.2340     2.0140    -0.9840 C.3   1 <1>  -0.0990 
  5 C       -1.4590     2.6560    -0.4610 C.3   1 <1>   0.2200 
  6 C        0.8530     3.4010     0.4760 C.3   1 <1>   0.1400 
  7 C        2.2490     2.7640     0.3630 C.3   1 <1>  -0.0190 
  8 C       -1.9210     4.0980    -0.7130 C.3   1 <1>  -0.1600 
  9 C       -2.0530     2.0990     0.8390 C.3   1 <1>  -0.1600 
 10 C        3.3870     3.7620     0.5270 C.2   1 <1>   0.5690 
 11 C       -3.4550     4.1870    -0.7310 C.3   1 <1>  -0.1600 
 12 C       -3.5860     2.1860     0.8240 C.3   1 <1>  -0.1600 
 13 O        3.1550     4.8210     1.0540 O.2   1 <1>  -0.5700 
 14 N        4.6300     3.3840     0.0960 N.am  1 <1>  -0.5470 
 15 C       -4.0580     3.6240     0.5640 C.3   1 <1>  -0.1600 
 16 C        5.8660     4.0540     0.0930 C.ar  1 <1>   0.1170 
 17 C        7.0470     3.3130    -0.0030 C.ar  1 <1>  -0.1440 
 18 C        5.9560     5.4410     0.1620 C.ar  1 <1>  -0.1500 
 19 C        8.2720     3.9630    -0.0230 C.ar  1 <1>  -0.1500 
 20 C        7.0270     1.7910    -0.0840 C.3   1 <1>  -0.0970 
 21 C        7.1810     6.0790     0.1440 C.ar  1 <1>  -0.1500 
 22 C        8.3480     5.3430     0.0520 C.ar  1 <1>  -0.1440 
 23 C        9.6970     6.0390     0.0310 C.3   1 <1>  -0.0970 
 24 H        2.6300     2.6170    -1.7800 H     1 <1>   0.0800 
 25 H        2.7480     1.0720    -0.9330 H     1 <1>   0.0800 
 26 H       -1.8110     2.0460    -1.2770 H     1 <1>   0.0800 
 27 H        0.4930     3.3710     1.4890 H     1 <1>   0.0800 
 28 H        0.8590     4.4180     0.1210 H     1 <1>   0.0800 
 29 H        2.3310     2.0430     1.1560 H     1 <1>   0.0800 
 30 H       -1.5330     4.4350    -1.6570 H     1 <1>   0.0800 
 31 H       -1.5500     4.7430     0.0630 H     1 <1>   0.0800 
 32 H       -1.6840     2.6570     1.6790 H     1 <1>   0.0800 
 33 H       -1.7560     1.0710     0.9510 H     1 <1>   0.0800 
 34 H       -3.8330     3.6300    -1.5720 H     1 <1>   0.0800 
 35 H       -3.7550     5.2130    -0.8540 H     1 <1>   0.0800 
 36 H       -3.9770     1.8420     1.7660 H     1 <1>   0.0800 
 37 H       -3.9710     1.5400     0.0530 H     1 <1>   0.0800 
 38 H        4.6960     2.4310    -0.2500 H     1 <1>   0.3700 
 39 H       -5.1320     3.6430     0.4980 H     1 <1>   0.0800 
 40 H       -3.7680     4.2480     1.3920 H     1 <1>   0.0800 
 41 H        5.0660     6.0370     0.2270 H     1 <1>   0.1500 
 42 H        9.1820     3.3940    -0.0970 H     1 <1>   0.1500 
 43 H        6.5460     1.4750    -0.9920 H     1 <1>   0.0800 
 44 H        6.5020     1.3830     0.7610 H     1 <1>   0.0800 
 45 H        8.0260     1.3930    -0.0780 H     1 <1>   0.0800 
 46 H        7.2190     7.1530     0.2000 H     1 <1>   0.1500 
 47 H       10.4370     5.4380     0.5270 H     1 <1>   0.0800 
 48 H        9.6390     6.9880     0.5330 H     1 <1>   0.0800 
 49 H       10.0050     6.2020    -0.9860 H     1 <1>   0.0800 
@<TRIPOS>BOND
  1   1   2  2   
  2   2   3  am  
  3   2   4  1   
  4   3   5  1   
  5   3   6  1   
  6   4   7  1   
  7   4  24  1   
  8   4  25  1   
  9   5   8  1   
 10   5   9  1   
 11   5  26  1   
 12   6   7  1   
 13   6  27  1   
 14   6  28  1   
 15   7  10  1   
 16   7  29  1   
 17   8  11  1   
 18   8  30  1   
 19   8  31  1   
 20   9  12  1   
 21   9  32  1   
 22   9  33  1   
 23  10  13  2   
 24  10  14  am  
 25  11  15  1   
 26  11  34  1   
 27  11  35  1   
 28  12  15  1   
 29  12  36  1   
 30  12  37  1   
 31  14  16  1   
 32  14  38  1   
 33  15  39  1   
 34  15  40  1   
 35  16  17  ar  
 36  16  18  ar  
 37  17  19  ar  
 38  17  20  1   
 39  18  21  ar  
 40  18  41  1   
 41  19  22  ar  
 42  19  42  1   
 43  20  43  1   
 44  20  44  1   
 45  20  45  1   
 46  21  22  ar  
 47  21  46  1   
 48  22  23  1   
 49  23  47  1   
 50  23  48  1   
 51  23  49  1   
@<TRIPOS>SUBSTRUCTURE
  1 ****   7 GROUP 4 **** **** 0

# MOE 2024.06 (io_trps.svl 2023.06)
