@<TRIPOS>MOLECULE
NONAME
47 48 1 0 0 
SMALL
USER_CHARGES


@<TRIPOS>ATOM
  1 S       -0.2970    -0.0930    -1.1260 S.o2  1 <1>   1.3330 
  2 O        1.0110    -0.6920    -1.2440 O.2   1 <1>  -0.6500 
  3 O       -0.9190     0.5580    -2.2520 O.2   1 <1>  -0.6500 
  4 N       -1.3660    -1.3270    -0.5330 N.am  1 <1>  -0.6930 
  5 C       -0.2590     1.0350     0.2490 C.3   1 <1>  -0.1350 
  6 C       -2.7220    -1.1210    -0.3310 C.ar  1 <1>   0.1990 
  7 C       -0.7730    -2.6570    -0.2520 C.3   1 <1>   0.1160 
  8 C       -3.2870    -1.3310     0.9220 C.ar  1 <1>  -0.1500 
  9 C       -3.5600    -0.7090    -1.3610 C.ar  1 <1>  -0.1500 
 10 C       -4.6350    -1.1240     1.1410 C.ar  1 <1>  -0.1500 
 11 C       -4.9070    -0.5000    -1.1410 C.ar  1 <1>  -0.1500 
 12 C       -5.4830    -0.6920     0.1170 C.ar  1 <1>   0.0860 
 13 C       -6.8960    -0.4500     0.3330 C.2   1 <1>   0.5440 
 14 O       -7.6980    -0.5350    -0.5770 O.2   1 <1>  -0.5700 
 15 N       -7.3800    -0.0930     1.5640 N.am  1 <1>  -0.7300 
 16 C       -8.8190     0.0500     1.9100 C.3   1 <1>   0.1400 
 17 C       -9.4870     1.1790     1.0940 C.3   1 <1>   0.3430 
 18 N      -10.7770     0.7600     0.4490 N.4   1 <1>  -0.9590 
 19 C      -10.5230    -0.1840    -0.7010 C.3   1 <1>   0.3430 
 20 C      -11.5400     1.9540    -0.0520 C.3   1 <1>   0.3430 
 21 C      -11.8190    -0.5180    -1.4630 C.3   1 <1>   0.1200 
 22 C      -12.8060     1.5310    -0.8220 C.3   1 <1>   0.1200 
 23 O      -12.4730     0.6550    -1.8590 O.3   1 <1>  -0.5600 
 24 H        0.3940     1.8560     0.0300 H     1 <1>   0.0800 
 25 H        0.0960     0.5350     1.1280 H     1 <1>   0.0800 
 26 H       -1.2420     1.4180     0.4380 H     1 <1>   0.0800 
 27 H       -0.2850    -3.0270    -1.1380 H     1 <1>   0.0800 
 28 H       -1.5360    -3.3580     0.0390 H     1 <1>   0.0800 
 29 H       -0.0450    -2.5740     0.5360 H     1 <1>   0.0800 
 30 H       -2.6560    -1.6600     1.7270 H     1 <1>   0.1500 
 31 H       -3.1500    -0.5580    -2.3440 H     1 <1>   0.1500 
 32 H       -5.0330    -1.3090     2.1220 H     1 <1>   0.1500 
 33 H       -5.5290    -0.1820    -1.9600 H     1 <1>   0.1500 
 34 H       -6.7150     0.0060     2.3370 H     1 <1>   0.3700 
 35 H       -8.9040     0.2720     2.9600 H     1 <1>   0.0800 
 36 H       -9.3060    -0.8910     1.7230 H     1 <1>   0.0800 
 37 H       -8.8000     1.5030     0.3280 H     1 <1>   0.0800 
 38 H       -9.6680     2.0120     1.7520 H     1 <1>   0.0800 
 39 H      -11.3650     0.2720     1.1340 H     1 <1>   0.4500 
 40 H      -10.0730    -1.0960    -0.3430 H     1 <1>   0.0800 
 41 H       -9.8270     0.2630    -1.3930 H     1 <1>   0.0800 
 42 H      -10.9180     2.5320    -0.7160 H     1 <1>   0.0800 
 43 H      -11.8210     2.5870     0.7740 H     1 <1>   0.0800 
 44 H      -12.4890    -1.1000    -0.8560 H     1 <1>   0.0800 
 45 H      -11.5890    -1.0790    -2.3530 H     1 <1>   0.0800 
 46 H      -13.2770     2.3920    -1.2620 H     1 <1>   0.0800 
 47 H      -13.5150     1.0470    -0.1730 H     1 <1>   0.0800 
@<TRIPOS>BOND
  1   1   2  2   
  2   1   3  2   
  3   1   4  am  
  4   1   5  1   
  5   4   6  1   
  6   4   7  1   
  7   5  24  1   
  8   5  25  1   
  9   5  26  1   
 10   6   8  ar  
 11   6   9  ar  
 12   7  27  1   
 13   7  28  1   
 14   7  29  1   
 15   8  10  ar  
 16   8  30  1   
 17   9  11  ar  
 18   9  31  1   
 19  10  12  ar  
 20  10  32  1   
 21  11  12  ar  
 22  11  33  1   
 23  12  13  1   
 24  13  14  2   
 25  13  15  am  
 26  15  16  1   
 27  15  34  1   
 28  16  17  1   
 29  16  35  1   
 30  16  36  1   
 31  17  18  1   
 32  17  37  1   
 33  17  38  1   
 34  18  19  1   
 35  18  20  1   
 36  18  39  1   
 37  19  21  1   
 38  19  40  1   
 39  19  41  1   
 40  20  22  1   
 41  20  42  1   
 42  20  43  1   
 43  21  23  1   
 44  21  44  1   
 45  21  45  1   
 46  22  23  1   
 47  22  46  1   
 48  22  47  1   
@<TRIPOS>SUBSTRUCTURE
  1 ****  12 GROUP 4 **** **** 0

# MOE 2024.06 (io_trps.svl 2023.06)
