@<TRIPOS>MOLECULE
NONAME
47 48 1 0 0 
SMALL
USER_CHARGES


@<TRIPOS>ATOM
  1 S       -0.0400    -0.2690    -0.8710 S.o2  1 <1>   1.4470 
  2 O        0.2560    -0.3800    -2.2840 O.2   1 <1>  -0.6500 
  3 O       -0.1860     1.0410    -0.2760 O.2   1 <1>  -0.6500 
  4 N        1.2360    -1.0300    -0.0560 N.am  1 <1>  -0.8490 
  5 C       -1.4670    -1.3010    -0.4390 C.ar  1 <1>  -0.0090 
  6 C        2.4350    -0.1760    -0.0290 C.3   1 <1>   0.1960 
  7 C        1.5750    -2.3400    -0.6380 C.3   1 <1>   0.1960 
  8 C       -1.8770    -1.4310     0.8820 C.ar  1 <1>  -0.1500 
  9 C       -2.1730    -2.0020    -1.4080 C.ar  1 <1>  -0.1500 
 10 C        3.6080    -0.8500     0.7090 C.3   1 <1>   0.1960 
 11 C        2.7290    -3.0130     0.1270 C.3   1 <1>   0.1960 
 12 C       -2.9500    -2.2350     1.2250 C.ar  1 <1>  -0.1500 
 13 C       -3.2460    -2.8090    -1.0700 C.ar  1 <1>  -0.1500 
 14 N        3.9390    -2.1690     0.1360 N.am  1 <1>  -0.8490 
 15 C       -3.6450    -2.9350     0.2520 C.ar  1 <1>  -0.1430 
 16 S        5.2420    -2.8940     0.9390 S.o2  1 <1>   1.3330 
 17 C       -4.8260    -3.8210     0.6440 C.3   1 <1>   0.0640 
 18 O        4.6980    -3.7600     1.9610 O.2   1 <1>  -0.6500 
 19 O        6.1730    -1.8490     1.3000 O.2   1 <1>  -0.6500 
 20 C        5.9930    -3.8920    -0.3560 C.3   1 <1>  -0.0550 
 21 C       -4.5510    -5.2850     0.2880 C.3   1 <1>  -0.2400 
 22 C       -6.1190    -3.3320    -0.0160 C.3   1 <1>  -0.2400 
 23 C        7.2360    -4.6830     0.0910 C.3   1 <1>  -0.2400 
 24 H        2.2060     0.7510     0.4700 H     1 <1>   0.0800 
 25 H        2.7420     0.0580    -1.0350 H     1 <1>   0.0800 
 26 H        1.8630    -2.2270    -1.6710 H     1 <1>   0.0800 
 27 H        0.7140    -2.9850    -0.6000 H     1 <1>   0.0800 
 28 H       -1.3470    -0.8950     1.6510 H     1 <1>   0.1500 
 29 H       -1.8820    -1.9180    -2.4420 H     1 <1>   0.1500 
 30 H        3.3560    -0.9570     1.7520 H     1 <1>   0.0800 
 31 H        4.4660    -0.2020     0.6420 H     1 <1>   0.0800 
 32 H        2.9520    -3.9590    -0.3360 H     1 <1>   0.0800 
 33 H        2.4040    -3.2060     1.1370 H     1 <1>   0.0800 
 34 H       -3.2410    -2.3110     2.2590 H     1 <1>   0.1500 
 35 H       -3.7700    -3.3390    -1.8460 H     1 <1>   0.1500 
 36 H       -4.9620    -3.7630     1.7110 H     1 <1>   0.0800 
 37 H        6.2720    -3.2480    -1.1670 H     1 <1>   0.0800 
 38 H        5.2660    -4.5860    -0.7290 H     1 <1>   0.0800 
 39 H       -4.4570    -5.4100    -0.7760 H     1 <1>   0.0800 
 40 H       -5.3540    -5.9100     0.6370 H     1 <1>   0.0800 
 41 H       -3.6380    -5.6090     0.7540 H     1 <1>   0.0800 
 42 H       -6.0610    -3.4170    -1.0860 H     1 <1>   0.0800 
 43 H       -6.2910    -2.3010     0.2380 H     1 <1>   0.0800 
 44 H       -6.9550    -3.9140     0.3290 H     1 <1>   0.0800 
 45 H        7.9970    -4.0070     0.4430 H     1 <1>   0.0800 
 46 H        7.6320    -5.2520    -0.7320 H     1 <1>   0.0800 
 47 H        6.9800    -5.3570     0.8900 H     1 <1>   0.0800 
@<TRIPOS>BOND
  1   1   2  2   
  2   1   3  2   
  3   1   4  am  
  4   1   5  1   
  5   4   6  1   
  6   4   7  1   
  7   5   8  ar  
  8   5   9  ar  
  9   6  10  1   
 10   6  24  1   
 11   6  25  1   
 12   7  11  1   
 13   7  26  1   
 14   7  27  1   
 15   8  12  ar  
 16   8  28  1   
 17   9  13  ar  
 18   9  29  1   
 19  10  14  1   
 20  10  30  1   
 21  10  31  1   
 22  11  14  1   
 23  11  32  1   
 24  11  33  1   
 25  12  15  ar  
 26  12  34  1   
 27  13  15  ar  
 28  13  35  1   
 29  14  16  am  
 30  15  17  1   
 31  16  18  2   
 32  16  19  2   
 33  16  20  1   
 34  17  21  1   
 35  17  22  1   
 36  17  36  1   
 37  20  23  1   
 38  20  37  1   
 39  20  38  1   
 40  21  39  1   
 41  21  40  1   
 42  21  41  1   
 43  22  42  1   
 44  22  43  1   
 45  22  44  1   
 46  23  45  1   
 47  23  46  1   
 48  23  47  1   
@<TRIPOS>SUBSTRUCTURE
  1 ****   7 GROUP 4 **** **** 0

# MOE 2024.06 (io_trps.svl 2023.06)
