@<TRIPOS>MOLECULE
NONAME
28 28 1 0 0 
SMALL
USER_CHARGES


@<TRIPOS>ATOM
  1 CL       0.6150     0.4740     2.8200 Cl    1 <1>  -0.1770 
  2 C        1.8480     1.0170     1.7020 C.ar  1 <1>   0.1770 
  3 C        1.6360     2.1550     0.9350 C.ar  1 <1>  -0.1440 
  4 C        3.0180     0.2900     1.6130 C.ar  1 <1>  -0.1500 
  5 C        2.6390     2.5530     0.0640 C.ar  1 <1>  -0.1500 
  6 C        0.3440     2.9500     1.0380 C.3   1 <1>  -0.0960 
  7 C        4.0230     0.6880     0.7430 C.ar  1 <1>   0.1990 
  8 C        3.8140     1.8270    -0.0290 C.ar  1 <1>  -0.1500 
  9 N        5.2090    -0.0380     0.6650 N.am  1 <1>  -0.6930 
 10 S        5.2530    -1.6550     0.0370 S.o2  1 <1>   1.3330 
 11 C        6.5330     0.6880     0.7920 C.3   1 <1>   0.0900 
 12 O        3.9410    -2.2320     0.2280 O.2   1 <1>  -0.6500 
 13 O        6.3960    -2.3220     0.6150 O.2   1 <1>  -0.6500 
 14 C        5.5030    -1.4610    -1.7140 C.3   1 <1>  -0.1350 
 15 C        7.3110     0.9720    -0.5010 C.2   1 <1>   0.9060 
 16 O        8.5410     0.8790    -0.4840 O.co2 1 <1>  -0.9000 
 17 O        6.7020     1.2890    -1.5320 O.co2 1 <1>  -0.9000 
 18 H        3.1540    -0.5890     2.2150 H     1 <1>   0.1500 
 19 H        2.5150     3.4270    -0.5520 H     1 <1>   0.1500 
 20 H       -0.4920     2.3240     0.7820 H     1 <1>   0.0800 
 21 H        0.3570     3.7940     0.3730 H     1 <1>   0.0800 
 22 H        0.2130     3.3090     2.0440 H     1 <1>   0.0800 
 23 H        4.5790     2.1430    -0.7140 H     1 <1>   0.1500 
 24 H        7.1780     0.1080     1.4260 H     1 <1>   0.0800 
 25 H        6.3710     1.6320     1.2740 H     1 <1>   0.0800 
 26 H        6.5100    -1.1540    -1.9170 H     1 <1>   0.0800 
 27 H        4.8350    -0.7180    -2.1030 H     1 <1>   0.0800 
 28 H        5.3270    -2.3900    -2.2170 H     1 <1>   0.0800 
@<TRIPOS>BOND
  1   1   2  1   
  2   2   3  ar  
  3   2   4  ar  
  4   3   5  ar  
  5   3   6  1   
  6   4   7  ar  
  7   4  18  1   
  8   5   8  ar  
  9   5  19  1   
 10   6  20  1   
 11   6  21  1   
 12   6  22  1   
 13   7   8  ar  
 14   7   9  1   
 15   8  23  1   
 16   9  10  am  
 17   9  11  1   
 18  10  12  2   
 19  10  13  2   
 20  10  14  1   
 21  11  15  1   
 22  11  24  1   
 23  11  25  1   
 24  14  26  1   
 25  14  27  1   
 26  14  28  1   
 27  15  16  ar  
 28  15  17  ar  
@<TRIPOS>SUBSTRUCTURE
  1 ****   7 GROUP 4 **** **** 0

# MOE 2024.06 (io_trps.svl 2023.06)
