@<TRIPOS>MOLECULE
NONAME
30 31 1 0 0 
SMALL
USER_CHARGES


@<TRIPOS>ATOM
  1 S        0.1240    -0.3640    -0.6870 S.3   1 <1>  -0.4600 
  2 C        1.7060     0.4700    -0.9760 C.3   1 <1>   0.0700 
  3 C        0.6150    -2.0990    -0.5130 C.3   1 <1>   0.0700 
  4 C        2.6860     0.0800     0.1380 C.3   1 <1>   0.3430 
  5 C        1.7170    -2.2020     0.5500 C.3   1 <1>   0.3430 
  6 N        2.9400    -1.4050     0.1920 N.4   1 <1>  -0.9590 
  7 C        4.0670    -1.7170     1.1140 C.3   1 <1>   0.4860 
  8 C        5.3290    -1.1030     0.5430 C.ar  1 <1>  -0.1440 
  9 C        5.8720    -1.6020    -0.6320 C.ar  1 <1>  -0.1500 
 10 C        5.9470    -0.0330     1.1790 C.ar  1 <1>  -0.1500 
 11 C        7.0060    -1.0230    -1.1700 C.ar  1 <1>   0.0820 
 12 C        7.0870     0.5380     0.6370 C.ar  1 <1>  -0.1500 
 13 O        7.4980    -1.5170    -2.3130 O.3   1 <1>  -0.5330 
 14 C        7.6190     0.0460    -0.5410 C.ar  1 <1>  -0.1500 
 15 H        1.5090     1.5280    -0.9670 H     1 <1>   0.0800 
 16 H        2.0640     0.1790    -1.9470 H     1 <1>   0.0800 
 17 H        0.9480    -2.4470    -1.4750 H     1 <1>   0.0800 
 18 H       -0.2630    -2.6450    -0.2170 H     1 <1>   0.0800 
 19 H        2.2910     0.4170     1.0820 H     1 <1>   0.0800 
 20 H        3.6150     0.6000    -0.0360 H     1 <1>   0.0800 
 21 H        1.9830    -3.2410     0.6630 H     1 <1>   0.0800 
 22 H        1.3210    -1.8570     1.4920 H     1 <1>   0.0800 
 23 H        3.2580    -1.6860    -0.7440 H     1 <1>   0.4500 
 24 H        4.2000    -2.7830     1.1950 H     1 <1>   0.0800 
 25 H        3.8710    -1.3190     2.0970 H     1 <1>   0.0800 
 26 H        5.4400    -2.4410    -1.1490 H     1 <1>   0.1500 
 27 H        5.5560     0.3670     2.0990 H     1 <1>   0.1500 
 28 H        7.5650     1.3670     1.1350 H     1 <1>   0.1500 
 29 H        8.3220    -1.0830    -2.6020 H     1 <1>   0.4500 
 30 H        8.5040     0.4940    -0.9590 H     1 <1>   0.1500 
@<TRIPOS>BOND
  1   1   2  1   
  2   1   3  1   
  3   2   4  1   
  4   2  15  1   
  5   2  16  1   
  6   3   5  1   
  7   3  17  1   
  8   3  18  1   
  9   4   6  1   
 10   4  19  1   
 11   4  20  1   
 12   5   6  1   
 13   5  21  1   
 14   5  22  1   
 15   6   7  1   
 16   6  23  1   
 17   7   8  1   
 18   7  24  1   
 19   7  25  1   
 20   8   9  ar  
 21   8  10  ar  
 22   9  11  ar  
 23   9  26  1   
 24  10  12  ar  
 25  10  27  1   
 26  11  13  1   
 27  11  14  ar  
 28  12  14  ar  
 29  12  28  1   
 30  13  29  1   
 31  14  30  1   
@<TRIPOS>SUBSTRUCTURE
  1 ****   8 GROUP 4 **** **** 0

# MOE 2024.06 (io_trps.svl 2023.06)
