@<TRIPOS>MOLECULE
NONAME
44 45 1 0 0 
SMALL
USER_CHARGES


@<TRIPOS>ATOM
  1 O       -1.0100     0.0930    -1.1000 O.2   1 <1>  -0.5700 
  2 C       -1.8060     0.8670    -0.6160 C.2   1 <1>   0.4950 
  3 C       -1.6810     2.2950    -0.6520 C.2   1 <1>   0.0290 
  4 C       -2.9860     0.2230     0.0780 C.3   1 <1>  -0.0990 
  5 C       -2.6550     3.1270    -0.1000 C.2   1 <1>  -0.0380 
  6 C       -0.4900     2.7400    -1.3090 C.2   1 <1>   0.4950 
  7 C       -4.2500     1.0660    -0.0840 C.3   1 <1>   0.0000 
  8 N       -2.6000     4.4920     0.0720 N.pl3 1 <1>  -0.8380 
  9 C       -3.9520     2.4850     0.4290 C.3   1 <1>  -0.0220 
 10 O       -0.4910     3.4470    -2.2930 O.2   1 <1>  -0.5700 
 11 C        0.8800     2.2930    -0.7950 C.3   1 <1>  -0.0990 
 12 C       -5.3900     0.4420     0.7380 C.3   1 <1>  -0.2400 
 13 C       -4.6880     1.1080    -1.5610 C.3   1 <1>  -0.2400 
 14 C       -1.4680     5.3850    -0.3040 C.3   1 <1>   0.2090 
 15 C       -3.6720     5.3360     0.6870 C.3   1 <1>   0.2090 
 16 C        1.8510     3.4510    -0.5090 C.3   1 <1>  -0.1600 
 17 C       -1.6970     6.6860     0.4470 C.3   1 <1>  -0.1600 
 18 C       -3.2080     6.7810     0.5640 C.3   1 <1>  -0.1600 
 19 C        3.2300     2.9290    -0.0920 C.3   1 <1>  -0.2400 
 20 H       -2.7400     0.1110     1.1180 H     1 <1>   0.0800 
 21 H       -3.1450    -0.7590    -0.3310 H     1 <1>   0.0800 
 22 H       -4.8000     3.0850     0.1590 H     1 <1>   0.0800 
 23 H       -3.8920     2.4750     1.5030 H     1 <1>   0.0800 
 24 H        1.3080     1.6480    -1.5420 H     1 <1>   0.0800 
 25 H        0.7570     1.7140     0.1020 H     1 <1>   0.0800 
 26 H       -5.1250     0.3830     1.7790 H     1 <1>   0.0800 
 27 H       -5.6070    -0.5520     0.3890 H     1 <1>   0.0800 
 28 H       -6.2860     1.0330     0.6510 H     1 <1>   0.0800 
 29 H       -4.8520     0.1140    -1.9370 H     1 <1>   0.0800 
 30 H       -5.6040     1.6610    -1.6670 H     1 <1>   0.0800 
 31 H       -3.9470     1.5830    -2.1810 H     1 <1>   0.0800 
 32 H       -1.4950     5.5610    -1.3670 H     1 <1>   0.0800 
 33 H       -0.5230     4.9620    -0.0250 H     1 <1>   0.0800 
 34 H       -3.7810     5.0670     1.7240 H     1 <1>   0.0800 
 35 H       -4.6090     5.2110     0.1730 H     1 <1>   0.0800 
 36 H        1.4590     4.0670     0.2800 H     1 <1>   0.0800 
 37 H        1.9550     4.0600    -1.3920 H     1 <1>   0.0800 
 38 H       -1.2690     7.5250    -0.0700 H     1 <1>   0.0800 
 39 H       -1.2550     6.6070     1.4250 H     1 <1>   0.0800 
 40 H       -3.5200     7.3740     1.4040 H     1 <1>   0.0800 
 41 H       -3.6180     7.2010    -0.3380 H     1 <1>   0.0800 
 42 H        3.1540     2.3310     0.8000 H     1 <1>   0.0800 
 43 H        3.8920     3.7540     0.1040 H     1 <1>   0.0800 
 44 H        3.6560     2.3280    -0.8770 H     1 <1>   0.0800 
@<TRIPOS>BOND
  1   1   2  2   
  2   2   3  1   
  3   2   4  1   
  4   3   5  2   
  5   3   6  1   
  6   4   7  1   
  7   4  20  1   
  8   4  21  1   
  9   5   8  1   
 10   5   9  1   
 11   6  10  2   
 12   6  11  1   
 13   7   9  1   
 14   7  12  1   
 15   7  13  1   
 16   8  14  1   
 17   8  15  1   
 18   9  22  1   
 19   9  23  1   
 20  11  16  1   
 21  11  24  1   
 22  11  25  1   
 23  12  26  1   
 24  12  27  1   
 25  12  28  1   
 26  13  29  1   
 27  13  30  1   
 28  13  31  1   
 29  14  17  1   
 30  14  32  1   
 31  14  33  1   
 32  15  18  1   
 33  15  34  1   
 34  15  35  1   
 35  16  19  1   
 36  16  36  1   
 37  16  37  1   
 38  17  18  1   
 39  17  38  1   
 40  17  39  1   
 41  18  40  1   
 42  18  41  1   
 43  19  42  1   
 44  19  43  1   
 45  19  44  1   
@<TRIPOS>SUBSTRUCTURE
  1 ****   3 GROUP 4 **** **** 0

# MOE 2024.06 (io_trps.svl 2023.06)
