@<TRIPOS>MOLECULE
NONAME
41 42 1 0 0 
SMALL
USER_CHARGES


@<TRIPOS>ATOM
  1 S       -0.6680     0.9120    -0.6830 S.o2  1 <1>   1.2040 
  2 O       -1.3380     1.8320    -1.5780 O.2   1 <1>  -0.6500 
  3 O       -0.7100    -0.5080    -0.9490 O.2   1 <1>  -0.6500 
  4 C        1.0650     1.4140    -0.5480 C.ar  1 <1>  -0.0090 
  5 C       -1.2200     1.2470     0.9690 C.3   1 <1>   0.0060 
  6 C        1.4690     2.7050    -0.8690 C.ar  1 <1>  -0.1500 
  7 C        2.0290     0.5270    -0.0820 C.ar  1 <1>  -0.1500 
  8 C       -2.4950     0.5100     1.2430 C.2   1 <1>   0.5690 
  9 C        2.7880     3.1000    -0.7270 C.ar  1 <1>  -0.1500 
 10 C        3.3500     0.9140     0.0630 C.ar  1 <1>  -0.1500 
 11 O       -2.3980    -0.4570     1.9610 O.2   1 <1>  -0.5700 
 12 N       -3.7120     0.9260     0.7610 N.am  1 <1>  -0.6600 
 13 C        3.7300     2.2040    -0.2580 C.ar  1 <1>  -0.1500 
 14 C       -3.9320     2.1600    -0.0610 C.3   1 <1>   0.1400 
 15 C       -4.9250     0.0880     1.0310 C.3   1 <1>   0.1400 
 16 C       -5.3200     2.7540     0.2170 C.3   1 <1>  -0.0800 
 17 C       -5.9980     0.2880    -0.0500 C.3   1 <1>  -0.0800 
 18 C       -6.4440     1.7620    -0.1460 C.3   1 <1>  -0.1600 
 19 C       -5.5120     4.0850    -0.5230 C.3   1 <1>  -0.2400 
 20 C       -7.2050    -0.6270     0.1920 C.3   1 <1>  -0.2400 
 21 H       -1.3540     2.2960     1.1280 H     1 <1>   0.0800 
 22 H       -0.4870     0.8970     1.6690 H     1 <1>   0.0800 
 23 H        0.7460     3.4120    -1.2410 H     1 <1>   0.1500 
 24 H        1.7450    -0.4830     0.1660 H     1 <1>   0.1500 
 25 H        3.0820     4.1040    -0.9830 H     1 <1>   0.1500 
 26 H        4.0820     0.2110     0.4240 H     1 <1>   0.1500 
 27 H        4.7570     2.5080    -0.1470 H     1 <1>   0.1500 
 28 H       -3.8560     1.9050    -1.1060 H     1 <1>   0.0800 
 29 H       -3.1840     2.8990     0.1600 H     1 <1>   0.0800 
 30 H       -5.3230     0.3540     1.9950 H     1 <1>   0.0800 
 31 H       -4.6430    -0.9510     1.0610 H     1 <1>   0.0800 
 32 H       -5.3720     2.9570     1.2740 H     1 <1>   0.0800 
 33 H       -5.5560     0.0020    -0.9900 H     1 <1>   0.0800 
 34 H       -6.7880     1.9380    -1.1500 H     1 <1>   0.0800 
 35 H       -7.2740     1.9430     0.5150 H     1 <1>   0.0800 
 36 H       -5.4340     3.9410    -1.5870 H     1 <1>   0.0800 
 37 H       -4.7640     4.7950    -0.2180 H     1 <1>   0.0800 
 38 H       -6.4800     4.4970    -0.3010 H     1 <1>   0.0800 
 39 H       -7.6690    -0.4050     1.1370 H     1 <1>   0.0800 
 40 H       -6.8950    -1.6570     0.1960 H     1 <1>   0.0800 
 41 H       -7.9340    -0.4960    -0.5890 H     1 <1>   0.0800 
@<TRIPOS>BOND
  1   1   2  2   
  2   1   3  2   
  3   1   4  1   
  4   1   5  1   
  5   4   6  ar  
  6   4   7  ar  
  7   5   8  1   
  8   5  21  1   
  9   5  22  1   
 10   6   9  ar  
 11   6  23  1   
 12   7  10  ar  
 13   7  24  1   
 14   8  11  2   
 15   8  12  am  
 16   9  13  ar  
 17   9  25  1   
 18  10  13  ar  
 19  10  26  1   
 20  12  14  1   
 21  12  15  1   
 22  13  27  1   
 23  14  16  1   
 24  14  28  1   
 25  14  29  1   
 26  15  17  1   
 27  15  30  1   
 28  15  31  1   
 29  16  18  1   
 30  16  19  1   
 31  16  32  1   
 32  17  18  1   
 33  17  20  1   
 34  17  33  1   
 35  18  34  1   
 36  18  35  1   
 37  19  36  1   
 38  19  37  1   
 39  19  38  1   
 40  20  39  1   
 41  20  40  1   
 42  20  41  1   
@<TRIPOS>SUBSTRUCTURE
  1 ****   5 GROUP 4 **** **** 0

# MOE 2024.06 (io_trps.svl 2023.06)
