@<TRIPOS>MOLECULE
NONAME
54 56 1 0 0 
SMALL
USER_CHARGES


@<TRIPOS>ATOM
  1 S        0.0810     0.3510     1.1760 S.3   1 <1>  -0.2860 
  2 C       -1.4330     1.0390     0.4940 C.2   1 <1>   0.2420 
  3 C        1.0660     1.8520     1.6590 C.3   1 <1>   0.1310 
  4 N       -1.6620     2.3020     0.4030 N.2   1 <1>  -0.3380 
  5 N       -2.4230     0.2690     0.0240 N.pl3 1 <1>   0.3260 
  6 C        2.5510     1.5190     1.7070 C.2   1 <1>   0.5690 
  7 N       -2.8680     2.4110    -0.1620 N.2   1 <1>  -0.3380 
  8 C       -2.5220    -1.1430    -0.0680 C.ar  1 <1>  -0.0230 
  9 C       -3.2980     1.2130    -0.3800 C.2   1 <1>   0.0060 
 10 O        3.0890     1.7100     2.7750 O.2   1 <1>  -0.5700 
 11 N        3.2520     0.9630     0.6550 N.am  1 <1>  -0.6600 
 12 C       -3.4310    -1.8400     0.7180 C.ar  1 <1>  -0.1500 
 13 C       -1.7170    -1.8500    -0.9500 C.ar  1 <1>  -0.1500 
 14 C       -4.6340     0.8950    -1.0260 C.3   1 <1>  -0.0600 
 15 C        3.1460     1.2510    -0.8160 C.3   1 <1>   0.2200 
 16 C        4.3200    -0.0270     1.0110 C.3   1 <1>   0.2200 
 17 C       -3.5480    -3.2170     0.6260 C.ar  1 <1>  -0.1430 
 18 C       -1.8280    -3.2240    -1.0460 C.ar  1 <1>  -0.1500 
 19 C        4.4890     1.8210    -1.3170 C.3   1 <1>  -0.1600 
 20 C        2.0290     2.2030    -1.2500 C.3   1 <1>  -0.2400 
 21 C        5.3680    -0.2100    -0.1010 C.3   1 <1>  -0.1600 
 22 C        3.6580    -1.3640     1.3460 C.3   1 <1>  -0.2400 
 23 C       -2.7400    -3.9160    -0.2650 C.ar  1 <1>  -0.1430 
 24 C       -4.5610    -3.9340     1.5080 C.3   1 <1>  -0.0970 
 25 C        5.7340     1.1380    -0.7240 C.3   1 <1>  -0.1600 
 26 C       -2.8300    -5.4300    -0.4010 C.3   1 <1>  -0.0970 
 27 H        0.7220     2.1330     2.6370 H     1 <1>   0.0800 
 28 H        0.8510     2.6500     0.9800 H     1 <1>   0.0800 
 29 H       -4.0500    -1.2960     1.4100 H     1 <1>   0.1500 
 30 H       -1.0010    -1.3300    -1.5620 H     1 <1>   0.1500 
 31 H       -5.1190     1.8040    -1.3340 H     1 <1>   0.0800 
 32 H       -4.4880     0.2720    -1.8910 H     1 <1>   0.0800 
 33 H       -5.2720     0.3840    -0.3280 H     1 <1>   0.0800 
 34 H        2.9720     0.3110    -1.3120 H     1 <1>   0.0800 
 35 H        4.8390     0.3280     1.8860 H     1 <1>   0.0800 
 36 H       -1.1940    -3.7540    -1.7350 H     1 <1>   0.1500 
 37 H        4.5400     2.8720    -1.0940 H     1 <1>   0.0800 
 38 H        4.5150     1.7230    -2.3880 H     1 <1>   0.0800 
 39 H        2.1140     3.1510    -0.7500 H     1 <1>   0.0800 
 40 H        1.0640     1.7680    -1.0810 H     1 <1>   0.0800 
 41 H        2.1050     2.3840    -2.3070 H     1 <1>   0.0800 
 42 H        4.9930    -0.8710    -0.8620 H     1 <1>   0.0800 
 43 H        6.2470    -0.6680     0.3180 H     1 <1>   0.0800 
 44 H        3.0960    -1.7290     0.5060 H     1 <1>   0.0800 
 45 H        2.9980    -1.2480     2.1870 H     1 <1>   0.0800 
 46 H        4.4060    -2.0910     1.6050 H     1 <1>   0.0800 
 47 H       -5.0940    -3.2400     2.1320 H     1 <1>   0.0800 
 48 H       -4.0590    -4.6410     2.1450 H     1 <1>   0.0800 
 49 H       -5.2760    -4.4570     0.8990 H     1 <1>   0.0800 
 50 H        6.1470     1.7690     0.0450 H     1 <1>   0.0800 
 51 H        6.4850     1.0090    -1.4850 H     1 <1>   0.0800 
 52 H       -3.8210    -5.7140    -0.7060 H     1 <1>   0.0800 
 53 H       -2.6030    -5.8990     0.5390 H     1 <1>   0.0800 
 54 H       -2.1350    -5.7940    -1.1360 H     1 <1>   0.0800 
@<TRIPOS>BOND
  1   1   2  1   
  2   1   3  1   
  3   2   4  2   
  4   2   5  1   
  5   3   6  1   
  6   3  27  1   
  7   3  28  1   
  8   4   7  1   
  9   5   8  1   
 10   5   9  1   
 11   6  10  2   
 12   6  11  am  
 13   7   9  2   
 14   8  12  ar  
 15   8  13  ar  
 16   9  14  1   
 17  11  15  1   
 18  11  16  1   
 19  12  17  ar  
 20  12  29  1   
 21  13  18  ar  
 22  13  30  1   
 23  14  31  1   
 24  14  32  1   
 25  14  33  1   
 26  15  19  1   
 27  15  20  1   
 28  15  34  1   
 29  16  21  1   
 30  16  22  1   
 31  16  35  1   
 32  17  23  ar  
 33  17  24  1   
 34  18  23  ar  
 35  18  36  1   
 36  19  25  1   
 37  19  37  1   
 38  19  38  1   
 39  20  39  1   
 40  20  40  1   
 41  20  41  1   
 42  21  25  1   
 43  21  42  1   
 44  21  43  1   
 45  22  44  1   
 46  22  45  1   
 47  22  46  1   
 48  23  26  1   
 49  24  47  1   
 50  24  48  1   
 51  24  49  1   
 52  25  50  1   
 53  25  51  1   
 54  26  52  1   
 55  26  53  1   
 56  26  54  1   
@<TRIPOS>SUBSTRUCTURE
  1 ****   1 GROUP 4 **** **** 0

# MOE 2024.06 (io_trps.svl 2023.06)
