@<TRIPOS>MOLECULE
NONAME
47 50 1 0 0 
SMALL
USER_CHARGES


@<TRIPOS>ATOM
  1 F        1.0720    -1.7160    -2.4920 F     1 <1>  -0.1900 
  2 C        1.0770    -2.2210    -1.2880 C.ar  1 <1>   0.1900 
  3 C        2.1610    -2.9770    -0.8880 C.ar  1 <1>  -0.1500 
  4 C       -0.0030    -1.9750    -0.4630 C.ar  1 <1>  -0.1500 
  5 C        2.1770    -3.5190     0.3940 C.ar  1 <1>   0.1170 
  6 C        0.0100    -2.5100     0.8130 C.ar  1 <1>  -0.1500 
  7 N        3.2400    -4.2900     0.8890 N.am  1 <1>  -0.5470 
  8 C        1.0900    -3.2710     1.2310 C.ar  1 <1>  -0.1500 
  9 C        4.2470    -4.9570     0.2650 C.2   1 <1>   0.6900 
 10 O        4.3740    -5.0080    -0.9430 O.2   1 <1>  -0.5700 
 11 N        5.1810    -5.5710     1.0430 N.am  1 <1>  -0.6600 
 12 C        5.5440    -6.9730     0.6810 C.3   1 <1>   0.1400 
 13 C        6.3630    -4.7490     1.4190 C.3   1 <1>   0.1400 
 14 C        6.5850    -6.9920    -0.4590 C.3   1 <1>   0.3430 
 15 C        7.3960    -4.7480     0.2730 C.3   1 <1>   0.3430 
 16 N        7.7910    -6.1450    -0.1460 N.4   1 <1>  -0.9590 
 17 C        8.7260    -6.1080    -1.3030 C.3   1 <1>   0.4860 
 18 C        9.9920    -5.3930    -0.8730 C.ar  1 <1>  -0.1430 
 19 C       10.8790    -6.0170     0.0000 C.ar  1 <1>  -0.1500 
 20 C       10.2630    -4.1060    -1.3430 C.ar  1 <1>  -0.1500 
 21 C       12.0050    -5.3220     0.3890 C.ar  1 <1>   0.0830 
 22 C       11.4060    -3.4270    -0.9410 C.ar  1 <1>  -0.1500 
 23 O       12.9740    -5.7200     1.2180 O.3   1 <1>  -0.3630 
 24 C       12.2630    -4.0630    -0.0660 C.ar  1 <1>   0.0830 
 25 C       13.9220    -4.6540     1.2820 C.3   1 <1>   0.4000 
 26 O       13.4070    -3.6110     0.4540 O.3   1 <1>  -0.3620 
 27 H        2.9700    -3.1290    -1.5750 H     1 <1>   0.1500 
 28 H       -0.8280    -1.3810    -0.8150 H     1 <1>   0.1500 
 29 H       -0.8190    -2.3340     1.4780 H     1 <1>   0.1500 
 30 H        3.2140    -4.4730     1.8890 H     1 <1>   0.3700 
 31 H        1.0830    -3.6800     2.2250 H     1 <1>   0.1500 
 32 H        4.6600    -7.4980     0.3590 H     1 <1>   0.0800 
 33 H        5.9310    -7.4820     1.5470 H     1 <1>   0.0800 
 34 H        6.8060    -5.1370     2.3200 H     1 <1>   0.0800 
 35 H        6.0510    -3.7360     1.6150 H     1 <1>   0.0800 
 36 H        6.1050    -6.6190    -1.3510 H     1 <1>   0.0800 
 37 H        6.8850    -8.0090    -0.6480 H     1 <1>   0.0800 
 38 H        8.2690    -4.1970     0.5850 H     1 <1>   0.0800 
 39 H        6.9620    -4.2310    -0.5680 H     1 <1>   0.0800 
 40 H        8.3030    -6.5660     0.6380 H     1 <1>   0.4500 
 41 H        8.2720    -5.5900    -2.1330 H     1 <1>   0.0800 
 42 H        8.9720    -7.1090    -1.6170 H     1 <1>   0.0800 
 43 H       10.7270    -7.0120     0.3790 H     1 <1>   0.1500 
 44 H        9.5920    -3.6160    -2.0300 H     1 <1>   0.1500 
 45 H       11.6350    -2.4360    -1.2930 H     1 <1>   0.1500 
 46 H       14.8680    -4.9880     0.8940 H     1 <1>   0.0800 
 47 H       14.0070    -4.3030     2.2950 H     1 <1>   0.0800 
@<TRIPOS>BOND
  1   1   2  1   
  2   2   3  ar  
  3   2   4  ar  
  4   3   5  ar  
  5   3  27  1   
  6   4   6  ar  
  7   4  28  1   
  8   5   7  1   
  9   5   8  ar  
 10   6   8  ar  
 11   6  29  1   
 12   7   9  am  
 13   7  30  1   
 14   8  31  1   
 15   9  10  2   
 16   9  11  am  
 17  11  12  1   
 18  11  13  1   
 19  12  14  1   
 20  12  32  1   
 21  12  33  1   
 22  13  15  1   
 23  13  34  1   
 24  13  35  1   
 25  14  16  1   
 26  14  36  1   
 27  14  37  1   
 28  15  16  1   
 29  15  38  1   
 30  15  39  1   
 31  16  17  1   
 32  16  40  1   
 33  17  18  1   
 34  17  41  1   
 35  17  42  1   
 36  18  19  ar  
 37  18  20  ar  
 38  19  21  ar  
 39  19  43  1   
 40  20  22  ar  
 41  20  44  1   
 42  21  23  1   
 43  21  24  ar  
 44  22  24  ar  
 45  22  45  1   
 46  23  25  1   
 47  24  26  1   
 48  25  26  1   
 49  25  46  1   
 50  25  47  1   
@<TRIPOS>SUBSTRUCTURE
  1 ****  15 GROUP 4 **** **** 0

# MOE 2024.06 (io_trps.svl 2023.06)
