@<TRIPOS>MOLECULE
NONAME
32 32 1 0 0 
SMALL
USER_CHARGES


@<TRIPOS>ATOM
  1 O       -1.0240    -1.1320     1.1510 O.co2 1 <1>  -0.9000 
  2 C       -1.1730    -1.1180    -0.0730 C.2   1 <1>   0.9060 
  3 O       -0.2510    -1.0330    -0.8790 O.co2 1 <1>  -0.9000 
  4 C       -2.5850    -1.0470    -0.5940 C.3   1 <1>  -0.1860 
  5 C       -3.1460     0.1390     0.1610 C.3   1 <1>   0.3430 
  6 C       -3.3690    -2.3640    -0.3750 C.3   1 <1>  -0.2400 
  7 N       -4.5510     0.3650    -0.2390 N.4   1 <1>  -0.9060 
  8 C       -5.2160     1.4190     0.5230 C.3   1 <1>   0.5660 
  9 C       -6.7080     1.2470     0.2940 C.ar  1 <1>  -0.1440 
 10 C       -4.7060     2.7870     0.0790 C.3   1 <1>  -0.2400 
 11 C       -7.3020     1.4910    -0.9410 C.ar  1 <1>  -0.1500 
 12 C       -7.5020     0.8190     1.3490 C.ar  1 <1>  -0.1500 
 13 C       -8.6630     1.3090    -1.1120 C.ar  1 <1>  -0.1500 
 14 C       -8.8630     0.6360     1.1760 C.ar  1 <1>  -0.1500 
 15 C       -9.4430     0.8810    -0.0540 C.ar  1 <1>  -0.1500 
 16 H       -2.5250    -0.8240    -1.6430 H     1 <1>   0.0800 
 17 H       -2.5430     1.0080    -0.0490 H     1 <1>   0.0800 
 18 H       -3.0850    -0.0630     1.2190 H     1 <1>   0.0800 
 19 H       -3.4480    -2.5810     0.6770 H     1 <1>   0.0800 
 20 H       -2.8280    -3.1740    -0.8350 H     1 <1>   0.0800 
 21 H       -4.3490    -2.3280    -0.8130 H     1 <1>   0.0800 
 22 H       -5.0680    -0.5070    -0.0870 H     1 <1>   0.4500 
 23 H       -4.6020     0.5700    -1.2380 H     1 <1>   0.4500 
 24 H       -5.0120     1.2880     1.5740 H     1 <1>   0.0800 
 25 H       -4.8050     2.9240    -0.9820 H     1 <1>   0.0800 
 26 H       -3.6770     2.9180     0.3600 H     1 <1>   0.0800 
 27 H       -5.2790     3.5530     0.5710 H     1 <1>   0.0800 
 28 H       -6.7240     1.8280    -1.7840 H     1 <1>   0.1500 
 29 H       -7.0760     0.6230     2.3190 H     1 <1>   0.1500 
 30 H       -9.1210     1.5020    -2.0680 H     1 <1>   0.1500 
 31 H       -9.4750     0.3050     1.9990 H     1 <1>   0.1500 
 32 H      -10.5030     0.7400    -0.1880 H     1 <1>   0.1500 
@<TRIPOS>BOND
  1   1   2  ar  
  2   2   3  ar  
  3   2   4  1   
  4   4   5  1   
  5   4   6  1   
  6   4  16  1   
  7   5   7  1   
  8   5  17  1   
  9   5  18  1   
 10   6  19  1   
 11   6  20  1   
 12   6  21  1   
 13   7   8  1   
 14   7  22  1   
 15   7  23  1   
 16   8   9  1   
 17   8  10  1   
 18   8  24  1   
 19   9  11  ar  
 20   9  12  ar  
 21  10  25  1   
 22  10  26  1   
 23  10  27  1   
 24  11  13  ar  
 25  11  28  1   
 26  12  14  ar  
 27  12  29  1   
 28  13  15  ar  
 29  13  30  1   
 30  14  15  ar  
 31  14  31  1   
 32  15  32  1   
@<TRIPOS>SUBSTRUCTURE
  1 ****   7 GROUP 4 **** **** 0

# MOE 2024.06 (io_trps.svl 2023.06)
