@<TRIPOS>MOLECULE
NONAME
41 43 1 0 0 
SMALL
USER_CHARGES


@<TRIPOS>ATOM
  1 O       -0.3700     2.1660    -3.0540 O.2   1 <1>  -0.5700 
  2 C       -0.2650     2.7930    -2.0120 C.2   1 <1>   0.4690 
  3 C        0.8540     3.6790    -1.7220 C.2   1 <1>  -0.1360 
  4 C       -1.2920     2.6260    -1.0050 C.ar  1 <1>   0.0860 
  5 O        1.6520     4.0100    -2.6340 O.3   1 <1>  -0.8500 
  6 C        1.0240     4.1650    -0.4150 C.2   1 <1>   0.1230 
  7 C       -1.1160     3.1590     0.2810 C.ar  1 <1>   0.0860 
  8 C       -2.4730     1.9310    -1.2840 C.ar  1 <1>  -0.1500 
  9 N        2.1490     5.0120    -0.1330 N.am  1 <1>  -0.4690 
 10 C        0.0950     3.8810     0.6000 C.2   1 <1>   0.4690 
 11 C       -2.1290     2.9740     1.2280 C.ar  1 <1>  -0.1500 
 12 C       -3.4600     1.7590    -0.3350 C.ar  1 <1>  -0.1500 
 13 C        2.0240     6.3540    -0.3700 C.2   1 <1>   0.5690 
 14 C        3.4500     4.3820     0.2530 C.3   1 <1>   0.2200 
 15 O        0.2710     4.2160     1.7920 O.2   1 <1>  -0.5700 
 16 C       -3.2870     2.2840     0.9310 C.ar  1 <1>  -0.1500 
 17 O        0.9670     6.9460    -0.2900 O.2   1 <1>  -0.5700 
 18 C        3.2340     7.1890    -0.7300 C.3   1 <1>  -0.1790 
 19 C        4.0680     3.5530    -0.8820 C.3   1 <1>  -0.1600 
 20 C        3.3120     3.5290     1.5230 C.3   1 <1>  -0.1600 
 21 C        5.4270     2.9670    -0.4720 C.3   1 <1>  -0.1600 
 22 C        4.6670     2.9420     1.9500 C.3   1 <1>  -0.1600 
 23 C        5.3020     2.1330     0.8100 C.3   1 <1>  -0.1600 
 24 H       -2.6110     1.5210    -2.2700 H     1 <1>   0.1500 
 25 H       -2.0010     3.3840     2.2160 H     1 <1>   0.1500 
 26 H       -4.3590     1.2190    -0.5800 H     1 <1>   0.1500 
 27 H        4.1470     5.1630     0.4910 H     1 <1>   0.0800 
 28 H       -4.0500     2.1580     1.6790 H     1 <1>   0.1500 
 29 H        3.8020     7.4100     0.1520 H     1 <1>   0.0800 
 30 H        2.9100     8.1080    -1.1800 H     1 <1>   0.0800 
 31 H        3.8380     6.6570    -1.4410 H     1 <1>   0.0800 
 32 H        4.1810     4.1700    -1.7560 H     1 <1>   0.0800 
 33 H        3.4020     2.7470    -1.1390 H     1 <1>   0.0800 
 34 H        2.6270     2.7210     1.3390 H     1 <1>   0.0800 
 35 H        2.9170     4.1360     2.3190 H     1 <1>   0.0800 
 36 H        6.1280     3.7690    -0.3150 H     1 <1>   0.0800 
 37 H        5.8010     2.3510    -1.2710 H     1 <1>   0.0800 
 38 H        4.5270     2.3090     2.8090 H     1 <1>   0.0800 
 39 H        5.3290     3.7420     2.2330 H     1 <1>   0.0800 
 40 H        6.2740     1.7830     1.1110 H     1 <1>   0.0800 
 41 H        4.6890     1.2700     0.6070 H     1 <1>   0.0800 
@<TRIPOS>BOND
  1   1   2  2   
  2   2   3  1   
  3   2   4  1   
  4   3   5  1   
  5   3   6  2   
  6   4   7  ar  
  7   4   8  ar  
  8   6   9  1   
  9   6  10  1   
 10   7  10  1   
 11   7  11  ar  
 12   8  12  ar  
 13   8  24  1   
 14   9  13  am  
 15   9  14  1   
 16  10  15  2   
 17  11  16  ar  
 18  11  25  1   
 19  12  16  ar  
 20  12  26  1   
 21  13  17  2   
 22  13  18  1   
 23  14  19  1   
 24  14  20  1   
 25  14  27  1   
 26  16  28  1   
 27  18  29  1   
 28  18  30  1   
 29  18  31  1   
 30  19  21  1   
 31  19  32  1   
 32  19  33  1   
 33  20  22  1   
 34  20  34  1   
 35  20  35  1   
 36  21  23  1   
 37  21  36  1   
 38  21  37  1   
 39  22  23  1   
 40  22  38  1   
 41  22  39  1   
 42  23  40  1   
 43  23  41  1   
@<TRIPOS>SUBSTRUCTURE
  1 ****   6 GROUP 4 **** **** 0

# MOE 2024.06 (io_trps.svl 2023.06)
