@<TRIPOS>MOLECULE
NONAME
47 48 1 0 0 
SMALL
USER_CHARGES


@<TRIPOS>ATOM
  1 S        0.0600    -0.2450    -0.6480 S.3   1 <1>  -0.0800 
  2 C        1.0330     1.0600     0.0470 C.2   1 <1>   0.1040 
  3 C       -1.4030     0.5180    -0.0800 C.2   1 <1>  -0.1400 
  4 N        2.4190     0.9930    -0.0190 N.am  1 <1>  -0.4940 
  5 C        0.2370     2.0030     0.6520 C.2   1 <1>  -0.0860 
  6 C       -1.1510     1.6450     0.5630 C.2   1 <1>  -0.1810 
  7 C       -2.8350     0.1090    -0.1970 C.3   1 <1>   0.0200 
  8 C        3.2320     0.2110    -0.8050 C.2   1 <1>   0.5690 
  9 C        0.6940     3.1960     1.3060 C.2   1 <1>   0.8060 
 10 C       -2.4340     2.2710     1.0480 C.3   1 <1>   0.0210 
 11 C       -3.5270     1.2870     0.5380 C.3   1 <1>  -0.1600 
 12 O        2.8710    -0.3150    -1.8260 O.2   1 <1>  -0.5700 
 13 C        4.6790    -0.0520    -0.3620 C.3   1 <1>   0.4040 
 14 O        0.0990     3.7600     2.1980 O.2   1 <1>  -0.5700 
 15 O        1.8750     3.7050     0.9480 O.3   1 <1>  -0.4300 
 16 N        4.8700    -1.3090     0.4700 N.4   1 <1>  -0.9590 
 17 C        1.9870     4.3030    -0.3240 C.3   1 <1>   0.1200 
 18 C        6.2940    -1.4740     0.8620 C.3   1 <1>   0.3430 
 19 C        4.3450    -2.5080    -0.2500 C.3   1 <1>   0.3430 
 20 C        3.4500     4.6690    -0.5480 C.3   1 <1>  -0.2400 
 21 C        6.3940    -2.4570     2.0240 C.3   1 <1>  -0.2400 
 22 C        3.0730    -2.9660     0.4490 C.3   1 <1>  -0.2400 
 23 H        2.8830     1.6680     0.5940 H     1 <1>   0.3700 
 24 H       -3.0060    -0.8290     0.3010 H     1 <1>   0.0800 
 25 H       -3.1340     0.0500    -1.2290 H     1 <1>   0.0800 
 26 H       -2.5620     3.2520     0.6250 H     1 <1>   0.0800 
 27 H       -2.4360     2.3350     2.1220 H     1 <1>   0.0800 
 28 H       -4.1030     0.9160     1.3680 H     1 <1>   0.0800 
 29 H       -4.1900     1.7980    -0.1370 H     1 <1>   0.0800 
 30 H        5.0260     0.8030     0.1910 H     1 <1>   0.0800 
 31 H        5.2750    -0.1280    -1.2550 H     1 <1>   0.0800 
 32 H        4.3110    -1.2230     1.3300 H     1 <1>   0.4500 
 33 H        1.3680     5.1850    -0.3360 H     1 <1>   0.0800 
 34 H        1.6440     3.6130    -1.0780 H     1 <1>   0.0800 
 35 H        6.7000    -0.5260     1.1780 H     1 <1>   0.0800 
 36 H        6.8750    -1.8290     0.0250 H     1 <1>   0.0800 
 37 H        5.0690    -3.3080    -0.2300 H     1 <1>   0.0800 
 38 H        4.1330    -2.2750    -1.2820 H     1 <1>   0.0800 
 39 H        3.7820     5.3500     0.2170 H     1 <1>   0.0800 
 40 H        3.5580     5.1540    -1.5010 H     1 <1>   0.0800 
 41 H        4.0670     3.7900    -0.5420 H     1 <1>   0.0800 
 42 H        5.8180    -2.1150     2.8660 H     1 <1>   0.0800 
 43 H        7.4210    -2.5310     2.3350 H     1 <1>   0.0800 
 44 H        6.0680    -3.4410     1.7380 H     1 <1>   0.0800 
 45 H        2.3140    -2.2040     0.4150 H     1 <1>   0.0800 
 46 H        3.2690    -3.2420     1.4700 H     1 <1>   0.0800 
 47 H        2.6860    -3.8310    -0.0590 H     1 <1>   0.0800 
@<TRIPOS>BOND
  1   1   2  1   
  2   1   3  1   
  3   2   4  1   
  4   2   5  2   
  5   3   6  2   
  6   3   7  1   
  7   4   8  am  
  8   4  23  1   
  9   5   6  1   
 10   5   9  1   
 11   6  10  1   
 12   7  11  1   
 13   7  24  1   
 14   7  25  1   
 15   8  12  2   
 16   8  13  1   
 17   9  14  2   
 18   9  15  1   
 19  10  11  1   
 20  10  26  1   
 21  10  27  1   
 22  11  28  1   
 23  11  29  1   
 24  13  16  1   
 25  13  30  1   
 26  13  31  1   
 27  15  17  1   
 28  16  18  1   
 29  16  19  1   
 30  16  32  1   
 31  17  20  1   
 32  17  33  1   
 33  17  34  1   
 34  18  21  1   
 35  18  35  1   
 36  18  36  1   
 37  19  22  1   
 38  19  37  1   
 39  19  38  1   
 40  20  39  1   
 41  20  40  1   
 42  20  41  1   
 43  21  42  1   
 44  21  43  1   
 45  21  44  1   
 46  22  45  1   
 47  22  46  1   
 48  22  47  1   
@<TRIPOS>SUBSTRUCTURE
  1 ****   2 GROUP 4 **** **** 0

# MOE 2024.06 (io_trps.svl 2023.06)
