@<TRIPOS>MOLECULE
NONAME
56 59 1 0 0 
SMALL
USER_CHARGES


@<TRIPOS>ATOM
  1 O       -0.7150     0.2710    -1.6540 O.2   1 <1>  -0.5700 
  2 C       -0.5530    -0.4080    -0.6680 C.2   1 <1>   0.4950 
  3 C        0.7170    -0.7330    -0.1130 C.2   1 <1>  -0.1240 
  4 C       -1.7900    -0.9560     0.0220 C.3   1 <1>  -0.0990 
  5 C        0.8830    -1.6070     0.9100 C.2   1 <1>  -0.0380 
  6 C        1.9340    -0.0300    -0.7170 C.3   1 <1>   0.3400 
  7 C       -1.5480    -2.3420     0.6580 C.3   1 <1>   0.0000 
  8 N        2.1280    -1.9240     1.3970 N.pl3 1 <1>  -0.6000 
  9 C       -0.3040    -2.2930     1.5750 C.3   1 <1>  -0.0220 
 10 C        3.2730    -0.5930    -0.2250 C.2   1 <1>  -0.1240 
 11 C        1.8880     1.4490    -0.3430 C.ar  1 <1>  -0.1430 
 12 C       -2.7810    -2.7470     1.4820 C.3   1 <1>  -0.2400 
 13 C       -1.3430    -3.3950    -0.4480 C.3   1 <1>  -0.2400 
 14 C        3.2920    -1.4940     0.7960 C.2   1 <1>  -0.0380 
 15 C        4.3930    -0.0400    -0.9240 C.2   1 <1>   0.6160 
 16 C        1.8780     1.8290     0.9930 C.ar  1 <1>   0.1600 
 17 C        1.8660     2.4320    -1.3110 C.ar  1 <1>  -0.1500 
 18 C        4.5400    -2.1450     1.3730 C.3   1 <1>  -0.1020 
 19 O        4.3790     0.0580    -2.1360 O.2   1 <1>  -0.5700 
 20 N        5.4700     0.4070    -0.2090 N.am  1 <1>  -0.5470 
 21 N        1.8510     3.0780     1.4290 N.ar  1 <1>  -0.6200 
 22 C        1.8370     3.7390    -0.8760 C.ar  1 <1>  -0.1500 
 23 C        6.7190     0.8790    -0.5410 C.ar  1 <1>   0.4270 
 24 C        1.8310     4.0030     0.4830 C.ar  1 <1>   0.1600 
 25 N        7.4860     1.0550     0.5240 N.ar  1 <1>  -0.6200 
 26 C        7.1450     1.1460    -1.8410 C.ar  1 <1>  -0.1500 
 27 C        8.7070     1.5090     0.3040 C.ar  1 <1>   0.1670 
 28 C        8.4190     1.6170    -2.0620 C.ar  1 <1>  -0.1500 
 29 C        9.2140     1.8010    -0.9510 C.ar  1 <1>  -0.1500 
 30 C        9.5660     1.7080     1.5340 C.3   1 <1>  -0.0970 
 31 H       -2.5910    -1.0130    -0.6930 H     1 <1>   0.0800 
 32 H       -2.0780    -0.2490     0.7790 H     1 <1>   0.0800 
 33 H        1.8810    -0.1430    -1.7870 H     1 <1>   0.0800 
 34 H        2.2000    -2.5870     2.1780 H     1 <1>   0.4000 
 35 H       -0.5350    -1.7530     2.4760 H     1 <1>   0.0800 
 36 H       -0.0340    -3.2960     1.8560 H     1 <1>   0.0800 
 37 H       -2.9690    -2.0340     2.2640 H     1 <1>   0.0800 
 38 H       -2.6350    -3.7130     1.9330 H     1 <1>   0.0800 
 39 H       -3.6540    -2.7970     0.8550 H     1 <1>   0.0800 
 40 H       -0.4750    -3.1750    -1.0440 H     1 <1>   0.0800 
 41 H       -2.1970    -3.4280    -1.1020 H     1 <1>   0.0800 
 42 H       -1.2110    -4.3730    -0.0200 H     1 <1>   0.0800 
 43 H        1.8950     1.0590     1.7470 H     1 <1>   0.1500 
 44 H        1.8710     2.1930    -2.3620 H     1 <1>   0.1500 
 45 H        4.3850    -3.2050     1.4750 H     1 <1>   0.0800 
 46 H        4.7560    -1.7330     2.3420 H     1 <1>   0.0800 
 47 H        5.3960    -2.0110     0.7380 H     1 <1>   0.0800 
 48 H        5.3550     0.3810     0.8000 H     1 <1>   0.3700 
 49 H        1.8190     4.5480    -1.5840 H     1 <1>   0.1500 
 50 H        1.8090     5.0280     0.8080 H     1 <1>   0.1500 
 51 H        6.4890     0.9910    -2.6740 H     1 <1>   0.1500 
 52 H        8.7760     1.8320    -3.0540 H     1 <1>   0.1500 
 53 H       10.2180     2.1680    -1.0660 H     1 <1>   0.1500 
 54 H        9.0900     2.4100     2.1950 H     1 <1>   0.0800 
 55 H       10.5390     2.0810     1.2740 H     1 <1>   0.0800 
 56 H        9.6790     0.7710     2.0480 H     1 <1>   0.0800 
@<TRIPOS>BOND
  1   1   2  2   
  2   2   3  1   
  3   2   4  1   
  4   3   5  2   
  5   3   6  1   
  6   4   7  1   
  7   4  31  1   
  8   4  32  1   
  9   5   8  1   
 10   5   9  1   
 11   6  10  1   
 12   6  11  1   
 13   6  33  1   
 14   7   9  1   
 15   7  12  1   
 16   7  13  1   
 17   8  14  1   
 18   8  34  1   
 19   9  35  1   
 20   9  36  1   
 21  10  14  2   
 22  10  15  1   
 23  11  16  ar  
 24  11  17  ar  
 25  12  37  1   
 26  12  38  1   
 27  12  39  1   
 28  13  40  1   
 29  13  41  1   
 30  13  42  1   
 31  14  18  1   
 32  15  19  2   
 33  15  20  am  
 34  16  21  ar  
 35  16  43  1   
 36  17  22  ar  
 37  17  44  1   
 38  18  45  1   
 39  18  46  1   
 40  18  47  1   
 41  20  23  1   
 42  20  48  1   
 43  21  24  ar  
 44  22  24  ar  
 45  22  49  1   
 46  23  25  ar  
 47  23  26  ar  
 48  24  50  1   
 49  25  27  ar  
 50  26  28  ar  
 51  26  51  1   
 52  27  29  ar  
 53  27  30  1   
 54  28  29  ar  
 55  28  52  1   
 56  29  53  1   
 57  30  54  1   
 58  30  55  1   
 59  30  56  1   
@<TRIPOS>SUBSTRUCTURE
  1 ****  10 GROUP 4 **** **** 0

# MOE 2024.06 (io_trps.svl 2023.06)
