@<TRIPOS>MOLECULE
NONAME
51 54 1 0 0 
SMALL
USER_CHARGES


@<TRIPOS>ATOM
  1 O       -0.4310    -0.9490     1.4720 O.2   1 <1>  -0.5700 
  2 C       -1.0180    -1.6750     0.6900 C.2   1 <1>   0.5440 
  3 N       -0.3140    -2.6160    -0.0470 N.am  1 <1>  -0.2370 
  4 C       -2.4430    -1.5440     0.5040 C.ar  1 <1>   0.0860 
  5 C       -1.0150    -3.6230    -0.7070 C.2   1 <1>   0.6160 
  6 C        1.0980    -2.5640    -0.1080 C.ar  1 <1>   0.1170 
  7 C       -3.1430    -2.5700    -0.1460 C.ar  1 <1>   0.0280 
  8 C       -3.1370    -0.4070     0.9240 C.ar  1 <1>  -0.1500 
  9 O       -0.4140    -4.3900    -1.4430 O.2   1 <1>  -0.5700 
 10 C       -2.4280    -3.7750    -0.4970 C.2   1 <1>  -0.0140 
 11 C        1.8750    -3.5810     0.4370 C.ar  1 <1>  -0.1500 
 12 C        1.7430    -1.4900    -0.7110 C.ar  1 <1>  -0.1500 
 13 C       -4.4930    -2.3640    -0.4460 C.ar  1 <1>  -0.1500 
 14 C       -4.4820    -0.2470     0.6620 C.ar  1 <1>  -0.1500 
 15 C       -3.0020    -5.0200    -0.5910 C.2   1 <1>  -0.0500 
 16 C        3.2560    -3.5270     0.3780 C.ar  1 <1>  -0.1500 
 17 C        3.1240    -1.4350    -0.7710 C.ar  1 <1>  -0.1500 
 18 C       -5.1600    -1.2270    -0.0400 C.ar  1 <1>  -0.1500 
 19 N       -4.2740    -5.3810    -0.2530 N.pl3 1 <1>  -0.8690 
 20 C        3.8890    -2.4540    -0.2270 C.ar  1 <1>  -0.1430 
 21 C       -4.8390    -6.7330    -0.3920 C.3   1 <1>   0.2890 
 22 C        5.4050    -2.3940    -0.2900 C.3   1 <1>  -0.0970 
 23 C       -6.0810    -6.6570    -1.2830 C.3   1 <1>  -0.1600 
 24 C       -5.1830    -7.2690     1.0000 C.3   1 <1>  -0.1600 
 25 C       -6.7850    -8.0200    -1.3760 C.3   1 <1>  -0.1600 
 26 C       -5.8830    -8.6340     0.9140 C.3   1 <1>  -0.1600 
 27 C       -7.1280    -8.5620     0.0180 C.3   1 <1>  -0.1600 
 28 H       -2.6050     0.3660     1.4550 H     1 <1>   0.1500 
 29 H        1.3940    -4.4200     0.9050 H     1 <1>   0.1500 
 30 H        1.1610    -0.6910    -1.1320 H     1 <1>   0.1500 
 31 H       -5.0310    -3.1000    -1.0170 H     1 <1>   0.1500 
 32 H       -5.0000     0.6380     0.9920 H     1 <1>   0.1500 
 33 H       -2.3780    -5.8290    -0.9460 H     1 <1>   0.1500 
 34 H        3.8360    -4.3260     0.8060 H     1 <1>   0.1500 
 35 H        3.6020    -0.5920    -1.2400 H     1 <1>   0.1500 
 36 H       -6.2040    -1.0960    -0.2700 H     1 <1>   0.1500 
 37 H       -4.9130    -4.7140     0.1950 H     1 <1>   0.4000 
 38 H       -4.1120    -7.3820    -0.8530 H     1 <1>   0.0800 
 39 H        5.8190    -3.3850    -0.3300 H     1 <1>   0.0800 
 40 H        5.7840    -1.8930     0.5820 H     1 <1>   0.0800 
 41 H        5.7230    -1.8580    -1.1660 H     1 <1>   0.0800 
 42 H       -6.7680    -5.9350    -0.8780 H     1 <1>   0.0800 
 43 H       -5.7900    -6.3360    -2.2670 H     1 <1>   0.0800 
 44 H       -4.2780    -7.3660     1.5740 H     1 <1>   0.0800 
 45 H       -5.8320    -6.5730     1.5010 H     1 <1>   0.0800 
 46 H       -7.6850    -7.9220    -1.9570 H     1 <1>   0.0800 
 47 H       -6.1410    -8.7190    -1.8820 H     1 <1>   0.0800 
 48 H       -5.1990    -9.3630     0.5150 H     1 <1>   0.0800 
 49 H       -6.1670    -8.9560     1.9010 H     1 <1>   0.0800 
 50 H       -7.5620    -9.5430    -0.0740 H     1 <1>   0.0800 
 51 H       -7.8610    -7.9220     0.4790 H     1 <1>   0.0800 
@<TRIPOS>BOND
  1   1   2  2   
  2   2   3  am  
  3   2   4  1   
  4   3   5  am  
  5   3   6  1   
  6   4   7  ar  
  7   4   8  ar  
  8   5   9  2   
  9   5  10  1   
 10   6  11  ar  
 11   6  12  ar  
 12   7  10  1   
 13   7  13  ar  
 14   8  14  ar  
 15   8  28  1   
 16  10  15  2   
 17  11  16  ar  
 18  11  29  1   
 19  12  17  ar  
 20  12  30  1   
 21  13  18  ar  
 22  13  31  1   
 23  14  18  ar  
 24  14  32  1   
 25  15  19  1   
 26  15  33  1   
 27  16  20  ar  
 28  16  34  1   
 29  17  20  ar  
 30  17  35  1   
 31  18  36  1   
 32  19  21  1   
 33  19  37  1   
 34  20  22  1   
 35  21  23  1   
 36  21  24  1   
 37  21  38  1   
 38  22  39  1   
 39  22  40  1   
 40  22  41  1   
 41  23  25  1   
 42  23  42  1   
 43  23  43  1   
 44  24  26  1   
 45  24  44  1   
 46  24  45  1   
 47  25  27  1   
 48  25  46  1   
 49  25  47  1   
 50  26  27  1   
 51  26  48  1   
 52  26  49  1   
 53  27  50  1   
 54  27  51  1   
@<TRIPOS>SUBSTRUCTURE
  1 ****  10 GROUP 4 **** **** 0

# MOE 2024.06 (io_trps.svl 2023.06)
