@<TRIPOS>MOLECULE
NONAME
46 48 1 0 0 
SMALL
USER_CHARGES


@<TRIPOS>ATOM
  1 F       -1.7850     0.8630    -0.9050 F     1 <1>  -0.1900 
  2 C       -1.1100     1.9630    -0.6970 C.ar  1 <1>   0.1900 
  3 C       -1.5080     2.8090     0.3260 C.ar  1 <1>  -0.1440 
  4 C       -0.0360     2.2420    -1.5200 C.ar  1 <1>  -0.1500 
  5 C       -0.7880     3.9790     0.5240 C.ar  1 <1>  -0.1500 
  6 C       -2.6950     2.4550     1.1980 C.3   1 <1>   0.4870 
  7 C        0.6690     3.4140    -1.3110 C.ar  1 <1>  -0.1500 
  8 C        0.2920     4.2770    -0.2930 C.ar  1 <1>  -0.1500 
  9 N       -3.9270     2.4540     0.3650 N.4   1 <1>  -0.9590 
 10 C       -4.2140     3.8100    -0.2360 C.3   1 <1>   0.3430 
 11 C       -5.1210     1.9280     1.1210 C.3   1 <1>   0.3430 
 12 C       -5.4810     3.8200    -1.1170 C.3   1 <1>   0.2090 
 13 C       -6.3910     1.8720     0.2480 C.3   1 <1>   0.2090 
 14 N       -6.6400     3.1750    -0.4310 N.pl3 1 <1>  -0.8380 
 15 C       -7.6600     3.9790     0.0810 C.ar  1 <1>   0.1000 
 16 C       -8.9790     3.8610    -0.3720 C.ar  1 <1>  -0.1430 
 17 C       -7.3640     4.9010     1.0780 C.ar  1 <1>  -0.1500 
 18 C       -9.9770     4.6500     0.1960 C.ar  1 <1>  -0.1430 
 19 C       -9.3220     2.8680    -1.4840 C.3   1 <1>  -0.0970 
 20 C       -8.3520     5.6900     1.6290 C.ar  1 <1>  -0.1500 
 21 C       -9.6550     5.5620     1.1900 C.ar  1 <1>  -0.1500 
 22 C      -11.4340     4.5500    -0.2350 C.3   1 <1>  -0.0970 
 23 H        0.2450     1.5590    -2.3030 H     1 <1>   0.1500 
 24 H       -1.0500     4.6680     1.3110 H     1 <1>   0.1500 
 25 H       -2.7890     3.1670     2.0010 H     1 <1>   0.0800 
 26 H       -2.5380     1.4770     1.6250 H     1 <1>   0.0800 
 27 H        1.5130     3.6560    -1.9370 H     1 <1>   0.1500 
 28 H        0.8510     5.1860    -0.1360 H     1 <1>   0.1500 
 29 H       -3.7420     1.8110    -0.4190 H     1 <1>   0.4500 
 30 H       -3.3760     4.1330    -0.8320 H     1 <1>   0.0800 
 31 H       -4.3500     4.5300     0.5530 H     1 <1>   0.0800 
 32 H       -5.3250     2.5660     1.9640 H     1 <1>   0.0800 
 33 H       -4.9140     0.9390     1.4960 H     1 <1>   0.0800 
 34 H       -5.2860     3.2970    -2.0370 H     1 <1>   0.0800 
 35 H       -5.7350     4.8350    -1.3700 H     1 <1>   0.0800 
 36 H       -7.2380     1.6250     0.8670 H     1 <1>   0.0800 
 37 H       -6.2940     1.1000    -0.4940 H     1 <1>   0.0800 
 38 H       -6.3600     5.0040     1.4330 H     1 <1>   0.1500 
 39 H       -8.4690     2.6590    -2.1020 H     1 <1>   0.0800 
 40 H      -10.0850     3.2590    -2.1300 H     1 <1>   0.0800 
 41 H       -9.6680     1.9470    -1.0520 H     1 <1>   0.0800 
 42 H       -8.1160     6.4040     2.3990 H     1 <1>   0.1500 
 43 H      -10.4190     6.1790     1.6280 H     1 <1>   0.1500 
 44 H      -11.7530     3.5230    -0.2390 H     1 <1>   0.0800 
 45 H      -11.5530     4.9610    -1.2220 H     1 <1>   0.0800 
 46 H      -12.0740     5.0930     0.4360 H     1 <1>   0.0800 
@<TRIPOS>BOND
  1   1   2  1   
  2   2   3  ar  
  3   2   4  ar  
  4   3   5  ar  
  5   3   6  1   
  6   4   7  ar  
  7   4  23  1   
  8   5   8  ar  
  9   5  24  1   
 10   6   9  1   
 11   6  25  1   
 12   6  26  1   
 13   7   8  ar  
 14   7  27  1   
 15   8  28  1   
 16   9  10  1   
 17   9  11  1   
 18   9  29  1   
 19  10  12  1   
 20  10  30  1   
 21  10  31  1   
 22  11  13  1   
 23  11  32  1   
 24  11  33  1   
 25  12  14  1   
 26  12  34  1   
 27  12  35  1   
 28  13  14  1   
 29  13  36  1   
 30  13  37  1   
 31  14  15  1   
 32  15  16  ar  
 33  15  17  ar  
 34  16  18  ar  
 35  16  19  1   
 36  17  20  ar  
 37  17  38  1   
 38  18  21  ar  
 39  18  22  1   
 40  19  39  1   
 41  19  40  1   
 42  19  41  1   
 43  20  21  ar  
 44  20  42  1   
 45  21  43  1   
 46  22  44  1   
 47  22  45  1   
 48  22  46  1   
@<TRIPOS>SUBSTRUCTURE
  1 ****  10 GROUP 4 **** **** 0

# MOE 2024.06 (io_trps.svl 2023.06)
