@<TRIPOS>MOLECULE
NONAME
33 34 1 0 0 
SMALL
USER_CHARGES


@<TRIPOS>ATOM
  1 O       -0.4680    -1.1710     2.0900 O.2   1 <1>  -0.5700 
  2 C       -0.1440    -1.7610     1.0800 C.2   1 <1>   0.6900 
  3 N       -1.0870    -2.1200     0.1500 N.am  1 <1>  -0.6600 
  4 N        1.1770    -2.0710     0.9930 N.am  1 <1>  -0.4900 
  5 C       -2.3960    -1.4140     0.0740 C.3   1 <1>   0.1400 
  6 C       -0.9190    -3.2180    -0.8420 C.3   1 <1>   0.1400 
  7 C        2.0460    -2.1180    -0.0660 C.2   1 <1>   0.5440 
  8 C       -3.5430    -2.4170     0.2270 C.3   1 <1>  -0.1600 
  9 C       -2.0660    -4.2270    -0.7120 C.3   1 <1>  -0.1600 
 10 O        1.6700    -1.8130    -1.1790 O.2   1 <1>  -0.5700 
 11 C        3.4270    -2.5000     0.1670 C.ar  1 <1>   0.0860 
 12 C       -3.4400    -3.5490    -0.8040 C.3   1 <1>  -0.1600 
 13 C        4.4500    -2.0150    -0.6490 C.ar  1 <1>  -0.1500 
 14 C        3.7940    -3.3610     1.2060 C.ar  1 <1>  -0.1500 
 15 C        5.7720    -2.3560    -0.4350 C.ar  1 <1>  -0.1500 
 16 C        5.1150    -3.7060     1.4260 C.ar  1 <1>  -0.1500 
 17 C        6.1080    -3.2020     0.6060 C.ar  1 <1>  -0.1500 
 18 H        1.6120    -1.9540     1.9000 H     1 <1>   0.3700 
 19 H       -2.4670    -0.9210    -0.8800 H     1 <1>   0.0800 
 20 H       -2.4670    -0.6620     0.8410 H     1 <1>   0.0800 
 21 H        0.0120    -3.7320    -0.6860 H     1 <1>   0.0800 
 22 H       -0.9060    -2.7940    -1.8320 H     1 <1>   0.0800 
 23 H       -4.4810    -1.9030     0.1100 H     1 <1>   0.0800 
 24 H       -3.5140    -2.8240     1.2230 H     1 <1>   0.0800 
 25 H       -1.9760    -4.7310     0.2350 H     1 <1>   0.0800 
 26 H       -1.9760    -4.9670    -1.4870 H     1 <1>   0.0800 
 27 H       -3.5740    -3.1450    -1.7930 H     1 <1>   0.0800 
 28 H       -4.2170    -4.2730    -0.6290 H     1 <1>   0.0800 
 29 H        4.1980    -1.3570    -1.4650 H     1 <1>   0.1500 
 30 H        3.0400    -3.7790     1.8500 H     1 <1>   0.1500 
 31 H        6.5410    -1.9640    -1.0800 H     1 <1>   0.1500 
 32 H        5.3750    -4.3700     2.2330 H     1 <1>   0.1500 
 33 H        7.1380    -3.4690     0.7740 H     1 <1>   0.1500 
@<TRIPOS>BOND
  1   1   2  2   
  2   2   3  am  
  3   2   4  am  
  4   3   5  1   
  5   3   6  1   
  6   4   7  am  
  7   4  18  1   
  8   5   8  1   
  9   5  19  1   
 10   5  20  1   
 11   6   9  1   
 12   6  21  1   
 13   6  22  1   
 14   7  10  2   
 15   7  11  1   
 16   8  12  1   
 17   8  23  1   
 18   8  24  1   
 19   9  12  1   
 20   9  25  1   
 21   9  26  1   
 22  11  13  ar  
 23  11  14  ar  
 24  12  27  1   
 25  12  28  1   
 26  13  15  ar  
 27  13  29  1   
 28  14  16  ar  
 29  14  30  1   
 30  15  17  ar  
 31  15  31  1   
 32  16  17  ar  
 33  16  32  1   
 34  17  33  1   
@<TRIPOS>SUBSTRUCTURE
  1 ****   4 GROUP 4 **** **** 0

# MOE 2024.06 (io_trps.svl 2023.06)
