@<TRIPOS>MOLECULE
NONAME
38 41 1 0 0 
SMALL
USER_CHARGES


@<TRIPOS>ATOM
  1 S        0.1440     0.0440    -1.1220 S.3   1 <1>  -0.0800 
  2 C       -1.5070    -0.1120    -0.5450 C.2   1 <1>   0.4340 
  3 C        0.4610    -1.5620    -0.4950 C.ar  1 <1>   0.0400 
  4 S       -2.5720     1.2840    -0.8500 S.3   1 <1>  -0.2860 
  5 N       -1.8100    -1.2000     0.0380 N.2   1 <1>  -0.5650 
  6 C       -0.7040    -2.0430     0.0790 C.ar  1 <1>   0.2270 
  7 C        1.6430    -2.2750    -0.5360 C.ar  1 <1>  -0.1500 
  8 C       -4.1820     0.7560    -0.1170 C.3   1 <1>  -0.0100 
  9 C       -0.6740    -3.3100     0.6420 C.ar  1 <1>  -0.1500 
 10 C        1.6710    -3.5470     0.0300 C.ar  1 <1>   0.1170 
 11 C        0.4990    -4.0460     0.6140 C.ar  1 <1>  -0.1500 
 12 N        2.8560    -4.3180     0.0150 N.am  1 <1>  -0.2370 
 13 C        2.9280    -5.6720    -0.2240 C.2   1 <1>   0.5690 
 14 C        4.1270    -3.8350     0.2340 C.2   1 <1>   0.5690 
 15 O        2.0400    -6.3920    -0.6040 O.2   1 <1>  -0.5700 
 16 C        4.3230    -6.1690     0.0930 C.3   1 <1>  -0.0190 
 17 O        4.4300    -2.7350     0.6190 O.2   1 <1>  -0.5700 
 18 C        5.1420    -4.9020    -0.1150 C.3   1 <1>  -0.0190 
 19 C        4.9850    -7.3290    -0.6580 C.3   1 <1>  -0.1600 
 20 C        6.4850    -5.0430     0.6100 C.3   1 <1>  -0.1600 
 21 C        6.3980    -7.5380    -0.0700 C.3   1 <1>  -0.1600 
 22 C        7.2410    -6.2420    -0.0070 C.3   1 <1>  -0.1600 
 23 H        2.5160    -1.8440    -0.9920 H     1 <1>   0.1500 
 24 H       -4.8880     1.5540    -0.2620 H     1 <1>   0.0800 
 25 H       -4.0200     0.5660     0.9280 H     1 <1>   0.0800 
 26 H       -4.4960    -0.1380    -0.6250 H     1 <1>   0.0800 
 27 H       -1.5680    -3.7020     1.0910 H     1 <1>   0.1500 
 28 H        0.5060    -5.0290     1.0520 H     1 <1>   0.1500 
 29 H        4.3070    -6.4180     1.1410 H     1 <1>   0.0800 
 30 H        5.3440    -4.7740    -1.1650 H     1 <1>   0.0800 
 31 H        5.0460    -7.1080    -1.7100 H     1 <1>   0.0800 
 32 H        4.3990    -8.2250    -0.5390 H     1 <1>   0.0800 
 33 H        6.3280    -5.2020     1.6640 H     1 <1>   0.0800 
 34 H        7.0630    -4.1420     0.4910 H     1 <1>   0.0800 
 35 H        6.9220    -8.2770    -0.6530 H     1 <1>   0.0800 
 36 H        6.3010    -7.9310     0.9280 H     1 <1>   0.0800 
 37 H        8.1400    -6.4260     0.5570 H     1 <1>   0.0800 
 38 H        7.5410    -5.9810    -1.0080 H     1 <1>   0.0800 
@<TRIPOS>BOND
  1   1   2  1   
  2   1   3  1   
  3   2   4  1   
  4   2   5  2   
  5   3   6  ar  
  6   3   7  ar  
  7   4   8  1   
  8   5   6  1   
  9   6   9  ar  
 10   7  10  ar  
 11   7  23  1   
 12   8  24  1   
 13   8  25  1   
 14   8  26  1   
 15   9  11  ar  
 16   9  27  1   
 17  10  11  ar  
 18  10  12  1   
 19  11  28  1   
 20  12  13  am  
 21  12  14  am  
 22  13  15  2   
 23  13  16  1   
 24  14  17  2   
 25  14  18  1   
 26  16  18  1   
 27  16  19  1   
 28  16  29  1   
 29  18  20  1   
 30  18  30  1   
 31  19  21  1   
 32  19  31  1   
 33  19  32  1   
 34  20  22  1   
 35  20  33  1   
 36  20  34  1   
 37  21  22  1   
 38  21  35  1   
 39  21  36  1   
 40  22  37  1   
 41  22  38  1   
@<TRIPOS>SUBSTRUCTURE
  1 ****  10 GROUP 4 **** **** 0

# MOE 2024.06 (io_trps.svl 2023.06)
