@<TRIPOS>MOLECULE
NONAME
40 41 1 0 0 
SMALL
USER_CHARGES


@<TRIPOS>ATOM
  1 O        1.4450    -1.0870     2.6310 O.3   1 <1>  -0.6800 
  2 C        2.5500    -1.5930     1.9650 C.3   1 <1>   0.1200 
  3 C        3.2360    -0.4380     1.2290 C.3   1 <1>   0.1100 
  4 N        4.4260    -0.8930     0.4750 N.3   1 <1>  -0.8100 
  5 C        4.0590    -1.5940    -0.7820 C.3   1 <1>   0.1100 
  6 C        5.3140     0.2580     0.1740 C.3   1 <1>   0.1100 
  7 C        5.3010    -2.0680    -1.5780 C.3   1 <1>   0.3430 
  8 C        6.5530    -0.1410    -0.6650 C.3   1 <1>   0.3430 
  9 N        6.5710    -1.6190    -0.9240 N.4   1 <1>  -0.9590 
 10 C        7.8090    -2.1030    -1.5870 C.3   1 <1>   0.4860 
 11 C        9.0030    -1.6890    -0.7510 C.ar  1 <1>  -0.1440 
 12 C        9.2380    -2.2860     0.4800 C.ar  1 <1>  -0.1500 
 13 C        9.8630    -0.7000    -1.2060 C.ar  1 <1>  -0.1500 
 14 C       10.3130    -1.8930     1.2590 C.ar  1 <1>  -0.1440 
 15 C       10.9370    -0.3050    -0.4300 C.ar  1 <1>  -0.1500 
 16 C       11.1590    -0.8980     0.8000 C.ar  1 <1>  -0.1500 
 17 C       10.5640    -2.5460     2.6070 C.3   1 <1>  -0.0970 
 18 H        1.0030    -1.7820     3.1590 H     1 <1>   0.4000 
 19 H        2.2060    -2.3470     1.2810 H     1 <1>   0.0800 
 20 H        3.2160    -2.0220     2.6930 H     1 <1>   0.0800 
 21 H        3.5380     0.2810     1.9720 H     1 <1>   0.0800 
 22 H        2.5340     0.0370     0.5640 H     1 <1>   0.0800 
 23 H        3.4710    -0.9410    -1.4050 H     1 <1>   0.0800 
 24 H        3.4510    -2.4540    -0.5560 H     1 <1>   0.0800 
 25 H        5.6540     0.6930     1.0990 H     1 <1>   0.0800 
 26 H        4.7640     1.0190    -0.3540 H     1 <1>   0.0800 
 27 H        5.2440    -1.6810    -2.5820 H     1 <1>   0.0800 
 28 H        5.2830    -3.1440    -1.6400 H     1 <1>   0.0800 
 29 H        7.4410     0.1520    -0.1280 H     1 <1>   0.0800 
 30 H        6.5410     0.3990    -1.5970 H     1 <1>   0.0800 
 31 H        6.5320    -2.0150     0.0260 H     1 <1>   0.4500 
 32 H        7.8910    -1.6820    -2.5750 H     1 <1>   0.0800 
 33 H        7.7900    -3.1770    -1.6730 H     1 <1>   0.0800 
 34 H        8.5890    -3.0630     0.8460 H     1 <1>   0.1500 
 35 H        9.7130    -0.2270    -2.1620 H     1 <1>   0.1500 
 36 H       11.6060     0.4630    -0.7800 H     1 <1>   0.1500 
 37 H       11.9980    -0.5820     1.3970 H     1 <1>   0.1500 
 38 H        9.9850    -2.0520     3.3670 H     1 <1>   0.0800 
 39 H       11.6050    -2.4820     2.8700 H     1 <1>   0.0800 
 40 H       10.2880    -3.5850     2.5800 H     1 <1>   0.0800 
@<TRIPOS>BOND
  1   1   2  1   
  2   1  18  1   
  3   2   3  1   
  4   2  19  1   
  5   2  20  1   
  6   3   4  1   
  7   3  21  1   
  8   3  22  1   
  9   4   5  1   
 10   4   6  1   
 11   5   7  1   
 12   5  23  1   
 13   5  24  1   
 14   6   8  1   
 15   6  25  1   
 16   6  26  1   
 17   7   9  1   
 18   7  27  1   
 19   7  28  1   
 20   8   9  1   
 21   8  29  1   
 22   8  30  1   
 23   9  10  1   
 24   9  31  1   
 25  10  11  1   
 26  10  32  1   
 27  10  33  1   
 28  11  12  ar  
 29  11  13  ar  
 30  12  14  ar  
 31  12  34  1   
 32  13  15  ar  
 33  13  35  1   
 34  14  16  ar  
 35  14  17  1   
 36  15  16  ar  
 37  15  36  1   
 38  16  37  1   
 39  17  38  1   
 40  17  39  1   
 41  17  40  1   
@<TRIPOS>SUBSTRUCTURE
  1 ****   9 GROUP 4 **** **** 0

# MOE 2024.06 (io_trps.svl 2023.06)
