@<TRIPOS>MOLECULE
NONAME
32 33 1 0 0 
SMALL
USER_CHARGES


@<TRIPOS>ATOM
  1 CL      -1.8640     1.1070     2.0670 Cl    1 <1>  -0.1770 
  2 C       -0.9320     2.2860     1.1670 C.ar  1 <1>   0.1770 
  3 C        0.1470     2.9190     1.7630 C.ar  1 <1>   0.1770 
  4 C       -1.2960     2.5830    -0.1390 C.ar  1 <1>  -0.1440 
  5 CL       0.5960     2.5510     3.4100 Cl    1 <1>  -0.1770 
  6 C        0.8810     3.8580     1.0630 C.ar  1 <1>  -0.1500 
  7 C       -0.5540     3.5270    -0.8400 C.ar  1 <1>  -0.1500 
  8 C       -2.4760     1.8850    -0.7910 C.3   1 <1>   0.4870 
  9 C        0.5260     4.1600    -0.2420 C.ar  1 <1>  -0.1500 
 10 N       -3.7410     2.3050    -0.1250 N.4   1 <1>  -0.9590 
 11 C       -4.9020     1.4900    -0.6240 C.3   1 <1>   0.3430 
 12 C       -3.9910     3.7720    -0.2520 C.3   1 <1>   0.3430 
 13 C       -6.2210     1.8600     0.0810 C.3   1 <1>   0.2000 
 14 C       -5.2540     4.1510     0.5270 C.3   1 <1>  -0.1600 
 15 O       -7.2470     1.2300    -0.5900 O.3   1 <1>  -0.6800 
 16 C       -6.4860     3.3690     0.0440 C.3   1 <1>  -0.1600 
 17 H        1.7180     4.3440     1.5340 H     1 <1>   0.1500 
 18 H       -0.8000     3.7790    -1.8600 H     1 <1>   0.1500 
 19 H       -2.3490     0.8180    -0.6950 H     1 <1>   0.0800 
 20 H       -2.5130     2.1280    -1.8400 H     1 <1>   0.0800 
 21 H        1.0980     4.8890    -0.7940 H     1 <1>   0.1500 
 22 H       -3.6190     2.0960     0.8770 H     1 <1>   0.4500 
 23 H       -4.7110     0.4410    -0.4680 H     1 <1>   0.0800 
 24 H       -5.0290     1.6610    -1.6810 H     1 <1>   0.0800 
 25 H       -4.1180     4.0340    -1.2900 H     1 <1>   0.0800 
 26 H       -3.1520     4.3280     0.1370 H     1 <1>   0.0800 
 27 H       -6.2120     1.4950     1.0940 H     1 <1>   0.0800 
 28 H       -5.4350     5.2050     0.4020 H     1 <1>   0.0800 
 29 H       -5.0930     3.9780     1.5770 H     1 <1>   0.0800 
 30 H       -8.1130     1.4170    -0.1710 H     1 <1>   0.4000 
 31 H       -7.3300     3.6070     0.6690 H     1 <1>   0.0800 
 32 H       -6.7150     3.6680    -0.9660 H     1 <1>   0.0800 
@<TRIPOS>BOND
  1   1   2  1   
  2   2   3  ar  
  3   2   4  ar  
  4   3   5  1   
  5   3   6  ar  
  6   4   7  ar  
  7   4   8  1   
  8   6   9  ar  
  9   6  17  1   
 10   7   9  ar  
 11   7  18  1   
 12   8  10  1   
 13   8  19  1   
 14   8  20  1   
 15   9  21  1   
 16  10  11  1   
 17  10  12  1   
 18  10  22  1   
 19  11  13  1   
 20  11  23  1   
 21  11  24  1   
 22  12  14  1   
 23  12  25  1   
 24  12  26  1   
 25  13  15  1   
 26  13  16  1   
 27  13  27  1   
 28  14  16  1   
 29  14  28  1   
 30  14  29  1   
 31  15  30  1   
 32  16  31  1   
 33  16  32  1   
@<TRIPOS>SUBSTRUCTURE
  1 ****  10 GROUP 4 **** **** 0

# MOE 2024.06 (io_trps.svl 2023.06)
