@<TRIPOS>MOLECULE
NONAME
32 32 1 0 0 
SMALL
USER_CHARGES


@<TRIPOS>ATOM
  1 CL      -0.0950     1.1150    -2.5920 Cl    1 <1>  -0.1770 
  2 C       -0.8930     2.0780    -1.3670 C.ar  1 <1>   0.1770 
  3 C       -0.1630     2.9140    -0.5320 C.ar  1 <1>   0.0820 
  4 C       -2.2670     1.9760    -1.2630 C.ar  1 <1>  -0.1500 
  5 O        1.1840     2.9720    -0.6800 O.3   1 <1>  -0.3630 
  6 C       -0.8530     3.6570     0.4220 C.ar  1 <1>  -0.1500 
  7 C       -2.9610     2.7150    -0.3130 C.ar  1 <1>  -0.0090 
  8 C        1.9880     3.7950     0.1670 C.3   1 <1>   0.0140 
  9 C       -2.2300     3.5520     0.5230 C.ar  1 <1>  -0.1500 
 10 S       -4.7610     2.6040    -0.1600 S.o2  1 <1>   1.4470 
 11 C        3.4770     3.7090    -0.1280 C.2   1 <1>   0.9060 
 12 O       -5.3180     1.8310    -1.2450 O.2   1 <1>  -0.6500 
 13 O       -5.1200     2.3180     1.2100 O.2   1 <1>  -0.6500 
 14 N       -5.2600     4.1690    -0.4930 N.am  1 <1>  -0.9140 
 15 O        3.9780     4.5270    -0.9100 O.co2 1 <1>  -0.9000 
 16 O        4.1590     2.8840     0.4920 O.co2 1 <1>  -0.9000 
 17 C       -6.5620     4.4760     0.0680 C.3   1 <1>   0.1960 
 18 C       -6.9870     5.8620    -0.4150 C.3   1 <1>  -0.1600 
 19 C       -8.3550     6.2550     0.1530 C.3   1 <1>  -0.2400 
 20 H       -2.7940     1.3150    -1.9300 H     1 <1>   0.1500 
 21 H       -0.3350     4.3180     1.0920 H     1 <1>   0.1500 
 22 H        1.8350     3.4860     1.1820 H     1 <1>   0.0800 
 23 H        1.6830     4.8150     0.0350 H     1 <1>   0.0800 
 24 H       -2.7510     4.1330     1.2660 H     1 <1>   0.1500 
 25 H       -5.3720     4.1690    -1.5050 H     1 <1>   0.4200 
 26 H       -6.5060     4.4660     1.1450 H     1 <1>   0.0800 
 27 H       -7.2830     3.7370    -0.2450 H     1 <1>   0.0800 
 28 H       -7.0380     5.8710    -1.4900 H     1 <1>   0.0800 
 29 H       -6.2550     6.5850    -0.0990 H     1 <1>   0.0800 
 30 H       -9.1110     5.5560    -0.1610 H     1 <1>   0.0800 
 31 H       -8.6300     7.2350    -0.1970 H     1 <1>   0.0800 
 32 H       -8.3260     6.2740     1.2290 H     1 <1>   0.0800 
@<TRIPOS>BOND
  1   1   2  1   
  2   2   3  ar  
  3   2   4  ar  
  4   3   5  1   
  5   3   6  ar  
  6   4   7  ar  
  7   4  20  1   
  8   5   8  1   
  9   6   9  ar  
 10   6  21  1   
 11   7   9  ar  
 12   7  10  1   
 13   8  11  1   
 14   8  22  1   
 15   8  23  1   
 16   9  24  1   
 17  10  12  2   
 18  10  13  2   
 19  10  14  am  
 20  11  15  ar  
 21  11  16  ar  
 22  14  17  1   
 23  14  25  1   
 24  17  18  1   
 25  17  26  1   
 26  17  27  1   
 27  18  19  1   
 28  18  28  1   
 29  18  29  1   
 30  19  30  1   
 31  19  31  1   
 32  19  32  1   
@<TRIPOS>SUBSTRUCTURE
  1 ****   9 GROUP 4 **** **** 0

# MOE 2024.06 (io_trps.svl 2023.06)
