@<TRIPOS>MOLECULE
NONAME
36 37 1 0 0 
SMALL
USER_CHARGES


@<TRIPOS>ATOM
  1 O       -0.3510    -1.0540     2.0910 O.2   1 <1>  -0.5700 
  2 C       -0.1410    -1.7100     1.0910 C.2   1 <1>   0.6900 
  3 N       -1.1810    -2.1060     0.2860 N.am  1 <1>  -0.6600 
  4 N        1.1590    -2.0500     0.8880 N.am  1 <1>  -0.4900 
  5 C       -1.1300    -3.2650    -0.6470 C.3   1 <1>   0.1400 
  6 C       -2.4810    -1.3820     0.3020 C.3   1 <1>   0.1400 
  7 C        1.9130    -2.1780    -0.2490 C.2   1 <1>   0.5440 
  8 C       -2.2720    -4.2400    -0.3400 C.3   1 <1>  -0.1600 
  9 C       -3.6190    -2.3530     0.6300 C.3   1 <1>  -0.1600 
 10 O        1.4270    -1.9340    -1.3340 O.2   1 <1>  -0.5700 
 11 C        3.3060    -2.5720    -0.1360 C.ar  1 <1>   0.0860 
 12 C       -3.6400    -3.5410    -0.3430 C.3   1 <1>  -0.0800 
 13 C        4.2440    -2.1560    -1.0820 C.ar  1 <1>  -0.1500 
 14 C        3.7670    -3.3740     0.9120 C.ar  1 <1>  -0.1500 
 15 C       -4.7520    -4.5270     0.0300 C.3   1 <1>  -0.2400 
 16 C        5.5770    -2.5090    -0.9850 C.ar  1 <1>  -0.1500 
 17 C        5.1000    -3.7300     1.0150 C.ar  1 <1>  -0.1500 
 18 C        6.0090    -3.2960     0.0670 C.ar  1 <1>  -0.1500 
 19 H        1.6870    -1.8860     1.7370 H     1 <1>   0.3700 
 20 H       -0.1960    -3.7880    -0.5530 H     1 <1>   0.0800 
 21 H       -1.2110    -2.9020    -1.6570 H     1 <1>   0.0800 
 22 H       -2.6430    -0.9430    -0.6670 H     1 <1>   0.0800 
 23 H       -2.4640    -0.5860     1.0280 H     1 <1>   0.0800 
 24 H       -2.0910    -4.6860     0.6230 H     1 <1>   0.0800 
 25 H       -2.2640    -5.0270    -1.0720 H     1 <1>   0.0800 
 26 H       -4.5540    -1.8240     0.5800 H     1 <1>   0.0800 
 27 H       -3.4910    -2.7020     1.6400 H     1 <1>   0.0800 
 28 H       -3.8320    -3.1690    -1.3360 H     1 <1>   0.0800 
 29 H        3.9170    -1.5460    -1.9070 H     1 <1>   0.1500 
 30 H        3.0800    -3.7370     1.6550 H     1 <1>   0.1500 
 31 H       -4.5940    -4.9200     1.0190 H     1 <1>   0.0800 
 32 H       -4.7740    -5.3460    -0.6660 H     1 <1>   0.0800 
 33 H       -5.7090    -4.0360     0.0050 H     1 <1>   0.0800 
 34 H        6.2790    -2.1730    -1.7290 H     1 <1>   0.1500 
 35 H        5.4350    -4.3470     1.8310 H     1 <1>   0.1500 
 36 H        7.0470    -3.5720     0.1450 H     1 <1>   0.1500 
@<TRIPOS>BOND
  1   1   2  2   
  2   2   3  am  
  3   2   4  am  
  4   3   5  1   
  5   3   6  1   
  6   4   7  am  
  7   4  19  1   
  8   5   8  1   
  9   5  20  1   
 10   5  21  1   
 11   6   9  1   
 12   6  22  1   
 13   6  23  1   
 14   7  10  2   
 15   7  11  1   
 16   8  12  1   
 17   8  24  1   
 18   8  25  1   
 19   9  12  1   
 20   9  26  1   
 21   9  27  1   
 22  11  13  ar  
 23  11  14  ar  
 24  12  15  1   
 25  12  28  1   
 26  13  16  ar  
 27  13  29  1   
 28  14  17  ar  
 29  14  30  1   
 30  15  31  1   
 31  15  32  1   
 32  15  33  1   
 33  16  18  ar  
 34  16  34  1   
 35  17  18  ar  
 36  17  35  1   
 37  18  36  1   
@<TRIPOS>SUBSTRUCTURE
  1 ****   4 GROUP 4 **** **** 0

# MOE 2024.06 (io_trps.svl 2023.06)
