@<TRIPOS>MOLECULE
NONAME
50 52 1 0 0 
SMALL
USER_CHARGES


@<TRIPOS>ATOM
  1 CL       0.7400     0.7020    -1.2430 Cl    1 <1>  -0.1770 
  2 C        1.8650    -0.4780    -0.6110 C.ar  1 <1>   0.1770 
  3 C        1.3950    -1.6050     0.0480 C.ar  1 <1>  -0.1440 
  4 C        3.2150    -0.2520    -0.7900 C.ar  1 <1>  -0.1500 
  5 C        2.3240    -2.5150     0.5300 C.ar  1 <1>  -0.1500 
  6 C       -0.0940    -1.8460     0.2430 C.3   1 <1>  -0.0960 
  7 C        4.1470    -1.1590    -0.3060 C.ar  1 <1>   0.1170 
  8 C        3.6790    -2.2940     0.3530 C.ar  1 <1>  -0.1500 
  9 N        5.5100    -0.9060    -0.5170 N.am  1 <1>  -0.5470 
 10 C        6.6070    -1.3280     0.1720 C.2   1 <1>   0.6900 
 11 O        6.5270    -1.9530     1.2110 O.2   1 <1>  -0.5700 
 12 N        7.8300    -1.0290    -0.3340 N.am  1 <1>  -0.7300 
 13 C        9.0820    -1.3820     0.3490 C.3   1 <1>   0.2200 
 14 C       10.1760    -0.3840    -0.0190 C.3   1 <1>  -0.1600 
 15 C        9.4890    -2.8010    -0.0410 C.3   1 <1>  -0.1600 
 16 C       11.4940    -0.7820     0.6430 C.3   1 <1>   0.3430 
 17 C       10.8070    -3.1740     0.6290 C.3   1 <1>   0.3430 
 18 N       11.8570    -2.1820     0.2610 N.4   1 <1>  -0.9590 
 19 C       13.1840    -2.5690     0.8180 C.3   1 <1>   0.4860 
 20 C       14.2410    -1.6780     0.1980 C.ar  1 <1>  -0.1430 
 21 C       14.8240    -0.6620     0.9440 C.ar  1 <1>  -0.1500 
 22 C       14.6300    -1.8660    -1.1210 C.ar  1 <1>  -0.1500 
 23 C       15.7740     0.1650     0.3710 C.ar  1 <1>  -0.1500 
 24 C       15.5800    -1.0370    -1.6910 C.ar  1 <1>  -0.1500 
 25 C       16.1500    -0.0210    -0.9470 C.ar  1 <1>  -0.1500 
 26 H        3.5300     0.6360    -1.3040 H     1 <1>   0.1500 
 27 H        1.9990    -3.4010     1.0480 H     1 <1>   0.1500 
 28 H       -0.5850    -1.9050    -0.7120 H     1 <1>   0.0800 
 29 H       -0.5260    -1.0380     0.8060 H     1 <1>   0.0800 
 30 H       -0.2700    -2.7640     0.7740 H     1 <1>   0.0800 
 31 H        4.3760    -3.0180     0.7330 H     1 <1>   0.1500 
 32 H        5.7080    -0.2050    -1.2220 H     1 <1>   0.3700 
 33 H        7.8980    -0.6790    -1.2870 H     1 <1>   0.3700 
 34 H        8.9170    -1.3430     1.4150 H     1 <1>   0.0800 
 35 H        9.8960     0.5950     0.3270 H     1 <1>   0.0800 
 36 H       10.3110    -0.3410    -1.0860 H     1 <1>   0.0800 
 37 H        9.5840    -2.8920    -1.1080 H     1 <1>   0.0800 
 38 H        8.7290    -3.4890     0.2890 H     1 <1>   0.0800 
 39 H       11.3940    -0.7100     1.7140 H     1 <1>   0.0800 
 40 H       12.2690    -0.0990     0.3300 H     1 <1>   0.0800 
 41 H       11.1000    -4.1630     0.3150 H     1 <1>   0.0800 
 42 H       10.6710    -3.1850     1.7000 H     1 <1>   0.0800 
 43 H       11.9720    -2.1890    -0.7610 H     1 <1>   0.4500 
 44 H       13.4040    -3.5970     0.5780 H     1 <1>   0.0800 
 45 H       13.1880    -2.4590     1.8900 H     1 <1>   0.0800 
 46 H       14.5530    -0.5010     1.9740 H     1 <1>   0.1500 
 47 H       14.2100    -2.6560    -1.7200 H     1 <1>   0.1500 
 48 H       16.2270     0.9540     0.9490 H     1 <1>   0.1500 
 49 H       15.8830    -1.1820    -2.7150 H     1 <1>   0.1500 
 50 H       16.8910     0.6230    -1.3910 H     1 <1>   0.1500 
@<TRIPOS>BOND
  1   1   2  1   
  2   2   3  ar  
  3   2   4  ar  
  4   3   5  ar  
  5   3   6  1   
  6   4   7  ar  
  7   4  26  1   
  8   5   8  ar  
  9   5  27  1   
 10   6  28  1   
 11   6  29  1   
 12   6  30  1   
 13   7   8  ar  
 14   7   9  1   
 15   8  31  1   
 16   9  10  am  
 17   9  32  1   
 18  10  11  2   
 19  10  12  am  
 20  12  13  1   
 21  12  33  1   
 22  13  14  1   
 23  13  15  1   
 24  13  34  1   
 25  14  16  1   
 26  14  35  1   
 27  14  36  1   
 28  15  17  1   
 29  15  37  1   
 30  15  38  1   
 31  16  18  1   
 32  16  39  1   
 33  16  40  1   
 34  17  18  1   
 35  17  41  1   
 36  17  42  1   
 37  18  19  1   
 38  18  43  1   
 39  19  20  1   
 40  19  44  1   
 41  19  45  1   
 42  20  21  ar  
 43  20  22  ar  
 44  21  23  ar  
 45  21  46  1   
 46  22  24  ar  
 47  22  47  1   
 48  23  25  ar  
 49  23  48  1   
 50  24  25  ar  
 51  24  49  1   
 52  25  50  1   
@<TRIPOS>SUBSTRUCTURE
  1 ****  12 GROUP 4 **** **** 0

# MOE 2024.06 (io_trps.svl 2023.06)
