@<TRIPOS>MOLECULE
NONAME
57 61 1 0 0 
SMALL
USER_CHARGES


@<TRIPOS>ATOM
  1 O       -0.8320    -5.8770     1.5950 O.co2 1 <1>  -0.9000 
  2 C       -0.9860    -4.6500     1.6340 C.2   1 <1>   0.9060 
  3 O       -2.1110    -4.1800     1.8310 O.co2 1 <1>  -0.9000 
  4 C        0.1850    -3.7180     1.3550 C.3   1 <1>  -0.1860 
  5 C        0.1850    -3.0640    -0.1960 C.3   1 <1>  -0.0190 
  6 C        1.6570    -4.4190     1.5900 C.3   1 <1>  -0.0800 
  7 C       -1.1320    -3.0580    -1.0030 C.2   1 <1>   0.5690 
  8 C        1.5440    -3.5770    -0.9500 C.3   1 <1>  -0.0800 
  9 C        1.6190    -3.9770     0.3310 C.3   1 <1>  -0.1600 
 10 C        3.0510    -4.8640     0.8490 C.3   1 <1>  -0.1600 
 11 O       -1.5900    -1.9600    -1.2280 O.2   1 <1>  -0.5700 
 12 N       -1.8080    -4.1660    -1.4800 N.am  1 <1>  -0.6600 
 13 C        3.0210    -4.2380    -0.7060 C.3   1 <1>  -0.1600 
 14 C       -1.3720    -5.5940    -1.4660 C.3   1 <1>   0.1400 
 15 C       -3.2650    -4.0460    -1.7420 C.3   1 <1>   0.1400 
 16 C       -2.3370    -6.5830    -0.7580 C.3   1 <1>   0.3430 
 17 C       -3.9900    -4.6380    -0.5330 C.3   1 <1>   0.3430 
 18 N       -3.7200    -6.1060    -0.3540 N.4   1 <1>  -0.9590 
 19 C       -3.8910    -6.4300     1.0930 C.3   1 <1>   0.4860 
 20 C       -4.0830    -7.9290     1.2120 C.ar  1 <1>  -0.1440 
 21 C       -5.2920    -8.5420     0.7980 C.ar  1 <1>   0.0000 
 22 C       -3.0480    -8.6760     1.7100 C.ar  1 <1>  -0.1500 
 23 C       -5.3800    -9.9520     0.8580 C.ar  1 <1>   0.0000 
 24 C       -6.4230    -7.8310     0.3290 C.ar  1 <1>  -0.1500 
 25 C       -3.1530   -10.0670     1.7940 C.ar  1 <1>  -0.1500 
 26 C       -4.2920   -10.6870     1.3690 C.ar  1 <1>  -0.1500 
 27 C       -6.5550   -10.5880     0.4100 C.ar  1 <1>  -0.1500 
 28 C       -7.5530    -8.4740    -0.0940 C.ar  1 <1>  -0.1500 
 29 C       -7.6190    -9.8700    -0.0590 C.ar  1 <1>  -0.1500 
 30 H        0.0620    -2.9110     2.0570 H     1 <1>   0.0800 
 31 H        0.3430    -2.0040    -0.0330 H     1 <1>   0.0800 
 32 H        2.0410    -3.8130     2.4000 H     1 <1>   0.0800 
 33 H        1.1460    -4.2210    -1.7210 H     1 <1>   0.0800 
 34 H        1.1510    -5.0030     0.0190 H     1 <1>   0.0800 
 35 H        2.0960    -2.9580     0.6740 H     1 <1>   0.0800 
 36 H        3.1180    -5.9410     0.8170 H     1 <1>   0.0800 
 37 H        3.9110    -4.5000     1.3880 H     1 <1>   0.0800 
 38 H        3.7870    -3.4840    -0.8170 H     1 <1>   0.0800 
 39 H        3.2220    -5.0130    -1.4280 H     1 <1>   0.0800 
 40 H       -0.4160    -5.6970    -1.0050 H     1 <1>   0.0800 
 41 H       -1.2540    -5.9140    -2.4860 H     1 <1>   0.0800 
 42 H       -3.5280    -4.5700    -2.6430 H     1 <1>   0.0800 
 43 H       -3.5580    -3.0180    -1.8600 H     1 <1>   0.0800 
 44 H       -1.8290    -6.9580     0.1110 H     1 <1>   0.0800 
 45 H       -2.4480    -7.4410    -1.3980 H     1 <1>   0.0800 
 46 H       -5.0490    -4.4730    -0.6340 H     1 <1>   0.0800 
 47 H       -3.6600    -4.0940     0.3360 H     1 <1>   0.0800 
 48 H       -4.4100    -6.6670    -0.8590 H     1 <1>   0.4500 
 49 H       -4.7450    -5.9180     1.5020 H     1 <1>   0.0800 
 50 H       -3.0260    -6.1320     1.6560 H     1 <1>   0.0800 
 51 H       -2.1320    -8.2060     2.0420 H     1 <1>   0.1500 
 52 H       -6.4090    -6.7580     0.3110 H     1 <1>   0.1500 
 53 H       -2.3260   -10.6300     2.1920 H     1 <1>   0.1500 
 54 H       -4.3770   -11.7580     1.4250 H     1 <1>   0.1500 
 55 H       -6.6030   -11.6620     0.4490 H     1 <1>   0.1500 
 56 H       -8.4080    -7.9260    -0.4500 H     1 <1>   0.1500 
 57 H       -8.5140   -10.3630    -0.3970 H     1 <1>   0.1500 
@<TRIPOS>BOND
  1   1   2  ar  
  2   2   3  ar  
  3   2   4  1   
  4   4   5  1   
  5   4   6  1   
  6   4  30  1   
  7   5   7  1   
  8   5   8  1   
  9   5  31  1   
 10   6   9  1   
 11   6  10  1   
 12   6  32  1   
 13   7  11  2   
 14   7  12  am  
 15   8   9  1   
 16   8  13  1   
 17   8  33  1   
 18   9  34  1   
 19   9  35  1   
 20  10  13  1   
 21  10  36  1   
 22  10  37  1   
 23  12  14  1   
 24  12  15  1   
 25  13  38  1   
 26  13  39  1   
 27  14  16  1   
 28  14  40  1   
 29  14  41  1   
 30  15  17  1   
 31  15  42  1   
 32  15  43  1   
 33  16  18  1   
 34  16  44  1   
 35  16  45  1   
 36  17  18  1   
 37  17  46  1   
 38  17  47  1   
 39  18  19  1   
 40  18  48  1   
 41  19  20  1   
 42  19  49  1   
 43  19  50  1   
 44  20  21  ar  
 45  20  22  ar  
 46  21  23  ar  
 47  21  24  ar  
 48  22  25  ar  
 49  22  51  1   
 50  23  26  ar  
 51  23  27  ar  
 52  24  28  ar  
 53  24  52  1   
 54  25  26  ar  
 55  25  53  1   
 56  26  54  1   
 57  27  29  ar  
 58  27  55  1   
 59  28  29  ar  
 60  28  56  1   
 61  29  57  1   
@<TRIPOS>SUBSTRUCTURE
  1 ****  16 GROUP 4 **** **** 0

# MOE 2024.06 (io_trps.svl 2023.06)
