@<TRIPOS>MOLECULE
NONAME
57 60 1 0 0 
SMALL
USER_CHARGES


@<TRIPOS>ATOM
  1 O        0.3220    -1.0790    -2.3420 O.2   1 <1>  -0.5700 
  2 C        0.1620    -1.9670    -1.5420 C.2   1 <1>   0.4950 
  3 C        1.1860    -2.5110    -0.6840 C.2   1 <1>   0.0140 
  4 C       -1.2330    -2.5700    -1.5150 C.3   1 <1>  -0.0990 
  5 C        0.9540    -3.6740     0.0000 C.2   1 <1>  -0.0380 
  6 C        2.5000    -1.8840    -0.5630 C.2   1 <1>   0.0000 
  7 C       -1.5210    -3.2990    -0.1970 C.3   1 <1>   0.0640 
  8 N        1.9840    -4.3660     0.5850 N.pl3 1 <1>  -0.6000 
  9 C       -0.4180    -4.3180     0.1090 C.3   1 <1>  -0.0220 
 10 C        3.5930    -2.8140    -0.2660 C.2   1 <1>   0.0140 
 11 C        2.6500    -0.5080    -0.5790 C.2   1 <1>   0.1000 
 12 C       -2.8990    -3.9580    -0.2060 C.ar  1 <1>  -0.1430 
 13 C        3.2900    -4.0110     0.3360 C.2   1 <1>  -0.0380 
 14 C        4.9540    -2.4530    -0.5550 C.2   1 <1>   0.7060 
 15 N        3.8410     0.1300    -1.0110 N.pl3 1 <1>  -0.6000 
 16 C        1.6420     0.4150    -0.1320 C.2   1 <1>  -0.1500 
 17 C       -3.8530    -3.5780     0.7280 C.ar  1 <1>  -0.1500 
 18 C       -3.2190    -4.9390    -1.1360 C.ar  1 <1>  -0.1500 
 19 C        4.2920    -5.0760     0.7620 C.3   1 <1>  -0.1020 
 20 O        5.3450    -2.1430    -1.6670 O.2   1 <1>  -0.5700 
 21 O        5.8270    -2.4420     0.4620 O.3   1 <1>  -0.4300 
 22 C        4.0230     1.5050    -1.0000 C.2   1 <1>  -0.0500 
 23 C        1.8120     1.7610    -0.1140 C.2   1 <1>  -0.1500 
 24 C       -5.1130    -4.1710     0.7360 C.ar  1 <1>   0.0820 
 25 C       -4.4690    -5.5310    -1.1330 C.ar  1 <1>  -0.1500 
 26 C        7.1710    -2.0290     0.3220 C.3   1 <1>   0.1200 
 27 C        3.0410     2.3220    -0.5590 C.2   1 <1>  -0.1500 
 28 O       -6.0940    -3.8520     1.6180 O.3   1 <1>  -0.3620 
 29 C       -5.4120    -5.1470    -0.1980 C.ar  1 <1>  -0.1500 
 30 C        7.2380    -0.5080     0.4520 C.3   1 <1>  -0.2400 
 31 C       -5.9050    -2.8670     2.6090 C.3   1 <1>   0.0400 
 32 H       -1.3150    -3.2450    -2.3460 H     1 <1>   0.0800 
 33 H       -1.9560    -1.7870    -1.6530 H     1 <1>   0.0800 
 34 H       -1.4990    -2.5600     0.5870 H     1 <1>   0.0800 
 35 H        1.7920    -5.2360     1.0960 H     1 <1>   0.4000 
 36 H       -0.5660    -4.6970     1.1050 H     1 <1>   0.0800 
 37 H       -0.4660    -5.1460    -0.5750 H     1 <1>   0.0800 
 38 H        4.5290    -0.4630    -1.5060 H     1 <1>   0.4000 
 39 H        0.7150     0.0000     0.2130 H     1 <1>   0.1500 
 40 H       -3.6090    -2.8200     1.4470 H     1 <1>   0.1500 
 41 H       -2.5000    -5.2530    -1.8730 H     1 <1>   0.1500 
 42 H        3.9570    -6.0450     0.4400 H     1 <1>   0.0800 
 43 H        4.3830    -5.0790     1.8340 H     1 <1>   0.0800 
 44 H        5.2650    -4.9170     0.3370 H     1 <1>   0.0800 
 45 H        4.9660     1.8780    -1.3630 H     1 <1>   0.1500 
 46 H        1.0430     2.4300     0.2260 H     1 <1>   0.1500 
 47 H       -4.7100    -6.2900    -1.8570 H     1 <1>   0.1500 
 48 H        7.5540    -2.3650    -0.6270 H     1 <1>   0.0800 
 49 H        7.7340    -2.4950     1.1120 H     1 <1>   0.0800 
 50 H        3.1520     3.3910    -0.5390 H     1 <1>   0.1500 
 51 H       -6.3860    -5.6010    -0.1880 H     1 <1>   0.1500 
 52 H        6.7110    -0.0400    -0.3590 H     1 <1>   0.0800 
 53 H        8.2630    -0.1870     0.4180 H     1 <1>   0.0800 
 54 H        6.8090    -0.1950     1.3870 H     1 <1>   0.0800 
 55 H       -6.8130    -2.7900     3.1790 H     1 <1>   0.0800 
 56 H       -5.6920    -1.9280     2.1310 H     1 <1>   0.0800 
 57 H       -5.0950    -3.1680     3.2500 H     1 <1>   0.0800 
@<TRIPOS>BOND
  1   1   2  2   
  2   2   3  1   
  3   2   4  1   
  4   3   5  2   
  5   3   6  1   
  6   4   7  1   
  7   4  32  1   
  8   4  33  1   
  9   5   8  1   
 10   5   9  1   
 11   6  10  1   
 12   6  11  2   
 13   7   9  1   
 14   7  12  1   
 15   7  34  1   
 16   8  13  1   
 17   8  35  1   
 18   9  36  1   
 19   9  37  1   
 20  10  13  2   
 21  10  14  1   
 22  11  15  1   
 23  11  16  1   
 24  12  17  ar  
 25  12  18  ar  
 26  13  19  1   
 27  14  20  2   
 28  14  21  1   
 29  15  22  1   
 30  15  38  1   
 31  16  23  2   
 32  16  39  1   
 33  17  24  ar  
 34  17  40  1   
 35  18  25  ar  
 36  18  41  1   
 37  19  42  1   
 38  19  43  1   
 39  19  44  1   
 40  21  26  1   
 41  22  27  2   
 42  22  45  1   
 43  23  27  1   
 44  23  46  1   
 45  24  28  1   
 46  24  29  ar  
 47  25  29  ar  
 48  25  47  1   
 49  26  30  1   
 50  26  48  1   
 51  26  49  1   
 52  27  50  1   
 53  28  31  1   
 54  29  51  1   
 55  30  52  1   
 56  30  53  1   
 57  30  54  1   
 58  31  55  1   
 59  31  56  1   
 60  31  57  1   
@<TRIPOS>SUBSTRUCTURE
  1 ****   3 GROUP 4 **** **** 0

# MOE 2024.06 (io_trps.svl 2023.06)
