@<TRIPOS>MOLECULE
NONAME
44 44 1 0 0 
SMALL
USER_CHARGES


@<TRIPOS>ATOM
  1 O       -0.2910     0.5760     0.2930 O.2   1 <1>  -0.5700 
  2 C       -0.1340     1.7590     0.0290 C.2   1 <1>   0.5440 
  3 N       -1.2190     2.4980    -0.3490 N.am  1 <1>  -0.4300 
  4 C        1.1830     2.3640     0.0800 C.ar  1 <1>   0.0860 
  5 N       -2.6150     2.1070    -0.1370 N.am  1 <1>  -0.4300 
  6 C        2.3200     1.6440    -0.2750 C.ar  1 <1>  -0.1500 
  7 C        1.3720     3.6850     0.4820 C.ar  1 <1>  -0.1500 
  8 C       -3.4020     2.5680     0.8700 C.2   1 <1>   0.5690 
  9 C        3.5800     2.2160    -0.2520 C.ar  1 <1>  -0.1500 
 10 C        2.6300     4.2580     0.5050 C.ar  1 <1>  -0.1500 
 11 O       -3.0900     3.5180     1.5550 O.2   1 <1>  -0.5700 
 12 C       -4.7290     1.8810     1.1300 C.3   1 <1>  -0.0990 
 13 C        3.7620     3.5400     0.1370 C.ar  1 <1>  -0.1430 
 14 C       -5.8040     2.2890     0.1080 C.3   1 <1>  -0.1600 
 15 C        5.1480     4.2230     0.1790 C.3   1 <1>   0.1440 
 16 C       -7.1370     1.5860     0.3920 C.3   1 <1>  -0.1600 
 17 C        5.1500     5.4420    -0.7560 C.3   1 <1>  -0.2400 
 18 C        5.4510     4.6800     1.6140 C.3   1 <1>  -0.2400 
 19 C        6.2930     3.2980    -0.2650 C.3   1 <1>  -0.2400 
 20 C       -8.2020     1.9970    -0.6280 C.3   1 <1>  -0.2400 
 21 H       -1.0730     3.4590    -0.6730 H     1 <1>   0.3700 
 22 H       -2.9320     1.3040    -0.6880 H     1 <1>   0.3700 
 23 H        2.2090     0.6160    -0.5750 H     1 <1>   0.1500 
 24 H        0.5250     4.2730     0.7930 H     1 <1>   0.1500 
 25 H        4.4080     1.5970    -0.5420 H     1 <1>   0.1500 
 26 H        2.7200     5.2820     0.8230 H     1 <1>   0.1500 
 27 H       -5.0570     2.1430     2.1200 H     1 <1>   0.0800 
 28 H       -4.5790     0.8170     1.1050 H     1 <1>   0.0800 
 29 H       -5.4720     2.0400    -0.8850 H     1 <1>   0.0800 
 30 H       -5.9440     3.3560     0.1540 H     1 <1>   0.0800 
 31 H       -7.4790     1.8430     1.3810 H     1 <1>   0.0800 
 32 H       -7.0030     0.5190     0.3520 H     1 <1>   0.0800 
 33 H        4.9030     5.1370    -1.7570 H     1 <1>   0.0800 
 34 H        6.1180     5.9100    -0.7690 H     1 <1>   0.0800 
 35 H        4.4310     6.1750    -0.4400 H     1 <1>   0.0800 
 36 H        4.7340     5.4060     1.9500 H     1 <1>   0.0800 
 37 H        6.4290     5.1250     1.6730 H     1 <1>   0.0800 
 38 H        5.4160     3.8380     2.2820 H     1 <1>   0.0800 
 39 H        7.2360     3.8140    -0.2230 H     1 <1>   0.0800 
 40 H        6.3570     2.4390     0.3800 H     1 <1>   0.0800 
 41 H        6.1410     2.9660    -1.2760 H     1 <1>   0.0800 
 42 H       -8.3700     3.0590    -0.5900 H     1 <1>   0.0800 
 43 H       -9.1300     1.4980    -0.4120 H     1 <1>   0.0800 
 44 H       -7.8950     1.7300    -1.6240 H     1 <1>   0.0800 
@<TRIPOS>BOND
  1   1   2  2   
  2   2   3  am  
  3   2   4  1   
  4   3   5  1   
  5   3  21  1   
  6   4   6  ar  
  7   4   7  ar  
  8   5   8  am  
  9   5  22  1   
 10   6   9  ar  
 11   6  23  1   
 12   7  10  ar  
 13   7  24  1   
 14   8  11  2   
 15   8  12  1   
 16   9  13  ar  
 17   9  25  1   
 18  10  13  ar  
 19  10  26  1   
 20  12  14  1   
 21  12  27  1   
 22  12  28  1   
 23  13  15  1   
 24  14  16  1   
 25  14  29  1   
 26  14  30  1   
 27  15  17  1   
 28  15  18  1   
 29  15  19  1   
 30  16  20  1   
 31  16  31  1   
 32  16  32  1   
 33  17  33  1   
 34  17  34  1   
 35  17  35  1   
 36  18  36  1   
 37  18  37  1   
 38  18  38  1   
 39  19  39  1   
 40  19  40  1   
 41  19  41  1   
 42  20  42  1   
 43  20  43  1   
 44  20  44  1   
@<TRIPOS>SUBSTRUCTURE
  1 ****   2 GROUP 4 **** **** 0

# MOE 2024.06 (io_trps.svl 2023.06)
