@<TRIPOS>MOLECULE
NONAME
34 34 1 0 0 
SMALL
USER_CHARGES


@<TRIPOS>ATOM
  1 O        0.5320    -0.0350     0.6080 O.2   1 <1>  -0.5700 
  2 C        1.5570    -0.6180     0.3420 C.2   1 <1>   0.4950 
  3 C        2.8640    -0.0900     0.5340 C.2   1 <1>   0.0790 
  4 C        1.4100    -2.0040    -0.2610 C.3   1 <1>  -0.0990 
  5 C        2.9310     1.2450     1.0400 C.1   1 <1>   0.4920 
  6 C        4.0090    -0.7890     0.2490 C.2   1 <1>  -0.0380 
  7 C        2.5880    -2.9260     0.0980 C.3   1 <1>   0.0000 
  8 N        3.0630     2.3070     1.4390 N.1   1 <1>  -0.5570 
  9 N        5.2710    -0.2600     0.3870 N.pl3 1 <1>  -0.8690 
 10 C        3.9180    -2.2290    -0.2610 C.3   1 <1>  -0.0220 
 11 C        2.5550    -3.2640     1.6020 C.3   1 <1>  -0.2400 
 12 C        2.4650    -4.2410    -0.6890 C.3   1 <1>  -0.2400 
 13 C        6.5740    -0.8440    -0.0050 C.3   1 <1>   0.2090 
 14 C        7.4810     0.2840    -0.4870 C.3   1 <1>  -0.1600 
 15 C        8.8280    -0.2680    -0.9470 C.3   1 <1>   0.1200 
 16 O        9.6300     0.7940    -1.3110 O.3   1 <1>  -0.6800 
 17 H        1.3420    -1.8900    -1.3280 H     1 <1>   0.0800 
 18 H        0.4870    -2.4380     0.0790 H     1 <1>   0.0800 
 19 H        5.3810     0.6840     0.7910 H     1 <1>   0.4000 
 20 H        4.7210    -2.8130     0.1520 H     1 <1>   0.0800 
 21 H        4.0440    -2.2100    -1.3290 H     1 <1>   0.0800 
 22 H        2.6650    -2.3830     2.2090 H     1 <1>   0.0800 
 23 H        3.3530    -3.9390     1.8540 H     1 <1>   0.0800 
 24 H        1.6240    -3.7360     1.8640 H     1 <1>   0.0800 
 25 H        2.4760    -4.0550    -1.7490 H     1 <1>   0.0800 
 26 H        1.5450    -4.7430    -0.4460 H     1 <1>   0.0800 
 27 H        3.2810    -4.9010    -0.4540 H     1 <1>   0.0800 
 28 H        6.4390    -1.5630    -0.7950 H     1 <1>   0.0800 
 29 H        7.0140    -1.3370     0.8470 H     1 <1>   0.0800 
 30 H        7.6430     0.9750     0.3220 H     1 <1>   0.0800 
 31 H        7.0030     0.7910    -1.3060 H     1 <1>   0.0800 
 32 H        8.7200    -0.9200    -1.7970 H     1 <1>   0.0800 
 33 H        9.3250    -0.7950    -0.1490 H     1 <1>   0.0800 
 34 H        9.2240     1.3060    -2.0370 H     1 <1>   0.4000 
@<TRIPOS>BOND
  1   1   2  2   
  2   2   3  1   
  3   2   4  1   
  4   3   5  1   
  5   3   6  2   
  6   4   7  1   
  7   4  17  1   
  8   4  18  1   
  9   5   8  3   
 10   6   9  1   
 11   6  10  1   
 12   7  10  1   
 13   7  11  1   
 14   7  12  1   
 15   9  13  1   
 16   9  19  1   
 17  10  20  1   
 18  10  21  1   
 19  11  22  1   
 20  11  23  1   
 21  11  24  1   
 22  12  25  1   
 23  12  26  1   
 24  12  27  1   
 25  13  14  1   
 26  13  28  1   
 27  13  29  1   
 28  14  15  1   
 29  14  30  1   
 30  14  31  1   
 31  15  16  1   
 32  15  32  1   
 33  15  33  1   
 34  16  34  1   
@<TRIPOS>SUBSTRUCTURE
  1 ****   6 GROUP 4 **** **** 0

# MOE 2024.06 (io_trps.svl 2023.06)
