@<TRIPOS>MOLECULE
NONAME
51 53 1 0 0 
SMALL
USER_CHARGES


@<TRIPOS>ATOM
  1 O        0.9780     1.2290     1.7520 O.2   1 <1>  -0.5700 
  2 C        0.6130     2.3370     1.4070 C.2   1 <1>   0.5440 
  3 N        1.3880     3.4310     1.7410 N.am  1 <1>  -0.6600 
  4 C       -0.6140     2.4650     0.6410 C.ar  1 <1>   0.0860 
  5 C        2.4770     3.3320     2.7520 C.3   1 <1>   0.1400 
  6 C        1.3480     4.7270     1.0100 C.3   1 <1>   0.1400 
  7 C       -1.5830     3.4110     0.9680 C.ar  1 <1>  -0.1500 
  8 C       -0.8610     1.6320    -0.4480 C.ar  1 <1>  -0.1500 
  9 C        3.8270     3.5280     2.0620 C.3   1 <1>  -0.1600 
 10 C        2.6870     4.9500     0.3020 C.3   1 <1>  -0.1600 
 11 C       -2.7410     3.5510     0.2250 C.ar  1 <1>   0.0820 
 12 C       -2.0250     1.7530    -1.1990 C.ar  1 <1>   0.0820 
 13 C        3.8730     4.8560     1.2810 C.3   1 <1>  -0.0190 
 14 O       -3.6040     4.5180     0.6210 O.3   1 <1>  -0.3630 
 15 C       -2.9610     2.7160    -0.8640 C.ar  1 <1>  -0.1500 
 16 O       -2.3160     0.9690    -2.2670 O.3   1 <1>  -0.3630 
 17 C        5.2060     5.0460     0.5650 C.2   1 <1>   0.5690 
 18 C       -4.8380     4.7080    -0.0370 C.3   1 <1>   0.0400 
 19 C       -1.4820    -0.1100    -2.6310 C.3   1 <1>   0.0400 
 20 O        5.8870     6.0050     0.8330 O.2   1 <1>  -0.5700 
 21 N        5.5960     4.1350    -0.3570 N.am  1 <1>  -0.7300 
 22 C        6.8920     4.1380    -1.0540 C.3   1 <1>   0.3200 
 23 C        7.3140     2.6990    -1.2780 C.2   1 <1>  -0.0400 
 24 O        6.5400     1.9100    -2.0020 O.3   1 <1>  -0.2800 
 25 C        8.4000     2.0240    -0.8430 C.2   1 <1>  -0.1500 
 26 C        7.1110     0.7230    -2.0450 C.2   1 <1>  -0.0100 
 27 C        8.2660     0.7240    -1.3470 C.2   1 <1>  -0.1500 
 28 H        2.4540     2.3750     3.2450 H     1 <1>   0.0800 
 29 H        2.3300     4.0920     3.5000 H     1 <1>   0.0800 
 30 H        1.1640     5.5220     1.7130 H     1 <1>   0.0800 
 31 H        0.5620     4.7370     0.2760 H     1 <1>   0.0800 
 32 H       -1.4330     4.0510     1.8180 H     1 <1>   0.1500 
 33 H       -0.1190     0.8930    -0.6840 H     1 <1>   0.1500 
 34 H        3.9920     2.6950     1.4000 H     1 <1>   0.0800 
 35 H        4.6080     3.5170     2.8020 H     1 <1>   0.0800 
 36 H        2.6840     5.9200    -0.1640 H     1 <1>   0.0800 
 37 H        2.7890     4.2140    -0.4760 H     1 <1>   0.0800 
 38 H        3.7780     5.6590     1.9920 H     1 <1>   0.0800 
 39 H       -3.8460     2.7890    -1.4660 H     1 <1>   0.1500 
 40 H       -5.3600     5.5080     0.4560 H     1 <1>   0.0800 
 41 H       -5.4120     3.8010     0.0290 H     1 <1>   0.0800 
 42 H       -4.6500     4.9720    -1.0630 H     1 <1>   0.0800 
 43 H       -1.9330    -0.6130    -3.4670 H     1 <1>   0.0800 
 44 H       -1.4010    -0.7860    -1.7970 H     1 <1>   0.0800 
 45 H       -0.5170     0.2730    -2.9120 H     1 <1>   0.0800 
 46 H        5.0290     3.3080    -0.5510 H     1 <1>   0.3700 
 47 H        7.6280     4.6570    -0.4640 H     1 <1>   0.0800 
 48 H        6.7880     4.6390    -2.0010 H     1 <1>   0.0800 
 49 H        9.2130     2.3750    -0.2330 H     1 <1>   0.1500 
 50 H        6.6280    -0.0660    -2.5940 H     1 <1>   0.1500 
 51 H        8.9600    -0.0830    -1.1910 H     1 <1>   0.1500 
@<TRIPOS>BOND
  1   1   2  2   
  2   2   3  am  
  3   2   4  1   
  4   3   5  1   
  5   3   6  1   
  6   4   7  ar  
  7   4   8  ar  
  8   5   9  1   
  9   5  28  1   
 10   5  29  1   
 11   6  10  1   
 12   6  30  1   
 13   6  31  1   
 14   7  11  ar  
 15   7  32  1   
 16   8  12  ar  
 17   8  33  1   
 18   9  13  1   
 19   9  34  1   
 20   9  35  1   
 21  10  13  1   
 22  10  36  1   
 23  10  37  1   
 24  11  14  1   
 25  11  15  ar  
 26  12  15  ar  
 27  12  16  1   
 28  13  17  1   
 29  13  38  1   
 30  14  18  1   
 31  15  39  1   
 32  16  19  1   
 33  17  20  2   
 34  17  21  am  
 35  18  40  1   
 36  18  41  1   
 37  18  42  1   
 38  19  43  1   
 39  19  44  1   
 40  19  45  1   
 41  21  22  1   
 42  21  46  1   
 43  22  23  1   
 44  22  47  1   
 45  22  48  1   
 46  23  24  1   
 47  23  25  2   
 48  24  26  1   
 49  25  27  1   
 50  25  49  1   
 51  26  27  2   
 52  26  50  1   
 53  27  51  1   
@<TRIPOS>SUBSTRUCTURE
  1 ****   3 GROUP 4 **** **** 0

# MOE 2024.06 (io_trps.svl 2023.06)
