@<TRIPOS>MOLECULE
NONAME
32 34 1 0 0 
SMALL
USER_CHARGES


@<TRIPOS>ATOM
  1 N       -3.4690    -0.1550     0.6350 N.2   1 <1>  -0.6960 
  2 C       -4.4950    -0.8990     0.6130 C.2   1 <1>   0.3030 
  3 C       -3.5340     1.2150     0.1060 C.3   1 <1>   0.2460 
  4 C       -5.7890    -0.5050     0.0780 C.ar  1 <1>   0.0860 
  5 C       -4.3480    -2.2970     1.1830 C.3   1 <1>  -0.1790 
  6 C       -4.9400     1.8290     0.2840 C.3   1 <1>  -0.0170 
  7 C       -3.0560     1.1930    -1.3480 C.3   1 <1>  -0.1600 
  8 C       -2.4520     2.0450     0.7970 C.3   1 <1>  -0.1600 
  9 C       -6.0350     0.8540    -0.1190 C.ar  1 <1>  -0.1430 
 10 C       -6.8030    -1.4010    -0.2680 C.ar  1 <1>  -0.1500 
 11 C       -1.5260     1.1380    -1.2850 C.3   1 <1>  -0.1600 
 12 C       -1.1370     1.7000     0.0880 C.3   1 <1>  -0.1600 
 13 C       -7.2370     1.3000    -0.6410 C.ar  1 <1>  -0.1500 
 14 C       -8.0060    -0.9600    -0.7890 C.ar  1 <1>  -0.1500 
 15 C       -8.2250     0.3920    -0.9780 C.ar  1 <1>  -0.1500 
 16 H       -4.3980    -3.0220     0.3930 H     1 <1>   0.0800 
 17 H       -5.1240    -2.4860     1.9010 H     1 <1>   0.0800 
 18 H       -3.3970    -2.3970     1.6750 H     1 <1>   0.0800 
 19 H       -5.0170     2.7380    -0.2840 H     1 <1>   0.0800 
 20 H       -5.0760     2.0810     1.3200 H     1 <1>   0.0800 
 21 H       -3.3450     2.1080    -1.8330 H     1 <1>   0.0800 
 22 H       -3.4720     0.3670    -1.8970 H     1 <1>   0.0800 
 23 H       -2.4090     1.8450     1.8530 H     1 <1>   0.0800 
 24 H       -2.6560     3.0910     0.6490 H     1 <1>   0.0800 
 25 H       -6.6560    -2.4570    -0.1370 H     1 <1>   0.1500 
 26 H       -1.0820     1.7010    -2.0880 H     1 <1>   0.0800 
 27 H       -1.2030     0.1130    -1.3530 H     1 <1>   0.0800 
 28 H       -0.6170     0.9400     0.6470 H     1 <1>   0.0800 
 29 H       -0.5040     2.5650    -0.0010 H     1 <1>   0.0800 
 30 H       -7.4110     2.3520    -0.7850 H     1 <1>   0.1500 
 31 H       -8.7740    -1.6680    -1.0500 H     1 <1>   0.1500 
 32 H       -9.1600     0.7380    -1.3840 H     1 <1>   0.1500 
@<TRIPOS>BOND
  1   1   2  2   
  2   1   3  1   
  3   2   4  1   
  4   2   5  1   
  5   3   6  1   
  6   3   7  1   
  7   3   8  1   
  8   4   9  ar  
  9   4  10  ar  
 10   5  16  1   
 11   5  17  1   
 12   5  18  1   
 13   6   9  1   
 14   6  19  1   
 15   6  20  1   
 16   7  11  1   
 17   7  21  1   
 18   7  22  1   
 19   8  12  1   
 20   8  23  1   
 21   8  24  1   
 22   9  13  ar  
 23  10  14  ar  
 24  10  25  1   
 25  11  12  1   
 26  11  26  1   
 27  11  27  1   
 28  12  28  1   
 29  12  29  1   
 30  13  15  ar  
 31  13  30  1   
 32  14  15  ar  
 33  14  31  1   
 34  15  32  1   
@<TRIPOS>SUBSTRUCTURE
  1 ****   4 GROUP 4 **** **** 0

# MOE 2024.06 (io_trps.svl 2023.06)
