@<TRIPOS>MOLECULE
NONAME
28 28 1 0 0 
SMALL
USER_CHARGES


@<TRIPOS>ATOM
  1 BR      -0.0970    -0.4540     0.0190 Br    1 <1>  -0.1110 
  2 C       -1.6330     0.7050     0.0110 C.ar  1 <1>   0.1110 
  3 C       -2.8920     0.1410     0.0090 C.ar  1 <1>  -0.1500 
  4 C       -1.4330     2.0730     0.0080 C.ar  1 <1>  -0.1500 
  5 C       -3.9990     0.9750     0.0040 C.ar  1 <1>   0.0830 
  6 C       -2.5420     2.9020     0.0030 C.ar  1 <1>  -0.1500 
  7 O       -5.2140     0.3710     0.0020 O.3   1 <1>  -0.3630 
  8 C       -3.8180     2.3590     0.0010 C.ar  1 <1>  -0.1500 
  9 C       -6.4060     1.1160    -0.0030 C.3   1 <1>   0.1200 
 10 C       -7.5630     0.1130    -0.0030 C.3   1 <1>   0.3430 
 11 N       -8.8940     0.7930    -0.0090 N.4   1 <1>  -0.9060 
 12 C      -10.0110    -0.1760    -0.0090 C.3   1 <1>   0.3430 
 13 C      -11.3150     0.6060    -0.0150 C.3   1 <1>  -0.2400 
 14 H       -3.0090    -0.9270     0.0120 H     1 <1>   0.1500 
 15 H       -0.4360     2.4750     0.0100 H     1 <1>   0.1500 
 16 H       -2.4080     3.9710     0.0000 H     1 <1>   0.1500 
 17 H       -4.6510     3.0360    -0.0030 H     1 <1>   0.1500 
 18 H       -6.4160     1.7210    -0.8920 H     1 <1>   0.0800 
 19 H       -6.4210     1.7260     0.8840 H     1 <1>   0.0800 
 20 H       -7.4780    -0.5090     0.8730 H     1 <1>   0.0800 
 21 H       -7.4730    -0.5140    -0.8760 H     1 <1>   0.0800 
 22 H       -8.9820     1.3960    -0.8380 H     1 <1>   0.4500 
 23 H       -8.9860     1.4000     0.8160 H     1 <1>   0.4500 
 24 H       -9.9640    -0.8020     0.8690 H     1 <1>   0.0800 
 25 H       -9.9600    -0.8070    -0.8840 H     1 <1>   0.0800 
 26 H      -11.4020     1.2220     0.8630 H     1 <1>   0.0800 
 27 H      -12.1410    -0.0840    -0.0150 H     1 <1>   0.0800 
 28 H      -11.3970     1.2170    -0.8970 H     1 <1>   0.0800 
@<TRIPOS>BOND
  1   1   2  1   
  2   2   3  ar  
  3   2   4  ar  
  4   3   5  ar  
  5   3  14  1   
  6   4   6  ar  
  7   4  15  1   
  8   5   7  1   
  9   5   8  ar  
 10   6   8  ar  
 11   6  16  1   
 12   7   9  1   
 13   8  17  1   
 14   9  10  1   
 15   9  18  1   
 16   9  19  1   
 17  10  11  1   
 18  10  20  1   
 19  10  21  1   
 20  11  12  1   
 21  11  22  1   
 22  11  23  1   
 23  12  13  1   
 24  12  24  1   
 25  12  25  1   
 26  13  26  1   
 27  13  27  1   
 28  13  28  1   
@<TRIPOS>SUBSTRUCTURE
  1 ****   7 GROUP 4 **** **** 0

# MOE 2024.06 (io_trps.svl 2023.06)
