@<TRIPOS>MOLECULE
NONAME
34 36 1 0 0 
SMALL
USER_CHARGES


@<TRIPOS>ATOM
  1 O       -0.2600    -0.6910     1.0190 O.3   1 <1>  -0.3370 
  2 N       -1.5620    -0.5920     0.7990 N.2   1 <1>  -0.5130 
  3 C       -2.2530    -1.6190     0.5080 C.2   1 <1>   0.3280 
  4 C       -1.6240    -3.0010     0.3160 C.3   1 <1>   0.2340 
  5 C       -3.7870    -1.5460     0.3020 C.3   1 <1>   0.0610 
  6 N       -1.3210    -3.6140     1.6030 N.2   1 <1>  -0.1710 
  7 C       -4.3360    -0.1390     0.6710 C.3   1 <1>  -0.1600 
  8 C       -4.1550    -1.8120    -1.1810 C.3   1 <1>  -0.1600 
  9 C       -4.5270    -2.5790     1.1940 C.3   1 <1>  -0.1600 
 10 O       -0.1920    -3.7740     1.8610 O.2   1 <1>  -0.1620 
 11 C       -5.8590    -0.0510     0.4630 C.3   1 <1>  -0.0800 
 12 C       -5.6800    -1.7410    -1.3960 C.3   1 <1>  -0.0800 
 13 C       -6.0500    -2.5080     0.9810 C.3   1 <1>  -0.0800 
 14 C       -6.1820    -0.3380    -1.0130 C.3   1 <1>  -0.1600 
 15 C       -6.5490    -1.1000     1.3510 C.3   1 <1>  -0.1600 
 16 C       -6.3690    -2.7870    -0.4990 C.3   1 <1>  -0.1600 
 17 H        0.0290    -1.4640     1.5520 H     1 <1>   0.4000 
 18 H       -0.7160    -2.8960    -0.2510 H     1 <1>   0.0800 
 19 H       -2.2720    -3.6570    -0.2310 H     1 <1>   0.0800 
 20 H       -4.1030     0.0840     1.6980 H     1 <1>   0.0800 
 21 H       -3.8560     0.6110     0.0650 H     1 <1>   0.0800 
 22 H       -3.6730    -1.0810    -1.8070 H     1 <1>   0.0800 
 23 H       -3.8150    -2.7820    -1.4940 H     1 <1>   0.0800 
 24 H       -4.2040    -3.5790     0.9730 H     1 <1>   0.0800 
 25 H       -4.3000    -2.3870     2.2290 H     1 <1>   0.0800 
 26 H       -6.2050     0.9340     0.7270 H     1 <1>   0.0800 
 27 H       -5.9120    -1.9380    -2.4290 H     1 <1>   0.0800 
 28 H       -6.5390    -3.2390     1.6030 H     1 <1>   0.0800 
 29 H       -7.2440    -0.2740    -1.1720 H     1 <1>   0.0800 
 30 H       -5.7130     0.4020    -1.6390 H     1 <1>   0.0800 
 31 H       -7.6160    -1.0440     1.2180 H     1 <1>   0.0800 
 32 H       -6.3390    -0.8970     2.3870 H     1 <1>   0.0800 
 33 H       -6.0350    -3.7750    -0.7660 H     1 <1>   0.0800 
 34 H       -7.4330    -2.7520    -0.6540 H     1 <1>   0.0800 
@<TRIPOS>BOND
  1   1   2  1   
  2   1  17  1   
  3   2   3  2   
  4   3   4  1   
  5   3   5  1   
  6   4   6  1   
  7   4  18  1   
  8   4  19  1   
  9   5   7  1   
 10   5   8  1   
 11   5   9  1   
 12   6  10  2   
 13   7  11  1   
 14   7  20  1   
 15   7  21  1   
 16   8  12  1   
 17   8  22  1   
 18   8  23  1   
 19   9  13  1   
 20   9  24  1   
 21   9  25  1   
 22  11  14  1   
 23  11  15  1   
 24  11  26  1   
 25  12  14  1   
 26  12  16  1   
 27  12  27  1   
 28  13  15  1   
 29  13  16  1   
 30  13  28  1   
 31  14  29  1   
 32  14  30  1   
 33  15  31  1   
 34  15  32  1   
 35  16  33  1   
 36  16  34  1   
@<TRIPOS>SUBSTRUCTURE
  1 ****   5 GROUP 4 **** **** 0

# MOE 2024.06 (io_trps.svl 2023.06)
