@<TRIPOS>MOLECULE
NONAME
43 44 1 0 0 
SMALL
USER_CHARGES


@<TRIPOS>ATOM
  1 BR      -0.0120    -0.0800     1.9640 Br    1 <1>  -0.1110 
  2 C        1.7160    -0.8510     1.6060 C.ar  1 <1>   0.1110 
  3 C        2.0030    -2.1060     2.1050 C.ar  1 <1>  -0.1500 
  4 C        2.6280    -0.1300     0.8590 C.ar  1 <1>  -0.1500 
  5 C        3.2470    -2.6540     1.8430 C.ar  1 <1>  -0.1500 
  6 C        3.8670    -0.6910     0.6070 C.ar  1 <1>  -0.1500 
  7 C        4.1930    -1.9580     1.0910 C.ar  1 <1>   0.1170 
  8 N        5.4430    -2.5560     0.8670 N.am  1 <1>  -0.5470 
  9 C        6.3570    -2.3600    -0.1330 C.2   1 <1>   0.5690 
 10 O        6.1810    -1.6060    -1.0580 O.2   1 <1>  -0.5700 
 11 C        7.6530    -3.1560    -0.0770 C.3   1 <1>  -0.0190 
 12 C        8.8530    -2.2160    -0.2550 C.3   1 <1>   0.1960 
 13 C        7.6720    -4.2750    -1.1360 C.3   1 <1>  -0.1600 
 14 N       10.1150    -2.9730    -0.1880 N.am  1 <1>  -0.8490 
 15 C        9.0410    -4.9670    -1.1480 C.3   1 <1>  -0.1600 
 16 S       11.4580    -1.9380    -0.1710 S.o2  1 <1>   1.3330 
 17 C       10.1780    -3.9480    -1.2840 C.3   1 <1>   0.1960 
 18 O       11.1490    -0.8200     0.6920 O.2   1 <1>  -0.6500 
 19 O       11.8460    -1.7040    -1.5440 O.2   1 <1>  -0.6500 
 20 C       12.7150    -2.9290     0.6450 C.3   1 <1>  -0.0550 
 21 C       14.0620    -2.2050     0.8110 C.3   1 <1>  -0.1600 
 22 C       15.0930    -3.0980     1.5090 C.3   1 <1>  -0.2400 
 23 H        1.2680    -2.6390     2.6820 H     1 <1>   0.1500 
 24 H        2.3750     0.8460     0.4850 H     1 <1>   0.1500 
 25 H        3.4810    -3.6310     2.2230 H     1 <1>   0.1500 
 26 H        4.5840    -0.1330     0.0320 H     1 <1>   0.1500 
 27 H        5.6860    -3.2820     1.5380 H     1 <1>   0.3700 
 28 H        7.7400    -3.6010     0.8970 H     1 <1>   0.0800 
 29 H        8.8240    -1.4780     0.5300 H     1 <1>   0.0800 
 30 H        8.7880    -1.6970    -1.1990 H     1 <1>   0.0800 
 31 H        7.4840    -3.8460    -2.1070 H     1 <1>   0.0800 
 32 H        6.8960    -4.9920    -0.9330 H     1 <1>   0.0800 
 33 H        9.0860    -5.6610    -1.9690 H     1 <1>   0.0800 
 34 H        9.1810    -5.5250    -0.2380 H     1 <1>   0.0800 
 35 H       11.1200    -4.4680    -1.2600 H     1 <1>   0.0800 
 36 H       10.1010    -3.4400    -2.2330 H     1 <1>   0.0800 
 37 H       12.8760    -3.8260     0.0820 H     1 <1>   0.0800 
 38 H       12.3530    -3.2110     1.6150 H     1 <1>   0.0800 
 39 H       13.9150    -1.3070     1.3880 H     1 <1>   0.0800 
 40 H       14.4330    -1.9170    -0.1590 H     1 <1>   0.0800 
 41 H       14.7500    -3.3770     2.4900 H     1 <1>   0.0800 
 42 H       16.0240    -2.5690     1.6130 H     1 <1>   0.0800 
 43 H       15.2720    -3.9910     0.9350 H     1 <1>   0.0800 
@<TRIPOS>BOND
  1   1   2  1   
  2   2   3  ar  
  3   2   4  ar  
  4   3   5  ar  
  5   3  23  1   
  6   4   6  ar  
  7   4  24  1   
  8   5   7  ar  
  9   5  25  1   
 10   6   7  ar  
 11   6  26  1   
 12   7   8  1   
 13   8   9  am  
 14   8  27  1   
 15   9  10  2   
 16   9  11  1   
 17  11  12  1   
 18  11  13  1   
 19  11  28  1   
 20  12  14  1   
 21  12  29  1   
 22  12  30  1   
 23  13  15  1   
 24  13  31  1   
 25  13  32  1   
 26  14  16  am  
 27  14  17  1   
 28  15  17  1   
 29  15  33  1   
 30  15  34  1   
 31  16  18  2   
 32  16  19  2   
 33  16  20  1   
 34  17  35  1   
 35  17  36  1   
 36  20  21  1   
 37  20  37  1   
 38  20  38  1   
 39  21  22  1   
 40  21  39  1   
 41  21  40  1   
 42  22  41  1   
 43  22  42  1   
 44  22  43  1   
@<TRIPOS>SUBSTRUCTURE
  1 ****  11 GROUP 4 **** **** 0

# MOE 2024.06 (io_trps.svl 2023.06)
