@<TRIPOS>MOLECULE
NONAME
33 33 1 0 0 
SMALL
USER_CHARGES


@<TRIPOS>ATOM
  1 O        0.4380     1.7830    -0.8550 O.2   1 <1>  -0.5700 
  2 C       -0.4440     2.4870    -0.4510 C.2   1 <1>   0.6590 
  3 O       -1.7030     2.0610    -0.4830 O.3   1 <1>  -0.4300 
  4 C       -0.1370     3.8630     0.0980 C.3   1 <1>  -0.1790 
  5 C       -2.8280     2.7730    -0.0360 C.3   1 <1>   0.1200 
  6 C       -4.0420     1.8770    -0.2840 C.3   1 <1>  -0.1600 
  7 C       -5.3340     2.5490     0.1790 C.3   1 <1>   0.3430 
  8 N       -6.5120     1.7130    -0.1840 N.4   1 <1>  -0.9590 
  9 C       -7.7710     2.5110    -0.0900 C.3   1 <1>   0.3430 
 10 C       -6.6030     0.4620     0.6320 C.3   1 <1>   0.3430 
 11 C       -8.9460     1.6880    -0.6190 C.3   1 <1>  -0.1600 
 12 C       -7.7550    -0.4060     0.1210 C.3   1 <1>  -0.1600 
 13 C       -9.0860     0.3550     0.1270 C.3   1 <1>  -0.1600 
 14 H       -0.4410     3.9290     1.1250 H     1 <1>   0.0800 
 15 H       -0.6340     4.6140    -0.4850 H     1 <1>   0.0800 
 16 H        0.9230     4.0350     0.0450 H     1 <1>   0.0800 
 17 H       -2.8970     3.6900    -0.5980 H     1 <1>   0.0800 
 18 H       -2.7030     2.9840     1.0130 H     1 <1>   0.0800 
 19 H       -3.8890     0.9570     0.2510 H     1 <1>   0.0800 
 20 H       -4.1000     1.6710    -1.3380 H     1 <1>   0.0800 
 21 H       -5.4150     3.5100    -0.3040 H     1 <1>   0.0800 
 22 H       -5.3080     2.7080     1.2450 H     1 <1>   0.0800 
 23 H       -6.4140     1.4240    -1.1660 H     1 <1>   0.4500 
 24 H       -7.6800     3.4160    -0.6700 H     1 <1>   0.0800 
 25 H       -7.9560     2.7830     0.9370 H     1 <1>   0.0800 
 26 H       -6.7730     0.7120     1.6670 H     1 <1>   0.0800 
 27 H       -5.6840    -0.0980     0.5640 H     1 <1>   0.0800 
 28 H       -8.8140     1.5080    -1.6720 H     1 <1>   0.0800 
 29 H       -9.8530     2.2560    -0.5030 H     1 <1>   0.0800 
 30 H       -7.8420    -1.2780     0.7460 H     1 <1>   0.0800 
 31 H       -7.5300    -0.7480    -0.8740 H     1 <1>   0.0800 
 32 H       -9.8530    -0.2450    -0.3360 H     1 <1>   0.0800 
 33 H       -9.3890     0.5420     1.1440 H     1 <1>   0.0800 
@<TRIPOS>BOND
  1   1   2  2   
  2   2   3  1   
  3   2   4  1   
  4   3   5  1   
  5   4  14  1   
  6   4  15  1   
  7   4  16  1   
  8   5   6  1   
  9   5  17  1   
 10   5  18  1   
 11   6   7  1   
 12   6  19  1   
 13   6  20  1   
 14   7   8  1   
 15   7  21  1   
 16   7  22  1   
 17   8   9  1   
 18   8  10  1   
 19   8  23  1   
 20   9  11  1   
 21   9  24  1   
 22   9  25  1   
 23  10  12  1   
 24  10  26  1   
 25  10  27  1   
 26  11  13  1   
 27  11  28  1   
 28  11  29  1   
 29  12  13  1   
 30  12  30  1   
 31  12  31  1   
 32  13  32  1   
 33  13  33  1   
@<TRIPOS>SUBSTRUCTURE
  1 ****   6 GROUP 4 **** **** 0

# MOE 2024.06 (io_trps.svl 2023.06)
