@<TRIPOS>MOLECULE
NONAME
35 36 1 0 0 
SMALL
USER_CHARGES


@<TRIPOS>ATOM
  1 F        0.5080     0.7210    -1.0850 F     1 <1>  -0.1900 
  2 C        1.6640     1.2020    -0.7060 C.ar  1 <1>   0.1900 
  3 C        2.8110     0.7590    -1.3360 C.ar  1 <1>  -0.1500 
  4 C        1.6970     2.1370     0.3100 C.ar  1 <1>  -0.1500 
  5 C        4.0300     1.2750    -0.9300 C.ar  1 <1>  -0.1500 
  6 C        2.9240     2.6420     0.7050 C.ar  1 <1>  -0.1500 
  7 C        4.1030     2.2180     0.0950 C.ar  1 <1>   0.1170 
  8 N        5.3180     2.7720     0.5200 N.am  1 <1>  -0.5470 
  9 C        6.5940     2.2900     0.4740 C.2   1 <1>   0.6900 
 10 O        6.8250     1.1440     0.1350 O.2   1 <1>  -0.5700 
 11 N        7.6200     3.1210     0.8410 N.am  1 <1>  -0.6600 
 12 C        8.9660     2.5620     1.1550 C.3   1 <1>   0.1400 
 13 C        7.6360     4.5780     0.5340 C.3   1 <1>   0.1400 
 14 C        9.8970     2.7610    -0.0460 C.3   1 <1>  -0.0190 
 15 C        8.5620     4.8330    -0.6620 C.3   1 <1>  -0.1600 
 16 C       11.2680     2.1900     0.2780 C.2   1 <1>   0.5690 
 17 C        9.9680     4.2520    -0.4360 C.3   1 <1>  -0.1600 
 18 O       11.9250     2.6580     1.1720 O.2   1 <1>  -0.5700 
 19 N       11.7450     1.1510    -0.4320 N.am  1 <1>  -0.8000 
 20 H        2.7490     0.0300    -2.1230 H     1 <1>   0.1500 
 21 H        0.7820     2.4560     0.7760 H     1 <1>   0.1500 
 22 H        4.9290     0.9410    -1.4150 H     1 <1>   0.1500 
 23 H        2.9640     3.3680     1.4960 H     1 <1>   0.1500 
 24 H        5.2500     3.6170     1.0770 H     1 <1>   0.3700 
 25 H        8.8900     1.5130     1.3910 H     1 <1>   0.0800 
 26 H        9.3670     3.0660     2.0180 H     1 <1>   0.0800 
 27 H        7.9970     5.1130     1.3970 H     1 <1>   0.0800 
 28 H        6.6490     4.9360     0.3030 H     1 <1>   0.0800 
 29 H        9.4860     2.2060    -0.8710 H     1 <1>   0.0800 
 30 H        8.6340     5.8920    -0.8370 H     1 <1>   0.0800 
 31 H        8.1240     4.3870    -1.5390 H     1 <1>   0.0800 
 32 H       10.5580     4.3660    -1.3290 H     1 <1>   0.0800 
 33 H       10.4550     4.8010     0.3530 H     1 <1>   0.0800 
 34 H       12.6620     0.7680    -0.1990 H     1 <1>   0.3700 
 35 H       11.2260     0.6810    -1.1730 H     1 <1>   0.3700 
@<TRIPOS>BOND
  1   1   2  1   
  2   2   3  ar  
  3   2   4  ar  
  4   3   5  ar  
  5   3  20  1   
  6   4   6  ar  
  7   4  21  1   
  8   5   7  ar  
  9   5  22  1   
 10   6   7  ar  
 11   6  23  1   
 12   7   8  1   
 13   8   9  am  
 14   8  24  1   
 15   9  10  2   
 16   9  11  am  
 17  11  12  1   
 18  11  13  1   
 19  12  14  1   
 20  12  25  1   
 21  12  26  1   
 22  13  15  1   
 23  13  27  1   
 24  13  28  1   
 25  14  16  1   
 26  14  17  1   
 27  14  29  1   
 28  15  17  1   
 29  15  30  1   
 30  15  31  1   
 31  16  18  2   
 32  16  19  am  
 33  17  32  1   
 34  17  33  1   
 35  19  34  1   
 36  19  35  1   
@<TRIPOS>SUBSTRUCTURE
  1 ****   9 GROUP 4 **** **** 0

# MOE 2024.06 (io_trps.svl 2023.06)
