@<TRIPOS>MOLECULE
NONAME
34 36 1 0 0 
SMALL
USER_CHARGES


@<TRIPOS>ATOM
  1 CL      -2.7840    -2.3710    -3.0420 Cl    1 <1>  -0.1770 
  2 C       -2.0670    -2.3240    -1.4470 C.ar  1 <1>   0.1770 
  3 C       -1.6380    -1.1230    -0.8960 C.ar  1 <1>  -0.1440 
  4 C       -1.9350    -3.5250    -0.7720 C.ar  1 <1>  -0.1500 
  5 C       -1.0500    -1.1600     0.3650 C.ar  1 <1>  -0.1500 
  6 C       -1.8000     0.1820    -1.6730 C.3   1 <1>   0.2840 
  7 C       -1.3560    -3.5410     0.4850 C.ar  1 <1>  -0.1500 
  8 C       -0.9130    -2.3570     1.0480 C.ar  1 <1>  -0.1500 
  9 N       -1.9600     1.3310    -0.7680 N.am  1 <1>  -0.7300 
 10 C       -2.9440     2.2570    -0.7850 C.2   1 <1>   0.5690 
 11 O       -3.8240     2.2620    -1.6160 O.2   1 <1>  -0.5700 
 12 C       -2.9100     3.2730     0.3320 C.3   1 <1>  -0.0190 
 13 C       -3.8820     4.4480     0.2550 C.3   1 <1>   0.3380 
 14 C       -1.5580     4.0190     0.4610 C.3   1 <1>  -0.1860 
 15 O       -3.3130     5.2350     1.2470 O.3   1 <1>  -0.5600 
 16 C       -3.5920     5.3520    -0.9290 C.2   1 <1>  -0.2880 
 17 C       -0.6660     3.4270     1.5120 C.2   1 <1>   0.9060 
 18 C       -2.0390     5.4490     0.7190 C.3   1 <1>   0.3380 
 19 C       -2.4660     5.9900    -0.6300 C.2   1 <1>  -0.2880 
 20 O       -0.4960     2.2000     1.4730 O.co2 1 <1>  -0.9000 
 21 O       -0.0840     4.1580     2.3150 O.co2 1 <1>  -0.9000 
 22 H       -2.2810    -4.4340    -1.2280 H     1 <1>   0.1500 
 23 H       -0.6890    -0.2580     0.8360 H     1 <1>   0.1500 
 24 H       -2.6600     0.1320    -2.3180 H     1 <1>   0.0800 
 25 H       -0.9300     0.3420    -2.2850 H     1 <1>   0.0800 
 26 H       -1.2480    -4.4670     1.0210 H     1 <1>   0.1500 
 27 H       -0.4590    -2.3570     2.0240 H     1 <1>   0.1500 
 28 H       -1.2690     1.4100     0.0090 H     1 <1>   0.3700 
 29 H       -3.1240     2.7460     1.2450 H     1 <1>   0.0800 
 30 H       -4.9170     4.2460     0.4700 H     1 <1>   0.0800 
 31 H       -1.0040     3.9940    -0.4570 H     1 <1>   0.0800 
 32 H       -4.2410     5.3670    -1.7860 H     1 <1>   0.1500 
 33 H       -1.4450     6.0890     1.3500 H     1 <1>   0.0800 
 34 H       -1.8710     6.7160    -1.1510 H     1 <1>   0.1500 
@<TRIPOS>BOND
  1   1   2  1   
  2   2   3  ar  
  3   2   4  ar  
  4   3   5  ar  
  5   3   6  1   
  6   4   7  ar  
  7   4  22  1   
  8   5   8  ar  
  9   5  23  1   
 10   6   9  1   
 11   6  24  1   
 12   6  25  1   
 13   7   8  ar  
 14   7  26  1   
 15   8  27  1   
 16   9  10  am  
 17   9  28  1   
 18  10  11  2   
 19  10  12  1   
 20  12  13  1   
 21  12  14  1   
 22  12  29  1   
 23  13  15  1   
 24  13  16  1   
 25  13  30  1   
 26  14  17  1   
 27  14  18  1   
 28  14  31  1   
 29  15  18  1   
 30  16  19  2   
 31  16  32  1   
 32  17  20  ar  
 33  17  21  ar  
 34  18  19  1   
 35  18  33  1   
 36  19  34  1   
@<TRIPOS>SUBSTRUCTURE
  1 ****   9 GROUP 4 **** **** 0

# MOE 2024.06 (io_trps.svl 2023.06)
