@<TRIPOS>MOLECULE
NONAME
37 37 1 0 0 
SMALL
USER_CHARGES


@<TRIPOS>ATOM
  1 O       -0.0180    -0.1740    -0.5870 O.2   1 <1>  -0.5700 
  2 C       -0.1300    -1.3370    -0.2550 C.2   1 <1>   0.6340 
  3 O        0.9800    -2.0420    -0.0100 O.3   1 <1>  -0.4300 
  4 C       -1.4070    -2.0060    -0.1080 C.ar  1 <1>   0.0860 
  5 C        2.2630    -1.4670    -0.1300 C.3   1 <1>   0.1200 
  6 C       -2.6070    -1.3350    -0.3560 C.ar  1 <1>  -0.1500 
  7 C       -1.5090    -3.3430     0.2860 C.ar  1 <1>  -0.1500 
  8 C        3.3020    -2.5330     0.2170 C.3   1 <1>  -0.1600 
  9 C       -3.8330    -1.9580    -0.2200 C.ar  1 <1>  -0.1500 
 10 C       -2.7340    -3.9690     0.4220 C.ar  1 <1>  -0.1500 
 11 C        4.7260    -1.9780     0.1080 C.3   1 <1>  -0.2400 
 12 C       -3.9210    -3.2910     0.1690 C.ar  1 <1>   0.1170 
 13 N       -5.1310    -3.9750     0.3300 N.am  1 <1>  -0.5470 
 14 C       -6.4030    -3.6870    -0.0850 C.2   1 <1>   0.5690 
 15 O       -6.7020    -2.7140    -0.7290 O.2   1 <1>  -0.5700 
 16 C       -7.4960    -4.6700     0.2910 C.3   1 <1>  -0.0990 
 17 C       -7.4280    -5.9620    -0.5400 C.3   1 <1>  -0.1600 
 18 C       -8.5380    -6.9390    -0.1410 C.3   1 <1>  -0.2400 
 19 H        2.3240    -0.6310     0.5470 H     1 <1>   0.0800 
 20 H        2.3860    -1.1200    -1.1420 H     1 <1>   0.0800 
 21 H       -2.5750    -0.3020    -0.6610 H     1 <1>   0.1500 
 22 H       -0.6120    -3.9020     0.4890 H     1 <1>   0.1500 
 23 H        3.1940    -3.3650    -0.4580 H     1 <1>   0.0800 
 24 H        3.1320    -2.8790     1.2220 H     1 <1>   0.0800 
 25 H       -4.7260    -1.3940    -0.4190 H     1 <1>   0.1500 
 26 H       -2.7660    -4.9990     0.7250 H     1 <1>   0.1500 
 27 H        4.9230    -1.6400    -0.8940 H     1 <1>   0.0800 
 28 H        5.4390    -2.7450     0.3560 H     1 <1>   0.0800 
 29 H        4.8620    -1.1530     0.7860 H     1 <1>   0.0800 
 30 H       -5.0490    -4.8690     0.8090 H     1 <1>   0.3700 
 31 H       -8.4480    -4.1950     0.1330 H     1 <1>   0.0800 
 32 H       -7.4150    -4.8970     1.3380 H     1 <1>   0.0800 
 33 H       -6.4720    -6.4380    -0.4040 H     1 <1>   0.0800 
 34 H       -7.5290    -5.7160    -1.5840 H     1 <1>   0.0800 
 35 H       -8.4470    -7.2160     0.8950 H     1 <1>   0.0800 
 36 H       -8.4750    -7.8310    -0.7400 H     1 <1>   0.0800 
 37 H       -9.5050    -6.4930    -0.2970 H     1 <1>   0.0800 
@<TRIPOS>BOND
  1   1   2  2   
  2   2   3  1   
  3   2   4  1   
  4   3   5  1   
  5   4   6  ar  
  6   4   7  ar  
  7   5   8  1   
  8   5  19  1   
  9   5  20  1   
 10   6   9  ar  
 11   6  21  1   
 12   7  10  ar  
 13   7  22  1   
 14   8  11  1   
 15   8  23  1   
 16   8  24  1   
 17   9  12  ar  
 18   9  25  1   
 19  10  12  ar  
 20  10  26  1   
 21  11  27  1   
 22  11  28  1   
 23  11  29  1   
 24  12  13  1   
 25  13  14  am  
 26  13  30  1   
 27  14  15  2   
 28  14  16  1   
 29  16  17  1   
 30  16  31  1   
 31  16  32  1   
 32  17  18  1   
 33  17  33  1   
 34  17  34  1   
 35  18  35  1   
 36  18  36  1   
 37  18  37  1   
@<TRIPOS>SUBSTRUCTURE
  1 ****  10 GROUP 4 **** **** 0

# MOE 2024.06 (io_trps.svl 2023.06)
