@<TRIPOS>MOLECULE
NONAME
43 46 1 0 0 
SMALL
USER_CHARGES


@<TRIPOS>ATOM
  1 O       -0.7250     0.4170    -0.9470 O.3   1 <1>  -0.2800 
  2 C       -1.3720     1.4180    -0.3780 C.2   1 <1>  -0.0400 
  3 C        0.4780     0.8480    -1.2700 C.2   1 <1>  -0.0100 
  4 C       -0.5810     2.5140    -0.3250 C.2   1 <1>  -0.1500 
  5 C       -2.7980     1.1820     0.0930 C.3   1 <1>   0.3890 
  6 C        0.6330     2.1400    -0.9130 C.2   1 <1>  -0.1500 
  7 N       -3.4610     2.4750     0.3990 N.pl3 1 <1>  -0.8690 
  8 C       -4.8540     2.4630     0.4410 C.ar  1 <1>   0.1000 
  9 C       -5.5480     1.5770     1.2410 C.ar  1 <1>  -0.1500 
 10 C       -5.5670     3.3800    -0.3470 C.ar  1 <1>  -0.1500 
 11 C       -6.9400     1.5900     1.2410 C.ar  1 <1>   0.2270 
 12 C       -6.9430     3.4050    -0.3490 C.ar  1 <1>  -0.1500 
 13 N       -7.8000     0.8000     1.9410 N.2   1 <1>  -0.5650 
 14 C       -7.6340     2.4930     0.4560 C.ar  1 <1>  -0.1520 
 15 C       -8.9650     1.2180     1.5880 C.2   1 <1>   0.0360 
 16 N       -8.9570     2.2400     0.6930 N.pl3 1 <1>   0.0480 
 17 C      -10.1660     2.8970     0.1350 C.3   1 <1>   0.1760 
 18 C      -10.2470     2.7080    -1.3900 C.3   1 <1>  -0.1600 
 19 C      -10.2230     4.3830     0.5310 C.3   1 <1>  -0.1600 
 20 C      -11.4920     3.3960    -1.9670 C.3   1 <1>  -0.1600 
 21 C      -11.4690     5.0640    -0.0550 C.3   1 <1>  -0.1600 
 22 C      -11.5380     4.8800    -1.5770 C.3   1 <1>  -0.1600 
 23 H        1.1610     0.1690    -1.7510 H     1 <1>   0.1500 
 24 H       -0.8030     3.4850     0.0830 H     1 <1>   0.1500 
 25 H       -2.7860     0.5620     0.9730 H     1 <1>   0.0800 
 26 H       -3.3470     0.6720    -0.6800 H     1 <1>   0.0800 
 27 H        1.4920     2.7760    -1.0360 H     1 <1>   0.1500 
 28 H       -3.0980     3.1810    -0.2460 H     1 <1>   0.4000 
 29 H       -5.0430     0.8760     1.8740 H     1 <1>   0.1500 
 30 H       -5.0170     4.0730    -0.9560 H     1 <1>   0.1500 
 31 H       -7.4750     4.1120    -0.9580 H     1 <1>   0.1500 
 32 H       -9.8860     0.8050     1.9610 H     1 <1>   0.1500 
 33 H      -11.0220     2.4120     0.5680 H     1 <1>   0.0800 
 34 H      -10.2830     1.6580    -1.6200 H     1 <1>   0.0800 
 35 H       -9.3740     3.1250    -1.8590 H     1 <1>   0.0800 
 36 H       -9.3490     4.8940     0.1700 H     1 <1>   0.0800 
 37 H      -10.2430     4.4680     1.6030 H     1 <1>   0.0800 
 38 H      -12.3770     2.9040    -1.6010 H     1 <1>   0.0800 
 39 H      -11.4880     3.3070    -3.0400 H     1 <1>   0.0800 
 40 H      -11.4490     6.1140     0.1800 H     1 <1>   0.0800 
 41 H      -12.3530     4.6440     0.3950 H     1 <1>   0.0800 
 42 H      -12.4460     5.3220    -1.9510 H     1 <1>   0.0800 
 43 H      -10.7110     5.3950    -2.0370 H     1 <1>   0.0800 
@<TRIPOS>BOND
  1   1   2  1   
  2   1   3  1   
  3   2   4  2   
  4   2   5  1   
  5   3   6  2   
  6   3  23  1   
  7   4   6  1   
  8   4  24  1   
  9   5   7  1   
 10   5  25  1   
 11   5  26  1   
 12   6  27  1   
 13   7   8  1   
 14   7  28  1   
 15   8   9  ar  
 16   8  10  ar  
 17   9  11  ar  
 18   9  29  1   
 19  10  12  ar  
 20  10  30  1   
 21  11  13  1   
 22  11  14  ar  
 23  12  14  ar  
 24  12  31  1   
 25  13  15  2   
 26  14  16  1   
 27  15  16  1   
 28  15  32  1   
 29  16  17  1   
 30  17  18  1   
 31  17  19  1   
 32  17  33  1   
 33  18  20  1   
 34  18  34  1   
 35  18  35  1   
 36  19  21  1   
 37  19  36  1   
 38  19  37  1   
 39  20  22  1   
 40  20  38  1   
 41  20  39  1   
 42  21  22  1   
 43  21  40  1   
 44  21  41  1   
 45  22  42  1   
 46  22  43  1   
@<TRIPOS>SUBSTRUCTURE
  1 ****  10 GROUP 4 **** **** 0

# MOE 2024.06 (io_trps.svl 2023.06)
