@<TRIPOS>MOLECULE
Structure1966
20 20 1 0 0 
SMALL
USER_CHARGES


@<TRIPOS>ATOM
  1 O        0.1430    -0.2320    -0.2330 O.co2 1 <1>  -0.9000 
  2 C        0.7830    -1.2460     0.1040 C.2   1 <1>   1.0330 
  3 O        0.1390    -2.2220     0.5320 O.co2 1 <1>  -0.9000 
  4 C        2.2380    -1.2950     0.0010 C.2   1 <1>  -0.2330 
  5 C        3.1000    -0.1870    -0.0720 C.2   1 <1>   0.1080 
  6 C        3.0990    -2.3570    -0.0420 C.2   1 <1>  -0.3320 
  7 N        4.3540    -0.5240    -0.1510 N.2   1 <1>  -0.7070 
  8 C        2.6270     1.2640    -0.0570 C.3   1 <1>   0.0210 
  9 N        4.3430    -1.8630    -0.1290 N.pl3 1 <1>   0.3000 
 10 C        2.7980    -3.8450    -0.0050 C.3   1 <1>  -0.0600 
 11 C        3.7600     2.2940     0.0640 C.3   1 <1>  -0.2400 
 12 H        1.9490     1.3900     0.7680 H     1 <1>   0.0800 
 13 H        2.0750     1.4440    -0.9610 H     1 <1>   0.0800 
 14 H        5.2050    -2.4130    -0.1770 H     1 <1>   0.2700 
 15 H        1.7390    -4.0180    -0.0650 H     1 <1>   0.0800 
 16 H        3.1570    -4.2710     0.9140 H     1 <1>   0.0800 
 17 H        3.2650    -4.3410    -0.8360 H     1 <1>   0.0800 
 18 H        4.3130     2.1190     0.9690 H     1 <1>   0.0800 
 19 H        3.3540     3.2880     0.0830 H     1 <1>   0.0800 
 20 H        4.4280     2.2000    -0.7730 H     1 <1>   0.0800 
@<TRIPOS>BOND
  1   1   2  ar  
  2   2   3  ar  
  3   2   4  1   
  4   4   5  1   
  5   4   6  2   
  6   5   7  2   
  7   5   8  1   
  8   6   9  1   
  9   6  10  1   
 10   7   9  1   
 11   8  11  1   
 12   8  12  1   
 13   8  13  1   
 14   9  14  1   
 15  10  15  1   
 16  10  16  1   
 17  10  17  1   
 18  11  18  1   
 19  11  19  1   
 20  11  20  1   
@<TRIPOS>SUBSTRUCTURE
  1 ****   4 GROUP 4 **** **** 0

# MOE 2024.06 (io_trps.svl 2023.06)
