@<TRIPOS>MOLECULE
NONAME
40 43 1 0 0 
SMALL
USER_CHARGES


@<TRIPOS>ATOM
  1 S        0.0290    -0.9730    -1.2580 S.3   1 <1>  -0.0800 
  2 C       -1.3310    -0.0880    -0.5540 C.ar  1 <1>   0.2970 
  3 C        1.2000     0.0300    -0.3890 C.2   1 <1>  -0.0450 
  4 N       -2.5850    -0.3900    -0.8390 N.ar  1 <1>  -0.5670 
  5 C       -0.8650     0.9100     0.2930 C.ar  1 <1>   0.0000 
  6 C        2.6070    -0.0710    -0.4320 C.2   1 <1>   0.7150 
  7 C        0.5690     0.9580     0.3700 C.2   1 <1>   0.1250 
  8 C       -3.4660     0.3800    -0.2200 C.ar  1 <1>   0.1660 
  9 C       -1.8140     1.6960     0.9230 C.ar  1 <1>  -0.1500 
 10 O        3.2080    -0.9120    -1.0870 O.2   1 <1>  -0.5700 
 11 N        3.2820     0.8450     0.3450 N.am  1 <1>  -0.4200 
 12 N        1.2850     1.8480     1.1320 N.2   1 <1>  -0.5750 
 13 C       -3.1400     1.4190     0.6550 C.ar  1 <1>  -0.1430 
 14 C       -4.9240     0.0730    -0.4930 C.3   1 <1>  -0.0170 
 15 C        2.5700     1.7600     1.0890 C.2   1 <1>   0.4500 
 16 C        4.7600     0.8670     0.3750 C.3   1 <1>   0.2780 
 17 C       -4.2290     2.2640     1.3050 C.3   1 <1>   0.2640 
 18 C       -5.8450     1.2520    -0.1430 C.3   1 <1>   0.2800 
 19 C        5.2640     2.0060    -0.4930 C.2   1 <1>  -0.2880 
 20 O       -5.5060     1.7200     1.1260 O.3   1 <1>  -0.5600 
 21 C       -5.7620     2.3950    -1.1670 C.3   1 <1>  -0.2400 
 22 C       -7.2960     0.7820    -0.0320 C.3   1 <1>  -0.2400 
 23 C        5.9850     1.8560    -1.6080 C.2   1 <1>  -0.3000 
 24 H       -1.5060     2.4840     1.5880 H     1 <1>   0.1500 
 25 H       -5.1960    -0.7860     0.0910 H     1 <1>   0.0800 
 26 H       -5.0500    -0.1860    -1.5290 H     1 <1>   0.0800 
 27 H        3.1530     2.4490     1.6750 H     1 <1>   0.0600 
 28 H        5.1580    -0.0700     0.0200 H     1 <1>   0.0800 
 29 H        5.0980     1.0020     1.3880 H     1 <1>   0.0800 
 30 H       -4.2250     3.2590     0.8960 H     1 <1>   0.0800 
 31 H       -4.0590     2.3320     2.3650 H     1 <1>   0.0800 
 32 H        4.9810     2.9760    -0.1200 H     1 <1>   0.1500 
 33 H       -4.7460     2.6970    -1.3430 H     1 <1>   0.0800 
 34 H       -6.3340     3.2400    -0.8280 H     1 <1>   0.0800 
 35 H       -6.1670     2.0700    -2.1080 H     1 <1>   0.0800 
 36 H       -7.3860     0.0200     0.7210 H     1 <1>   0.0800 
 37 H       -7.6310     0.3760    -0.9700 H     1 <1>   0.0800 
 38 H       -7.9340     1.6060     0.2310 H     1 <1>   0.0800 
 39 H        6.3360     2.6750    -2.2130 H     1 <1>   0.1500 
 40 H        6.2830     0.9040    -2.0170 H     1 <1>   0.1500 
@<TRIPOS>BOND
  1   1   2  1   
  2   1   3  1   
  3   2   4  ar  
  4   2   5  ar  
  5   3   6  1   
  6   3   7  2   
  7   4   8  ar  
  8   5   7  1   
  9   5   9  ar  
 10   6  10  2   
 11   6  11  am  
 12   7  12  1   
 13   8  13  ar  
 14   8  14  1   
 15   9  13  ar  
 16   9  24  1   
 17  11  15  1   
 18  11  16  1   
 19  12  15  2   
 20  13  17  1   
 21  14  18  1   
 22  14  25  1   
 23  14  26  1   
 24  15  27  1   
 25  16  19  1   
 26  16  28  1   
 27  16  29  1   
 28  17  20  1   
 29  17  30  1   
 30  17  31  1   
 31  18  20  1   
 32  18  21  1   
 33  18  22  1   
 34  19  23  2   
 35  19  32  1   
 36  21  33  1   
 37  21  34  1   
 38  21  35  1   
 39  22  36  1   
 40  22  37  1   
 41  22  38  1   
 42  23  39  1   
 43  23  40  1   
@<TRIPOS>SUBSTRUCTURE
  1 ****   5 GROUP 4 **** **** 0

# MOE 2024.06 (io_trps.svl 2023.06)
