@<TRIPOS>MOLECULE
NONAME
39 39 1 0 0 
SMALL
USER_CHARGES


@<TRIPOS>ATOM
  1 O       -0.2340    -1.0190     1.5210 O.2   1 <1>  -0.5700 
  2 C       -0.2160    -1.2220     0.3230 C.2   1 <1>   0.6900 
  3 N        0.9350    -1.1690    -0.3820 N.am  1 <1>  -0.7300 
  4 N       -1.3480    -1.5080    -0.3560 N.am  1 <1>  -0.7300 
  5 C        2.2650    -0.8770     0.1820 C.3   1 <1>   0.2200 
  6 C       -2.6910    -1.6140     0.2480 C.3   1 <1>   0.1400 
  7 C        2.8570     0.2990    -0.6070 C.3   1 <1>  -0.1600 
  8 C        3.0760    -2.1770     0.1100 C.3   1 <1>  -0.1600 
  9 C       -3.3950    -2.8500    -0.3130 C.3   1 <1>  -0.1600 
 10 C        3.8990     1.1200     0.1800 C.3   1 <1>  -0.1600 
 11 C        4.4680    -2.1180     0.7580 C.3   1 <1>  -0.1600 
 12 C       -4.7980    -3.0100     0.2820 C.3   1 <1>  -0.2400 
 13 C        5.3350     0.9830    -0.3450 C.3   1 <1>  -0.1600 
 14 C        5.5770    -1.5900    -0.1720 C.3   1 <1>  -0.1600 
 15 C        6.1200    -0.2080     0.2210 C.3   1 <1>  -0.1600 
 16 H        0.9210    -1.4190    -1.3640 H     1 <1>   0.3700 
 17 H       -1.3050    -1.5840    -1.3670 H     1 <1>   0.3700 
 18 H        2.1470    -0.5900     1.2140 H     1 <1>   0.0800 
 19 H       -3.2540    -0.7260     0.0180 H     1 <1>   0.0800 
 20 H       -2.6060    -1.6950     1.3200 H     1 <1>   0.0800 
 21 H        2.0510     0.9740    -0.8390 H     1 <1>   0.0800 
 22 H        3.2610    -0.0470    -1.5410 H     1 <1>   0.0800 
 23 H        3.1610    -2.5060    -0.9110 H     1 <1>   0.0800 
 24 H        2.5120    -2.9240     0.6420 H     1 <1>   0.0800 
 25 H       -2.8120    -3.7240    -0.0780 H     1 <1>   0.0800 
 26 H       -3.4750    -2.7650    -1.3830 H     1 <1>   0.0800 
 27 H        3.8620     0.8960     1.2330 H     1 <1>   0.0800 
 28 H        3.6250     2.1570     0.0830 H     1 <1>   0.0800 
 29 H        4.7320    -3.1260     1.0270 H     1 <1>   0.0800 
 30 H        4.4260    -1.5600     1.6780 H     1 <1>   0.0800 
 31 H       -4.7420    -3.1150     1.3510 H     1 <1>   0.0800 
 32 H       -5.2720    -3.8870    -0.1230 H     1 <1>   0.0800 
 33 H       -5.4070    -2.1530     0.0490 H     1 <1>   0.0800 
 34 H        5.8700     1.8750    -0.0630 H     1 <1>   0.0800 
 35 H        5.3380     0.9500    -1.4200 H     1 <1>   0.0800 
 36 H        5.2640    -1.5890    -1.2010 H     1 <1>   0.0800 
 37 H        6.4010    -2.2810    -0.1050 H     1 <1>   0.0800 
 38 H        6.1920    -0.1270     1.2920 H     1 <1>   0.0800 
 39 H        7.1240    -0.1340    -0.1610 H     1 <1>   0.0800 
@<TRIPOS>BOND
  1   1   2  2   
  2   2   3  am  
  3   2   4  am  
  4   3   5  1   
  5   3  16  1   
  6   4   6  1   
  7   4  17  1   
  8   5   7  1   
  9   5   8  1   
 10   5  18  1   
 11   6   9  1   
 12   6  19  1   
 13   6  20  1   
 14   7  10  1   
 15   7  21  1   
 16   7  22  1   
 17   8  11  1   
 18   8  23  1   
 19   8  24  1   
 20   9  12  1   
 21   9  25  1   
 22   9  26  1   
 23  10  13  1   
 24  10  27  1   
 25  10  28  1   
 26  11  14  1   
 27  11  29  1   
 28  11  30  1   
 29  12  31  1   
 30  12  32  1   
 31  12  33  1   
 32  13  15  1   
 33  13  34  1   
 34  13  35  1   
 35  14  15  1   
 36  14  36  1   
 37  14  37  1   
 38  15  38  1   
 39  15  39  1   
@<TRIPOS>SUBSTRUCTURE
  1 ****   3 GROUP 4 **** **** 0

# MOE 2024.06 (io_trps.svl 2023.06)
