@<TRIPOS>MOLECULE
NONAME
48 50 1 0 0 
SMALL
USER_CHARGES


@<TRIPOS>ATOM
  1 CL       0.0810     0.9930     1.6590 Cl    1 <1>  -0.1770 
  2 C       -0.4280    -0.6540     1.3500 C.ar  1 <1>   0.1770 
  3 C        0.0020    -1.3160     0.2050 C.ar  1 <1>   0.0830 
  4 C       -1.2600    -1.2640     2.2690 C.ar  1 <1>  -0.1500 
  5 O        0.8240    -0.6460    -0.6500 O.3   1 <1>  -0.3630 
  6 C       -0.4280    -2.6260    -0.0050 C.ar  1 <1>  -0.1500 
  7 C       -1.6800    -2.5650     2.0500 C.ar  1 <1>  -0.1500 
  8 C        1.4300    -1.2650    -1.7730 C.3   1 <1>   0.2610 
  9 C       -1.2630    -3.2410     0.9150 C.ar  1 <1>  -0.1500 
 10 C        2.4490    -2.3260    -1.3370 C.2   1 <1>   0.5690 
 11 C        2.0790    -0.1480    -2.5980 C.3   1 <1>  -0.2400 
 12 O        2.4670    -3.3820    -1.9250 O.2   1 <1>  -0.5700 
 13 N        3.3030    -2.0250    -0.3090 N.am  1 <1>  -0.5470 
 14 C        4.3300    -2.7540     0.3070 C.ar  1 <1>   0.1170 
 15 C        5.3930    -2.0680     0.9160 C.ar  1 <1>   0.0860 
 16 C        4.3060    -4.1450     0.3500 C.ar  1 <1>  -0.1500 
 17 C        5.4760    -0.6230     0.8620 C.2   1 <1>   0.5440 
 18 C        6.3740    -2.8090     1.5780 C.ar  1 <1>  -0.1500 
 19 C        5.2970    -4.8590     0.9930 C.ar  1 <1>  -0.1500 
 20 O        4.5140     0.0470     1.2000 O.2   1 <1>  -0.5700 
 21 N        6.6050     0.0330     0.4180 N.am  1 <1>  -0.6600 
 22 C        6.3340    -4.1880     1.6150 C.ar  1 <1>  -0.1500 
 23 C        6.7910     1.5020     0.6080 C.3   1 <1>   0.1400 
 24 C        7.6600    -0.5800    -0.4430 C.3   1 <1>   0.1400 
 25 C        8.2390     1.8120     1.0240 C.3   1 <1>   0.1200 
 26 C        9.0570    -0.1610     0.0430 C.3   1 <1>   0.1200 
 27 O        9.1510     1.2320     0.1320 O.3   1 <1>  -0.5600 
 28 H       -1.5720    -0.7240     3.1450 H     1 <1>   0.1500 
 29 H       -0.1300    -3.1880    -0.8710 H     1 <1>   0.1500 
 30 H       -2.3270    -3.0500     2.7600 H     1 <1>   0.1500 
 31 H        0.6560    -1.7270    -2.3580 H     1 <1>   0.0800 
 32 H       -1.5890    -4.2530     0.7460 H     1 <1>   0.1500 
 33 H        2.8330     0.3560    -2.0190 H     1 <1>   0.0800 
 34 H        1.3330     0.5620    -2.9060 H     1 <1>   0.0800 
 35 H        2.5400    -0.5650    -3.4750 H     1 <1>   0.0800 
 36 H        3.1860    -1.0760     0.0790 H     1 <1>   0.3700 
 37 H        3.4980    -4.6790    -0.1170 H     1 <1>   0.1500 
 38 H        7.1760    -2.2870     2.0700 H     1 <1>   0.1500 
 39 H        5.2590    -5.9350     1.0140 H     1 <1>   0.1500 
 40 H        7.1020    -4.7440     2.1260 H     1 <1>   0.1500 
 41 H        6.1190     1.8700     1.3650 H     1 <1>   0.0800 
 42 H        6.5660     2.0110    -0.3120 H     1 <1>   0.0800 
 43 H        7.5270    -0.2370    -1.4550 H     1 <1>   0.0800 
 44 H        7.5850    -1.6520    -0.4500 H     1 <1>   0.0800 
 45 H        8.4350     1.4340     2.0130 H     1 <1>   0.0800 
 46 H        8.4050     2.8740     1.0210 H     1 <1>   0.0800 
 47 H        9.8080    -0.4960    -0.6520 H     1 <1>   0.0800 
 48 H        9.2670    -0.5840     1.0100 H     1 <1>   0.0800 
@<TRIPOS>BOND
  1   1   2  1   
  2   2   3  ar  
  3   2   4  ar  
  4   3   5  1   
  5   3   6  ar  
  6   4   7  ar  
  7   4  28  1   
  8   5   8  1   
  9   6   9  ar  
 10   6  29  1   
 11   7   9  ar  
 12   7  30  1   
 13   8  10  1   
 14   8  11  1   
 15   8  31  1   
 16   9  32  1   
 17  10  12  2   
 18  10  13  am  
 19  11  33  1   
 20  11  34  1   
 21  11  35  1   
 22  13  14  1   
 23  13  36  1   
 24  14  15  ar  
 25  14  16  ar  
 26  15  17  1   
 27  15  18  ar  
 28  16  19  ar  
 29  16  37  1   
 30  17  20  2   
 31  17  21  am  
 32  18  22  ar  
 33  18  38  1   
 34  19  22  ar  
 35  19  39  1   
 36  21  23  1   
 37  21  24  1   
 38  22  40  1   
 39  23  25  1   
 40  23  41  1   
 41  23  42  1   
 42  24  26  1   
 43  24  43  1   
 44  24  44  1   
 45  25  27  1   
 46  25  45  1   
 47  25  46  1   
 48  26  27  1   
 49  26  47  1   
 50  26  48  1   
@<TRIPOS>SUBSTRUCTURE
  1 ****  13 GROUP 4 **** **** 0

# MOE 2024.06 (io_trps.svl 2023.06)
