@<TRIPOS>MOLECULE
NONAME
49 52 1 0 0 
SMALL
USER_CHARGES


@<TRIPOS>ATOM
  1 S       -2.3430     1.5400    -0.6470 S.o2  1 <1>   1.0900 
  2 O       -3.2020     1.6790     0.5070 O.2   1 <1>  -0.6500 
  3 O       -2.7840     0.8210    -1.8190 O.2   1 <1>  -0.6500 
  4 C       -0.7620     0.9240    -0.1200 C.3   1 <1>  -0.0550 
  5 C       -1.7630     3.1630    -1.1110 C.3   1 <1>  -0.0550 
  6 C        0.1350     2.1500     0.1370 C.3   1 <1>   0.3000 
  7 C       -0.2400     3.1990    -0.9280 C.3   1 <1>  -0.1600 
  8 N        1.5980     1.8170     0.0470 N.am  1 <1>  -0.6600 
  9 C       -0.1650     2.6810     1.5540 C.3   1 <1>  -0.2400 
 10 C        2.0770     0.8710    -0.8290 C.2   1 <1>   0.5690 
 11 C        2.5570     2.8350     0.5770 C.3   1 <1>   0.0600 
 12 O        1.6830     0.8560    -1.9740 O.2   1 <1>  -0.5700 
 13 C        3.1060    -0.2050    -0.3920 C.3   1 <1>   0.0610 
 14 C        3.2370    -0.3390     1.1520 C.3   1 <1>  -0.1600 
 15 C        4.5050     0.1090    -0.9780 C.3   1 <1>  -0.1600 
 16 C        2.6620    -1.5910    -0.9360 C.3   1 <1>  -0.1600 
 17 C        4.2500    -1.4330     1.5340 C.3   1 <1>  -0.0800 
 18 C        5.5230    -0.9840    -0.5990 C.3   1 <1>  -0.0800 
 19 C        3.6690    -2.6940    -0.5650 C.3   1 <1>  -0.0800 
 20 C        5.6240    -1.0780     0.9340 C.3   1 <1>  -0.1600 
 21 C        3.7800    -2.7830     0.9660 C.3   1 <1>  -0.1600 
 22 C        5.0440    -2.3370    -1.1570 C.3   1 <1>  -0.1600 
 23 H       -0.3770     0.3200    -0.9150 H     1 <1>   0.0800 
 24 H       -0.8560     0.3150     0.7570 H     1 <1>   0.0800 
 25 H       -2.2170     3.8950    -0.4690 H     1 <1>   0.0800 
 26 H       -2.0270     3.3900    -2.1270 H     1 <1>   0.0800 
 27 H        0.0900     4.1860    -0.6580 H     1 <1>   0.0800 
 28 H        0.2140     2.9310    -1.8660 H     1 <1>   0.0800 
 29 H       -1.2170     2.8320     1.7080 H     1 <1>   0.0800 
 30 H        0.3120     3.6280     1.7290 H     1 <1>   0.0800 
 31 H        0.1740     1.9750     2.2920 H     1 <1>   0.0800 
 32 H        2.5970     2.7810     1.6510 H     1 <1>   0.0800 
 33 H        2.2520     3.8240     0.2820 H     1 <1>   0.0800 
 34 H        3.5440     2.6640     0.1880 H     1 <1>   0.0800 
 35 H        2.2770    -0.5700     1.5780 H     1 <1>   0.0800 
 36 H        3.5700     0.5860     1.5820 H     1 <1>   0.0800 
 37 H        4.8550     1.0580    -0.6150 H     1 <1>   0.0800 
 38 H        4.4360     0.1800    -2.0500 H     1 <1>   0.0800 
 39 H        2.5710    -1.5500    -2.0080 H     1 <1>   0.0800 
 40 H        1.6920    -1.8390    -0.5430 H     1 <1>   0.0800 
 41 H        4.3280    -1.4990     2.6060 H     1 <1>   0.0800 
 42 H        6.4870    -0.7430    -1.0140 H     1 <1>   0.0800 
 43 H        3.3360    -3.6380    -0.9620 H     1 <1>   0.0800 
 44 H        6.3430    -1.8320     1.2050 H     1 <1>   0.0800 
 45 H        5.9690    -0.1420     1.3360 H     1 <1>   0.0800 
 46 H        2.8250    -3.0440     1.3870 H     1 <1>   0.0800 
 47 H        4.4780    -3.5560     1.2360 H     1 <1>   0.0800 
 48 H        5.7570    -3.1050    -0.9120 H     1 <1>   0.0800 
 49 H        4.9770    -2.2860    -2.2300 H     1 <1>   0.0800 
@<TRIPOS>BOND
  1   1   2  2   
  2   1   3  2   
  3   1   4  1   
  4   1   5  1   
  5   4   6  1   
  6   4  23  1   
  7   4  24  1   
  8   5   7  1   
  9   5  25  1   
 10   5  26  1   
 11   6   7  1   
 12   6   8  1   
 13   6   9  1   
 14   7  27  1   
 15   7  28  1   
 16   8  10  am  
 17   8  11  1   
 18   9  29  1   
 19   9  30  1   
 20   9  31  1   
 21  10  12  2   
 22  10  13  1   
 23  11  32  1   
 24  11  33  1   
 25  11  34  1   
 26  13  14  1   
 27  13  15  1   
 28  13  16  1   
 29  14  17  1   
 30  14  35  1   
 31  14  36  1   
 32  15  18  1   
 33  15  37  1   
 34  15  38  1   
 35  16  19  1   
 36  16  39  1   
 37  16  40  1   
 38  17  20  1   
 39  17  21  1   
 40  17  41  1   
 41  18  20  1   
 42  18  22  1   
 43  18  42  1   
 44  19  21  1   
 45  19  22  1   
 46  19  43  1   
 47  20  44  1   
 48  20  45  1   
 49  21  46  1   
 50  21  47  1   
 51  22  48  1   
 52  22  49  1   
@<TRIPOS>SUBSTRUCTURE
  1 ****  10 GROUP 4 **** **** 0

# MOE 2024.06 (io_trps.svl 2023.06)
