@<TRIPOS>MOLECULE
NONAME
43 45 1 0 0 
SMALL
USER_CHARGES


@<TRIPOS>ATOM
  1 CL      -1.5270     0.3110     2.8430 Cl    1 <1>  -0.1770 
  2 C       -1.9100     1.4940     1.6180 C.ar  1 <1>   0.1770 
  3 C       -3.2310     1.7770     1.3410 C.ar  1 <1>  -0.1500 
  4 C       -0.8820     2.1280     0.9470 C.ar  1 <1>  -0.1500 
  5 C       -3.5490     2.7170     0.3670 C.ar  1 <1>   0.1000 
  6 C       -1.1920     3.0660    -0.0230 C.ar  1 <1>  -0.1500 
  7 N       -4.8820     3.0050     0.0820 N.pl3 1 <1>  -0.8380 
  8 C       -2.5150     3.3620    -0.3160 C.ar  1 <1>  -0.1430 
  9 C       -5.6690     1.9200    -0.5710 C.3   1 <1>   0.2090 
 10 C       -5.6580     3.6930     1.1530 C.3   1 <1>   0.2090 
 11 C       -2.8340     4.3960    -1.3860 C.3   1 <1>  -0.0970 
 12 C       -7.0330     2.4440    -1.0600 C.3   1 <1>   0.1100 
 13 C       -7.0220     4.1790     0.6240 C.3   1 <1>   0.1100 
 14 N       -7.8160     3.0770     0.0330 N.3   1 <1>  -0.8100 
 15 C       -9.1260     3.5830    -0.4770 C.3   1 <1>   0.1710 
 16 C      -10.1440     2.4820    -0.7850 C.2   1 <1>   0.5690 
 17 O      -11.0230     2.6920    -1.5890 O.2   1 <1>  -0.5700 
 18 N      -10.0040     1.3010    -0.1290 N.am  1 <1>  -0.5790 
 19 C      -10.8380     0.1030    -0.2780 C.3   1 <1>   0.0490 
 20 C      -11.0270    -0.7720     0.9160 C.3   1 <1>  -0.2000 
 21 C      -10.1650    -1.2270    -0.2240 C.3   1 <1>  -0.2000 
 22 H       -4.0090     1.2710     1.8760 H     1 <1>   0.1500 
 23 H        0.1390     1.8900     1.1820 H     1 <1>   0.1500 
 24 H       -0.3950     3.5620    -0.5490 H     1 <1>   0.1500 
 25 H       -5.8280     1.1170     0.1270 H     1 <1>   0.0800 
 26 H       -5.1120     1.5340    -1.4070 H     1 <1>   0.0800 
 27 H       -5.0920     4.5340     1.5130 H     1 <1>   0.0800 
 28 H       -5.8180     3.0180     1.9750 H     1 <1>   0.0800 
 29 H       -3.4040     5.1980    -0.9550 H     1 <1>   0.0800 
 30 H       -3.4180     3.9400    -2.1650 H     1 <1>   0.0800 
 31 H       -1.9380     4.8020    -1.8180 H     1 <1>   0.0800 
 32 H       -7.5870     1.6210    -1.4770 H     1 <1>   0.0800 
 33 H       -6.8590     3.1590    -1.8470 H     1 <1>   0.0800 
 34 H       -6.8490     4.9440    -0.1140 H     1 <1>   0.0800 
 35 H       -7.5700     4.6170     1.4400 H     1 <1>   0.0800 
 36 H       -8.9730     4.1720    -1.3640 H     1 <1>   0.0800 
 37 H       -9.5720     4.2190     0.2660 H     1 <1>   0.0800 
 38 H       -9.1920     1.2310     0.4890 H     1 <1>   0.3700 
 39 H      -11.6650     0.2420    -0.9570 H     1 <1>   0.1000 
 40 H      -11.9800    -1.2510     1.0560 H     1 <1>   0.1000 
 41 H      -10.5650    -0.4880     1.8440 H     1 <1>   0.1000 
 42 H       -9.0990    -1.2660    -0.0910 H     1 <1>   0.1000 
 43 H      -10.5340    -2.0160    -0.8560 H     1 <1>   0.1000 
@<TRIPOS>BOND
  1   1   2  1   
  2   2   3  ar  
  3   2   4  ar  
  4   3   5  ar  
  5   3  22  1   
  6   4   6  ar  
  7   4  23  1   
  8   5   7  1   
  9   5   8  ar  
 10   6   8  ar  
 11   6  24  1   
 12   7   9  1   
 13   7  10  1   
 14   8  11  1   
 15   9  12  1   
 16   9  25  1   
 17   9  26  1   
 18  10  13  1   
 19  10  27  1   
 20  10  28  1   
 21  11  29  1   
 22  11  30  1   
 23  11  31  1   
 24  12  14  1   
 25  12  32  1   
 26  12  33  1   
 27  13  14  1   
 28  13  34  1   
 29  13  35  1   
 30  14  15  1   
 31  15  16  1   
 32  15  36  1   
 33  15  37  1   
 34  16  17  2   
 35  16  18  am  
 36  18  19  1   
 37  18  38  1   
 38  19  20  1   
 39  19  21  1   
 40  19  39  1   
 41  20  21  1   
 42  20  40  1   
 43  20  41  1   
 44  21  42  1   
 45  21  43  1   
@<TRIPOS>SUBSTRUCTURE
  1 ****   9 GROUP 4 **** **** 0

# MOE 2024.06 (io_trps.svl 2023.06)
