@<TRIPOS>MOLECULE
NONAME
35 35 1 0 0 
SMALL
USER_CHARGES


@<TRIPOS>ATOM
  1 S        0.1860     0.1240     0.5350 S.3   1 <1>  -0.3320 
  2 C        0.1250    -1.6520     0.3780 C.ar  1 <1>   0.7220 
  3 C        1.9820     0.4830     0.8480 C.3   1 <1>   0.1310 
  4 N       -1.0420    -2.1390     0.1030 N.ar  1 <1>  -0.6200 
  5 N        1.2520    -2.2730     0.5430 N.ar  1 <1>  -0.6200 
  6 C        2.2630     1.9800     0.8480 C.2   1 <1>   0.6590 
  7 C       -1.0320    -3.4460    -0.0150 C.ar  1 <1>   0.7200 
  8 C        1.1360    -3.5720     0.3990 C.ar  1 <1>   0.7200 
  9 O        2.5410     2.5390     1.8750 O.2   1 <1>  -0.5700 
 10 O        2.2520     2.6630    -0.2960 O.3   1 <1>  -0.4300 
 11 N        0.0260    -4.2060     0.1190 N.ar  1 <1>  -0.6200 
 12 N       -2.2310    -4.0640    -0.3050 N.pl3 1 <1>  -0.8380 
 13 N        2.2810    -4.3240     0.5530 N.pl3 1 <1>  -0.8380 
 14 C        1.8550     2.1650    -1.5580 C.3   1 <1>   0.0400 
 15 C       -3.4420    -3.3000    -0.7200 C.3   1 <1>   0.1290 
 16 C       -2.4190    -5.5380    -0.1840 C.3   1 <1>   0.1290 
 17 C        3.4830    -3.8260     1.2800 C.3   1 <1>   0.1290 
 18 C        2.3680    -5.7330     0.0750 C.3   1 <1>   0.1290 
 19 H        2.5550    -0.0120     0.0880 H     1 <1>   0.0800 
 20 H        2.2180     0.0640     1.8090 H     1 <1>   0.0800 
 21 H        2.0290     2.9340    -2.2890 H     1 <1>   0.0800 
 22 H        0.8060     1.9280    -1.5290 H     1 <1>   0.0800 
 23 H        2.4390     1.2950    -1.8020 H     1 <1>   0.0800 
 24 H       -3.1640    -2.3970    -1.2370 H     1 <1>   0.0800 
 25 H       -4.0190    -3.0390     0.1500 H     1 <1>   0.0800 
 26 H       -4.0470    -3.8940    -1.3820 H     1 <1>   0.0800 
 27 H       -1.7230    -5.9560     0.5230 H     1 <1>   0.0800 
 28 H       -2.2630    -6.0000    -1.1430 H     1 <1>   0.0800 
 29 H       -3.4160    -5.7560     0.1570 H     1 <1>   0.0800 
 30 H        3.2240    -3.0100     1.9330 H     1 <1>   0.0800 
 31 H        4.2180    -3.4880     0.5710 H     1 <1>   0.0800 
 32 H        3.9030    -4.6150     1.8780 H     1 <1>   0.0800 
 33 H        1.6950    -5.8970    -0.7490 H     1 <1>   0.0800 
 34 H        2.1070    -6.4030     0.8760 H     1 <1>   0.0800 
 35 H        3.3680    -5.9490    -0.2580 H     1 <1>   0.0800 
@<TRIPOS>BOND
  1   1   2  1   
  2   1   3  1   
  3   2   4  ar  
  4   2   5  ar  
  5   3   6  1   
  6   3  19  1   
  7   3  20  1   
  8   4   7  ar  
  9   5   8  ar  
 10   6   9  2   
 11   6  10  1   
 12   7  11  ar  
 13   7  12  1   
 14   8  11  ar  
 15   8  13  1   
 16  10  14  1   
 17  12  15  1   
 18  12  16  1   
 19  13  17  1   
 20  13  18  1   
 21  14  21  1   
 22  14  22  1   
 23  14  23  1   
 24  15  24  1   
 25  15  25  1   
 26  15  26  1   
 27  16  27  1   
 28  16  28  1   
 29  16  29  1   
 30  17  30  1   
 31  17  31  1   
 32  17  32  1   
 33  18  33  1   
 34  18  34  1   
 35  18  35  1   
@<TRIPOS>SUBSTRUCTURE
  1 ****   2 GROUP 4 **** **** 0

# MOE 2024.06 (io_trps.svl 2023.06)
