@<TRIPOS>MOLECULE
NONAME
36 38 1 0 0 
SMALL
USER_CHARGES


@<TRIPOS>ATOM
  1 O       -0.6590     0.0110     0.0100 O.2   1 <1>  -0.5700 
  2 C       -1.6140     0.7610    -0.0160 C.2   1 <1>   0.7060 
  3 O       -2.8430     0.2350    -0.0920 O.3   1 <1>  -0.2330 
  4 C       -1.5160     2.1860     0.0270 C.2   1 <1>  -0.1240 
  5 C       -3.9820     0.9800    -0.1290 C.ar  1 <1>   0.0820 
  6 C       -2.6010     2.9670    -0.0050 C.2   1 <1>  -0.1670 
  7 C       -0.2370     2.9800     0.1180 C.3   1 <1>  -0.0220 
  8 C       -3.9020     2.3820    -0.0820 C.ar  1 <1>   0.0280 
  9 C       -5.2150     0.3330    -0.2070 C.ar  1 <1>  -0.1440 
 10 C       -2.2530     4.4340     0.0580 C.3   1 <1>  -0.0220 
 11 C       -0.7110     4.4430     0.0110 C.3   1 <1>  -0.1600 
 12 C       -5.0840     3.1190    -0.1130 C.ar  1 <1>  -0.1500 
 13 C       -6.3790     1.0940    -0.2200 C.ar  1 <1>   0.0830 
 14 C       -5.2810    -1.1940    -0.2620 C.3   1 <1>  -0.0960 
 15 C       -6.3050     2.4850    -0.1830 C.ar  1 <1>  -0.1500 
 16 O       -7.5740     0.4510    -0.2870 O.3   1 <1>  -0.2330 
 17 C       -8.7310     0.7970     0.2770 C.2   1 <1>   0.6590 
 18 O       -8.8730     1.7510     0.9960 O.2   1 <1>  -0.5700 
 19 C       -9.9010    -0.1170    -0.0430 C.3   1 <1>  -0.0990 
 20 C       -9.7450    -1.5220     0.5610 C.3   1 <1>  -0.2400 
 21 H        0.4320     2.7230    -0.6860 H     1 <1>   0.0800 
 22 H        0.2440     2.7930     1.0620 H     1 <1>   0.0800 
 23 H       -2.6130     4.8600     0.9780 H     1 <1>   0.0800 
 24 H       -2.6690     4.9670    -0.7800 H     1 <1>   0.0800 
 25 H       -0.3850     4.8560    -0.9280 H     1 <1>   0.0800 
 26 H       -0.3050     5.0380     0.8100 H     1 <1>   0.0800 
 27 H       -5.0440     4.1920    -0.0810 H     1 <1>   0.1500 
 28 H       -4.4030    -1.6060    -0.7250 H     1 <1>   0.0800 
 29 H       -6.1280    -1.5260    -0.8340 H     1 <1>   0.0800 
 30 H       -5.3600    -1.5880     0.7350 H     1 <1>   0.0800 
 31 H       -7.2020     3.0770    -0.2100 H     1 <1>   0.1500 
 32 H       -9.9950    -0.1900    -1.1110 H     1 <1>   0.0800 
 33 H      -10.8000     0.3350     0.3370 H     1 <1>   0.0800 
 34 H       -8.8650    -2.0050     0.1740 H     1 <1>   0.0800 
 35 H      -10.6020    -2.1260     0.3200 H     1 <1>   0.0800 
 36 H       -9.6620    -1.4580     1.6330 H     1 <1>   0.0800 
@<TRIPOS>BOND
  1   1   2  2   
  2   2   3  1   
  3   2   4  1   
  4   3   5  1   
  5   4   6  2   
  6   4   7  1   
  7   5   8  ar  
  8   5   9  ar  
  9   6   8  1   
 10   6  10  1   
 11   7  11  1   
 12   7  21  1   
 13   7  22  1   
 14   8  12  ar  
 15   9  13  ar  
 16   9  14  1   
 17  10  11  1   
 18  10  23  1   
 19  10  24  1   
 20  11  25  1   
 21  11  26  1   
 22  12  15  ar  
 23  12  27  1   
 24  13  15  ar  
 25  13  16  1   
 26  14  28  1   
 27  14  29  1   
 28  14  30  1   
 29  15  31  1   
 30  16  17  1   
 31  17  18  2   
 32  17  19  1   
 33  19  20  1   
 34  19  32  1   
 35  19  33  1   
 36  20  34  1   
 37  20  35  1   
 38  20  36  1   
@<TRIPOS>SUBSTRUCTURE
  1 ****   5 GROUP 4 **** **** 0

# MOE 2024.06 (io_trps.svl 2023.06)
