@<TRIPOS>MOLECULE
NONAME
47 48 1 0 0 
SMALL
USER_CHARGES


@<TRIPOS>ATOM
  1 CL      -3.3250    -2.3700    -1.9840 Cl    1 <1>  -0.1770 
  2 C       -3.5110    -0.6430    -1.7580 C.ar  1 <1>   0.1770 
  3 C       -4.6370    -0.1270    -1.1240 C.ar  1 <1>   0.0820 
  4 C       -2.5100     0.1840    -2.2280 C.ar  1 <1>  -0.1500 
  5 O       -5.5920    -0.9700    -0.6600 O.3   1 <1>  -0.3630 
  6 C       -4.7770     1.2550    -0.9930 C.ar  1 <1>  -0.1440 
  7 C       -2.6360     1.5540    -2.0740 C.ar  1 <1>  -0.1500 
  8 C       -5.6220    -1.2160     0.7370 C.3   1 <1>   0.1200 
  9 C       -3.7630     2.0800    -1.4630 C.ar  1 <1>  -0.1500 
 10 C       -6.0090     1.9050    -0.3720 C.3   1 <1>   0.1220 
 11 C       -5.0980    -2.6230     1.0710 C.3   1 <1>   0.1100 
 12 C       -5.6640     2.5400     0.9650 C.2   1 <1>  -0.2880 
 13 N       -6.0440    -3.7270     0.7660 N.3   1 <1>  -0.8100 
 14 C       -5.8280     3.8310     1.2700 C.2   1 <1>  -0.3000 
 15 C       -5.5310    -4.9930     1.3280 C.3   1 <1>   0.1100 
 16 C       -6.3190    -3.8610    -0.6840 C.3   1 <1>   0.1100 
 17 C       -6.4780    -6.1750     1.0410 C.3   1 <1>   0.3430 
 18 C       -7.2580    -5.0420    -0.9930 C.3   1 <1>   0.3430 
 19 N       -6.7350    -6.3350    -0.4300 N.4   1 <1>  -0.9590 
 20 C       -7.6430    -7.4800    -0.6910 C.3   1 <1>   0.3430 
 21 C       -7.5930    -7.8470    -2.1690 C.3   1 <1>  -0.2400 
 22 H       -1.6460    -0.2380    -2.7080 H     1 <1>   0.1500 
 23 H       -1.8620     2.2110    -2.4310 H     1 <1>   0.1500 
 24 H       -6.6360    -1.1070     1.0770 H     1 <1>   0.0800 
 25 H       -5.0110    -0.4790     1.2280 H     1 <1>   0.0800 
 26 H       -3.8520     3.1480    -1.3560 H     1 <1>   0.1500 
 27 H       -6.8000     1.1900    -0.2350 H     1 <1>   0.0800 
 28 H       -6.3810     2.6580    -1.0450 H     1 <1>   0.0800 
 29 H       -4.9050    -2.6360     2.1300 H     1 <1>   0.0800 
 30 H       -4.1560    -2.7830     0.5750 H     1 <1>   0.0800 
 31 H       -5.2600     1.8320     1.6680 H     1 <1>   0.1500 
 32 H       -5.5740     4.2580     2.2250 H     1 <1>   0.1500 
 33 H       -6.2270     4.5700     0.5960 H     1 <1>   0.1500 
 34 H       -5.4280    -4.8880     2.3950 H     1 <1>   0.0800 
 35 H       -4.5560    -5.2070     0.9220 H     1 <1>   0.0800 
 36 H       -5.3980    -3.9810    -1.2270 H     1 <1>   0.0800 
 37 H       -6.8020    -2.9710    -1.0450 H     1 <1>   0.0800 
 38 H       -7.4080    -5.9960     1.5560 H     1 <1>   0.0800 
 39 H       -6.0450    -7.0780     1.4390 H     1 <1>   0.0800 
 40 H       -7.3730    -5.1220    -2.0610 H     1 <1>   0.0800 
 41 H       -8.2240    -4.8240    -0.5690 H     1 <1>   0.0800 
 42 H       -5.8310    -6.5210    -0.8820 H     1 <1>   0.4500 
 43 H       -8.6520    -7.2290    -0.4030 H     1 <1>   0.0800 
 44 H       -7.3280    -8.3320    -0.1100 H     1 <1>   0.0800 
 45 H       -7.9860    -7.0600    -2.7860 H     1 <1>   0.0800 
 46 H       -8.1980    -8.7210    -2.3330 H     1 <1>   0.0800 
 47 H       -6.5880    -8.0800    -2.4730 H     1 <1>   0.0800 
@<TRIPOS>BOND
  1   1   2  1   
  2   2   3  ar  
  3   2   4  ar  
  4   3   5  1   
  5   3   6  ar  
  6   4   7  ar  
  7   4  22  1   
  8   5   8  1   
  9   6   9  ar  
 10   6  10  1   
 11   7   9  ar  
 12   7  23  1   
 13   8  11  1   
 14   8  24  1   
 15   8  25  1   
 16   9  26  1   
 17  10  12  1   
 18  10  27  1   
 19  10  28  1   
 20  11  13  1   
 21  11  29  1   
 22  11  30  1   
 23  12  14  2   
 24  12  31  1   
 25  13  15  1   
 26  13  16  1   
 27  14  32  1   
 28  14  33  1   
 29  15  17  1   
 30  15  34  1   
 31  15  35  1   
 32  16  18  1   
 33  16  36  1   
 34  16  37  1   
 35  17  19  1   
 36  17  38  1   
 37  17  39  1   
 38  18  19  1   
 39  18  40  1   
 40  18  41  1   
 41  19  20  1   
 42  19  42  1   
 43  20  21  1   
 44  20  43  1   
 45  20  44  1   
 46  21  45  1   
 47  21  46  1   
 48  21  47  1   
@<TRIPOS>SUBSTRUCTURE
  1 ****   5 GROUP 4 **** **** 0

# MOE 2024.06 (io_trps.svl 2023.06)
