@<TRIPOS>MOLECULE
NONAME
35 37 1 0 0 
SMALL
USER_CHARGES


@<TRIPOS>ATOM
  1 N        0.2110    -0.0250    -1.4440 N.ar  1 <1>  -0.5670 
  2 C        0.0430     1.2040    -1.0070 C.ar  1 <1>   0.1670 
  3 C        1.4370    -0.5420    -1.2280 C.ar  1 <1>   0.1050 
  4 C        1.0580     1.9380    -0.3630 C.ar  1 <1>  -0.1440 
  5 C       -1.3290     1.8240    -1.2240 C.3   1 <1>  -0.0160 
  6 N        1.8900    -1.7730    -1.5710 N.pl3 1 <1>   0.3000 
  7 C        2.4920     0.0870    -0.6020 C.ar  1 <1>   0.0000 
  8 C        2.2830     1.3880    -0.1540 C.ar  1 <1>  -0.1440 
  9 C        1.0110     3.3470     0.1890 C.3   1 <1>  -0.0170 
 10 C       -2.2380     1.5970    -0.0080 C.3   1 <1>  -0.1600 
 11 N        3.1880    -1.9820    -1.1880 N.2   1 <1>  -0.7070 
 12 C        3.5210    -0.8780    -0.6270 C.2   1 <1>   0.3720 
 13 C        3.2350     2.3180     0.5490 C.3   1 <1>  -0.0160 
 14 C        2.4790     3.6580     0.5400 C.3   1 <1>  -0.1600 
 15 C       -3.6220     2.2260    -0.2130 C.3   1 <1>  -0.1600 
 16 N        4.7830    -0.7580    -0.1040 N.pl3 1 <1>  -0.8830 
 17 C       -4.5170     1.9940     1.0070 C.3   1 <1>  -0.2400 
 18 H       -1.7780     1.3780    -2.0940 H     1 <1>   0.0800 
 19 H       -1.2280     2.8750    -1.4180 H     1 <1>   0.0800 
 20 H        1.3240    -2.4720    -2.0610 H     1 <1>   0.2700 
 21 H        0.3960     3.3690     1.0710 H     1 <1>   0.0800 
 22 H        0.6350     4.0460    -0.5370 H     1 <1>   0.0800 
 23 H       -1.7760     2.0210     0.8670 H     1 <1>   0.0800 
 24 H       -2.3420     0.5380     0.1550 H     1 <1>   0.0800 
 25 H        4.1720     2.3860     0.0250 H     1 <1>   0.0800 
 26 H        3.4000     1.9740     1.5550 H     1 <1>   0.0800 
 27 H        2.5610     4.1650     1.4850 H     1 <1>   0.0800 
 28 H        2.8960     4.2840    -0.2290 H     1 <1>   0.0800 
 29 H       -4.0900     1.7930    -1.0820 H     1 <1>   0.0800 
 30 H       -3.5200     3.2850    -0.3810 H     1 <1>   0.0800 
 31 H        5.2560    -1.6400    -0.3120 H     1 <1>   0.4000 
 32 H        4.7240    -0.6620     0.9090 H     1 <1>   0.4000 
 33 H       -4.6500     0.9400     1.1810 H     1 <1>   0.0800 
 34 H       -5.4840     2.4370     0.8440 H     1 <1>   0.0800 
 35 H       -4.0810     2.4380     1.8840 H     1 <1>   0.0800 
@<TRIPOS>BOND
  1   1   2  ar  
  2   1   3  ar  
  3   2   4  ar  
  4   2   5  1   
  5   3   6  1   
  6   3   7  ar  
  7   4   8  ar  
  8   4   9  1   
  9   5  10  1   
 10   5  18  1   
 11   5  19  1   
 12   6  11  1   
 13   6  20  1   
 14   7   8  ar  
 15   7  12  1   
 16   8  13  1   
 17   9  14  1   
 18   9  21  1   
 19   9  22  1   
 20  10  15  1   
 21  10  23  1   
 22  10  24  1   
 23  11  12  2   
 24  12  16  1   
 25  13  14  1   
 26  13  25  1   
 27  13  26  1   
 28  14  27  1   
 29  14  28  1   
 30  15  17  1   
 31  15  29  1   
 32  15  30  1   
 33  16  31  1   
 34  16  32  1   
 35  17  33  1   
 36  17  34  1   
 37  17  35  1   
@<TRIPOS>SUBSTRUCTURE
  1 ****   4 GROUP 4 **** **** 0

# MOE 2024.06 (io_trps.svl 2023.06)
