@<TRIPOS>MOLECULE
NONAME
29 30 1 0 0 
SMALL
USER_CHARGES


@<TRIPOS>ATOM
  1 BR      -1.4610     0.8030     3.3100 Br    1 <1>  -0.0580 
  2 C       -2.3360     0.4770     1.6320 C.2   1 <1>   0.0980 
  3 S       -3.7570    -0.5390     1.6950 S.3   1 <1>  -0.0800 
  4 C       -2.0460     0.8990     0.3900 C.2   1 <1>  -0.1500 
  5 C       -3.9560    -0.3720    -0.0510 C.2   1 <1>  -0.1400 
  6 C       -2.9830     0.4060    -0.5760 C.2   1 <1>  -0.1500 
  7 C       -5.1360    -1.0900    -0.6710 C.3   1 <1>   0.5230 
  8 N       -6.3840    -0.5790    -0.0440 N.4   1 <1>  -0.9590 
  9 C       -7.5660    -1.4280    -0.4170 C.3   1 <1>   0.3430 
 10 C       -6.6050     0.8650    -0.3550 C.3   1 <1>   0.3430 
 11 C       -8.8660    -0.9400     0.2490 C.3   1 <1>   0.2000 
 12 C       -7.8510     1.3690     0.3790 C.3   1 <1>  -0.1600 
 13 O       -9.9140    -1.6330    -0.3180 O.3   1 <1>  -0.6800 
 14 C       -9.1040     0.5550     0.0150 C.3   1 <1>  -0.1600 
 15 H       -1.2170     1.5290     0.1190 H     1 <1>   0.1500 
 16 H       -2.8670     0.6660    -1.6160 H     1 <1>   0.1500 
 17 H       -5.0370    -2.1490    -0.4920 H     1 <1>   0.0800 
 18 H       -5.1540    -0.9220    -1.7360 H     1 <1>   0.0800 
 19 H       -6.2340    -0.6510     0.9720 H     1 <1>   0.4500 
 20 H       -7.3930    -2.4510    -0.1280 H     1 <1>   0.0800 
 21 H       -7.7060    -1.3940    -1.4850 H     1 <1>   0.0800 
 22 H       -6.7380     0.9950    -1.4170 H     1 <1>   0.0800 
 23 H       -5.7490     1.4470    -0.0470 H     1 <1>   0.0800 
 24 H       -8.8490    -1.1680     1.3020 H     1 <1>   0.0800 
 25 H       -8.0140     2.4010     0.1190 H     1 <1>   0.0800 
 26 H       -7.6800     1.3320     1.4420 H     1 <1>   0.0800 
 27 H      -10.7710    -1.3710     0.0810 H     1 <1>   0.4000 
 28 H       -9.9350     0.8910     0.6110 H     1 <1>   0.0800 
 29 H       -9.3390     0.7230    -1.0230 H     1 <1>   0.0800 
@<TRIPOS>BOND
  1   1   2  1   
  2   2   3  1   
  3   2   4  2   
  4   3   5  1   
  5   4   6  1   
  6   4  15  1   
  7   5   6  2   
  8   5   7  1   
  9   6  16  1   
 10   7   8  1   
 11   7  17  1   
 12   7  18  1   
 13   8   9  1   
 14   8  10  1   
 15   8  19  1   
 16   9  11  1   
 17   9  20  1   
 18   9  21  1   
 19  10  12  1   
 20  10  22  1   
 21  10  23  1   
 22  11  13  1   
 23  11  14  1   
 24  11  24  1   
 25  12  14  1   
 26  12  25  1   
 27  12  26  1   
 28  13  27  1   
 29  14  28  1   
 30  14  29  1   
@<TRIPOS>SUBSTRUCTURE
  1 ****   8 GROUP 4 **** **** 0

# MOE 2024.06 (io_trps.svl 2023.06)
