@<TRIPOS>MOLECULE
NONAME
50 51 1 0 0 
SMALL
USER_CHARGES


@<TRIPOS>ATOM
  1 S        0.1250    -0.1630    -0.6850 S.3   1 <1>  -0.3320 
  2 C       -1.3530     0.7530    -0.2850 C.ar  1 <1>   0.7220 
  3 C        1.5090     0.9350    -0.1290 C.3   1 <1>   0.0700 
  4 N       -2.4830     0.1370    -0.5850 N.ar  1 <1>  -0.6200 
  5 N       -1.1640     1.9460     0.2610 N.ar  1 <1>  -0.6200 
  6 C        2.8580     0.2850    -0.4530 C.3   1 <1>   0.2000 
  7 C       -3.5680     0.8110    -0.2900 C.ar  1 <1>   0.1660 
  8 C       -2.2690     2.5950     0.5450 C.ar  1 <1>   0.1660 
  9 O        3.0670    -0.7940     0.3930 O.3   1 <1>  -0.6800 
 10 C        4.0190     1.2700    -0.2780 C.3   1 <1>   0.1200 
 11 C       -3.5110     2.0610     0.2840 C.ar  1 <1>  -0.1500 
 12 C       -4.8910     0.1500    -0.6110 C.3   1 <1>  -0.0970 
 13 C       -2.1190     3.9630     1.1750 C.3   1 <1>  -0.0970 
 14 O        5.2450     0.5920    -0.4790 O.3   1 <1>  -0.3630 
 15 C        6.4310     1.2430    -0.3810 C.ar  1 <1>   0.0830 
 16 C        7.5730     0.5060    -0.6350 C.ar  1 <1>  -0.1500 
 17 C        6.5560     2.5860    -0.0460 C.ar  1 <1>  -0.1500 
 18 C        8.8210     1.0960    -0.5560 C.ar  1 <1>  -0.1500 
 19 C        7.8080     3.1700     0.0310 C.ar  1 <1>  -0.1500 
 20 C        8.9670     2.4390    -0.2230 C.ar  1 <1>  -0.1430 
 21 C       10.3830     3.0520    -0.1490 C.3   1 <1>   0.1430 
 22 C       11.2110     2.3060     0.9090 C.3   1 <1>  -0.2400 
 23 C       11.0700     2.9250    -1.5170 C.3   1 <1>  -0.2400 
 24 C       10.3810     4.5420     0.2320 C.3   1 <1>  -0.2400 
 25 H        1.3940     1.1010     0.9280 H     1 <1>   0.0800 
 26 H        1.3900     1.8620    -0.6600 H     1 <1>   0.0800 
 27 H        2.8490    -0.0780    -1.4660 H     1 <1>   0.0800 
 28 H        3.9920    -1.0970     0.2840 H     1 <1>   0.4000 
 29 H        4.0120     1.6780     0.7180 H     1 <1>   0.0800 
 30 H        3.9470     2.0630    -1.0010 H     1 <1>   0.0800 
 31 H       -4.4070     2.6010     0.5210 H     1 <1>   0.1500 
 32 H       -4.9670    -0.7790    -0.0750 H     1 <1>   0.0800 
 33 H       -4.9430    -0.0560    -1.6650 H     1 <1>   0.0800 
 34 H       -5.7170     0.7790    -0.3380 H     1 <1>   0.0800 
 35 H       -1.5670     4.6060     0.5140 H     1 <1>   0.0800 
 36 H       -1.5800     3.8750     2.1020 H     1 <1>   0.0800 
 37 H       -3.0770     4.4070     1.3710 H     1 <1>   0.0800 
 38 H        7.4810    -0.5330    -0.8940 H     1 <1>   0.1500 
 39 H        5.6960     3.1930     0.1600 H     1 <1>   0.1500 
 40 H        9.6840     0.4900    -0.7610 H     1 <1>   0.1500 
 41 H        7.8520     4.2100     0.2930 H     1 <1>   0.1500 
 42 H       10.7200     2.3590     1.8640 H     1 <1>   0.0800 
 43 H       12.1900     2.7410     1.0020 H     1 <1>   0.0800 
 44 H       11.3300     1.2700     0.6490 H     1 <1>   0.0800 
 45 H       11.1870     1.8950    -1.7990 H     1 <1>   0.0800 
 46 H       12.0450     3.3780    -1.4970 H     1 <1>   0.0800 
 47 H       10.4800     3.4160    -2.2700 H     1 <1>   0.0800 
 48 H        9.8360     5.1170    -0.4950 H     1 <1>   0.0800 
 49 H        9.9330     4.6840     1.2000 H     1 <1>   0.0800 
 50 H       11.3850     4.9240     0.2720 H     1 <1>   0.0800 
@<TRIPOS>BOND
  1   1   2  1   
  2   1   3  1   
  3   2   4  ar  
  4   2   5  ar  
  5   3   6  1   
  6   3  25  1   
  7   3  26  1   
  8   4   7  ar  
  9   5   8  ar  
 10   6   9  1   
 11   6  10  1   
 12   6  27  1   
 13   7  11  ar  
 14   7  12  1   
 15   8  11  ar  
 16   8  13  1   
 17   9  28  1   
 18  10  14  1   
 19  10  29  1   
 20  10  30  1   
 21  11  31  1   
 22  12  32  1   
 23  12  33  1   
 24  12  34  1   
 25  13  35  1   
 26  13  36  1   
 27  13  37  1   
 28  14  15  1   
 29  15  16  ar  
 30  15  17  ar  
 31  16  18  ar  
 32  16  38  1   
 33  17  19  ar  
 34  17  39  1   
 35  18  20  ar  
 36  18  40  1   
 37  19  20  ar  
 38  19  41  1   
 39  20  21  1   
 40  21  22  1   
 41  21  23  1   
 42  21  24  1   
 43  22  42  1   
 44  22  43  1   
 45  22  44  1   
 46  23  45  1   
 47  23  46  1   
 48  23  47  1   
 49  24  48  1   
 50  24  49  1   
 51  24  50  1   
@<TRIPOS>SUBSTRUCTURE
  1 ****  10 GROUP 4 **** **** 0

# MOE 2024.06 (io_trps.svl 2023.06)
