@<TRIPOS>MOLECULE
NONAME
38 41 1 0 0 
SMALL
USER_CHARGES


@<TRIPOS>ATOM
  1 S        0.2090     0.1150     0.0090 S.3   1 <1>  -0.0800 
  2 C        1.8750    -0.4770     0.0070 C.2   1 <1>   0.0410 
  3 C       -0.4440    -1.5110     0.0470 C.2   1 <1>  -0.1100 
  4 C        2.9620     0.4690    -0.0220 C.2   1 <1>   0.5150 
  5 C        1.8520    -1.8330     0.0340 C.2   1 <1>  -0.1500 
  6 C        0.5500    -2.4170     0.0560 C.2   1 <1>  -0.1500 
  7 N        2.8660     1.7520    -0.0460 N.2   1 <1>  -0.4100 
  8 N        4.2350     0.0680    -0.0240 N.2   1 <1>  -0.5650 
  9 O        4.0670     2.2370    -0.0660 O.3   1 <1>  -0.0190 
 10 C        4.8430     1.1840    -0.0520 C.2   1 <1>   0.2980 
 11 C        6.3450     1.4410    -0.0700 C.3   1 <1>   0.3000 
 12 O        7.0820     0.2330    -0.0480 O.3   1 <1>  -0.3630 
 13 C        8.4380     0.2380    -0.0620 C.ar  1 <1>   0.0830 
 14 C        9.0640    -0.9970    -0.0400 C.ar  1 <1>  -0.1500 
 15 C        9.2120     1.3930    -0.0950 C.ar  1 <1>  -0.1500 
 16 C       10.4450    -1.0990    -0.0530 C.ar  1 <1>  -0.1430 
 17 C       10.5920     1.2960    -0.1080 C.ar  1 <1>  -0.1500 
 18 C       11.2170     0.0580    -0.0860 C.ar  1 <1>  -0.1430 
 19 C       11.0750    -2.4870    -0.0100 C.3   1 <1>  -0.0170 
 20 C       12.7400     0.0090    -0.1200 C.3   1 <1>  -0.0170 
 21 C       12.5520    -2.4820    -0.4220 C.3   1 <1>  -0.1600 
 22 C       13.3000    -1.3560     0.2970 C.3   1 <1>  -0.1600 
 23 H       -1.5150    -1.6170     0.0580 H     1 <1>   0.1500 
 24 H        2.7360    -2.4480     0.0380 H     1 <1>   0.1500 
 25 H        0.4210    -3.4850     0.0790 H     1 <1>   0.1500 
 26 H        6.6200     2.0150     0.7960 H     1 <1>   0.0800 
 27 H        6.6060     1.9740    -0.9660 H     1 <1>   0.0800 
 28 H        8.4530    -1.8810    -0.0110 H     1 <1>   0.1500 
 29 H        8.7720     2.3710    -0.1120 H     1 <1>   0.1500 
 30 H       11.1850     2.1930    -0.1370 H     1 <1>   0.1500 
 31 H       10.5310    -3.1530    -0.6570 H     1 <1>   0.0800 
 32 H       10.9920    -2.8610     0.9950 H     1 <1>   0.0800 
 33 H       13.1440     0.7680     0.5270 H     1 <1>   0.0800 
 34 H       13.0600     0.2260    -1.1240 H     1 <1>   0.0800 
 35 H       12.6240    -2.3370    -1.4860 H     1 <1>   0.0800 
 36 H       12.9950    -3.4320    -0.1820 H     1 <1>   0.0800 
 37 H       13.1900    -1.4760     1.3620 H     1 <1>   0.0800 
 38 H       14.3490    -1.4020     0.0630 H     1 <1>   0.0800 
@<TRIPOS>BOND
  1   1   2  1   
  2   1   3  1   
  3   2   4  1   
  4   2   5  2   
  5   3   6  2   
  6   3  23  1   
  7   4   7  2   
  8   4   8  1   
  9   5   6  1   
 10   5  24  1   
 11   6  25  1   
 12   7   9  1   
 13   8  10  2   
 14   9  10  1   
 15  10  11  1   
 16  11  12  1   
 17  11  26  1   
 18  11  27  1   
 19  12  13  1   
 20  13  14  ar  
 21  13  15  ar  
 22  14  16  ar  
 23  14  28  1   
 24  15  17  ar  
 25  15  29  1   
 26  16  18  ar  
 27  16  19  1   
 28  17  18  ar  
 29  17  30  1   
 30  18  20  1   
 31  19  21  1   
 32  19  31  1   
 33  19  32  1   
 34  20  22  1   
 35  20  33  1   
 36  20  34  1   
 37  21  22  1   
 38  21  35  1   
 39  21  36  1   
 40  22  37  1   
 41  22  38  1   
@<TRIPOS>SUBSTRUCTURE
  1 ****  12 GROUP 4 **** **** 0

# MOE 2024.06 (io_trps.svl 2023.06)
