@<TRIPOS>MOLECULE
NONAME
48 50 1 0 0 
SMALL
USER_CHARGES


@<TRIPOS>ATOM
  1 CL       2.3670    -1.9320    -2.6990 Cl    1 <1>  -0.1770 
  2 C        2.8290    -1.6500    -1.0350 C.ar  1 <1>   0.1770 
  3 C        3.9350    -0.8690    -0.7210 C.ar  1 <1>  -0.1440 
  4 C        2.0440    -2.2340    -0.0580 C.ar  1 <1>  -0.1500 
  5 C        4.2370    -0.6630     0.6290 C.ar  1 <1>   0.1170 
  6 C        4.7890    -0.2450    -1.8270 C.3   1 <1>  -0.0960 
  7 C        2.3570    -2.0380     1.2740 C.ar  1 <1>  -0.1500 
  8 N        5.3290     0.1330     1.0310 N.am  1 <1>  -0.2370 
  9 C        3.4470    -1.2570     1.6080 C.ar  1 <1>  -0.1500 
 10 C        6.4910    -0.3480     1.5590 C.2   1 <1>   0.5690 
 11 C        5.4060     1.4910     0.9140 C.2   1 <1>   0.5690 
 12 O        6.6640    -1.4700     1.9740 O.2   1 <1>  -0.5700 
 13 C        7.5610     0.7530     1.6230 C.3   1 <1>   0.2510 
 14 O        4.5520     2.2190     0.4800 O.2   1 <1>  -0.5700 
 15 C        6.7220     2.0230     1.4190 C.3   1 <1>  -0.0990 
 16 N        8.6100     0.6930     0.5620 N.3   1 <1>  -0.8100 
 17 C        9.7310     1.6200     0.8680 C.3   1 <1>   0.1100 
 18 C        9.1470    -0.6820     0.3690 C.3   1 <1>   0.1100 
 19 C       10.7930     1.6270    -0.2440 C.3   1 <1>   0.1400 
 20 C       10.2140    -0.7440    -0.7370 C.3   1 <1>   0.1400 
 21 N       11.2950     0.2490    -0.4820 N.am  1 <1>  -0.6600 
 22 C       12.6180    -0.0770    -0.3610 C.2   1 <1>   0.7800 
 23 O       13.4710     0.7430    -0.0750 O.2   1 <1>  -0.5700 
 24 O       12.9650    -1.3490    -0.5610 O.3   1 <1>  -0.4300 
 25 C       14.3090    -1.7560    -0.4520 C.3   1 <1>   0.1200 
 26 C       14.3740    -3.2550    -0.7300 C.3   1 <1>  -0.2400 
 27 H        1.1980    -2.8330    -0.3420 H     1 <1>   0.1500 
 28 H        4.7490    -0.8230    -2.7310 H     1 <1>   0.0800 
 29 H        5.8220    -0.1880    -1.5360 H     1 <1>   0.0800 
 30 H        4.4340     0.7480    -2.0390 H     1 <1>   0.0800 
 31 H        1.7560    -2.4900     2.0440 H     1 <1>   0.1500 
 32 H        3.6910    -1.1070     2.6450 H     1 <1>   0.1500 
 33 H        8.0180     0.7380     2.5980 H     1 <1>   0.0800 
 34 H        6.5560     2.5260     2.3530 H     1 <1>   0.0800 
 35 H        7.1400     2.7030     0.7010 H     1 <1>   0.0800 
 36 H       10.2040     1.3330     1.7920 H     1 <1>   0.0800 
 37 H        9.3620     2.6230     0.9830 H     1 <1>   0.0800 
 38 H        8.3550    -1.3510     0.0840 H     1 <1>   0.0800 
 39 H        9.5730    -1.0440     1.2900 H     1 <1>   0.0800 
 40 H       11.6000     2.2810     0.0380 H     1 <1>   0.0800 
 41 H       10.3580     2.0080    -1.1510 H     1 <1>   0.0800 
 42 H        9.7540    -0.5240    -1.6840 H     1 <1>   0.0800 
 43 H       10.6130    -1.7410    -0.7870 H     1 <1>   0.0800 
 44 H       14.6540    -1.5320     0.5430 H     1 <1>   0.0800 
 45 H       14.8920    -1.2030    -1.1700 H     1 <1>   0.0800 
 46 H       13.7790    -3.7900    -0.0120 H     1 <1>   0.0800 
 47 H       15.3910    -3.5940    -0.6540 H     1 <1>   0.0800 
 48 H       14.0160    -3.4620    -1.7230 H     1 <1>   0.0800 
@<TRIPOS>BOND
  1   1   2  1   
  2   2   3  ar  
  3   2   4  ar  
  4   3   5  ar  
  5   3   6  1   
  6   4   7  ar  
  7   4  27  1   
  8   5   8  1   
  9   5   9  ar  
 10   6  28  1   
 11   6  29  1   
 12   6  30  1   
 13   7   9  ar  
 14   7  31  1   
 15   8  10  am  
 16   8  11  am  
 17   9  32  1   
 18  10  12  2   
 19  10  13  1   
 20  11  14  2   
 21  11  15  1   
 22  13  15  1   
 23  13  16  1   
 24  13  33  1   
 25  15  34  1   
 26  15  35  1   
 27  16  17  1   
 28  16  18  1   
 29  17  19  1   
 30  17  36  1   
 31  17  37  1   
 32  18  20  1   
 33  18  38  1   
 34  18  39  1   
 35  19  21  1   
 36  19  40  1   
 37  19  41  1   
 38  20  21  1   
 39  20  42  1   
 40  20  43  1   
 41  21  22  am  
 42  22  23  2   
 43  22  24  1   
 44  24  25  1   
 45  25  26  1   
 46  25  44  1   
 47  25  45  1   
 48  26  46  1   
 49  26  47  1   
 50  26  48  1   
@<TRIPOS>SUBSTRUCTURE
  1 ****  16 GROUP 4 **** **** 0

# MOE 2024.06 (io_trps.svl 2023.06)
