@<TRIPOS>MOLECULE
NONAME
36 36 1 0 0 
SMALL
USER_CHARGES


@<TRIPOS>ATOM
  1 I       -0.0220     1.1820    -2.5170 I     1 <1>  -0.0810 
  2 C        0.8780     2.4570    -1.0550 C.ar  1 <1>   0.0810 
  3 C        0.1780     3.5420    -0.5400 C.ar  1 <1>   0.0820 
  4 C        2.1650     2.1410    -0.6580 C.ar  1 <1>  -0.1500 
  5 O       -1.0940     3.7840    -0.9420 O.3   1 <1>  -0.3630 
  6 C        0.8290     4.3540     0.3960 C.ar  1 <1>   0.0820 
  7 C        2.7910     2.9380     0.2900 C.ar  1 <1>  -0.1440 
  8 C       -2.1070     3.4420    -0.0230 C.3   1 <1>   0.2580 
  9 O        0.2870     5.4690     0.9500 O.3   1 <1>  -0.3630 
 10 C        2.1140     4.0330     0.8120 C.ar  1 <1>  -0.1500 
 11 C        4.2000     2.6300     0.7460 C.3   1 <1>   0.4870 
 12 C       -3.4170     3.9950    -0.5480 C.2   1 <1>  -0.2880 
 13 C       -0.3520     6.4130     0.1120 C.3   1 <1>   0.0400 
 14 N        5.1050     3.4370    -0.0970 N.4   1 <1>  -0.9060 
 15 C       -4.2140     4.8490     0.1030 C.2   1 <1>  -0.3000 
 16 C        6.5350     3.2670     0.2320 C.3   1 <1>   0.3430 
 17 C        7.3420     4.1520    -0.7050 C.3   1 <1>  -0.2400 
 18 H        2.6520     1.2810    -1.0870 H     1 <1>   0.1500 
 19 H       -1.8690     3.8670     0.9370 H     1 <1>   0.0800 
 20 H       -2.1470     2.3700     0.0550 H     1 <1>   0.0800 
 21 H        2.5670     4.6690     1.5540 H     1 <1>   0.1500 
 22 H        4.4070     1.5790     0.6270 H     1 <1>   0.0800 
 23 H        4.3150     2.8930     1.7860 H     1 <1>   0.0800 
 24 H       -3.6460     3.6200    -1.5310 H     1 <1>   0.1500 
 25 H       -0.3330     7.3680     0.6060 H     1 <1>   0.0800 
 26 H       -1.3720     6.1140    -0.0480 H     1 <1>   0.0800 
 27 H        0.1730     6.4730    -0.8250 H     1 <1>   0.0800 
 28 H        4.8340     4.4240    -0.0040 H     1 <1>   0.4500 
 29 H        4.9330     3.1940    -1.0800 H     1 <1>   0.4500 
 30 H       -5.1400     5.2260    -0.2970 H     1 <1>   0.1500 
 31 H       -4.0130     5.2430     1.0840 H     1 <1>   0.1500 
 32 H        6.8280     2.2360     0.1040 H     1 <1>   0.0800 
 33 H        6.7200     3.5540     1.2550 H     1 <1>   0.0800 
 34 H        7.1930     3.8660    -1.7310 H     1 <1>   0.0800 
 35 H        8.3890     4.0420    -0.4810 H     1 <1>   0.0800 
 36 H        7.0850     5.1880    -0.5760 H     1 <1>   0.0800 
@<TRIPOS>BOND
  1   1   2  1   
  2   2   3  ar  
  3   2   4  ar  
  4   3   5  1   
  5   3   6  ar  
  6   4   7  ar  
  7   4  18  1   
  8   5   8  1   
  9   6   9  1   
 10   6  10  ar  
 11   7  10  ar  
 12   7  11  1   
 13   8  12  1   
 14   8  19  1   
 15   8  20  1   
 16   9  13  1   
 17  10  21  1   
 18  11  14  1   
 19  11  22  1   
 20  11  23  1   
 21  12  15  2   
 22  12  24  1   
 23  13  25  1   
 24  13  26  1   
 25  13  27  1   
 26  14  16  1   
 27  14  28  1   
 28  14  29  1   
 29  15  30  1   
 30  15  31  1   
 31  16  17  1   
 32  16  32  1   
 33  16  33  1   
 34  17  34  1   
 35  17  35  1   
 36  17  36  1   
@<TRIPOS>SUBSTRUCTURE
  1 ****   6 GROUP 4 **** **** 0

# MOE 2024.06 (io_trps.svl 2023.06)
