@<TRIPOS>MOLECULE
NONAME
52 54 1 0 0 
SMALL
USER_CHARGES


@<TRIPOS>ATOM
  1 O        0.3670    -0.2240     1.7730 O.2   1 <1>  -0.5700 
  2 C        0.6760    -1.1910     1.1060 C.2   1 <1>   0.6340 
  3 O        1.9750    -1.4060     0.8630 O.3   1 <1>  -0.4300 
  4 C       -0.2830    -2.1270     0.5570 C.ar  1 <1>   0.0860 
  5 C        2.9770    -0.5410     1.3600 C.3   1 <1>   0.0400 
  6 C       -1.6570    -1.9610     0.7570 C.ar  1 <1>  -0.1500 
  7 C        0.1160    -3.2370    -0.1950 C.ar  1 <1>  -0.1500 
  8 C       -2.5900    -2.8450     0.2400 C.ar  1 <1>   0.1170 
  9 C       -0.8010    -4.1300    -0.7130 C.ar  1 <1>  -0.1500 
 10 N       -3.9770    -2.7120     0.4010 N.am  1 <1>  -0.5470 
 11 C       -2.1610    -3.9530    -0.5060 C.ar  1 <1>   0.1000 
 12 C       -4.8270    -1.8150     0.9910 C.2   1 <1>   0.5440 
 13 N       -3.0930    -4.8630    -1.0170 N.pl3 1 <1>  -0.8380 
 14 O       -4.3760    -0.8220     1.5310 O.2   1 <1>  -0.5700 
 15 C       -6.2570    -2.0670     0.9890 C.ar  1 <1>   0.0860 
 16 C       -3.0200    -5.3010    -2.4400 C.3   1 <1>   0.2090 
 17 C       -3.5720    -5.9500    -0.1120 C.3   1 <1>   0.2090 
 18 C       -6.9210    -2.7900    -0.0200 C.ar  1 <1>   0.0830 
 19 C       -7.0350    -1.5960     2.0480 C.ar  1 <1>  -0.1500 
 20 C       -4.3480    -5.9550    -2.8650 C.3   1 <1>   0.1200 
 21 C       -4.8690    -6.5720    -0.6610 C.3   1 <1>   0.1200 
 22 O       -6.2570    -3.2390    -1.1080 O.3   1 <1>  -0.3630 
 23 C       -8.2830    -3.0720     0.0670 C.ar  1 <1>  -0.1430 
 24 C       -8.3890    -1.8520     2.1280 C.ar  1 <1>  -0.1500 
 25 O       -4.6990    -6.9920    -1.9890 O.3   1 <1>  -0.5600 
 26 C       -5.9750    -2.2940    -2.1180 C.3   1 <1>   0.0400 
 27 C       -9.0110    -2.5960     1.1420 C.ar  1 <1>  -0.1500 
 28 C       -8.9830    -3.8930    -1.0080 C.3   1 <1>  -0.0970 
 29 H        3.9350    -0.9100     1.0410 H     1 <1>   0.0800 
 30 H        2.9230    -0.5280     2.4350 H     1 <1>   0.0800 
 31 H        2.8090     0.4470     0.9680 H     1 <1>   0.0800 
 32 H       -1.9900    -1.1150     1.3310 H     1 <1>   0.1500 
 33 H        1.1640    -3.4050    -0.3750 H     1 <1>   0.1500 
 34 H       -0.4610    -4.9780    -1.2780 H     1 <1>   0.1500 
 35 H       -4.4550    -3.4450    -0.1400 H     1 <1>   0.3700 
 36 H       -2.2220    -6.0120    -2.5620 H     1 <1>   0.0800 
 37 H       -2.8170    -4.4500    -3.0670 H     1 <1>   0.0800 
 38 H       -3.7490    -5.5520     0.8720 H     1 <1>   0.0800 
 39 H       -2.8170    -6.7120    -0.0340 H     1 <1>   0.0800 
 40 H       -6.5600    -1.0210     2.8250 H     1 <1>   0.1500 
 41 H       -4.2580    -6.3740    -3.8500 H     1 <1>   0.0800 
 42 H       -5.1400    -5.2270    -2.8670 H     1 <1>   0.0800 
 43 H       -5.6730    -5.8570    -0.6260 H     1 <1>   0.0800 
 44 H       -5.1440    -7.4320    -0.0770 H     1 <1>   0.0800 
 45 H       -8.9610    -1.4770     2.9590 H     1 <1>   0.1500 
 46 H       -5.3720    -1.5010    -1.7100 H     1 <1>   0.0800 
 47 H       -6.9030    -1.9000    -2.4940 H     1 <1>   0.0800 
 48 H       -5.4370    -2.7900    -2.9050 H     1 <1>   0.0800 
 49 H      -10.0660    -2.7970     1.2200 H     1 <1>   0.1500 
 50 H       -8.4430    -4.8070    -1.1820 H     1 <1>   0.0800 
 51 H       -9.0230    -3.3350    -1.9260 H     1 <1>   0.0800 
 52 H       -9.9860    -4.1420    -0.7140 H     1 <1>   0.0800 
@<TRIPOS>BOND
  1   1   2  2   
  2   2   3  1   
  3   2   4  1   
  4   3   5  1   
  5   4   6  ar  
  6   4   7  ar  
  7   5  29  1   
  8   5  30  1   
  9   5  31  1   
 10   6   8  ar  
 11   6  32  1   
 12   7   9  ar  
 13   7  33  1   
 14   8  10  1   
 15   8  11  ar  
 16   9  11  ar  
 17   9  34  1   
 18  10  12  am  
 19  10  35  1   
 20  11  13  1   
 21  12  14  2   
 22  12  15  1   
 23  13  16  1   
 24  13  17  1   
 25  15  18  ar  
 26  15  19  ar  
 27  16  20  1   
 28  16  36  1   
 29  16  37  1   
 30  17  21  1   
 31  17  38  1   
 32  17  39  1   
 33  18  22  1   
 34  18  23  ar  
 35  19  24  ar  
 36  19  40  1   
 37  20  25  1   
 38  20  41  1   
 39  20  42  1   
 40  21  25  1   
 41  21  43  1   
 42  21  44  1   
 43  22  26  1   
 44  23  27  ar  
 45  23  28  1   
 46  24  27  ar  
 47  24  45  1   
 48  26  46  1   
 49  26  47  1   
 50  26  48  1   
 51  27  49  1   
 52  28  50  1   
 53  28  51  1   
 54  28  52  1   
@<TRIPOS>SUBSTRUCTURE
  1 ****  10 GROUP 4 **** **** 0

# MOE 2024.06 (io_trps.svl 2023.06)
