@<TRIPOS>MOLECULE
NONAME
44 45 1 0 0 
SMALL
USER_CHARGES


@<TRIPOS>ATOM
  1 O       -0.4510    -0.3300    -1.6100 O.2   1 <1>  -0.5700 
  2 C       -0.9570    -1.1430    -0.8610 C.2   1 <1>   0.5440 
  3 N       -0.1450    -2.0080    -0.1830 N.am  1 <1>  -0.7300 
  4 C       -2.3980    -1.1830    -0.6780 C.ar  1 <1>   0.0860 
  5 C        1.3220    -2.0710    -0.2890 C.3   1 <1>   0.2200 
  6 C       -3.1730    -0.0340    -0.8420 C.ar  1 <1>  -0.1500 
  7 C       -3.0710    -2.3570    -0.3360 C.ar  1 <1>  -0.1500 
  8 C        1.7310    -3.5090    -0.6270 C.3   1 <1>  -0.1600 
  9 C        1.9350    -1.6150     1.0390 C.3   1 <1>  -0.1600 
 10 C       -4.5440    -0.0530    -0.6620 C.ar  1 <1>  -0.1500 
 11 C       -4.4430    -2.3760    -0.1560 C.ar  1 <1>  -0.1500 
 12 C        3.2590    -3.6610    -0.6440 C.3   1 <1>  -0.1600 
 13 C        3.4630    -1.7640     1.0250 C.3   1 <1>  -0.1600 
 14 C       -5.1990    -1.2250    -0.3150 C.ar  1 <1>   0.0730 
 15 C        3.8780    -3.2020     0.6840 C.3   1 <1>  -0.1600 
 16 C       -6.6180    -1.2480    -0.1300 C.1   1 <1>  -0.0730 
 17 C       -7.8000    -1.2750     0.0200 C.1   1 <1>  -0.2000 
 18 C       -9.2760    -1.3160     0.2010 C.3   1 <1>   0.4800 
 19 O       -9.7540    -2.2310    -0.6930 O.3   1 <1>  -0.6800 
 20 C       -9.9100     0.0270    -0.1420 C.3   1 <1>  -0.2400 
 21 C       -9.6610    -1.7950     1.5940 C.3   1 <1>  -0.2400 
 22 H       -0.5450    -2.6080     0.5360 H     1 <1>   0.3700 
 23 H        1.6610    -1.4170    -1.0760 H     1 <1>   0.0800 
 24 H       -2.6840     0.8860    -1.1150 H     1 <1>   0.1500 
 25 H       -2.5180    -3.2710    -0.2190 H     1 <1>   0.1500 
 26 H        1.3380    -3.7700    -1.5930 H     1 <1>   0.0800 
 27 H        1.3220    -4.1820     0.1050 H     1 <1>   0.0800 
 28 H        1.5330    -2.2040     1.8440 H     1 <1>   0.0800 
 29 H        1.6810    -0.5830     1.2080 H     1 <1>   0.0800 
 30 H       -5.1130     0.8510    -0.7940 H     1 <1>   0.1500 
 31 H       -4.9380    -3.2950     0.1080 H     1 <1>   0.1500 
 32 H        3.6660    -3.0710    -1.4480 H     1 <1>   0.0800 
 33 H        3.5180    -4.6900    -0.8270 H     1 <1>   0.0800 
 34 H        3.8620    -1.4910     1.9870 H     1 <1>   0.0800 
 35 H        3.8790    -1.0910     0.2930 H     1 <1>   0.0800 
 36 H        4.9510    -3.2620     0.6210 H     1 <1>   0.0800 
 37 H        3.5580    -3.8620     1.4730 H     1 <1>   0.0800 
 38 H       -9.2770    -2.1020    -1.5310 H     1 <1>   0.4000 
 39 H       -9.5630     0.7780     0.5440 H     1 <1>   0.0800 
 40 H      -10.9800    -0.0370    -0.0640 H     1 <1>   0.0800 
 41 H       -9.6420     0.3280    -1.1380 H     1 <1>   0.0800 
 42 H       -9.2970    -1.1050     2.3330 H     1 <1>   0.0800 
 43 H       -9.2280    -2.7600     1.7860 H     1 <1>   0.0800 
 44 H      -10.7300    -1.8630     1.6830 H     1 <1>   0.0800 
@<TRIPOS>BOND
  1   1   2  2   
  2   2   3  am  
  3   2   4  1   
  4   3   5  1   
  5   3  22  1   
  6   4   6  ar  
  7   4   7  ar  
  8   5   8  1   
  9   5   9  1   
 10   5  23  1   
 11   6  10  ar  
 12   6  24  1   
 13   7  11  ar  
 14   7  25  1   
 15   8  12  1   
 16   8  26  1   
 17   8  27  1   
 18   9  13  1   
 19   9  28  1   
 20   9  29  1   
 21  10  14  ar  
 22  10  30  1   
 23  11  14  ar  
 24  11  31  1   
 25  12  15  1   
 26  12  32  1   
 27  12  33  1   
 28  13  15  1   
 29  13  34  1   
 30  13  35  1   
 31  14  16  1   
 32  15  36  1   
 33  15  37  1   
 34  16  17  3   
 35  17  18  1   
 36  18  19  1   
 37  18  20  1   
 38  18  21  1   
 39  19  38  1   
 40  20  39  1   
 41  20  40  1   
 42  20  41  1   
 43  21  42  1   
 44  21  43  1   
 45  21  44  1   
@<TRIPOS>SUBSTRUCTURE
  1 ****   7 GROUP 4 **** **** 0

# MOE 2024.06 (io_trps.svl 2023.06)
