@<TRIPOS>MOLECULE
NONAME
47 49 1 0 0 
SMALL
USER_CHARGES


@<TRIPOS>ATOM
  1 F        0.6990     3.6650    -1.0290 F     1 <1>  -0.1900 
  2 C        0.6210     2.8420    -0.0110 C.ar  1 <1>   0.1900 
  3 C       -0.5810     2.1700     0.2160 C.ar  1 <1>   0.1170 
  4 C        1.7400     2.6890     0.7840 C.ar  1 <1>  -0.1500 
  5 N       -1.6730     2.3900    -0.6460 N.am  1 <1>  -0.5470 
  6 C       -0.6170     1.3120     1.3140 C.ar  1 <1>  -0.1500 
  7 C        1.6720     1.8270     1.8660 C.ar  1 <1>  -0.1500 
  8 C       -2.8980     1.8120    -0.7610 C.2   1 <1>   0.6900 
  9 C        0.4950     1.1440     2.1250 C.ar  1 <1>  -0.1500 
 10 O       -3.2700     0.8850    -0.0690 O.2   1 <1>  -0.5700 
 11 N       -3.7670     2.3360    -1.6700 N.am  1 <1>  -0.6600 
 12 C       -4.6140     1.3770    -2.4380 C.3   1 <1>   0.1400 
 13 C       -4.5020     3.5630    -1.2590 C.3   1 <1>   0.1400 
 14 C       -5.8720     1.0000    -1.6290 C.3   1 <1>   0.3430 
 15 C       -5.7580     3.1810    -0.4460 C.3   1 <1>   0.3430 
 16 N       -6.6540     2.2130    -1.1860 N.4   1 <1>  -0.9590 
 17 C       -7.8170     1.7750    -0.3530 C.3   1 <1>   0.3430 
 18 C       -8.8010     2.9150    -0.0800 C.3   1 <1>  -0.0170 
 19 C      -10.0000     2.3510     0.6550 C.ar  1 <1>  -0.1430 
 20 C      -11.1320     1.9600    -0.0450 C.ar  1 <1>  -0.1500 
 21 C       -9.9710     2.2110     2.0350 C.ar  1 <1>  -0.1500 
 22 C      -12.2200     1.4290     0.6260 C.ar  1 <1>  -0.1500 
 23 C      -11.0590     1.6790     2.7060 C.ar  1 <1>  -0.1500 
 24 C      -12.1830     1.2870     2.0020 C.ar  1 <1>  -0.1500 
 25 H        2.6410     3.2310     0.5620 H     1 <1>   0.1500 
 26 H       -1.4730     3.0490    -1.3980 H     1 <1>   0.3700 
 27 H       -1.5100     0.7650     1.5490 H     1 <1>   0.1500 
 28 H        2.5300     1.6880     2.5020 H     1 <1>   0.1500 
 29 H        0.4410     0.4730     2.9670 H     1 <1>   0.1500 
 30 H       -4.0460     0.4840    -2.6420 H     1 <1>   0.0800 
 31 H       -4.8920     1.8120    -3.3820 H     1 <1>   0.0800 
 32 H       -4.7790     4.1290    -2.1310 H     1 <1>   0.0800 
 33 H       -3.8630     4.1830    -0.6530 H     1 <1>   0.0800 
 34 H       -5.5550     0.4380    -0.7640 H     1 <1>   0.0800 
 35 H       -6.4970     0.3560    -2.2270 H     1 <1>   0.0800 
 36 H       -6.3040     4.0780    -0.2040 H     1 <1>   0.0800 
 37 H       -5.4340     2.7320     0.4790 H     1 <1>   0.0800 
 38 H       -7.0100     2.6800    -2.0300 H     1 <1>   0.4500 
 39 H       -7.4690     1.3740     0.5860 H     1 <1>   0.0800 
 40 H       -8.3500     0.9900    -0.8640 H     1 <1>   0.0800 
 41 H       -9.1260     3.3580    -1.0040 H     1 <1>   0.0800 
 42 H       -8.3480     3.6770     0.5290 H     1 <1>   0.0800 
 43 H      -11.1850     2.0640    -1.1150 H     1 <1>   0.1500 
 44 H       -9.1100     2.5130     2.6040 H     1 <1>   0.1500 
 45 H      -13.0980     1.1270     0.0810 H     1 <1>   0.1500 
 46 H      -11.0340     1.5720     3.7770 H     1 <1>   0.1500 
 47 H      -13.0300     0.8750     2.5240 H     1 <1>   0.1500 
@<TRIPOS>BOND
  1   1   2  1   
  2   2   3  ar  
  3   2   4  ar  
  4   3   5  1   
  5   3   6  ar  
  6   4   7  ar  
  7   4  25  1   
  8   5   8  am  
  9   5  26  1   
 10   6   9  ar  
 11   6  27  1   
 12   7   9  ar  
 13   7  28  1   
 14   8  10  2   
 15   8  11  am  
 16   9  29  1   
 17  11  12  1   
 18  11  13  1   
 19  12  14  1   
 20  12  30  1   
 21  12  31  1   
 22  13  15  1   
 23  13  32  1   
 24  13  33  1   
 25  14  16  1   
 26  14  34  1   
 27  14  35  1   
 28  15  16  1   
 29  15  36  1   
 30  15  37  1   
 31  16  17  1   
 32  16  38  1   
 33  17  18  1   
 34  17  39  1   
 35  17  40  1   
 36  18  19  1   
 37  18  41  1   
 38  18  42  1   
 39  19  20  ar  
 40  19  21  ar  
 41  20  22  ar  
 42  20  43  1   
 43  21  23  ar  
 44  21  44  1   
 45  22  24  ar  
 46  22  45  1   
 47  23  24  ar  
 48  23  46  1   
 49  24  47  1   
@<TRIPOS>SUBSTRUCTURE
  1 ****  15 GROUP 4 **** **** 0

# MOE 2024.06 (io_trps.svl 2023.06)
