@<TRIPOS>MOLECULE
NONAME
41 43 1 0 0 
SMALL
USER_CHARGES


@<TRIPOS>ATOM
  1 O        1.0700     0.5320     0.1520 O.2   1 <1>  -0.5700 
  2 C        0.8570     1.6430    -0.2930 C.2   1 <1>   0.5690 
  3 N        1.8560     2.4910    -0.6560 N.am  1 <1>  -0.4300 
  4 C       -0.5910     2.1190    -0.4600 C.3   1 <1>   0.2610 
  5 N        3.2850     2.3140    -0.3710 N.am  1 <1>  -0.4300 
  6 O       -0.6770     3.2840    -1.2400 O.3   1 <1>  -0.5600 
  7 C       -1.2620     2.5080     0.8520 C.3   1 <1>  -0.1600 
  8 C        3.9310     2.7550     0.7420 C.2   1 <1>   0.5690 
  9 C       -1.8790     3.9390    -0.9860 C.3   1 <1>   0.1200 
 10 C       -2.2970     3.5390     0.4270 C.3   1 <1>  -0.1600 
 11 O        3.4160     3.5090     1.5420 O.2   1 <1>  -0.5700 
 12 C        5.3590     2.2960     0.9990 C.3   1 <1>   0.1810 
 13 O        5.9070     1.6600    -0.1470 O.3   1 <1>  -0.3630 
 14 C        7.1680     1.2070    -0.0190 C.ar  1 <1>   0.0820 
 15 C        8.2520     2.0470    -0.3780 C.ar  1 <1>   0.0000 
 16 C        7.3720    -0.0630     0.4530 C.ar  1 <1>  -0.1500 
 17 C        9.5630     1.5510    -0.2040 C.ar  1 <1>   0.0000 
 18 C        8.0940     3.3500    -0.9000 C.ar  1 <1>  -0.1500 
 19 C        8.6720    -0.5500     0.6120 C.ar  1 <1>  -0.1500 
 20 C        9.7400     0.2430     0.2940 C.ar  1 <1>  -0.1500 
 21 C       10.6550     2.3790    -0.5360 C.ar  1 <1>  -0.1500 
 22 C        9.1710     4.1300    -1.2160 C.ar  1 <1>  -0.1500 
 23 C       10.4680     3.6400    -1.0290 C.ar  1 <1>  -0.1500 
 24 H        1.5580     3.4000    -1.0370 H     1 <1>   0.3700 
 25 H       -1.1610     1.3540    -0.9580 H     1 <1>   0.0800 
 26 H        3.8030     1.6850    -0.9980 H     1 <1>   0.3700 
 27 H       -0.5350     2.9570     1.5070 H     1 <1>   0.0800 
 28 H       -1.6960     1.6540     1.3410 H     1 <1>   0.0800 
 29 H       -2.6010     3.6100    -1.7150 H     1 <1>   0.0800 
 30 H       -1.7190     4.9990    -1.0780 H     1 <1>   0.0800 
 31 H       -2.2960     4.3890     1.0860 H     1 <1>   0.0800 
 32 H       -3.2860     3.1140     0.4080 H     1 <1>   0.0800 
 33 H        5.3670     1.5960     1.8150 H     1 <1>   0.0800 
 34 H        5.9720     3.1430     1.2460 H     1 <1>   0.0800 
 35 H        6.5370    -0.6930     0.7030 H     1 <1>   0.1500 
 36 H        7.0980     3.7270    -1.0520 H     1 <1>   0.1500 
 37 H        8.8170    -1.5490     0.9860 H     1 <1>   0.1500 
 38 H       10.7420    -0.1250     0.4170 H     1 <1>   0.1500 
 39 H       11.6490     1.9960    -0.3940 H     1 <1>   0.1500 
 40 H        9.0400     5.1230    -1.6120 H     1 <1>   0.1500 
 41 H       11.3060     4.2660    -1.2810 H     1 <1>   0.1500 
@<TRIPOS>BOND
  1   1   2  2   
  2   2   3  am  
  3   2   4  1   
  4   3   5  1   
  5   3  24  1   
  6   4   6  1   
  7   4   7  1   
  8   4  25  1   
  9   5   8  am  
 10   5  26  1   
 11   6   9  1   
 12   7  10  1   
 13   7  27  1   
 14   7  28  1   
 15   8  11  2   
 16   8  12  1   
 17   9  10  1   
 18   9  29  1   
 19   9  30  1   
 20  10  31  1   
 21  10  32  1   
 22  12  13  1   
 23  12  33  1   
 24  12  34  1   
 25  13  14  1   
 26  14  15  ar  
 27  14  16  ar  
 28  15  17  ar  
 29  15  18  ar  
 30  16  19  ar  
 31  16  35  1   
 32  17  20  ar  
 33  17  21  ar  
 34  18  22  ar  
 35  18  36  1   
 36  19  20  ar  
 37  19  37  1   
 38  20  38  1   
 39  21  23  ar  
 40  21  39  1   
 41  22  23  ar  
 42  22  40  1   
 43  23  41  1   
@<TRIPOS>SUBSTRUCTURE
  1 ****   8 GROUP 4 **** **** 0

# MOE 2024.06 (io_trps.svl 2023.06)
