@<TRIPOS>MOLECULE
NONAME
28 28 1 0 0 
SMALL
USER_CHARGES


@<TRIPOS>ATOM
  1 O       -3.5100    -0.4480     1.0380 O.3   1 <1>  -0.6800 
  2 C       -4.1070    -0.2350    -0.1900 C.3   1 <1>   0.2800 
  3 C       -3.9030     1.2520    -0.5990 C.3   1 <1>  -0.0800 
  4 C       -5.6020    -0.5700    -0.0480 C.3   1 <1>  -0.1600 
  5 C       -3.4420    -1.2150    -1.1590 C.3   1 <1>  -0.2400 
  6 C       -4.6960     2.2270     0.3050 C.3   1 <1>  -0.1600 
  7 C       -2.4230     1.6640    -0.7080 C.3   1 <1>   0.3430 
  8 C       -6.3640     0.4120     0.8540 C.3   1 <1>  -0.1600 
  9 C       -6.1820     1.8540     0.3680 C.3   1 <1>  -0.1600 
 10 N       -1.7730     1.6240     0.6210 N.4   1 <1>  -0.8530 
 11 H       -3.8800    -1.2730     1.4200 H     1 <1>   0.4000 
 12 H       -4.3160     1.3510    -1.5890 H     1 <1>   0.0800 
 13 H       -6.0540    -0.5400    -1.0250 H     1 <1>   0.0800 
 14 H       -5.7280    -1.5730     0.3210 H     1 <1>   0.0800 
 15 H       -3.8270    -1.0690    -2.1540 H     1 <1>   0.0800 
 16 H       -3.6570    -2.2300    -0.8740 H     1 <1>   0.0800 
 17 H       -2.3750    -1.0890    -1.1860 H     1 <1>   0.0800 
 18 H       -4.3110     2.2120     1.3090 H     1 <1>   0.0800 
 19 H       -4.6090     3.2330    -0.0710 H     1 <1>   0.0800 
 20 H       -2.3530     2.6580    -1.1200 H     1 <1>   0.0800 
 21 H       -1.9200     0.9880    -1.3800 H     1 <1>   0.0800 
 22 H       -7.4120     0.1640     0.8520 H     1 <1>   0.0800 
 23 H       -6.0120     0.3270     1.8690 H     1 <1>   0.0800 
 24 H       -6.6950     2.5230     1.0380 H     1 <1>   0.0800 
 25 H       -6.6280     1.9640    -0.6060 H     1 <1>   0.0800 
 26 H       -2.1300     0.7640     1.0830 H     1 <1>   0.4500 
 27 H       -2.0700     2.4080     1.2070 H     1 <1>   0.4500 
 28 H       -0.7510     1.5820     0.5730 H     1 <1>   0.4500 
@<TRIPOS>BOND
  1   1   2  1   
  2   1  11  1   
  3   2   3  1   
  4   2   4  1   
  5   2   5  1   
  6   3   6  1   
  7   3   7  1   
  8   3  12  1   
  9   4   8  1   
 10   4  13  1   
 11   4  14  1   
 12   5  15  1   
 13   5  16  1   
 14   5  17  1   
 15   6   9  1   
 16   6  18  1   
 17   6  19  1   
 18   7  10  1   
 19   7  20  1   
 20   7  21  1   
 21   8   9  1   
 22   8  22  1   
 23   8  23  1   
 24   9  24  1   
 25   9  25  1   
 26  10  26  1   
 27  10  27  1   
 28  10  28  1   
@<TRIPOS>SUBSTRUCTURE
  1 ****   2 GROUP 4 **** **** 0

# MOE 2024.06 (io_trps.svl 2023.06)
