@<TRIPOS>MOLECULE
NONAME
32 32 1 0 0 
SMALL
USER_CHARGES


@<TRIPOS>ATOM
  1 I        0.2510     0.4580     1.8150 I     1 <1>  -0.0810 
  2 C        1.8300     1.3270     0.6630 C.ar  1 <1>   0.0810 
  3 C        1.7830     2.6670     0.2990 C.ar  1 <1>   0.0820 
  4 C        2.8740     0.4910     0.3060 C.ar  1 <1>  -0.1500 
  5 O        0.7140     3.4280     0.6450 O.3   1 <1>  -0.3630 
  6 C        2.8600     3.1830    -0.4320 C.ar  1 <1>   0.0820 
  7 C        3.9220     1.0070    -0.4420 C.ar  1 <1>  -0.1440 
  8 C       -0.2130     3.6850    -0.3860 C.3   1 <1>   0.1200 
  9 O        2.9730     4.4810    -0.8150 O.3   1 <1>  -0.3630 
 10 C        3.9010     2.3480    -0.8080 C.ar  1 <1>  -0.1500 
 11 C        5.0850     0.1290    -0.8470 C.3   1 <1>   0.4860 
 12 C       -1.3460     4.5230     0.1970 C.3   1 <1>  -0.2400 
 13 C        2.7290     5.5000     0.1350 C.3   1 <1>   0.0400 
 14 N        6.1250     0.2990     0.1890 N.4   1 <1>  -0.9060 
 15 C        7.3610    -0.4970    -0.0670 C.3   1 <1>   0.2630 
 16 H        2.8480    -0.5420     0.6100 H     1 <1>   0.1500 
 17 H       -0.5840     2.7440    -0.7540 H     1 <1>   0.0800 
 18 H        0.2890     4.2130    -1.1790 H     1 <1>   0.0800 
 19 H        4.6950     2.7790    -1.3940 H     1 <1>   0.1500 
 20 H        5.4570     0.4340    -1.8130 H     1 <1>   0.0800 
 21 H        4.7690    -0.9010    -0.9030 H     1 <1>   0.0800 
 22 H       -1.8300     3.9860     0.9930 H     1 <1>   0.0800 
 23 H       -2.0730     4.7330    -0.5670 H     1 <1>   0.0800 
 24 H       -0.9640     5.4550     0.5720 H     1 <1>   0.0800 
 25 H        3.2380     6.3900    -0.1890 H     1 <1>   0.0800 
 26 H        3.1040     5.1890     1.0950 H     1 <1>   0.0800 
 27 H        1.6730     5.6900     0.1880 H     1 <1>   0.0800 
 28 H        5.7090     0.0510     1.0970 H     1 <1>   0.4500 
 29 H        6.3410     1.3030     0.2520 H     1 <1>   0.4500 
 30 H        7.1310    -1.5500    -0.1030 H     1 <1>   0.0800 
 31 H        8.0820    -0.3310     0.7180 H     1 <1>   0.0800 
 32 H        7.8070    -0.2080    -1.0060 H     1 <1>   0.0800 
@<TRIPOS>BOND
  1   1   2  1   
  2   2   3  ar  
  3   2   4  ar  
  4   3   5  1   
  5   3   6  ar  
  6   4   7  ar  
  7   4  16  1   
  8   5   8  1   
  9   6   9  1   
 10   6  10  ar  
 11   7  10  ar  
 12   7  11  1   
 13   8  12  1   
 14   8  17  1   
 15   8  18  1   
 16   9  13  1   
 17  10  19  1   
 18  11  14  1   
 19  11  20  1   
 20  11  21  1   
 21  12  22  1   
 22  12  23  1   
 23  12  24  1   
 24  13  25  1   
 25  13  26  1   
 26  13  27  1   
 27  14  15  1   
 28  14  28  1   
 29  14  29  1   
 30  15  30  1   
 31  15  31  1   
 32  15  32  1   
@<TRIPOS>SUBSTRUCTURE
  1 ****   3 GROUP 4 **** **** 0

# MOE 2024.06 (io_trps.svl 2023.06)
