@<TRIPOS>MOLECULE
NONAME
51 55 1 0 0 
SMALL
USER_CHARGES


@<TRIPOS>ATOM
  1 F       -0.5110    -0.4240    -0.4280 F     1 <1>  -0.1900 
  2 C       -1.2190    -1.5000    -0.2190 C.ar  1 <1>   0.1900 
  3 C       -2.5950    -1.4020    -0.2500 C.ar  1 <1>  -0.1500 
  4 C       -0.5620    -2.6900     0.0230 C.ar  1 <1>  -0.1500 
  5 C       -3.3760    -2.5370    -0.0250 C.ar  1 <1>   0.0530 
  6 C       -1.3240    -3.8240     0.2400 C.ar  1 <1>  -0.1500 
  7 C       -4.8230    -2.4880    -0.0340 C.2   1 <1>   0.1330 
  8 C       -2.7070    -3.7410     0.2130 C.ar  1 <1>  -0.1500 
  9 N       -5.6090    -3.5040    -0.2460 N.2   1 <1>  -0.5650 
 10 N       -5.5250    -1.3400     0.1960 N.pl3 1 <1>   0.0330 
 11 C       -6.8680    -3.0040    -0.1570 C.ar  1 <1>   0.2270 
 12 C       -6.8390    -1.6580     0.1190 C.ar  1 <1>  -0.1520 
 13 C       -8.0930    -3.6510    -0.3020 C.ar  1 <1>  -0.1500 
 14 C       -8.0160    -0.9240     0.2590 C.ar  1 <1>  -0.1500 
 15 C       -9.2780    -2.9530    -0.1690 C.ar  1 <1>   0.1000 
 16 C       -9.2370    -1.5510     0.1190 C.ar  1 <1>   0.1000 
 17 N      -10.4980    -3.6490    -0.3240 N.pl3 1 <1>  -0.8380 
 18 N      -10.3720    -0.7350     0.2760 N.pl3 1 <1>  -0.8380 
 19 C      -10.7720    -4.6870     0.7120 C.3   1 <1>   0.2090 
 20 C      -10.7480    -4.1950    -1.6900 C.3   1 <1>   0.2090 
 21 C      -11.2350    -1.0570     1.4470 C.3   1 <1>   0.2090 
 22 C      -11.2130    -0.5670    -0.9420 C.3   1 <1>   0.2090 
 23 C      -12.1790    -5.2830     0.5210 C.3   1 <1>   0.1200 
 24 C      -12.1560    -4.8130    -1.7760 C.3   1 <1>   0.1200 
 25 C      -12.3430     0.0010     1.6060 C.3   1 <1>   0.1200 
 26 C      -12.3210     0.4720    -0.6920 C.3   1 <1>   0.1200 
 27 O      -12.3400    -5.7830    -0.7800 O.3   1 <1>  -0.5600 
 28 O      -13.0940     0.1290     0.4280 O.3   1 <1>  -0.5600 
 29 H       -3.0410    -0.4490    -0.4580 H     1 <1>   0.1500 
 30 H        0.5130    -2.7250     0.0390 H     1 <1>   0.1500 
 31 H       -0.8440    -4.7700     0.4280 H     1 <1>   0.1500 
 32 H       -3.2920    -4.6300     0.3810 H     1 <1>   0.1500 
 33 H       -5.1370    -0.4230     0.4220 H     1 <1>   0.2700 
 34 H       -8.0810    -4.7000    -0.5170 H     1 <1>   0.1500 
 35 H       -7.9830     0.1270     0.4760 H     1 <1>   0.1500 
 36 H      -10.6980    -4.2410     1.6880 H     1 <1>   0.0800 
 37 H      -10.0430    -5.4750     0.6470 H     1 <1>   0.0800 
 38 H      -10.0170    -4.9480    -1.9260 H     1 <1>   0.0800 
 39 H      -10.6570    -3.4020    -2.4110 H     1 <1>   0.0800 
 40 H      -10.6300    -1.0880     2.3350 H     1 <1>   0.0800 
 41 H      -11.6900    -2.0210     1.3130 H     1 <1>   0.0800 
 42 H      -11.6670    -1.5040    -1.2060 H     1 <1>   0.0800 
 43 H      -10.5920    -0.2480    -1.7600 H     1 <1>   0.0800 
 44 H      -12.9290    -4.5310     0.6950 H     1 <1>   0.0800 
 45 H      -12.3350    -6.0950     1.2070 H     1 <1>   0.0800 
 46 H      -12.2940    -5.2900    -2.7290 H     1 <1>   0.0800 
 47 H      -12.9050    -4.0500    -1.6560 H     1 <1>   0.0800 
 48 H      -11.9110     0.9570     1.8440 H     1 <1>   0.0800 
 49 H      -13.0150    -0.2830     2.3950 H     1 <1>   0.0800 
 50 H      -12.9790     0.5240    -1.5410 H     1 <1>   0.0800 
 51 H      -11.8890     1.4430    -0.5260 H     1 <1>   0.0800 
@<TRIPOS>BOND
  1   1   2  1   
  2   2   3  ar  
  3   2   4  ar  
  4   3   5  ar  
  5   3  29  1   
  6   4   6  ar  
  7   4  30  1   
  8   5   7  1   
  9   5   8  ar  
 10   6   8  ar  
 11   6  31  1   
 12   7   9  2   
 13   7  10  1   
 14   8  32  1   
 15   9  11  1   
 16  10  12  1   
 17  10  33  1   
 18  11  12  ar  
 19  11  13  ar  
 20  12  14  ar  
 21  13  15  ar  
 22  13  34  1   
 23  14  16  ar  
 24  14  35  1   
 25  15  16  ar  
 26  15  17  1   
 27  16  18  1   
 28  17  19  1   
 29  17  20  1   
 30  18  21  1   
 31  18  22  1   
 32  19  23  1   
 33  19  36  1   
 34  19  37  1   
 35  20  24  1   
 36  20  38  1   
 37  20  39  1   
 38  21  25  1   
 39  21  40  1   
 40  21  41  1   
 41  22  26  1   
 42  22  42  1   
 43  22  43  1   
 44  23  27  1   
 45  23  44  1   
 46  23  45  1   
 47  24  27  1   
 48  24  46  1   
 49  24  47  1   
 50  25  28  1   
 51  25  48  1   
 52  25  49  1   
 53  26  28  1   
 54  26  50  1   
 55  26  51  1   
@<TRIPOS>SUBSTRUCTURE
  1 ****  11 GROUP 4 **** **** 0

# MOE 2024.06 (io_trps.svl 2023.06)
