@<TRIPOS>MOLECULE
NONAME
36 37 1 0 0 
SMALL
USER_CHARGES


@<TRIPOS>ATOM
  1 O       -0.0460    -0.6230     0.7940 O.2   1 <1>  -0.5700 
  2 C        0.0350    -1.7950     0.5250 C.2   1 <1>   0.5700 
  3 N        1.1280    -2.3340    -0.0970 N.am  1 <1>  -0.6600 
  4 C        2.2630    -1.4800    -0.5590 C.3   1 <1>   0.1400 
  5 C        1.3120    -3.8000    -0.2710 C.3   1 <1>   0.1400 
  6 C        3.5880    -1.9590     0.0590 C.3   1 <1>   0.3430 
  7 C        2.6610    -4.2530     0.3290 C.3   1 <1>   0.3430 
  8 N        3.8250    -3.4330    -0.1710 N.4   1 <1>  -0.9590 
  9 C        5.1020    -3.9190     0.4400 C.3   1 <1>   0.3430 
 10 C        6.3410    -3.2770    -0.2050 C.3   1 <1>  -0.0800 
 11 C        7.4390    -4.3440    -0.3910 C.3   1 <1>  -0.0220 
 12 C        6.8920    -2.0980     0.6280 C.3   1 <1>  -0.1600 
 13 C        8.7470    -3.7060    -0.8210 C.2   1 <1>  -0.2880 
 14 C        8.0510    -1.3940    -0.0970 C.3   1 <1>  -0.0220 
 15 C        9.0110    -2.4030    -0.7010 C.2   1 <1>  -0.2880 
 16 H       -0.7780    -2.4440     0.8010 H     1 <1>   0.0600 
 17 H        2.0980    -0.4520    -0.2810 H     1 <1>   0.0800 
 18 H        2.3230    -1.5190    -1.6320 H     1 <1>   0.0800 
 19 H        1.2790    -4.0410    -1.3190 H     1 <1>   0.0800 
 20 H        0.5100    -4.3300     0.2150 H     1 <1>   0.0800 
 21 H        3.5630    -1.7560     1.1170 H     1 <1>   0.0800 
 22 H        4.3920    -1.3860    -0.3700 H     1 <1>   0.0800 
 23 H        2.8170    -5.2930     0.0910 H     1 <1>   0.0800 
 24 H        2.5990    -4.1680     1.4010 H     1 <1>   0.0800 
 25 H        3.8910    -3.5750    -1.1890 H     1 <1>   0.4500 
 26 H        5.1650    -4.9860     0.3020 H     1 <1>   0.0800 
 27 H        5.1070    -3.7270     1.5010 H     1 <1>   0.0800 
 28 H        6.0900    -2.9170    -1.1890 H     1 <1>   0.0800 
 29 H        7.1320    -5.0500    -1.1430 H     1 <1>   0.0800 
 30 H        7.6120    -4.8810     0.5260 H     1 <1>   0.0800 
 31 H        7.2620    -2.4740     1.5670 H     1 <1>   0.0800 
 32 H        6.1340    -1.3700     0.8460 H     1 <1>   0.0800 
 33 H        9.4540    -4.4090    -1.2340 H     1 <1>   0.1500 
 34 H        8.5800    -0.7700     0.6030 H     1 <1>   0.0800 
 35 H        7.6720    -0.7640    -0.8830 H     1 <1>   0.0800 
 36 H        9.9400    -1.9630    -1.0260 H     1 <1>   0.1500 
@<TRIPOS>BOND
  1   1   2  2   
  2   2   3  am  
  3   2  16  1   
  4   3   4  1   
  5   3   5  1   
  6   4   6  1   
  7   4  17  1   
  8   4  18  1   
  9   5   7  1   
 10   5  19  1   
 11   5  20  1   
 12   6   8  1   
 13   6  21  1   
 14   6  22  1   
 15   7   8  1   
 16   7  23  1   
 17   7  24  1   
 18   8   9  1   
 19   8  25  1   
 20   9  10  1   
 21   9  26  1   
 22   9  27  1   
 23  10  11  1   
 24  10  12  1   
 25  10  28  1   
 26  11  13  1   
 27  11  29  1   
 28  11  30  1   
 29  12  14  1   
 30  12  31  1   
 31  12  32  1   
 32  13  15  2   
 33  13  33  1   
 34  14  15  1   
 35  14  34  1   
 36  14  35  1   
 37  15  36  1   
@<TRIPOS>SUBSTRUCTURE
  1 ****   8 GROUP 4 **** **** 0

# MOE 2024.06 (io_trps.svl 2023.06)
