@<TRIPOS>MOLECULE
NONAME
39 40 1 0 0 
SMALL
USER_CHARGES


@<TRIPOS>ATOM
  1 O       -0.9650    -3.4950     0.0920 O.2   1 <1>  -0.5700 
  2 C       -0.2530    -2.6320    -0.3610 C.2   1 <1>   0.5690 
  3 N       -0.5230    -1.3010    -0.2370 N.am  1 <1>  -0.7300 
  4 C        0.9900    -3.0710    -1.1120 C.3   1 <1>   0.1570 
  5 C       -1.6220    -0.6340     0.4600 C.3   1 <1>   0.3000 
  6 N        2.1080    -2.1230    -0.8980 N.pl3 1 <1>   0.0480 
  7 C       -2.9550    -1.0430    -0.1650 C.3   1 <1>  -0.2400 
  8 C       -1.5690    -0.9800     1.9480 C.3   1 <1>  -0.2400 
  9 C       -1.4020     0.8650     0.2710 C.3   1 <1>  -0.2400 
 10 C        2.2950    -0.9580    -1.6060 C.ar  1 <1>  -0.1520 
 11 C        3.0500    -2.1640     0.0940 C.2   1 <1>  -0.3320 
 12 C        3.3730    -0.2760    -1.0530 C.ar  1 <1>   0.0000 
 13 C        1.5950    -0.4240    -2.6930 C.ar  1 <1>  -0.1500 
 14 C        3.8470    -1.0580     0.0260 C.2   1 <1>   0.0190 
 15 C        3.1260    -3.3020     1.1050 C.3   1 <1>  -0.0600 
 16 C        3.7630     0.9550    -1.5920 C.ar  1 <1>  -0.1500 
 17 C        1.9880     0.7880    -3.2110 C.ar  1 <1>  -0.1500 
 18 C        4.9580    -0.6760     0.8480 C.1   1 <1>   0.5380 
 19 C        3.0740     1.4780    -2.6610 C.ar  1 <1>  -0.1500 
 20 N        5.8410    -0.3720     1.5050 N.1   1 <1>  -0.5570 
 21 H        0.1820    -0.6440    -0.5840 H     1 <1>   0.3700 
 22 H        0.7690    -3.1280    -2.1600 H     1 <1>   0.0800 
 23 H        1.2810    -4.0470    -0.7750 H     1 <1>   0.0800 
 24 H       -3.1390    -2.0920    -0.0150 H     1 <1>   0.0800 
 25 H       -2.9580    -0.8340    -1.2190 H     1 <1>   0.0800 
 26 H       -3.7610    -0.4990     0.2940 H     1 <1>   0.0800 
 27 H       -0.6100    -0.7260     2.3600 H     1 <1>   0.0800 
 28 H       -1.7490    -2.0290     2.0990 H     1 <1>   0.0800 
 29 H       -2.3260    -0.4340     2.4810 H     1 <1>   0.0800 
 30 H       -1.4180     1.1220    -0.7730 H     1 <1>   0.0800 
 31 H       -0.4600     1.1670     0.6940 H     1 <1>   0.0800 
 32 H       -2.1810     1.4180     0.7640 H     1 <1>   0.0800 
 33 H        0.7610    -0.9530    -3.1210 H     1 <1>   0.1500 
 34 H        2.1980    -3.3850     1.6430 H     1 <1>   0.0800 
 35 H        3.9130    -3.1290     1.8180 H     1 <1>   0.0800 
 36 H        3.3250    -4.2330     0.6040 H     1 <1>   0.0800 
 37 H        4.5990     1.4800    -1.1640 H     1 <1>   0.1500 
 38 H        1.4650     1.2180    -4.0490 H     1 <1>   0.1500 
 39 H        3.3640     2.4230    -3.0860 H     1 <1>   0.1500 
@<TRIPOS>BOND
  1   1   2  2   
  2   2   3  am  
  3   2   4  1   
  4   3   5  1   
  5   3  21  1   
  6   4   6  1   
  7   4  22  1   
  8   4  23  1   
  9   5   7  1   
 10   5   8  1   
 11   5   9  1   
 12   6  10  1   
 13   6  11  1   
 14   7  24  1   
 15   7  25  1   
 16   7  26  1   
 17   8  27  1   
 18   8  28  1   
 19   8  29  1   
 20   9  30  1   
 21   9  31  1   
 22   9  32  1   
 23  10  12  ar  
 24  10  13  ar  
 25  11  14  2   
 26  11  15  1   
 27  12  14  1   
 28  12  16  ar  
 29  13  17  ar  
 30  13  33  1   
 31  14  18  1   
 32  15  34  1   
 33  15  35  1   
 34  15  36  1   
 35  16  19  ar  
 36  16  37  1   
 37  17  19  ar  
 38  17  38  1   
 39  18  20  3   
 40  19  39  1   
@<TRIPOS>SUBSTRUCTURE
  1 ****   6 GROUP 4 **** **** 0

# MOE 2024.06 (io_trps.svl 2023.06)
