@<TRIPOS>MOLECULE
NONAME
38 39 1 0 0 
SMALL
USER_CHARGES


@<TRIPOS>ATOM
  1 O       -0.2050    -0.0120     0.2430 O.2   1 <1>  -0.5700 
  2 C       -0.1190    -1.1960    -0.0270 C.2   1 <1>   0.6900 
  3 N       -1.2500    -1.9440    -0.2320 N.am  1 <1>  -0.6600 
  4 N        1.0950    -1.8170    -0.1020 N.am  1 <1>  -0.5470 
  5 C       -1.2990    -3.1900    -1.0450 C.3   1 <1>   0.1400 
  6 C       -2.5830    -1.4550     0.2120 C.3   1 <1>   0.1400 
  7 C        2.4060    -1.3220    -0.0630 C.ar  1 <1>   0.1170 
  8 C       -1.9760    -4.3010    -0.2380 C.3   1 <1>  -0.1600 
  9 C       -3.2880    -2.5520     1.0190 C.3   1 <1>  -0.1600 
 10 C        3.4350    -2.1840     0.2910 C.ar  1 <1>  -0.1500 
 11 C        2.7280    -0.0060    -0.3830 C.ar  1 <1>  -0.1500 
 12 C       -3.3750    -3.8730     0.2370 C.3   1 <1>  -0.0800 
 13 C        4.7500    -1.7580     0.3310 C.ar  1 <1>   0.0820 
 14 C        4.0390     0.4330    -0.3440 C.ar  1 <1>  -0.1500 
 15 C       -4.0120    -4.9690     1.0970 C.3   1 <1>  -0.2400 
 16 O        5.6790    -2.6800     0.6890 O.3   1 <1>  -0.3620 
 17 C        5.0540    -0.4370     0.0120 C.ar  1 <1>  -0.1500 
 18 C        7.0440    -2.3410     0.7900 C.3   1 <1>   0.0400 
 19 H        1.0080    -2.8240    -0.0480 H     1 <1>   0.3700 
 20 H       -0.3140    -3.4990    -1.3460 H     1 <1>   0.0800 
 21 H       -1.8680    -2.9950    -1.9390 H     1 <1>   0.0800 
 22 H       -3.1690    -1.1960    -0.6530 H     1 <1>   0.0800 
 23 H       -2.4790    -0.5740     0.8220 H     1 <1>   0.0800 
 24 H       -1.3580    -4.5420     0.6100 H     1 <1>   0.0800 
 25 H       -2.0550    -5.1810    -0.8500 H     1 <1>   0.0800 
 26 H       -4.2760    -2.2150     1.2760 H     1 <1>   0.0800 
 27 H       -2.7440    -2.7020     1.9350 H     1 <1>   0.0800 
 28 H        3.2190    -3.2050     0.5430 H     1 <1>   0.1500 
 29 H        1.9510     0.6810    -0.6660 H     1 <1>   0.1500 
 30 H       -3.9970    -3.7160    -0.6290 H     1 <1>   0.0800 
 31 H        4.2660     1.4550    -0.5920 H     1 <1>   0.1500 
 32 H       -3.4200    -5.1550     1.9760 H     1 <1>   0.0800 
 33 H       -4.0930    -5.8840     0.5380 H     1 <1>   0.0800 
 34 H       -5.0000    -4.6740     1.4060 H     1 <1>   0.0800 
 35 H        6.0630    -0.0720     0.0340 H     1 <1>   0.1500 
 36 H        7.5850    -3.2180     1.0960 H     1 <1>   0.0800 
 37 H        7.1570    -1.5660     1.5270 H     1 <1>   0.0800 
 38 H        7.3950    -2.0130    -0.1730 H     1 <1>   0.0800 
@<TRIPOS>BOND
  1   1   2  2   
  2   2   3  am  
  3   2   4  am  
  4   3   5  1   
  5   3   6  1   
  6   4   7  1   
  7   4  19  1   
  8   5   8  1   
  9   5  20  1   
 10   5  21  1   
 11   6   9  1   
 12   6  22  1   
 13   6  23  1   
 14   7  10  ar  
 15   7  11  ar  
 16   8  12  1   
 17   8  24  1   
 18   8  25  1   
 19   9  12  1   
 20   9  26  1   
 21   9  27  1   
 22  10  13  ar  
 23  10  28  1   
 24  11  14  ar  
 25  11  29  1   
 26  12  15  1   
 27  12  30  1   
 28  13  16  1   
 29  13  17  ar  
 30  14  17  ar  
 31  14  31  1   
 32  15  32  1   
 33  15  33  1   
 34  15  34  1   
 35  16  18  1   
 36  17  35  1   
 37  18  36  1   
 38  18  37  1   
 39  18  38  1   
@<TRIPOS>SUBSTRUCTURE
  1 ****   4 GROUP 4 **** **** 0

# MOE 2024.06 (io_trps.svl 2023.06)
