@<TRIPOS>MOLECULE
NONAME
33 36 1 0 0 
SMALL
USER_CHARGES


@<TRIPOS>ATOM
  1 S       -0.4010     0.3290    -1.0820 S.3   1 <1>  -0.0800 
  2 C       -1.3410     1.4500    -0.1080 C.2   1 <1>  -0.1400 
  3 C        1.0470     1.3010    -0.8910 C.2   1 <1>  -0.1100 
  4 C       -0.5630     2.4690     0.3120 C.2   1 <1>  -0.1500 
  5 C       -2.8040     1.1050     0.0970 C.3   1 <1>   0.3890 
  6 C        0.7940     2.3850    -0.1350 C.2   1 <1>  -0.1500 
  7 N       -3.5080     2.2630     0.6790 N.pl3 1 <1>  -0.8520 
  8 C       -4.8620     2.2550     0.5220 C.2   1 <1>   0.5990 
  9 N       -5.5800     1.1910     0.5840 N.2   1 <1>  -0.7070 
 10 N       -5.4780     3.4140     0.2780 N.2   1 <1>  -0.5650 
 11 N       -6.8290     1.6840     0.3850 N.pl3 1 <1>   0.5610 
 12 C       -6.6970     3.0280     0.2050 C.2   1 <1>   0.2700 
 13 C       -8.1030     1.0650     0.3240 C.2   1 <1>   0.5650 
 14 N       -7.7980     3.8430    -0.0330 N.pl3 1 <1>  -0.5840 
 15 O       -8.2640    -0.1410     0.4610 O.2   1 <1>  -0.5700 
 16 C       -9.2040     1.9430     0.0820 C.2   1 <1>  -0.1240 
 17 C       -9.0420     3.2670    -0.0860 C.2   1 <1>  -0.0380 
 18 C      -10.6570     1.5460    -0.0260 C.3   1 <1>  -0.0220 
 19 C      -10.3320     4.0010    -0.3310 C.3   1 <1>  -0.0220 
 20 C      -11.3970     2.8940    -0.1740 C.3   1 <1>  -0.1600 
 21 H        1.9440     0.9530    -1.3700 H     1 <1>   0.1500 
 22 H       -0.8880     3.2870     0.9320 H     1 <1>   0.1500 
 23 H       -2.8930     0.2610     0.7590 H     1 <1>   0.0800 
 24 H       -3.2480     0.8480    -0.8510 H     1 <1>   0.0800 
 25 H        1.5110     3.1410     0.1350 H     1 <1>   0.1500 
 26 H       -3.1550     3.1270     0.2720 H     1 <1>   0.4000 
 27 H       -7.6290     4.8490    -0.1510 H     1 <1>   0.4000 
 28 H      -10.9770     1.0170     0.8550 H     1 <1>   0.0800 
 29 H      -10.8050     0.9240    -0.8920 H     1 <1>   0.0800 
 30 H      -10.3430     4.4110    -1.3260 H     1 <1>   0.0800 
 31 H      -10.4750     4.7850     0.3920 H     1 <1>   0.0800 
 32 H      -11.9780     3.0810     0.7120 H     1 <1>   0.0800 
 33 H      -12.0590     2.8760    -1.0230 H     1 <1>   0.0800 
@<TRIPOS>BOND
  1   1   2  1   
  2   1   3  1   
  3   2   4  2   
  4   2   5  1   
  5   3   6  2   
  6   3  21  1   
  7   4   6  1   
  8   4  22  1   
  9   5   7  1   
 10   5  23  1   
 11   5  24  1   
 12   6  25  1   
 13   7   8  1   
 14   7  26  1   
 15   8   9  2   
 16   8  10  1   
 17   9  11  1   
 18  10  12  2   
 19  11  12  1   
 20  11  13  1   
 21  12  14  1   
 22  13  15  2   
 23  13  16  1   
 24  14  17  1   
 25  14  27  1   
 26  16  17  2   
 27  16  18  1   
 28  17  19  1   
 29  18  20  1   
 30  18  28  1   
 31  18  29  1   
 32  19  20  1   
 33  19  30  1   
 34  19  31  1   
 35  20  32  1   
 36  20  33  1   
@<TRIPOS>SUBSTRUCTURE
  1 ****   8 GROUP 4 **** **** 0

# MOE 2024.06 (io_trps.svl 2023.06)
