@<TRIPOS>MOLECULE
NONAME
49 51 1 0 0 
SMALL
USER_CHARGES


@<TRIPOS>ATOM
  1 CL      -0.2400     0.4560     1.8170 Cl    1 <1>  -0.1770 
  2 C       -1.7560     1.1250     1.2580 C.ar  1 <1>   0.1770 
  3 C       -1.8230     2.4020     0.6980 C.ar  1 <1>   0.0860 
  4 C       -2.8830     0.3430     1.4200 C.ar  1 <1>  -0.1500 
  5 C       -0.6680     3.2450     0.4960 C.2   1 <1>   0.6340 
  6 C       -3.0880     2.8650     0.3330 C.ar  1 <1>  -0.1500 
  7 C       -4.1180     0.8290     1.0360 C.ar  1 <1>  -0.1500 
  8 O       -0.6900     4.4380     0.7180 O.2   1 <1>  -0.5700 
  9 O        0.4440     2.6990     0.0010 O.3   1 <1>  -0.4300 
 10 C       -4.2360     2.1020     0.4870 C.ar  1 <1>   0.1170 
 11 C        1.6130     3.4590    -0.2320 C.3   1 <1>   0.0400 
 12 N       -5.4690     2.6490     0.1030 N.am  1 <1>  -0.5470 
 13 C       -6.6270     2.0340    -0.3140 C.2   1 <1>   0.5440 
 14 O       -6.6400     0.8410    -0.5360 O.2   1 <1>  -0.5700 
 15 C       -7.8300     2.8200    -0.5140 C.ar  1 <1>   0.0860 
 16 C       -8.1600     3.8980     0.3080 C.ar  1 <1>  -0.1500 
 17 C       -8.7160     2.5120    -1.5460 C.ar  1 <1>  -0.1500 
 18 C       -9.3180     4.6290     0.1120 C.ar  1 <1>  -0.1500 
 19 C       -9.8740     3.2370    -1.7500 C.ar  1 <1>  -0.1500 
 20 C      -10.1900     4.2980    -0.9150 C.ar  1 <1>  -0.1430 
 21 C      -11.4800     5.0730    -1.1190 C.3   1 <1>   0.4860 
 22 N      -12.4660     4.6310    -0.0960 N.4   1 <1>  -0.9590 
 23 C      -12.8040     3.1680    -0.2360 C.3   1 <1>   0.3430 
 24 C      -13.7140     5.4690    -0.1210 C.3   1 <1>   0.3430 
 25 C      -13.9070     2.7450     0.7520 C.3   1 <1>   0.1200 
 26 C      -14.7740     4.9360     0.8630 C.3   1 <1>   0.1200 
 27 O      -15.0200     3.5810     0.6190 O.3   1 <1>  -0.5600 
 28 H       -2.7950    -0.6400     1.8490 H     1 <1>   0.1500 
 29 H       -3.1650     3.8520    -0.0880 H     1 <1>   0.1500 
 30 H       -4.9920     0.2150     1.1690 H     1 <1>   0.1500 
 31 H        2.3720     2.8050    -0.6210 H     1 <1>   0.0800 
 32 H        1.9370     3.8930     0.6980 H     1 <1>   0.0800 
 33 H        1.3880     4.2330    -0.9450 H     1 <1>   0.0800 
 34 H       -5.4790     3.6650     0.0330 H     1 <1>   0.3700 
 35 H       -7.5050     4.1620     1.1210 H     1 <1>   0.1500 
 36 H       -8.4820     1.6820    -2.1950 H     1 <1>   0.1500 
 37 H       -9.5280     5.4560     0.7710 H     1 <1>   0.1500 
 38 H      -10.5210     2.9600    -2.5670 H     1 <1>   0.1500 
 39 H      -11.8650     4.8930    -2.1100 H     1 <1>   0.0800 
 40 H      -11.2830     6.1280    -1.0150 H     1 <1>   0.0800 
 41 H      -12.0180     4.7420     0.8220 H     1 <1>   0.4500 
 42 H      -11.9250     2.5670    -0.0640 H     1 <1>   0.0800 
 43 H      -13.1520     2.9670    -1.2360 H     1 <1>   0.0800 
 44 H      -14.1410     5.4590    -1.1100 H     1 <1>   0.0800 
 45 H      -13.4800     6.4910     0.1300 H     1 <1>   0.0800 
 46 H      -13.5580     2.7880     1.7700 H     1 <1>   0.0800 
 47 H      -14.2270     1.7390     0.5430 H     1 <1>   0.0800 
 48 H      -15.7030     5.4640     0.7300 H     1 <1>   0.0800 
 49 H      -14.4570     5.0540     1.8840 H     1 <1>   0.0800 
@<TRIPOS>BOND
  1   1   2  1   
  2   2   3  ar  
  3   2   4  ar  
  4   3   5  1   
  5   3   6  ar  
  6   4   7  ar  
  7   4  28  1   
  8   5   8  2   
  9   5   9  1   
 10   6  10  ar  
 11   6  29  1   
 12   7  10  ar  
 13   7  30  1   
 14   9  11  1   
 15  10  12  1   
 16  11  31  1   
 17  11  32  1   
 18  11  33  1   
 19  12  13  am  
 20  12  34  1   
 21  13  14  2   
 22  13  15  1   
 23  15  16  ar  
 24  15  17  ar  
 25  16  18  ar  
 26  16  35  1   
 27  17  19  ar  
 28  17  36  1   
 29  18  20  ar  
 30  18  37  1   
 31  19  20  ar  
 32  19  38  1   
 33  20  21  1   
 34  21  22  1   
 35  21  39  1   
 36  21  40  1   
 37  22  23  1   
 38  22  24  1   
 39  22  41  1   
 40  23  25  1   
 41  23  42  1   
 42  23  43  1   
 43  24  26  1   
 44  24  44  1   
 45  24  45  1   
 46  25  27  1   
 47  25  46  1   
 48  25  47  1   
 49  26  27  1   
 50  26  48  1   
 51  26  49  1   
@<TRIPOS>SUBSTRUCTURE
  1 ****  13 GROUP 4 **** **** 0

# MOE 2024.06 (io_trps.svl 2023.06)
