@<TRIPOS>MOLECULE
NONAME
43 44 1 0 0 
SMALL
USER_CHARGES


@<TRIPOS>ATOM
  1 O       -0.2200     0.8050     0.2780 O.2   1 <1>  -0.5700 
  2 C       -0.2960     1.9440    -0.1180 C.2   1 <1>   0.4230 
  3 C       -1.5230     2.7090    -0.0280 C.ar  1 <1>   0.0860 
  4 C        0.9660     2.5470    -0.7510 C.3   1 <1>   0.1710 
  5 C       -2.4940     2.3520     0.9130 C.ar  1 <1>  -0.1500 
  6 C       -1.8160     3.8110    -0.8420 C.ar  1 <1>  -0.1500 
  7 N        1.7650     3.4350     0.1360 N.3   1 <1>  -0.8100 
  8 C       -3.6750     3.0550     1.0460 C.ar  1 <1>  -0.1500 
  9 C       -2.9960     4.5210    -0.7150 C.ar  1 <1>  -0.1500 
 10 C        1.0680     4.6760     0.5340 C.3   1 <1>   0.1100 
 11 C        3.0630     3.7650    -0.4850 C.3   1 <1>   0.1100 
 12 C       -3.9390     4.1470     0.2370 C.ar  1 <1>   0.0830 
 13 C        1.9730     5.5740     1.3970 C.3   1 <1>   0.1200 
 14 C        3.8960     4.6940     0.4160 C.3   1 <1>   0.1200 
 15 O       -5.1130     4.7850     0.4280 O.3   1 <1>  -0.3630 
 16 O        3.1710     5.8480     0.7290 O.3   1 <1>  -0.5600 
 17 C       -5.4980     5.8940    -0.3510 C.3   1 <1>   0.1200 
 18 C       -6.8760     6.3560     0.1210 C.3   1 <1>  -0.1600 
 19 C       -7.3640     7.5660    -0.6850 C.3   1 <1>  -0.1600 
 20 C       -8.7450     8.0230    -0.2080 C.3   1 <1>  -0.2400 
 21 H        0.7170     3.0670    -1.6570 H     1 <1>   0.0800 
 22 H        1.5890     1.7160    -1.0340 H     1 <1>   0.0800 
 23 H       -2.3110     1.5040     1.5520 H     1 <1>   0.1500 
 24 H       -1.1200     4.1280    -1.5950 H     1 <1>   0.1500 
 25 H       -4.4050     2.7620     1.7800 H     1 <1>   0.1500 
 26 H       -3.1690     5.3590    -1.3630 H     1 <1>   0.1500 
 27 H        0.1930     4.4320     1.1100 H     1 <1>   0.0800 
 28 H        0.7640     5.2280    -0.3380 H     1 <1>   0.0800 
 29 H        2.9070     4.2500    -1.4340 H     1 <1>   0.0800 
 30 H        3.6180     2.8590    -0.6560 H     1 <1>   0.0800 
 31 H        2.2000     5.0910     2.3320 H     1 <1>   0.0800 
 32 H        1.4870     6.5110     1.5990 H     1 <1>   0.0800 
 33 H        4.7950     4.9980    -0.0900 H     1 <1>   0.0800 
 34 H        4.1620     4.1930     1.3300 H     1 <1>   0.0800 
 35 H       -5.5320     5.5890    -1.3820 H     1 <1>   0.0800 
 36 H       -4.7690     6.6740    -0.2150 H     1 <1>   0.0800 
 37 H       -6.8200     6.6190     1.1630 H     1 <1>   0.0800 
 38 H       -7.5750     5.5450     0.0080 H     1 <1>   0.0800 
 39 H       -7.4200     7.3080    -1.7300 H     1 <1>   0.0800 
 40 H       -6.6670     8.3800    -0.5770 H     1 <1>   0.0800 
 41 H       -9.4650     7.2330    -0.3260 H     1 <1>   0.0800 
 42 H       -9.0720     8.8720    -0.7830 H     1 <1>   0.0800 
 43 H       -8.7100     8.3070     0.8290 H     1 <1>   0.0800 
@<TRIPOS>BOND
  1   1   2  2   
  2   2   3  1   
  3   2   4  1   
  4   3   5  ar  
  5   3   6  ar  
  6   4   7  1   
  7   4  21  1   
  8   4  22  1   
  9   5   8  ar  
 10   5  23  1   
 11   6   9  ar  
 12   6  24  1   
 13   7  10  1   
 14   7  11  1   
 15   8  12  ar  
 16   8  25  1   
 17   9  12  ar  
 18   9  26  1   
 19  10  13  1   
 20  10  27  1   
 21  10  28  1   
 22  11  14  1   
 23  11  29  1   
 24  11  30  1   
 25  12  15  1   
 26  13  16  1   
 27  13  31  1   
 28  13  32  1   
 29  14  16  1   
 30  14  33  1   
 31  14  34  1   
 32  15  17  1   
 33  17  18  1   
 34  17  35  1   
 35  17  36  1   
 36  18  19  1   
 37  18  37  1   
 38  18  38  1   
 39  19  20  1   
 40  19  39  1   
 41  19  40  1   
 42  20  41  1   
 43  20  42  1   
 44  20  43  1   
@<TRIPOS>SUBSTRUCTURE
  1 ****   6 GROUP 4 **** **** 0

# MOE 2024.06 (io_trps.svl 2023.06)
