@<TRIPOS>MOLECULE
NONAME
49 51 1 0 0 
SMALL
USER_CHARGES


@<TRIPOS>ATOM
  1 S        0.4450     0.3920     0.7390 S.o2  1 <1>   1.4470 
  2 O        1.0930     0.6240     2.0130 O.2   1 <1>  -0.6500 
  3 O       -0.2630     1.4750     0.0930 O.2   1 <1>  -0.6500 
  4 N        1.6560    -0.1130    -0.3340 N.am  1 <1>  -0.8490 
  5 C       -0.6360    -1.0620     0.8390 C.ar  1 <1>  -0.0090 
  6 C        2.4610     1.0310    -0.8020 C.3   1 <1>   0.1960 
  7 C        2.5380    -1.1340     0.2620 C.3   1 <1>   0.1960 
  8 C       -0.8730    -1.7060     2.0490 C.ar  1 <1>  -0.1500 
  9 C       -1.2450    -1.5750    -0.3000 C.ar  1 <1>  -0.1500 
 10 C        3.5210     0.6050    -1.8310 C.3   1 <1>   0.1400 
 11 C        3.5990    -1.6340    -0.7340 C.3   1 <1>   0.1400 
 12 C       -1.6850    -2.8250     2.1190 C.ar  1 <1>  -0.1500 
 13 C       -2.0580    -2.6940    -0.2390 C.ar  1 <1>  -0.1500 
 14 N        4.3810    -0.4920    -1.2920 N.am  1 <1>  -0.6600 
 15 C       -2.2780    -3.3210     0.9730 C.ar  1 <1>  -0.1500 
 16 C        5.7610    -0.4190    -1.2920 C.2   1 <1>   0.5440 
 17 O        6.2830     0.6360    -1.6050 O.2   1 <1>  -0.5700 
 18 C        6.6060    -1.5170    -0.8730 C.ar  1 <1>   0.0860 
 19 C        6.6050    -2.7690    -1.5060 C.ar  1 <1>   0.0830 
 20 C        7.4750    -1.3330     0.2040 C.ar  1 <1>  -0.1500 
 21 O        5.7800    -2.9440    -2.5680 O.3   1 <1>  -0.3630 
 22 C        7.4360    -3.7870    -1.0460 C.ar  1 <1>  -0.1500 
 23 C        8.3000    -2.3430     0.6560 C.ar  1 <1>  -0.1500 
 24 C        5.8510    -4.0800    -3.4020 C.3   1 <1>   0.0400 
 25 C        8.2810    -3.5850     0.0290 C.ar  1 <1>   0.0830 
 26 O        9.0520    -4.6290     0.4070 O.3   1 <1>  -0.3620 
 27 C        9.9880    -4.5210     1.4570 C.3   1 <1>   0.0400 
 28 H        2.9500     1.5040     0.0340 H     1 <1>   0.0800 
 29 H        1.8170     1.7610    -1.2640 H     1 <1>   0.0800 
 30 H        1.9490    -1.9760     0.5850 H     1 <1>   0.0800 
 31 H        3.0400    -0.7300     1.1260 H     1 <1>   0.0800 
 32 H       -0.4160    -1.3270     2.9490 H     1 <1>   0.1500 
 33 H       -1.0770    -1.0890    -1.2470 H     1 <1>   0.1500 
 34 H        4.1160     1.4610    -2.0970 H     1 <1>   0.0800 
 35 H        3.0300     0.2580    -2.7220 H     1 <1>   0.0800 
 36 H        3.1140    -2.1550    -1.5410 H     1 <1>   0.0800 
 37 H        4.2450    -2.3290    -0.2310 H     1 <1>   0.0800 
 38 H       -1.8560    -3.3090     3.0660 H     1 <1>   0.1500 
 39 H       -2.5210    -3.0740    -1.1340 H     1 <1>   0.1500 
 40 H       -2.9100    -4.1900     1.0240 H     1 <1>   0.1500 
 41 H        7.4970    -0.3690     0.6840 H     1 <1>   0.1500 
 42 H        7.4500    -4.7550    -1.5070 H     1 <1>   0.1500 
 43 H        8.9490    -2.1480     1.4890 H     1 <1>   0.1500 
 44 H        5.1610    -3.9400    -4.2150 H     1 <1>   0.0800 
 45 H        5.5750    -4.9510    -2.8350 H     1 <1>   0.0800 
 46 H        6.8520    -4.1690    -3.7850 H     1 <1>   0.0800 
 47 H       10.4890    -5.4670     1.5580 H     1 <1>   0.0800 
 48 H        9.4670    -4.2850     2.3680 H     1 <1>   0.0800 
 49 H       10.7020    -3.7550     1.2110 H     1 <1>   0.0800 
@<TRIPOS>BOND
  1   1   2  2   
  2   1   3  2   
  3   1   4  am  
  4   1   5  1   
  5   4   6  1   
  6   4   7  1   
  7   5   8  ar  
  8   5   9  ar  
  9   6  10  1   
 10   6  28  1   
 11   6  29  1   
 12   7  11  1   
 13   7  30  1   
 14   7  31  1   
 15   8  12  ar  
 16   8  32  1   
 17   9  13  ar  
 18   9  33  1   
 19  10  14  1   
 20  10  34  1   
 21  10  35  1   
 22  11  14  1   
 23  11  36  1   
 24  11  37  1   
 25  12  15  ar  
 26  12  38  1   
 27  13  15  ar  
 28  13  39  1   
 29  14  16  am  
 30  15  40  1   
 31  16  17  2   
 32  16  18  1   
 33  18  19  ar  
 34  18  20  ar  
 35  19  21  1   
 36  19  22  ar  
 37  20  23  ar  
 38  20  41  1   
 39  21  24  1   
 40  22  25  ar  
 41  22  42  1   
 42  23  25  ar  
 43  23  43  1   
 44  24  44  1   
 45  24  45  1   
 46  24  46  1   
 47  25  26  1   
 48  26  27  1   
 49  27  47  1   
 50  27  48  1   
 51  27  49  1   
@<TRIPOS>SUBSTRUCTURE
  1 ****  11 GROUP 4 **** **** 0

# MOE 2024.06 (io_trps.svl 2023.06)
