@<TRIPOS>MOLECULE
NONAME
39 39 1 0 0 
SMALL
USER_CHARGES


@<TRIPOS>ATOM
  1 BR      -0.8950     0.4800     1.2070 Br    1 <1>  -0.1110 
  2 C       -0.4390     2.1870     0.4340 C.ar  1 <1>   0.1110 
  3 C       -1.2540     2.7270    -0.5490 C.ar  1 <1>  -0.1440 
  4 C        0.6950     2.8260     0.8950 C.ar  1 <1>  -0.1500 
  5 C       -0.9120     3.9660    -1.0730 C.ar  1 <1>  -0.1500 
  6 C       -2.4830     1.9940    -1.0330 C.3   1 <1>   0.4870 
  7 C        1.0340     4.0540     0.3570 C.ar  1 <1>   0.0820 
  8 C        0.2120     4.6410    -0.6170 C.ar  1 <1>   0.0820 
  9 N       -3.5360     2.1900    -0.0120 N.4   1 <1>  -0.9060 
 10 O        2.1710     4.6340     0.8030 O.3   1 <1>  -0.3620 
 11 O        0.4410     5.8610    -1.1670 O.3   1 <1>  -0.3620 
 12 C       -4.8270     1.5380    -0.3370 C.3   1 <1>   0.4230 
 13 C        3.2650     4.6130    -0.0880 C.3   1 <1>   0.0400 
 14 C        0.6590     6.9580    -0.3020 C.3   1 <1>   0.0400 
 15 C       -5.9430     2.0650     0.5860 C.3   1 <1>   0.1200 
 16 C       -4.6580     0.0220    -0.2030 C.3   1 <1>  -0.2400 
 17 O       -7.1580     1.5670     0.1320 O.3   1 <1>  -0.5600 
 18 C       -8.2600     1.9330     0.9040 C.3   1 <1>   0.0400 
 19 H        1.3130     2.3810     1.6550 H     1 <1>   0.1500 
 20 H       -1.5030     4.4370    -1.8390 H     1 <1>   0.1500 
 21 H       -2.2590     0.9460    -1.1540 H     1 <1>   0.0800 
 22 H       -2.8000     2.3930    -1.9840 H     1 <1>   0.0800 
 23 H       -3.6640     3.2000     0.1130 H     1 <1>   0.4500 
 24 H       -3.1800     1.8210     0.8780 H     1 <1>   0.4500 
 25 H       -5.1040     1.7820    -1.3510 H     1 <1>   0.0800 
 26 H        3.5170     3.5900    -0.3040 H     1 <1>   0.0800 
 27 H        2.9970     5.1310    -0.9920 H     1 <1>   0.0800 
 28 H        4.0950     5.1040     0.3860 H     1 <1>   0.0800 
 29 H        1.6770     6.9460     0.0400 H     1 <1>   0.0800 
 30 H        0.4770     7.8620    -0.8550 H     1 <1>   0.0800 
 31 H       -0.0190     6.8930     0.5310 H     1 <1>   0.0800 
 32 H       -5.9950     3.1390     0.5480 H     1 <1>   0.0800 
 33 H       -5.7950     1.7310     1.5990 H     1 <1>   0.0800 
 34 H       -4.3650    -0.2500     0.7950 H     1 <1>   0.0800 
 35 H       -3.9460    -0.3630    -0.9080 H     1 <1>   0.0800 
 36 H       -5.5990    -0.4600    -0.4100 H     1 <1>   0.0800 
 37 H       -9.1390     1.4970     0.4610 H     1 <1>   0.0800 
 38 H       -8.3560     3.0050     0.9100 H     1 <1>   0.0800 
 39 H       -8.1390     1.5560     1.9050 H     1 <1>   0.0800 
@<TRIPOS>BOND
  1   1   2  1   
  2   2   3  ar  
  3   2   4  ar  
  4   3   5  ar  
  5   3   6  1   
  6   4   7  ar  
  7   4  19  1   
  8   5   8  ar  
  9   5  20  1   
 10   6   9  1   
 11   6  21  1   
 12   6  22  1   
 13   7   8  ar  
 14   7  10  1   
 15   8  11  1   
 16   9  12  1   
 17   9  23  1   
 18   9  24  1   
 19  10  13  1   
 20  11  14  1   
 21  12  15  1   
 22  12  16  1   
 23  12  25  1   
 24  13  26  1   
 25  13  27  1   
 26  13  28  1   
 27  14  29  1   
 28  14  30  1   
 29  14  31  1   
 30  15  17  1   
 31  15  32  1   
 32  15  33  1   
 33  16  34  1   
 34  16  35  1   
 35  16  36  1   
 36  17  18  1   
 37  18  37  1   
 38  18  38  1   
 39  18  39  1   
@<TRIPOS>SUBSTRUCTURE
  1 ****   3 GROUP 4 **** **** 0

# MOE 2024.06 (io_trps.svl 2023.06)
