@<TRIPOS>MOLECULE
NONAME
47 49 1 0 0 
SMALL
USER_CHARGES


@<TRIPOS>ATOM
  1 O       -0.4940     0.8780     0.8380 O.2   1 <1>  -0.5700 
  2 C       -0.3810     1.8480     0.1120 C.2   1 <1>   0.5440 
  3 N       -1.4870     2.2530    -0.5840 N.am  1 <1>  -0.7300 
  4 C        0.9050     2.5160    -0.0210 C.ar  1 <1>   0.0860 
  5 C       -2.8070     1.5570    -0.6100 C.3   1 <1>   0.1400 
  6 C        1.0600     3.8800    -0.3270 C.ar  1 <1>   0.0830 
  7 C        2.0710     1.7700     0.1710 C.ar  1 <1>  -0.1500 
  8 C       -4.0520     2.3650    -0.1280 C.3   1 <1>   0.1440 
  9 O       -0.0460     4.6470    -0.4950 O.3   1 <1>  -0.3620 
 10 C        2.3320     4.4370    -0.4480 C.ar  1 <1>  -0.1500 
 11 C        3.3300     2.3270     0.0560 C.ar  1 <1>  -0.1500 
 12 C       -5.3090     1.4450    -0.1170 C.ar  1 <1>  -0.1430 
 13 C       -3.8070     2.9010     1.3080 C.3   1 <1>  -0.1600 
 14 C       -4.3400     3.5410    -1.0960 C.3   1 <1>  -0.1600 
 15 C       -0.0210     6.0480    -0.3130 C.3   1 <1>   0.0400 
 16 C        3.4610     3.6660    -0.2570 C.ar  1 <1>  -0.1500 
 17 C       -5.2950     0.1120    -0.5340 C.ar  1 <1>  -0.1500 
 18 C       -6.5300     1.9570     0.3200 C.ar  1 <1>  -0.1500 
 19 C       -2.9910     4.1980     1.3650 C.3   1 <1>   0.1200 
 20 C       -3.4750     4.7800    -0.8560 C.3   1 <1>   0.1200 
 21 C       -6.4410    -0.6640    -0.5090 C.ar  1 <1>  -0.1500 
 22 C       -7.6780     1.1850     0.3460 C.ar  1 <1>  -0.1500 
 23 O       -3.5320     5.1370     0.4880 O.3   1 <1>  -0.5600 
 24 C       -7.6360    -0.1300    -0.0680 C.ar  1 <1>  -0.1500 
 25 H       -1.4150     3.1420    -1.0860 H     1 <1>   0.3700 
 26 H       -2.7280     0.6790     0.0060 H     1 <1>   0.0800 
 27 H       -2.9800     1.2240    -1.6180 H     1 <1>   0.0800 
 28 H        1.9840     0.7240     0.4160 H     1 <1>   0.1500 
 29 H        2.4630     5.4730    -0.6970 H     1 <1>   0.1500 
 30 H        4.2060     1.7200     0.2110 H     1 <1>   0.1500 
 31 H       -3.3110     2.1470     1.8940 H     1 <1>   0.0800 
 32 H       -4.7350     3.1090     1.8030 H     1 <1>   0.0800 
 33 H       -5.3580     3.8670    -0.9980 H     1 <1>   0.0800 
 34 H       -4.2230     3.2140    -2.1130 H     1 <1>   0.0800 
 35 H       -1.0370     6.4000    -0.2660 H     1 <1>   0.0800 
 36 H        0.4840     6.5020    -1.1470 H     1 <1>   0.0800 
 37 H        0.4810     6.2740     0.6110 H     1 <1>   0.0800 
 38 H        4.4410     4.1030    -0.3510 H     1 <1>   0.1500 
 39 H       -4.4040    -0.3690    -0.8890 H     1 <1>   0.1500 
 40 H       -6.6070     2.9780     0.6490 H     1 <1>   0.1500 
 41 H       -1.9580     4.0410     1.1170 H     1 <1>   0.0800 
 42 H       -3.0360     4.6160     2.3560 H     1 <1>   0.0800 
 43 H       -3.8510     5.6100    -1.4280 H     1 <1>   0.0800 
 44 H       -2.4520     4.6140    -1.1320 H     1 <1>   0.0800 
 45 H       -6.4010    -1.6890    -0.8340 H     1 <1>   0.1500 
 46 H       -8.6040     1.6110     0.6910 H     1 <1>   0.1500 
 47 H       -8.5260    -0.7350    -0.0490 H     1 <1>   0.1500 
@<TRIPOS>BOND
  1   1   2  2   
  2   2   3  am  
  3   2   4  1   
  4   3   5  1   
  5   3  25  1   
  6   4   6  ar  
  7   4   7  ar  
  8   5   8  1   
  9   5  26  1   
 10   5  27  1   
 11   6   9  1   
 12   6  10  ar  
 13   7  11  ar  
 14   7  28  1   
 15   8  12  1   
 16   8  13  1   
 17   8  14  1   
 18   9  15  1   
 19  10  16  ar  
 20  10  29  1   
 21  11  16  ar  
 22  11  30  1   
 23  12  17  ar  
 24  12  18  ar  
 25  13  19  1   
 26  13  31  1   
 27  13  32  1   
 28  14  20  1   
 29  14  33  1   
 30  14  34  1   
 31  15  35  1   
 32  15  36  1   
 33  15  37  1   
 34  16  38  1   
 35  17  21  ar  
 36  17  39  1   
 37  18  22  ar  
 38  18  40  1   
 39  19  23  1   
 40  19  41  1   
 41  19  42  1   
 42  20  23  1   
 43  20  43  1   
 44  20  44  1   
 45  21  24  ar  
 46  21  45  1   
 47  22  24  ar  
 48  22  46  1   
 49  24  47  1   
@<TRIPOS>SUBSTRUCTURE
  1 ****   3 GROUP 4 **** **** 0

# MOE 2024.06 (io_trps.svl 2023.06)
