@<TRIPOS>MOLECULE
NONAME
39 40 1 0 0 
SMALL
USER_CHARGES


@<TRIPOS>ATOM
  1 BR      -2.8060    -0.3260    -3.3670 Br    1 <1>  -0.1110 
  2 C       -2.9590     0.3390    -1.5680 C.ar  1 <1>   0.1110 
  3 C       -4.1880     0.2830    -0.9400 C.ar  1 <1>  -0.1500 
  4 C       -1.8360     0.8550    -0.9510 C.ar  1 <1>  -0.1500 
  5 C       -4.3030     0.7630     0.3560 C.ar  1 <1>  -0.1440 
  6 C       -1.9550     1.3330     0.3430 C.ar  1 <1>  -0.1500 
  7 C       -3.1810     1.2850     0.9900 C.ar  1 <1>  -0.1500 
  8 C       -5.6470     0.7100     1.0710 C.3   1 <1>   0.2540 
  9 N       -6.7160     1.3300     0.2590 N.3   1 <1>  -0.8100 
 10 C       -8.0680     1.1120     0.8700 C.3   1 <1>   0.2510 
 11 C       -6.4440     2.7640     0.0430 C.3   1 <1>   0.1100 
 12 C       -8.4030    -0.3570     1.2110 C.2   1 <1>   0.6590 
 13 C       -9.1500     1.7040    -0.0530 C.3   1 <1>  -0.1600 
 14 C       -7.4860     3.3710    -0.8980 C.3   1 <1>  -0.1600 
 15 O       -8.4680    -0.7320     2.3570 O.2   1 <1>  -0.5700 
 16 O       -8.6050    -1.1910     0.1950 O.3   1 <1>  -0.4300 
 17 C       -8.9040     3.1870    -0.3520 C.3   1 <1>  -0.1600 
 18 C       -8.8840    -2.5550     0.4010 C.3   1 <1>   0.1200 
 19 C       -9.0530    -3.2130    -0.9650 C.3   1 <1>  -0.2400 
 20 H       -5.0440    -0.1190    -1.4530 H     1 <1>   0.1500 
 21 H       -0.8960     0.8820    -1.4720 H     1 <1>   0.1500 
 22 H       -1.0950     1.7400     0.8460 H     1 <1>   0.1500 
 23 H       -3.2570     1.6600     1.9960 H     1 <1>   0.1500 
 24 H       -5.5830     1.2030     2.0260 H     1 <1>   0.0800 
 25 H       -5.8720    -0.3270     1.2480 H     1 <1>   0.0800 
 26 H       -8.1000     1.6520     1.8000 H     1 <1>   0.0800 
 27 H       -5.4720     2.8910    -0.4040 H     1 <1>   0.0800 
 28 H       -6.4520     3.2850     0.9860 H     1 <1>   0.0800 
 29 H      -10.1150     1.5880     0.4080 H     1 <1>   0.0800 
 30 H       -9.1590     1.1510    -0.9770 H     1 <1>   0.0800 
 31 H       -7.3990     2.8960    -1.8600 H     1 <1>   0.0800 
 32 H       -7.2810     4.4180    -1.0290 H     1 <1>   0.0800 
 33 H       -9.0200     3.7610     0.5510 H     1 <1>   0.0800 
 34 H       -9.6230     3.5410    -1.0710 H     1 <1>   0.0800 
 35 H       -9.7850    -2.6350     0.9840 H     1 <1>   0.0800 
 36 H       -8.0610    -2.9920     0.9420 H     1 <1>   0.0800 
 37 H       -9.8690    -2.7570    -1.4970 H     1 <1>   0.0800 
 38 H       -9.2650    -4.2590    -0.8410 H     1 <1>   0.0800 
 39 H       -8.1490    -3.1110    -1.5380 H     1 <1>   0.0800 
@<TRIPOS>BOND
  1   1   2  1   
  2   2   3  ar  
  3   2   4  ar  
  4   3   5  ar  
  5   3  20  1   
  6   4   6  ar  
  7   4  21  1   
  8   5   7  ar  
  9   5   8  1   
 10   6   7  ar  
 11   6  22  1   
 12   7  23  1   
 13   8   9  1   
 14   8  24  1   
 15   8  25  1   
 16   9  10  1   
 17   9  11  1   
 18  10  12  1   
 19  10  13  1   
 20  10  26  1   
 21  11  14  1   
 22  11  27  1   
 23  11  28  1   
 24  12  15  2   
 25  12  16  1   
 26  13  17  1   
 27  13  29  1   
 28  13  30  1   
 29  14  17  1   
 30  14  31  1   
 31  14  32  1   
 32  16  18  1   
 33  17  33  1   
 34  17  34  1   
 35  18  19  1   
 36  18  35  1   
 37  18  36  1   
 38  19  37  1   
 39  19  38  1   
 40  19  39  1   
@<TRIPOS>SUBSTRUCTURE
  1 ****   9 GROUP 4 **** **** 0

# MOE 2024.06 (io_trps.svl 2023.06)
