@<TRIPOS>MOLECULE
NONAME
48 50 1 0 0 
SMALL
USER_CHARGES


@<TRIPOS>ATOM
  1 F        1.0690    -0.9080     2.5110 F     1 <1>  -0.1900 
  2 C        2.0660    -1.4180     1.8340 C.ar  1 <1>   0.1900 
  3 C        3.1840    -1.8550     2.5200 C.ar  1 <1>  -0.1500 
  4 C        1.9650    -1.5020     0.4580 C.ar  1 <1>  -0.1500 
  5 C        4.2350    -2.3930     1.7980 C.ar  1 <1>  -0.1500 
  6 C        3.0250    -2.0420    -0.2490 C.ar  1 <1>  -0.1500 
  7 C        4.1650    -2.4910     0.4090 C.ar  1 <1>   0.1000 
  8 N        5.2110    -3.0290    -0.3320 N.pl3 1 <1>  -0.8380 
  9 C        5.4250    -4.4990    -0.1970 C.3   1 <1>   0.2090 
 10 C        6.4690    -2.2280    -0.3780 C.3   1 <1>   0.2090 
 11 C        6.3750    -5.0160    -1.3000 C.3   1 <1>   0.3430 
 12 C        7.4130    -2.7570    -1.4790 C.3   1 <1>   0.3430 
 13 N        7.6680    -4.2420    -1.3620 N.4   1 <1>  -0.9590 
 14 C        8.5590    -4.7450    -2.4280 C.3   1 <1>   0.4810 
 15 C        9.9280    -4.1960    -2.1240 C.2   1 <1>  -0.2880 
 16 C       10.8540    -4.8420    -1.3950 C.2   1 <1>  -0.1780 
 17 C       12.1720    -4.3680    -1.0360 C.ar  1 <1>   0.0280 
 18 C       12.7700    -4.7400     0.1760 C.ar  1 <1>   0.0830 
 19 C       12.8830    -3.5290    -1.8910 C.ar  1 <1>  -0.1500 
 20 O       12.0620    -5.5520     1.0070 O.3   1 <1>  -0.3630 
 21 C       14.0420    -4.2720     0.5010 C.ar  1 <1>  -0.1500 
 22 C       14.1430    -3.0660    -1.5630 C.ar  1 <1>  -0.1500 
 23 C       12.6100    -6.0560     2.2060 C.3   1 <1>   0.0400 
 24 C       14.7230    -3.4380    -0.3650 C.ar  1 <1>  -0.1500 
 25 H        3.2220    -1.7710     3.5920 H     1 <1>   0.1500 
 26 H        1.0790    -1.1510    -0.0390 H     1 <1>   0.1500 
 27 H        5.1120    -2.7370     2.3140 H     1 <1>   0.1500 
 28 H        2.9750    -2.1200    -1.3200 H     1 <1>   0.1500 
 29 H        5.8350    -4.7200     0.7730 H     1 <1>   0.0800 
 30 H        4.4760    -5.0030    -0.2780 H     1 <1>   0.0800 
 31 H        6.2250    -1.1990    -0.5810 H     1 <1>   0.0800 
 32 H        6.9620    -2.2690     0.5780 H     1 <1>   0.0800 
 33 H        5.8610    -4.9330    -2.2430 H     1 <1>   0.0800 
 34 H        6.5780    -6.0600    -1.1240 H     1 <1>   0.0800 
 35 H        8.3450    -2.2190    -1.4240 H     1 <1>   0.0800 
 36 H        6.9630    -2.5430    -2.4330 H     1 <1>   0.0800 
 37 H        8.1800    -4.3910    -0.4810 H     1 <1>   0.4500 
 38 H        8.5960    -5.8230    -2.3930 H     1 <1>   0.0800 
 39 H        8.2210    -4.4380    -3.4050 H     1 <1>   0.0800 
 40 H       10.0970    -3.2170    -2.5380 H     1 <1>   0.1500 
 41 H       10.6410    -5.8200    -0.9960 H     1 <1>   0.1500 
 42 H       12.4540    -3.2380    -2.8320 H     1 <1>   0.1500 
 43 H       14.5200    -4.5420     1.4230 H     1 <1>   0.1500 
 44 H       14.6760    -2.4200    -2.2390 H     1 <1>   0.1500 
 45 H       11.8830    -6.7030     2.6630 H     1 <1>   0.0800 
 46 H       12.8300    -5.2340     2.8640 H     1 <1>   0.0800 
 47 H       13.5010    -6.6140     1.9760 H     1 <1>   0.0800 
 48 H       15.7050    -3.0790    -0.1090 H     1 <1>   0.1500 
@<TRIPOS>BOND
  1   1   2  1   
  2   2   3  ar  
  3   2   4  ar  
  4   3   5  ar  
  5   3  25  1   
  6   4   6  ar  
  7   4  26  1   
  8   5   7  ar  
  9   5  27  1   
 10   6   7  ar  
 11   6  28  1   
 12   7   8  1   
 13   8   9  1   
 14   8  10  1   
 15   9  11  1   
 16   9  29  1   
 17   9  30  1   
 18  10  12  1   
 19  10  31  1   
 20  10  32  1   
 21  11  13  1   
 22  11  33  1   
 23  11  34  1   
 24  12  13  1   
 25  12  35  1   
 26  12  36  1   
 27  13  14  1   
 28  13  37  1   
 29  14  15  1   
 30  14  38  1   
 31  14  39  1   
 32  15  16  2   
 33  15  40  1   
 34  16  17  1   
 35  16  41  1   
 36  17  18  ar  
 37  17  19  ar  
 38  18  20  1   
 39  18  21  ar  
 40  19  22  ar  
 41  19  42  1   
 42  20  23  1   
 43  21  24  ar  
 44  21  43  1   
 45  22  24  ar  
 46  22  44  1   
 47  23  45  1   
 48  23  46  1   
 49  23  47  1   
 50  24  48  1   
@<TRIPOS>SUBSTRUCTURE
  1 ****  13 GROUP 4 **** **** 0

# MOE 2024.06 (io_trps.svl 2023.06)
