@<TRIPOS>MOLECULE
NONAME
44 45 1 0 0 
SMALL
USER_CHARGES


@<TRIPOS>ATOM
  1 O       -0.1330    -0.8030     0.2190 O.3   1 <1>  -0.3630 
  2 C       -1.3680    -1.2160    -0.1700 C.ar  1 <1>   0.0830 
  3 C        0.6050     0.1480    -0.5170 C.3   1 <1>   0.0400 
  4 C       -1.9810    -2.2130     0.5820 C.ar  1 <1>  -0.1440 
  5 C       -2.0270    -0.6870    -1.2760 C.ar  1 <1>  -0.1500 
  6 C       -3.2410    -2.6650     0.2270 C.ar  1 <1>  -0.1500 
  7 C       -1.2710    -2.8120     1.7880 C.3   1 <1>  -0.0960 
  8 C       -3.2860    -1.1420    -1.6220 C.ar  1 <1>  -0.1500 
  9 C       -3.9030    -2.1280    -0.8680 C.ar  1 <1>  -0.1440 
 10 C       -5.2940    -2.6120    -1.2290 C.3   1 <1>   0.4860 
 11 N       -6.2600    -2.1390    -0.1920 N.4   1 <1>  -0.9590 
 12 C       -7.6390    -2.7080    -0.3290 C.3   1 <1>   0.4230 
 13 C       -6.2570    -0.6440    -0.1450 C.3   1 <1>   0.3430 
 14 C       -8.5080    -2.2070     0.8400 C.3   1 <1>  -0.1600 
 15 C       -7.5910    -4.2520    -0.3670 C.3   1 <1>  -0.1600 
 16 C       -7.0830    -0.1500     1.0400 C.3   1 <1>  -0.1600 
 17 C       -8.5150    -0.6800     0.9700 C.3   1 <1>  -0.1600 
 18 C       -8.9690    -4.9290    -0.4410 C.3   1 <1>  -0.2400 
 19 H        1.5520     0.2850    -0.0270 H     1 <1>   0.0800 
 20 H        0.0630     1.0770    -0.5290 H     1 <1>   0.0800 
 21 H        0.7600    -0.2240    -1.5140 H     1 <1>   0.0800 
 22 H       -1.5730     0.0780    -1.8770 H     1 <1>   0.1500 
 23 H       -3.6980    -3.4430     0.8130 H     1 <1>   0.1500 
 24 H       -0.3400    -3.2540     1.4780 H     1 <1>   0.0800 
 25 H       -1.8660    -3.5700     2.2630 H     1 <1>   0.0800 
 26 H       -1.0590    -2.0410     2.5070 H     1 <1>   0.0800 
 27 H       -3.7710    -0.7180    -2.4850 H     1 <1>   0.1500 
 28 H       -5.2750    -3.6870    -1.2690 H     1 <1>   0.0800 
 29 H       -5.5760    -2.2380    -2.2000 H     1 <1>   0.0800 
 30 H       -5.8910    -2.4520     0.7110 H     1 <1>   0.4500 
 31 H       -8.0750    -2.3550    -1.2500 H     1 <1>   0.0800 
 32 H       -6.6690    -0.2480    -1.0600 H     1 <1>   0.0800 
 33 H       -5.2480    -0.2750    -0.0410 H     1 <1>   0.0800 
 34 H       -8.1610    -2.6460     1.7600 H     1 <1>   0.0800 
 35 H       -9.5250    -2.5250     0.6970 H     1 <1>   0.0800 
 36 H       -7.0780    -4.6230     0.5040 H     1 <1>   0.0800 
 37 H       -7.0560    -4.5770    -1.2400 H     1 <1>   0.0800 
 38 H       -7.0990     0.9260     1.0330 H     1 <1>   0.0800 
 39 H       -6.6140    -0.4590     1.9580 H     1 <1>   0.0800 
 40 H       -9.0560    -0.3900     1.8560 H     1 <1>   0.0800 
 41 H       -9.0200    -0.2480     0.1220 H     1 <1>   0.0800 
 42 H       -9.5200    -4.8060     0.4760 H     1 <1>   0.0800 
 43 H       -8.8470    -5.9870    -0.6040 H     1 <1>   0.0800 
 44 H       -9.5510    -4.5320    -1.2550 H     1 <1>   0.0800 
@<TRIPOS>BOND
  1   1   2  1   
  2   1   3  1   
  3   2   4  ar  
  4   2   5  ar  
  5   3  19  1   
  6   3  20  1   
  7   3  21  1   
  8   4   6  ar  
  9   4   7  1   
 10   5   8  ar  
 11   5  22  1   
 12   6   9  ar  
 13   6  23  1   
 14   7  24  1   
 15   7  25  1   
 16   7  26  1   
 17   8   9  ar  
 18   8  27  1   
 19   9  10  1   
 20  10  11  1   
 21  10  28  1   
 22  10  29  1   
 23  11  12  1   
 24  11  13  1   
 25  11  30  1   
 26  12  14  1   
 27  12  15  1   
 28  12  31  1   
 29  13  16  1   
 30  13  32  1   
 31  13  33  1   
 32  14  17  1   
 33  14  34  1   
 34  14  35  1   
 35  15  18  1   
 36  15  36  1   
 37  15  37  1   
 38  16  17  1   
 39  16  38  1   
 40  16  39  1   
 41  17  40  1   
 42  17  41  1   
 43  18  42  1   
 44  18  43  1   
 45  18  44  1   
@<TRIPOS>SUBSTRUCTURE
  1 ****   9 GROUP 4 **** **** 0

# MOE 2024.06 (io_trps.svl 2023.06)
