@<TRIPOS>MOLECULE
NONAME
46 48 1 0 0 
SMALL
USER_CHARGES


@<TRIPOS>ATOM
  1 CL       3.4790    -0.2530     3.2570 Cl    1 <1>  -0.1770 
  2 C        3.9590     0.7250     1.8950 C.ar  1 <1>   0.1770 
  3 C        3.0600     1.6210     1.3510 C.ar  1 <1>  -0.1500 
  4 C        5.2320     0.5920     1.3780 C.ar  1 <1>  -0.1500 
  5 C        3.4480     2.3960     0.2700 C.ar  1 <1>  -0.1500 
  6 C        5.6070     1.3740     0.2980 C.ar  1 <1>  -0.1500 
  7 C        4.7260     2.2890    -0.2730 C.ar  1 <1>  -0.0090 
  8 S        5.2390     3.3090    -1.6850 S.o2  1 <1>   1.4470 
  9 O        4.2840     4.3750    -1.9050 O.2   1 <1>  -0.6500 
 10 O        5.6000     2.4400    -2.7830 O.2   1 <1>  -0.6500 
 11 N        6.6650     4.0400    -1.1290 N.am  1 <1>  -0.8490 
 12 C        6.3960     5.0680    -0.1190 C.3   1 <1>   0.1960 
 13 C        7.4520     4.5840    -2.2400 C.3   1 <1>   0.1960 
 14 C        7.7110     5.5690     0.4800 C.3   1 <1>  -0.1600 
 15 C        8.8080     5.0800    -1.7300 C.3   1 <1>  -0.1600 
 16 C        8.6380     6.1250    -0.6140 C.3   1 <1>  -0.0190 
 17 C        9.9770     6.5880    -0.0490 C.2   1 <1>   0.5690 
 18 O       10.2800     7.7520    -0.1410 O.2   1 <1>  -0.5700 
 19 N       10.7950     5.6870     0.5430 N.am  1 <1>  -0.7300 
 20 C       12.1470     5.9730     1.0700 C.3   1 <1>   0.2840 
 21 C       13.1010     4.8530     0.6710 C.ar  1 <1>   0.1670 
 22 N       12.7940     3.6270     1.0850 N.ar  1 <1>  -0.6200 
 23 C       14.2210     5.1520    -0.0920 C.ar  1 <1>  -0.1500 
 24 C       13.6400     2.6730     0.7310 C.ar  1 <1>   0.1600 
 25 C       15.0920     4.1460    -0.4540 C.ar  1 <1>  -0.1500 
 26 C       14.7830     2.8740    -0.0240 C.ar  1 <1>  -0.1500 
 27 H        2.0720     1.7070     1.7670 H     1 <1>   0.1500 
 28 H        5.9160    -0.1140     1.8160 H     1 <1>   0.1500 
 29 H        2.7480     3.0960    -0.1590 H     1 <1>   0.1500 
 30 H        6.6000     1.2760    -0.1130 H     1 <1>   0.1500 
 31 H        5.7890     4.6560     0.6700 H     1 <1>   0.0800 
 32 H        5.8580     5.8910    -0.5620 H     1 <1>   0.0800 
 33 H        6.9120     5.3880    -2.7130 H     1 <1>   0.0800 
 34 H        7.6250     3.8170    -2.9780 H     1 <1>   0.0800 
 35 H        8.1870     4.7540     0.9970 H     1 <1>   0.0800 
 36 H        7.5040     6.3400     1.2010 H     1 <1>   0.0800 
 37 H        9.3580     5.5130    -2.5470 H     1 <1>   0.0800 
 38 H        9.3670     4.2340    -1.3700 H     1 <1>   0.0800 
 39 H        8.1600     6.9890    -1.0430 H     1 <1>   0.0800 
 40 H       10.5670     4.6900     0.5650 H     1 <1>   0.3700 
 41 H       12.1000     6.0280     2.1430 H     1 <1>   0.0800 
 42 H       12.4960     6.9190     0.6960 H     1 <1>   0.0800 
 43 H       14.4130     6.1630    -0.4030 H     1 <1>   0.1500 
 44 H       13.4110     1.6740     1.0600 H     1 <1>   0.1500 
 45 H       15.9700     4.3450    -1.0440 H     1 <1>   0.1500 
 46 H       15.4200     2.0440    -0.2700 H     1 <1>   0.1500 
@<TRIPOS>BOND
  1   1   2  1   
  2   2   3  ar  
  3   2   4  ar  
  4   3   5  ar  
  5   3  27  1   
  6   4   6  ar  
  7   4  28  1   
  8   5   7  ar  
  9   5  29  1   
 10   6   7  ar  
 11   6  30  1   
 12   7   8  1   
 13   8   9  2   
 14   8  10  2   
 15   8  11  am  
 16  11  12  1   
 17  11  13  1   
 18  12  14  1   
 19  12  31  1   
 20  12  32  1   
 21  13  15  1   
 22  13  33  1   
 23  13  34  1   
 24  14  16  1   
 25  14  35  1   
 26  14  36  1   
 27  15  16  1   
 28  15  37  1   
 29  15  38  1   
 30  16  17  1   
 31  16  39  1   
 32  17  18  2   
 33  17  19  am  
 34  19  20  1   
 35  19  40  1   
 36  20  21  1   
 37  20  41  1   
 38  20  42  1   
 39  21  22  ar  
 40  21  23  ar  
 41  22  24  ar  
 42  23  25  ar  
 43  23  43  1   
 44  24  26  ar  
 45  24  44  1   
 46  25  26  ar  
 47  25  45  1   
 48  26  46  1   
@<TRIPOS>SUBSTRUCTURE
  1 ****  14 GROUP 4 **** **** 0

# MOE 2024.06 (io_trps.svl 2023.06)
