@<TRIPOS>MOLECULE
NONAME
43 43 1 0 0 
SMALL
USER_CHARGES


@<TRIPOS>ATOM
  1 O        1.3660     3.5270    -0.4960 O.2   1 <1>  -0.5700 
  2 C        0.7230     3.1930     0.4680 C.2   1 <1>   0.5690 
  3 N        1.2730     2.5130     1.5110 N.am  1 <1>  -0.7300 
  4 C       -0.7570     3.5150     0.5180 C.3   1 <1>  -0.0990 
  5 C        2.7100     2.2200     1.8420 C.3   1 <1>   0.1400 
  6 C       -1.6270     2.2930     0.1720 C.3   1 <1>  -0.1600 
  7 C        3.7450     2.3620     0.6980 C.3   1 <1>   0.3430 
  8 C       -3.1360     2.5430     0.3520 C.3   1 <1>  -0.0800 
  9 N        3.3490     1.6640    -0.5660 N.4   1 <1>  -0.9590 
 10 C       -3.9050     1.2230     0.1560 C.3   1 <1>  -0.1600 
 11 C       -3.6700     3.6170    -0.6160 C.3   1 <1>  -0.1600 
 12 C        3.0950     0.2010    -0.4140 C.3   1 <1>   0.2630 
 13 C        4.3010     1.9590    -1.6750 C.3   1 <1>   0.2630 
 14 C       -5.4190     1.4180     0.3080 C.3   1 <1>  -0.1600 
 15 C       -5.1860     3.8090    -0.4710 C.3   1 <1>  -0.1600 
 16 C       -5.9370     2.4860    -0.6610 C.3   1 <1>  -0.1600 
 17 H        0.6280     2.2850     2.2750 H     1 <1>   0.3700 
 18 H       -0.9460     4.3110    -0.1790 H     1 <1>   0.0800 
 19 H       -1.0020     3.8750     1.5010 H     1 <1>   0.0800 
 20 H        2.7700     1.2180     2.2300 H     1 <1>   0.0800 
 21 H        3.0080     2.8780     2.6400 H     1 <1>   0.0800 
 22 H       -1.3390     1.4740     0.8080 H     1 <1>   0.0800 
 23 H       -1.4320     1.9970    -0.8460 H     1 <1>   0.0800 
 24 H        4.6970     1.9880     1.0370 H     1 <1>   0.0800 
 25 H        3.8630     3.4130     0.4910 H     1 <1>   0.0800 
 26 H       -3.3110     2.8790     1.3610 H     1 <1>   0.0800 
 27 H        2.4460     2.1330    -0.8120 H     1 <1>   0.4500 
 28 H       -3.5730     0.4960     0.8770 H     1 <1>   0.0800 
 29 H       -3.7010     0.8300    -0.8260 H     1 <1>   0.0800 
 30 H       -3.4480     3.3310    -1.6300 H     1 <1>   0.0800 
 31 H       -3.1930     4.5620    -0.4270 H     1 <1>   0.0800 
 32 H        3.9940    -0.3060    -0.1060 H     1 <1>   0.0800 
 33 H        2.7650    -0.2170    -1.3510 H     1 <1>   0.0800 
 34 H        2.3260     0.0310     0.3220 H     1 <1>   0.0800 
 35 H        5.2720     1.5470    -1.4570 H     1 <1>   0.0800 
 36 H        4.3950     3.0250    -1.8080 H     1 <1>   0.0800 
 37 H        3.9410     1.5330    -2.5970 H     1 <1>   0.0800 
 38 H       -5.6420     1.7150     1.3180 H     1 <1>   0.0800 
 39 H       -5.9240     0.4860     0.1190 H     1 <1>   0.0800 
 40 H       -5.5300     4.5240    -1.1990 H     1 <1>   0.0800 
 41 H       -5.4040     4.2030     0.5070 H     1 <1>   0.0800 
 42 H       -6.9890     2.6420    -0.4990 H     1 <1>   0.0800 
 43 H       -5.8060     2.1440    -1.6740 H     1 <1>   0.0800 
@<TRIPOS>BOND
  1   1   2  2   
  2   2   3  am  
  3   2   4  1   
  4   3   5  1   
  5   3  17  1   
  6   4   6  1   
  7   4  18  1   
  8   4  19  1   
  9   5   7  1   
 10   5  20  1   
 11   5  21  1   
 12   6   8  1   
 13   6  22  1   
 14   6  23  1   
 15   7   9  1   
 16   7  24  1   
 17   7  25  1   
 18   8  10  1   
 19   8  11  1   
 20   8  26  1   
 21   9  12  1   
 22   9  13  1   
 23   9  27  1   
 24  10  14  1   
 25  10  28  1   
 26  10  29  1   
 27  11  15  1   
 28  11  30  1   
 29  11  31  1   
 30  12  32  1   
 31  12  33  1   
 32  12  34  1   
 33  13  35  1   
 34  13  36  1   
 35  13  37  1   
 36  14  16  1   
 37  14  38  1   
 38  14  39  1   
 39  15  16  1   
 40  15  40  1   
 41  15  41  1   
 42  16  42  1   
 43  16  43  1   
@<TRIPOS>SUBSTRUCTURE
  1 ****   6 GROUP 4 **** **** 0

# MOE 2024.06 (io_trps.svl 2023.06)
