@<TRIPOS>MOLECULE
NONAME
43 45 1 0 0 
SMALL
USER_CHARGES


@<TRIPOS>ATOM
  1 O        0.1570    -0.7160    -0.1770 O.3   1 <1>  -0.2800 
  2 C       -0.7830    -1.1740    -0.9750 C.2   1 <1>  -0.0100 
  3 C       -0.1380    -1.0910     1.0500 C.2   1 <1>  -0.0100 
  4 C       -1.7190    -1.8470    -0.2680 C.2   1 <1>  -0.1810 
  5 C       -1.2880    -1.7970     1.0670 C.2   1 <1>  -0.1500 
  6 C       -2.9710    -2.5250    -0.7760 C.3   1 <1>   0.5240 
  7 N       -4.0470    -1.5050    -0.8790 N.4   1 <1>  -0.9590 
  8 C       -4.4170    -0.9370     0.4730 C.3   1 <1>   0.3430 
  9 C       -5.2610    -2.0480    -1.5950 C.3   1 <1>   0.3430 
 10 C       -5.5580     0.0980     0.3930 C.3   1 <1>   0.2090 
 11 C       -6.4070    -1.0190    -1.6890 C.3   1 <1>   0.2090 
 12 N       -6.7220    -0.4700    -0.3430 N.pl3 1 <1>  -0.8380 
 13 C       -7.9290     0.2190    -0.2290 C.ar  1 <1>   0.1000 
 14 C       -9.0340    -0.3380     0.4270 C.ar  1 <1>  -0.1430 
 15 C       -8.0400     1.4860    -0.7900 C.ar  1 <1>  -0.1500 
 16 C      -10.2270     0.3760     0.4960 C.ar  1 <1>  -0.1430 
 17 C       -8.9420    -1.7270     1.0620 C.3   1 <1>  -0.0970 
 18 C       -9.2200     2.1950    -0.7110 C.ar  1 <1>  -0.1500 
 19 C      -10.3100     1.6390    -0.0710 C.ar  1 <1>  -0.1500 
 20 C      -11.4690    -0.1840     1.1790 C.3   1 <1>  -0.0970 
 21 H       -0.6950    -0.9680    -2.0290 H     1 <1>   0.1500 
 22 H        0.5300    -0.8150     1.8500 H     1 <1>   0.1500 
 23 H       -1.7720    -2.2400     1.9210 H     1 <1>   0.1500 
 24 H       -3.2620    -3.3190    -0.1070 H     1 <1>   0.0800 
 25 H       -2.7730    -2.9490    -1.7470 H     1 <1>   0.0800 
 26 H       -3.6670    -0.7270    -1.4310 H     1 <1>   0.4500 
 27 H       -3.5580    -0.4680     0.9250 H     1 <1>   0.0800 
 28 H       -4.7390    -1.7330     1.1230 H     1 <1>   0.0800 
 29 H       -5.6370    -2.9080    -1.0640 H     1 <1>   0.0800 
 30 H       -4.9950    -2.3640    -2.5900 H     1 <1>   0.0800 
 31 H       -5.2130     0.9890    -0.1020 H     1 <1>   0.0800 
 32 H       -5.8690     0.3700     1.3880 H     1 <1>   0.0800 
 33 H       -7.2870    -1.4950    -2.0900 H     1 <1>   0.0800 
 34 H       -6.1330    -0.2180    -2.3530 H     1 <1>   0.0800 
 35 H       -7.1990     1.9220    -1.2930 H     1 <1>   0.1500 
 36 H       -9.4210    -2.4460     0.4240 H     1 <1>   0.0800 
 37 H       -9.4250    -1.7360     2.0220 H     1 <1>   0.0800 
 38 H       -7.9250    -2.0310     1.2180 H     1 <1>   0.0800 
 39 H       -9.2960     3.1760    -1.1470 H     1 <1>   0.1500 
 40 H      -11.2270     2.2000    -0.0180 H     1 <1>   0.1500 
 41 H      -11.3150    -0.2250     2.2420 H     1 <1>   0.0800 
 42 H      -11.6810    -1.1730     0.8140 H     1 <1>   0.0800 
 43 H      -12.3270     0.4320     0.9850 H     1 <1>   0.0800 
@<TRIPOS>BOND
  1   1   2  1   
  2   1   3  1   
  3   2   4  2   
  4   2  21  1   
  5   3   5  2   
  6   3  22  1   
  7   4   5  1   
  8   4   6  1   
  9   5  23  1   
 10   6   7  1   
 11   6  24  1   
 12   6  25  1   
 13   7   8  1   
 14   7   9  1   
 15   7  26  1   
 16   8  10  1   
 17   8  27  1   
 18   8  28  1   
 19   9  11  1   
 20   9  29  1   
 21   9  30  1   
 22  10  12  1   
 23  10  31  1   
 24  10  32  1   
 25  11  12  1   
 26  11  33  1   
 27  11  34  1   
 28  12  13  1   
 29  13  14  ar  
 30  13  15  ar  
 31  14  16  ar  
 32  14  17  1   
 33  15  18  ar  
 34  15  35  1   
 35  16  19  ar  
 36  16  20  1   
 37  17  36  1   
 38  17  37  1   
 39  17  38  1   
 40  18  19  ar  
 41  18  39  1   
 42  19  40  1   
 43  20  41  1   
 44  20  42  1   
 45  20  43  1   
@<TRIPOS>SUBSTRUCTURE
  1 ****  10 GROUP 4 **** **** 0

# MOE 2024.06 (io_trps.svl 2023.06)
