@<TRIPOS>MOLECULE
NONAME
35 36 1 0 0 
SMALL
USER_CHARGES


@<TRIPOS>ATOM
  1 CL       2.6490     1.0480    -1.7560 Cl    1 <1>  -0.1770 
  2 C        2.2680    -0.3580    -0.7790 C.ar  1 <1>   0.1770 
  3 C        3.1660    -0.9670     0.1150 C.ar  1 <1>   0.0830 
  4 C        0.9860    -0.8520    -0.9410 C.ar  1 <1>  -0.1500 
  5 O        4.4530    -0.6030     0.3830 O.3   1 <1>  -0.3630 
  6 C        2.7330    -2.0770     0.8310 C.ar  1 <1>  -0.1500 
  7 C        0.5910    -1.9570    -0.2130 C.ar  1 <1>   0.1770 
  8 C        5.1160     0.4720    -0.2290 C.3   1 <1>   0.1200 
  9 C        1.4510    -2.5760     0.6730 C.ar  1 <1>  -0.1500 
 10 CL      -1.0260    -2.5820    -0.4160 Cl    1 <1>  -0.1770 
 11 C        6.5340     0.5170     0.3370 C.3   1 <1>  -0.1600 
 12 C        7.3240     1.6590    -0.2970 C.3   1 <1>   0.3430 
 13 N        8.6790     1.7480     0.3120 N.4   1 <1>  -0.9590 
 14 C        9.4170     2.9660    -0.1020 C.3   1 <1>   0.3430 
 15 C        9.5720     0.6060    -0.0140 C.3   1 <1>   0.3430 
 16 C       10.8710     2.6560     0.2260 C.3   1 <1>  -0.1600 
 17 C       10.9750     1.1280     0.2660 C.3   1 <1>  -0.1600 
 18 H        0.3020    -0.3840    -1.6250 H     1 <1>   0.1500 
 19 H        3.4100    -2.5530     1.5200 H     1 <1>   0.1500 
 20 H        4.5810     1.3760     0.0040 H     1 <1>   0.0800 
 21 H        5.1330     0.2960    -1.2910 H     1 <1>   0.0800 
 22 H        1.1200    -3.4350     1.2290 H     1 <1>   0.1500 
 23 H        7.0100    -0.4250     0.1290 H     1 <1>   0.0800 
 24 H        6.4720     0.6640     1.4010 H     1 <1>   0.0800 
 25 H        6.7950     2.5850    -0.1330 H     1 <1>   0.0800 
 26 H        7.4070     1.5030    -1.3610 H     1 <1>   0.0800 
 27 H        8.5850     1.7810     1.3360 H     1 <1>   0.4500 
 28 H        9.0680     3.8440     0.4180 H     1 <1>   0.0800 
 29 H        9.3130     3.1130    -1.1660 H     1 <1>   0.0800 
 30 H        9.4830     0.3590    -1.0600 H     1 <1>   0.0800 
 31 H        9.3440    -0.2640     0.5810 H     1 <1>   0.0800 
 32 H       11.1260     3.0750     1.1840 H     1 <1>   0.0800 
 33 H       11.5240     3.0820    -0.5170 H     1 <1>   0.0800 
 34 H       11.6670     0.7550    -0.4690 H     1 <1>   0.0800 
 35 H       11.3010     0.7990     1.2380 H     1 <1>   0.0800 
@<TRIPOS>BOND
  1   1   2  1   
  2   2   3  ar  
  3   2   4  ar  
  4   3   5  1   
  5   3   6  ar  
  6   4   7  ar  
  7   4  18  1   
  8   5   8  1   
  9   6   9  ar  
 10   6  19  1   
 11   7   9  ar  
 12   7  10  1   
 13   8  11  1   
 14   8  20  1   
 15   8  21  1   
 16   9  22  1   
 17  11  12  1   
 18  11  23  1   
 19  11  24  1   
 20  12  13  1   
 21  12  25  1   
 22  12  26  1   
 23  13  14  1   
 24  13  15  1   
 25  13  27  1   
 26  14  16  1   
 27  14  28  1   
 28  14  29  1   
 29  15  17  1   
 30  15  30  1   
 31  15  31  1   
 32  16  17  1   
 33  16  32  1   
 34  16  33  1   
 35  17  34  1   
 36  17  35  1   
@<TRIPOS>SUBSTRUCTURE
  1 ****   8 GROUP 4 **** **** 0

# MOE 2024.06 (io_trps.svl 2023.06)
