@<TRIPOS>MOLECULE
NONAME
33 34 1 0 0 
SMALL
USER_CHARGES


@<TRIPOS>ATOM
  1 O       -0.0220     0.3090     1.0090 O.2   1 <1>  -0.5700 
  2 C       -0.4050    -0.7940     0.7100 C.2   1 <1>   0.5690 
  3 N        0.4050    -1.8320     0.3760 N.am  1 <1>  -0.4930 
  4 C       -1.9020    -1.0470     0.6840 C.3   1 <1>  -0.0990 
  5 C        1.7780    -1.9350     0.3340 C.2   1 <1>   0.5790 
  6 C       -2.4600    -1.0930    -0.7480 C.3   1 <1>  -0.1600 
  7 N        2.6170    -1.1220     0.8740 N.2   1 <1>  -0.7070 
  8 N        2.2890    -2.9950    -0.3060 N.2   1 <1>  -0.5650 
  9 C       -3.9710    -1.3440    -0.7480 C.3   1 <1>  -0.2400 
 10 N        3.8120    -1.6730     0.5550 N.pl3 1 <1>   0.5610 
 11 C        3.5450    -2.7950    -0.1520 C.2   1 <1>   0.2700 
 12 C        5.1510    -1.3050     0.8290 C.2   1 <1>   0.5650 
 13 N        4.5620    -3.6000    -0.6290 N.pl3 1 <1>  -0.5840 
 14 O        5.4160    -0.2910     1.4640 O.2   1 <1>  -0.5700 
 15 C        6.1910    -2.1710     0.3300 C.2   1 <1>  -0.1240 
 16 C        5.8810    -3.2860    -0.3990 C.2   1 <1>  -0.0380 
 17 C        7.6290    -1.7650     0.6690 C.3   1 <1>  -0.1020 
 18 C        6.8630    -4.2680    -1.0200 C.3   1 <1>  -0.1020 
 19 H       -0.0420    -2.6760     0.0410 H     1 <1>   0.3700 
 20 H       -2.3870    -0.2580     1.2300 H     1 <1>   0.0800 
 21 H       -2.1080    -1.9710     1.1930 H     1 <1>   0.0800 
 22 H       -1.9720    -1.8720    -1.3100 H     1 <1>   0.0800 
 23 H       -2.2550    -0.1550    -1.2370 H     1 <1>   0.0800 
 24 H       -4.2000    -2.2860    -0.2820 H     1 <1>   0.0800 
 25 H       -4.3400    -1.3650    -1.7590 H     1 <1>   0.0800 
 26 H       -4.4830    -0.5600    -0.2170 H     1 <1>   0.0800 
 27 H        4.2800    -4.4300    -1.1630 H     1 <1>   0.4000 
 28 H        7.6930    -1.4570     1.6990 H     1 <1>   0.0800 
 29 H        7.9290    -0.9360     0.0520 H     1 <1>   0.0800 
 30 H        8.3300    -2.5670     0.5390 H     1 <1>   0.0800 
 31 H        6.9140    -5.1600    -0.4220 H     1 <1>   0.0800 
 32 H        7.8490    -3.8560    -1.1130 H     1 <1>   0.0800 
 33 H        6.5380    -4.5360    -2.0100 H     1 <1>   0.0800 
@<TRIPOS>BOND
  1   1   2  2   
  2   2   3  am  
  3   2   4  1   
  4   3   5  1   
  5   3  19  1   
  6   4   6  1   
  7   4  20  1   
  8   4  21  1   
  9   5   7  2   
 10   5   8  1   
 11   6   9  1   
 12   6  22  1   
 13   6  23  1   
 14   7  10  1   
 15   8  11  2   
 16   9  24  1   
 17   9  25  1   
 18   9  26  1   
 19  10  11  1   
 20  10  12  1   
 21  11  13  1   
 22  12  14  2   
 23  12  15  1   
 24  13  16  1   
 25  13  27  1   
 26  15  16  2   
 27  15  17  1   
 28  16  18  1   
 29  17  28  1   
 30  17  29  1   
 31  17  30  1   
 32  18  31  1   
 33  18  32  1   
 34  18  33  1   
@<TRIPOS>SUBSTRUCTURE
  1 ****   5 GROUP 4 **** **** 0

# MOE 2024.06 (io_trps.svl 2023.06)
