@<TRIPOS>MOLECULE
NONAME
44 45 1 0 0 
SMALL
USER_CHARGES


@<TRIPOS>ATOM
  1 O       -0.1770    -0.5410    -0.7200 O.3   1 <1>  -0.3630 
  2 C       -1.4050    -1.1050    -0.8120 C.ar  1 <1>   0.0830 
  3 C        0.7770    -0.9940     0.2140 C.3   1 <1>   0.1200 
  4 C       -2.2360    -0.6220    -1.8090 C.ar  1 <1>  -0.1500 
  5 C       -1.8590    -2.1210     0.0220 C.ar  1 <1>  -0.1500 
  6 C        2.0530    -0.1720     0.0310 C.3   1 <1>  -0.1600 
  7 C       -3.5080    -1.1370    -1.9750 C.ar  1 <1>  -0.1500 
  8 C       -3.1330    -2.6370    -0.1430 C.ar  1 <1>  -0.1500 
  9 C        3.1430    -0.6110     1.0180 C.3   1 <1>  -0.1600 
 10 C       -3.9680    -2.1440    -1.1380 C.ar  1 <1>  -0.1430 
 11 C        4.4190     0.2160     0.8300 C.3   1 <1>  -0.2400 
 12 C       -5.3710    -2.6950    -1.3080 C.3   1 <1>   0.4860 
 13 N       -6.2300    -2.1620    -0.2160 N.4   1 <1>  -0.9590 
 14 C       -7.5580    -2.8380    -0.1880 C.3   1 <1>   0.3430 
 15 C       -6.3540    -0.6750    -0.2850 C.3   1 <1>   0.3430 
 16 C       -8.3510    -2.3670     1.0320 C.3   1 <1>  -0.1600 
 17 C       -7.1280    -0.1650     0.9310 C.3   1 <1>  -0.1600 
 18 C       -8.5000    -0.8400     1.0600 C.3   1 <1>  -0.1600 
 19 H        0.9680    -2.0370     0.0260 H     1 <1>   0.0800 
 20 H        0.3770    -0.8580     1.2030 H     1 <1>   0.0800 
 21 H       -1.8720     0.1590    -2.4530 H     1 <1>   0.1500 
 22 H       -1.2340    -2.5190     0.7990 H     1 <1>   0.1500 
 23 H        1.8250     0.8680     0.1890 H     1 <1>   0.0800 
 24 H        2.4100    -0.2980    -0.9760 H     1 <1>   0.0800 
 25 H       -4.1260    -0.7430    -2.7650 H     1 <1>   0.1500 
 26 H       -3.4580    -3.4280     0.5110 H     1 <1>   0.1500 
 27 H        3.3720    -1.6520     0.8660 H     1 <1>   0.0800 
 28 H        2.7900    -0.4890     2.0280 H     1 <1>   0.0800 
 29 H        4.8030     0.0930    -0.1670 H     1 <1>   0.0800 
 30 H        5.1720    -0.1050     1.5290 H     1 <1>   0.0800 
 31 H        4.2190     1.2600     0.9980 H     1 <1>   0.0800 
 32 H       -5.3350    -3.7710    -1.2620 H     1 <1>   0.0800 
 33 H       -5.7650    -2.4070    -2.2690 H     1 <1>   0.0800 
 34 H       -5.7470    -2.3690     0.6660 H     1 <1>   0.4500 
 35 H       -7.4320    -3.9080    -0.1410 H     1 <1>   0.0800 
 36 H       -8.1080    -2.5990    -1.0850 H     1 <1>   0.0800 
 37 H       -6.8730    -0.3920    -1.1870 H     1 <1>   0.0800 
 38 H       -5.3750    -0.2200    -0.2990 H     1 <1>   0.0800 
 39 H       -7.8610    -2.7040     1.9290 H     1 <1>   0.0800 
 40 H       -9.3290    -2.8180     1.0130 H     1 <1>   0.0800 
 41 H       -7.2620     0.8990     0.8410 H     1 <1>   0.0800 
 42 H       -6.5470    -0.3390     1.8210 H     1 <1>   0.0800 
 43 H       -8.9730    -0.5340     1.9790 H     1 <1>   0.0800 
 44 H       -9.1330    -0.5250     0.2460 H     1 <1>   0.0800 
@<TRIPOS>BOND
  1   1   2  1   
  2   1   3  1   
  3   2   4  ar  
  4   2   5  ar  
  5   3   6  1   
  6   3  19  1   
  7   3  20  1   
  8   4   7  ar  
  9   4  21  1   
 10   5   8  ar  
 11   5  22  1   
 12   6   9  1   
 13   6  23  1   
 14   6  24  1   
 15   7  10  ar  
 16   7  25  1   
 17   8  10  ar  
 18   8  26  1   
 19   9  11  1   
 20   9  27  1   
 21   9  28  1   
 22  10  12  1   
 23  11  29  1   
 24  11  30  1   
 25  11  31  1   
 26  12  13  1   
 27  12  32  1   
 28  12  33  1   
 29  13  14  1   
 30  13  15  1   
 31  13  34  1   
 32  14  16  1   
 33  14  35  1   
 34  14  36  1   
 35  15  17  1   
 36  15  37  1   
 37  15  38  1   
 38  16  18  1   
 39  16  39  1   
 40  16  40  1   
 41  17  18  1   
 42  17  41  1   
 43  17  42  1   
 44  18  43  1   
 45  18  44  1   
@<TRIPOS>SUBSTRUCTURE
  1 ****   8 GROUP 4 **** **** 0

# MOE 2024.06 (io_trps.svl 2023.06)
