@<TRIPOS>MOLECULE
NONAME
40 42 1 0 0 
SMALL
USER_CHARGES


@<TRIPOS>ATOM
  1 CL      -1.8570     0.8420    -0.9640 Cl    1 <1>  -0.1770 
  2 C       -1.1160     2.3590    -0.4990 C.ar  1 <1>   0.1770 
  3 C        0.0650     2.7690    -1.0980 C.ar  1 <1>   0.1770 
  4 C       -1.7330     3.1470     0.4630 C.ar  1 <1>  -0.1440 
  5 CL       0.8330     1.7820    -2.3170 Cl    1 <1>  -0.1770 
  6 C        0.6480     3.9710    -0.7430 C.ar  1 <1>  -0.1500 
  7 C       -1.1410     4.3540     0.8190 C.ar  1 <1>  -0.1500 
  8 C       -3.0250     2.6940     1.1170 C.3   1 <1>   0.4870 
  9 C        0.0400     4.7620     0.2180 C.ar  1 <1>  -0.1500 
 10 N       -4.1250     2.7170     0.1160 N.4   1 <1>  -0.9590 
 11 C       -4.3760     4.1060    -0.4220 C.3   1 <1>   0.3430 
 12 C       -5.3900     2.1220     0.6800 C.3   1 <1>   0.3430 
 13 C       -5.5220     4.1510    -1.4560 C.3   1 <1>   0.2090 
 14 C       -6.5570     2.1250    -0.3320 C.3   1 <1>   0.2090 
 15 N       -6.7550     3.4650    -0.9610 N.pl3 1 <1>  -0.8380 
 16 C       -7.7830     4.2730    -0.4520 C.ar  1 <1>   0.1000 
 17 C       -7.7390     4.9380     0.7790 C.ar  1 <1>   0.1900 
 18 C       -8.9350     4.4350    -1.2110 C.ar  1 <1>  -0.1500 
 19 F       -6.6750     4.8210     1.5400 F     1 <1>  -0.1900 
 20 C       -8.7750     5.7240     1.2450 C.ar  1 <1>  -0.1500 
 21 C       -9.9850     5.2200    -0.7620 C.ar  1 <1>  -0.1500 
 22 C       -9.9090     5.8650     0.4630 C.ar  1 <1>  -0.1500 
 23 H        1.5660     4.2800    -1.2140 H     1 <1>   0.1500 
 24 H       -1.5860     4.9890     1.5680 H     1 <1>   0.1500 
 25 H       -3.2650     3.3430     1.9440 H     1 <1>   0.0800 
 26 H       -2.8960     1.6940     1.4980 H     1 <1>   0.0800 
 27 H        0.4950     5.6990     0.5010 H     1 <1>   0.1500 
 28 H       -3.8280     2.1270    -0.6740 H     1 <1>   0.4500 
 29 H       -3.4810     4.4890    -0.8840 H     1 <1>   0.0800 
 30 H       -4.6320     4.7660     0.3890 H     1 <1>   0.0800 
 31 H       -5.6980     2.6840     1.5450 H     1 <1>   0.0800 
 32 H       -5.2090     1.1080     0.9960 H     1 <1>   0.0800 
 33 H       -5.2040     3.6810    -2.3700 H     1 <1>   0.0800 
 34 H       -5.7520     5.1780    -1.6850 H     1 <1>   0.0800 
 35 H       -7.4630     1.8300     0.1720 H     1 <1>   0.0800 
 36 H       -6.3690     1.4000    -1.1050 H     1 <1>   0.0800 
 37 H       -9.0030     3.9390    -2.1630 H     1 <1>   0.1500 
 38 H       -8.6990     6.2170     2.1970 H     1 <1>   0.1500 
 39 H      -10.8670     5.3300    -1.3700 H     1 <1>   0.1500 
 40 H      -10.7300     6.4740     0.8040 H     1 <1>   0.1500 
@<TRIPOS>BOND
  1   1   2  1   
  2   2   3  ar  
  3   2   4  ar  
  4   3   5  1   
  5   3   6  ar  
  6   4   7  ar  
  7   4   8  1   
  8   6   9  ar  
  9   6  23  1   
 10   7   9  ar  
 11   7  24  1   
 12   8  10  1   
 13   8  25  1   
 14   8  26  1   
 15   9  27  1   
 16  10  11  1   
 17  10  12  1   
 18  10  28  1   
 19  11  13  1   
 20  11  29  1   
 21  11  30  1   
 22  12  14  1   
 23  12  31  1   
 24  12  32  1   
 25  13  15  1   
 26  13  33  1   
 27  13  34  1   
 28  14  15  1   
 29  14  35  1   
 30  14  36  1   
 31  15  16  1   
 32  16  17  ar  
 33  16  18  ar  
 34  17  19  1   
 35  17  20  ar  
 36  18  21  ar  
 37  18  37  1   
 38  20  22  ar  
 39  20  38  1   
 40  21  22  ar  
 41  21  39  1   
 42  22  40  1   
@<TRIPOS>SUBSTRUCTURE
  1 ****  11 GROUP 4 **** **** 0

# MOE 2024.06 (io_trps.svl 2023.06)
