@<TRIPOS>MOLECULE
NONAME
50 51 1 0 0 
SMALL
USER_CHARGES


@<TRIPOS>ATOM
  1 O       -0.4020    -0.9300     0.3740 O.2   1 <1>  -0.5700 
  2 C        0.0750    -2.0350     0.5270 C.2   1 <1>   0.7800 
  3 O       -0.7140    -3.1070     0.5660 O.3   1 <1>  -0.4300 
  4 N        1.4270    -2.2350     0.6340 N.am  1 <1>  -0.6600 
  5 C       -2.1150    -2.9750     0.4740 C.3   1 <1>   0.1200 
  6 C        2.0570    -3.5890     0.6490 C.3   1 <1>   0.1400 
  7 C        2.3880    -1.0960     0.5770 C.3   1 <1>   0.1400 
  8 C       -2.7280    -4.3700     0.5480 C.3   1 <1>  -0.2400 
  9 C        3.0260    -3.7410    -0.5400 C.3   1 <1>   0.3430 
 10 C        3.3430    -1.2640    -0.6190 C.3   1 <1>   0.3430 
 11 N        4.0180    -2.6110    -0.6150 N.4   1 <1>  -0.9590 
 12 C        4.9400    -2.7750    -1.7540 C.3   1 <1>   0.4810 
 13 C        6.3220    -2.4850    -1.2100 C.2   1 <1>  -0.2760 
 14 C        7.1550    -3.4560    -0.8170 C.2   1 <1>  -0.2880 
 15 C        6.7110    -1.0080    -1.1580 C.3   1 <1>  -0.0220 
 16 C        8.5510    -3.2160    -0.2560 C.3   1 <1>  -0.0220 
 17 C        8.2280    -0.8320    -0.9980 C.3   1 <1>  -0.1600 
 18 C        8.7880    -1.7400     0.1090 C.3   1 <1>   0.0580 
 19 C       10.2720    -1.4850     0.3990 C.2   1 <1>  -0.2760 
 20 C       11.1180    -0.8310    -0.4060 C.2   1 <1>  -0.3000 
 21 C       10.7440    -2.0460     1.7340 C.3   1 <1>  -0.1020 
 22 H       -2.3550    -2.4960    -0.4610 H     1 <1>   0.0800 
 23 H       -2.4560    -2.3610     1.2910 H     1 <1>   0.0800 
 24 H        1.3090    -4.3610     0.5940 H     1 <1>   0.0800 
 25 H        2.5900    -3.7210     1.5750 H     1 <1>   0.0800 
 26 H        2.9500    -1.0570     1.4940 H     1 <1>   0.0800 
 27 H        1.8640    -0.1600     0.4800 H     1 <1>   0.0800 
 28 H       -2.3750    -4.9760    -0.2680 H     1 <1>   0.0800 
 29 H       -3.7980    -4.2980     0.4810 H     1 <1>   0.0800 
 30 H       -2.4760    -4.8380     1.4820 H     1 <1>   0.0800 
 31 H        2.4430    -3.7700    -1.4470 H     1 <1>   0.0800 
 32 H        3.5460    -4.6800    -0.4510 H     1 <1>   0.0800 
 33 H        4.0810    -0.4790    -0.5910 H     1 <1>   0.0800 
 34 H        2.7710    -1.1470    -1.5250 H     1 <1>   0.0800 
 35 H        4.6280    -2.6650     0.2120 H     1 <1>   0.4500 
 36 H        4.6910    -2.1200    -2.5730 H     1 <1>   0.0800 
 37 H        4.9140    -3.7940    -2.1040 H     1 <1>   0.0800 
 38 H        6.9180    -4.5060    -0.8700 H     1 <1>   0.1500 
 39 H        6.2180    -0.5310    -0.3290 H     1 <1>   0.0800 
 40 H        6.4100    -0.5090    -2.0640 H     1 <1>   0.0800 
 41 H        9.2780    -3.5220    -0.9890 H     1 <1>   0.0800 
 42 H        8.6920    -3.8230     0.6210 H     1 <1>   0.0800 
 43 H        8.4470     0.1970    -0.7700 H     1 <1>   0.0800 
 44 H        8.7070    -1.0780    -1.9300 H     1 <1>   0.0800 
 45 H        8.2350    -1.5200     1.0060 H     1 <1>   0.0800 
 46 H       12.1560    -0.6640    -0.1730 H     1 <1>   0.1500 
 47 H       10.8680    -0.4060    -1.3610 H     1 <1>   0.1500 
 48 H       10.6570    -3.1170     1.7510 H     1 <1>   0.0800 
 49 H       10.1620    -1.6340     2.5390 H     1 <1>   0.0800 
 50 H       11.7750    -1.7950     1.9060 H     1 <1>   0.0800 
@<TRIPOS>BOND
  1   1   2  2   
  2   2   3  1   
  3   2   4  am  
  4   3   5  1   
  5   4   6  1   
  6   4   7  1   
  7   5   8  1   
  8   5  22  1   
  9   5  23  1   
 10   6   9  1   
 11   6  24  1   
 12   6  25  1   
 13   7  10  1   
 14   7  26  1   
 15   7  27  1   
 16   8  28  1   
 17   8  29  1   
 18   8  30  1   
 19   9  11  1   
 20   9  31  1   
 21   9  32  1   
 22  10  11  1   
 23  10  33  1   
 24  10  34  1   
 25  11  12  1   
 26  11  35  1   
 27  12  13  1   
 28  12  36  1   
 29  12  37  1   
 30  13  14  2   
 31  13  15  1   
 32  14  16  1   
 33  14  38  1   
 34  15  17  1   
 35  15  39  1   
 36  15  40  1   
 37  16  18  1   
 38  16  41  1   
 39  16  42  1   
 40  17  18  1   
 41  17  43  1   
 42  17  44  1   
 43  18  19  1   
 44  18  45  1   
 45  19  20  2   
 46  19  21  1   
 47  20  46  1   
 48  20  47  1   
 49  21  48  1   
 50  21  49  1   
 51  21  50  1   
@<TRIPOS>SUBSTRUCTURE
  1 ****  11 GROUP 4 **** **** 0

# MOE 2024.06 (io_trps.svl 2023.06)
