@<TRIPOS>MOLECULE
NONAME
39 40 1 0 0 
SMALL
USER_CHARGES


@<TRIPOS>ATOM
  1 CL      -1.6490     0.1290    -2.6470 Cl    1 <1>  -0.1770 
  2 C       -2.3570     0.9430    -1.2740 C.ar  1 <1>   0.1770 
  3 C       -1.7070     1.9990    -0.6570 C.ar  1 <1>   0.1770 
  4 C       -3.5900     0.5130    -0.8150 C.ar  1 <1>  -0.1500 
  5 CL      -0.1530     2.5540    -1.2300 Cl    1 <1>  -0.1770 
  6 C       -2.2870     2.6310     0.4270 C.ar  1 <1>  -0.1500 
  7 C       -4.1840     1.1490     0.2690 C.ar  1 <1>  -0.1440 
  8 C       -3.5230     2.2050     0.8890 C.ar  1 <1>  -0.1500 
  9 C       -5.5430     0.6920     0.7760 C.3   1 <1>   0.4870 
 10 N       -6.5910     1.1320    -0.1860 N.4   1 <1>  -0.9590 
 11 C       -6.6660     2.6390    -0.2760 C.3   1 <1>   0.3430 
 12 C       -7.9310     0.5260     0.1490 C.3   1 <1>   0.3430 
 13 C       -7.7610     3.1080    -1.2500 C.3   1 <1>   0.1400 
 14 C       -9.0430     0.9870    -0.8150 C.3   1 <1>   0.1400 
 15 N       -9.0660     2.4760    -0.8990 N.am  1 <1>  -0.6600 
 16 C      -10.1500     3.2330    -0.5370 C.2   1 <1>   0.7800 
 17 O      -10.0940     4.4430    -0.4650 O.2   1 <1>  -0.5700 
 18 O      -11.2770     2.5940    -0.2300 O.3   1 <1>  -0.4300 
 19 C      -12.4360     3.3090     0.1380 C.3   1 <1>   0.1200 
 20 C      -13.5440     2.3000     0.4250 C.3   1 <1>  -0.2400 
 21 H       -4.0580    -0.3180    -1.3150 H     1 <1>   0.1500 
 22 H       -1.7680     3.4470     0.9020 H     1 <1>   0.1500 
 23 H       -3.9550     2.7070     1.7400 H     1 <1>   0.1500 
 24 H       -5.7330     1.1110     1.7510 H     1 <1>   0.0800 
 25 H       -5.5450    -0.3830     0.8610 H     1 <1>   0.0800 
 26 H       -6.3100     0.7930    -1.1150 H     1 <1>   0.4500 
 27 H       -5.7180     3.0370    -0.6010 H     1 <1>   0.0800 
 28 H       -6.8800     3.0520     0.6960 H     1 <1>   0.0800 
 29 H       -8.2170     0.8120     1.1490 H     1 <1>   0.0800 
 30 H       -7.8680    -0.5500     0.1200 H     1 <1>   0.0800 
 31 H       -7.4970     2.8440    -2.2590 H     1 <1>   0.0800 
 32 H       -7.8340     4.1820    -1.2070 H     1 <1>   0.0800 
 33 H       -9.9880     0.6070    -0.4680 H     1 <1>   0.0800 
 34 H       -8.8720     0.5790    -1.7960 H     1 <1>   0.0800 
 35 H      -12.7080     3.9600    -0.6760 H     1 <1>   0.0800 
 36 H      -12.2130     3.8980     1.0120 H     1 <1>   0.0800 
 37 H      -13.7510     1.7160    -0.4530 H     1 <1>   0.0800 
 38 H      -14.4410     2.8210     0.7070 H     1 <1>   0.0800 
 39 H      -13.2570     1.6520     1.2330 H     1 <1>   0.0800 
@<TRIPOS>BOND
  1   1   2  1   
  2   2   3  ar  
  3   2   4  ar  
  4   3   5  1   
  5   3   6  ar  
  6   4   7  ar  
  7   4  21  1   
  8   6   8  ar  
  9   6  22  1   
 10   7   8  ar  
 11   7   9  1   
 12   8  23  1   
 13   9  10  1   
 14   9  24  1   
 15   9  25  1   
 16  10  11  1   
 17  10  12  1   
 18  10  26  1   
 19  11  13  1   
 20  11  27  1   
 21  11  28  1   
 22  12  14  1   
 23  12  29  1   
 24  12  30  1   
 25  13  15  1   
 26  13  31  1   
 27  13  32  1   
 28  14  15  1   
 29  14  33  1   
 30  14  34  1   
 31  15  16  am  
 32  16  17  2   
 33  16  18  1   
 34  18  19  1   
 35  19  20  1   
 36  19  35  1   
 37  19  36  1   
 38  20  37  1   
 39  20  38  1   
 40  20  39  1   
@<TRIPOS>SUBSTRUCTURE
  1 ****  11 GROUP 4 **** **** 0

# MOE 2024.06 (io_trps.svl 2023.06)
