@<TRIPOS>MOLECULE
NONAME
29 30 1 0 0 
SMALL
USER_CHARGES


@<TRIPOS>ATOM
  1 CL      -1.7010     0.4460    -2.8320 Cl    1 <1>  -0.1770 
  2 C       -2.3200     1.0820    -1.3320 C.ar  1 <1>   0.1770 
  3 C       -3.4660     0.5310    -0.7910 C.ar  1 <1>  -0.1500 
  4 C       -1.6590     2.1230    -0.7100 C.ar  1 <1>  -0.1500 
  5 C       -3.9730     1.0350     0.4010 C.ar  1 <1>  -0.1440 
  6 C       -2.1580     2.6210     0.4820 C.ar  1 <1>  -0.1500 
  7 C       -3.3080     2.0780     1.0340 C.ar  1 <1>  -0.1500 
  8 C       -5.2390     0.4560     1.0030 C.3   1 <1>   0.4870 
  9 N       -6.4030     0.8650     0.1700 N.4   1 <1>  -0.9590 
 10 C       -6.5300     2.3640     0.0550 C.3   1 <1>   0.3430 
 11 C       -7.6820     0.2010     0.5830 C.3   1 <1>   0.3430 
 12 C       -7.8150     2.8180    -0.6650 C.3   1 <1>   0.0700 
 13 C       -8.6720     0.1130    -0.5940 C.3   1 <1>   0.0700 
 14 S       -8.4180     1.4940    -1.7560 S.3   1 <1>  -0.4600 
 15 H       -3.9370    -0.2840    -1.3120 H     1 <1>   0.1500 
 16 H       -0.7680     2.5330    -1.1520 H     1 <1>   0.1500 
 17 H       -1.6460     3.4300     0.9780 H     1 <1>   0.1500 
 18 H       -3.6690     2.4820     1.9650 H     1 <1>   0.1500 
 19 H       -5.3610     0.8120     2.0130 H     1 <1>   0.0800 
 20 H       -5.1610    -0.6190     1.0280 H     1 <1>   0.0800 
 21 H       -6.2170     0.5490    -0.7940 H     1 <1>   0.4500 
 22 H       -5.6840     2.7430    -0.4970 H     1 <1>   0.0800 
 23 H       -6.5040     2.8150     1.0330 H     1 <1>   0.0800 
 24 H       -8.1330     0.7590     1.3870 H     1 <1>   0.0800 
 25 H       -7.4880    -0.7970     0.9420 H     1 <1>   0.0800 
 26 H       -7.6380     3.6880    -1.2730 H     1 <1>   0.0800 
 27 H       -8.6010     3.0310     0.0370 H     1 <1>   0.0800 
 28 H       -9.6910     0.1590    -0.2490 H     1 <1>   0.0800 
 29 H       -8.5320    -0.7940    -1.1560 H     1 <1>   0.0800 
@<TRIPOS>BOND
  1   1   2  1   
  2   2   3  ar  
  3   2   4  ar  
  4   3   5  ar  
  5   3  15  1   
  6   4   6  ar  
  7   4  16  1   
  8   5   7  ar  
  9   5   8  1   
 10   6   7  ar  
 11   6  17  1   
 12   7  18  1   
 13   8   9  1   
 14   8  19  1   
 15   8  20  1   
 16   9  10  1   
 17   9  11  1   
 18   9  21  1   
 19  10  12  1   
 20  10  22  1   
 21  10  23  1   
 22  11  13  1   
 23  11  24  1   
 24  11  25  1   
 25  12  14  1   
 26  12  26  1   
 27  12  27  1   
 28  13  14  1   
 29  13  28  1   
 30  13  29  1   
@<TRIPOS>SUBSTRUCTURE
  1 ****   5 GROUP 4 **** **** 0

# MOE 2024.06 (io_trps.svl 2023.06)
