@<TRIPOS>MOLECULE
NONAME
52 54 1 0 0 
SMALL
USER_CHARGES


@<TRIPOS>ATOM
  1 O        1.4150     0.9010     1.1140 O.3   1 <1>  -0.1800 
  2 N        0.8100     2.1150     0.8520 N.3   1 <1>  -0.6400 
  3 C        1.9380     0.3170    -0.0400 C.3   1 <1>   0.5600 
  4 C        1.4460     2.6600    -0.3740 C.3   1 <1>   0.5260 
  5 C       -0.6150     1.8790     0.6010 C.3   1 <1>   0.1900 
  6 O        0.9280    -0.4610    -0.5830 O.3   1 <1>  -0.6800 
  7 C        3.1410    -0.6010     0.3120 C.3   1 <1>  -0.0800 
  8 C        2.2140     1.4720    -0.9820 C.3   1 <1>  -0.1600 
  9 N        0.2810     3.0750    -1.2170 N.4   1 <1>  -0.1220 
 10 C        2.3870     3.8980    -0.0430 C.3   1 <1>   0.2800 
 11 C       -0.8430     2.2010    -0.8770 C.3   1 <1>   0.1760 
 12 C       -1.4470     2.7740     1.5270 C.3   1 <1>  -0.1600 
 13 C        4.2520     0.1160     1.1070 C.3   1 <1>  -0.2400 
 14 C        3.7700    -1.2830    -0.9210 C.3   1 <1>  -0.2400 
 15 O        0.4910     3.0840    -2.5750 O.2   1 <1>  -0.7500 
 16 O        3.4690     3.4210     0.7370 O.3   1 <1>  -0.5600 
 17 C        2.9890     4.5330    -1.3150 C.3   1 <1>  -0.2400 
 18 C        1.6280     4.9880     0.7500 C.3   1 <1>  -0.2400 
 19 C       -2.1920     2.8790    -1.1850 C.3   1 <1>  -0.1600 
 20 C       -2.9560     2.6500     1.2380 C.3   1 <1>  -0.1600 
 21 C        4.3480     4.2970     1.3840 C.3   1 <1>   0.0400 
 22 C       -3.2860     2.3630    -0.2400 C.3   1 <1>  -0.1600 
 23 H       -0.8770     0.8510     0.7910 H     1 <1>   0.0800 
 24 H        1.2530    -0.8340    -1.4200 H     1 <1>   0.4000 
 25 H        2.7530    -1.3770     0.9500 H     1 <1>   0.0800 
 26 H        1.9310     1.2430    -1.9910 H     1 <1>   0.0800 
 27 H        3.2630     1.6790    -0.9980 H     1 <1>   0.0800 
 28 H        0.0450     4.0240    -0.9250 H     1 <1>   0.3600 
 29 H       -0.7460     1.2880    -1.4360 H     1 <1>   0.0800 
 30 H       -1.1490     3.7970     1.3880 H     1 <1>   0.0800 
 31 H       -1.2530     2.5080     2.5520 H     1 <1>   0.0800 
 32 H        4.7370     0.8700     0.5140 H     1 <1>   0.0800 
 33 H        4.9950    -0.5910     1.4300 H     1 <1>   0.0800 
 34 H        3.8420     0.5900     1.9830 H     1 <1>   0.0800 
 35 H        4.1760    -0.5540    -1.6000 H     1 <1>   0.0800 
 36 H        3.0430    -1.8780    -1.4430 H     1 <1>   0.0800 
 37 H        4.5680    -1.9360    -0.6130 H     1 <1>   0.0800 
 38 H        2.2090     4.8660    -1.9740 H     1 <1>   0.0800 
 39 H        3.5870     3.8200    -1.8500 H     1 <1>   0.0800 
 40 H        3.5900     5.3910    -1.0830 H     1 <1>   0.0800 
 41 H        0.7540     5.3120     0.2180 H     1 <1>   0.0800 
 42 H        2.2400     5.8580     0.9010 H     1 <1>   0.0800 
 43 H        1.3210     4.6040     1.7070 H     1 <1>   0.0800 
 44 H       -2.4570     2.6720    -2.2070 H     1 <1>   0.0800 
 45 H       -2.1120     3.9460    -1.0710 H     1 <1>   0.0800 
 46 H       -3.4370     3.5650     1.5420 H     1 <1>   0.0800 
 47 H       -3.3700     1.8580     1.8390 H     1 <1>   0.0800 
 48 H        3.8290     4.8080     2.1740 H     1 <1>   0.0800 
 49 H        4.7650     4.9940     0.6820 H     1 <1>   0.0800 
 50 H        5.1400     3.7080     1.8110 H     1 <1>   0.0800 
 51 H       -3.3840     1.2990    -0.3790 H     1 <1>   0.0800 
 52 H       -4.2320     2.8090    -0.4940 H     1 <1>   0.0800 
@<TRIPOS>BOND
  1   1   2  1   
  2   1   3  1   
  3   2   4  1   
  4   2   5  1   
  5   3   6  1   
  6   3   7  1   
  7   3   8  1   
  8   4   8  1   
  9   4   9  1   
 10   4  10  1   
 11   5  11  1   
 12   5  12  1   
 13   5  23  1   
 14   6  24  1   
 15   7  13  1   
 16   7  14  1   
 17   7  25  1   
 18   8  26  1   
 19   8  27  1   
 20   9  11  1   
 21   9  15  2   
 22   9  28  1   
 23  10  16  1   
 24  10  17  1   
 25  10  18  1   
 26  11  19  1   
 27  11  29  1   
 28  12  20  1   
 29  12  30  1   
 30  12  31  1   
 31  13  32  1   
 32  13  33  1   
 33  13  34  1   
 34  14  35  1   
 35  14  36  1   
 36  14  37  1   
 37  16  21  1   
 38  17  38  1   
 39  17  39  1   
 40  17  40  1   
 41  18  41  1   
 42  18  42  1   
 43  18  43  1   
 44  19  22  1   
 45  19  44  1   
 46  19  45  1   
 47  20  22  1   
 48  20  46  1   
 49  20  47  1   
 50  21  48  1   
 51  21  49  1   
 52  21  50  1   
 53  22  51  1   
 54  22  52  1   
@<TRIPOS>SUBSTRUCTURE
  1 ****   4 GROUP 4 **** **** 0

# MOE 2024.06 (io_trps.svl 2023.06)
