@<TRIPOS>MOLECULE
NONAME
44 45 1 0 0 
SMALL
USER_CHARGES


@<TRIPOS>ATOM
  1 O       -1.3170    -0.6790     0.5160 O.2   1 <1>  -0.5700 
  2 C       -1.9750     0.2320     0.0520 C.2   1 <1>   0.6900 
  3 N       -3.1670     0.0110    -0.5850 N.am  1 <1>  -0.6600 
  4 N       -1.5060     1.5020     0.1440 N.am  1 <1>  -0.7300 
  5 C       -3.5180    -1.2700    -1.2650 C.3   1 <1>   0.2200 
  6 C       -4.2720     1.0180    -0.5190 C.3   1 <1>   0.3200 
  7 C       -0.2520     1.8690     0.8250 C.3   1 <1>   0.1400 
  8 C       -3.7600    -2.3950    -0.2560 C.3   1 <1>  -0.2400 
  9 C       -2.4410    -1.6460    -2.2820 C.3   1 <1>  -0.2400 
 10 C       -5.5090     0.4940     0.1960 C.2   1 <1>   0.2980 
 11 C       -0.3360     3.3300     1.2500 C.3   1 <1>  -0.2400 
 12 O       -5.4550     0.3140     1.4890 O.3   1 <1>  -0.0190 
 13 N       -6.6220     0.2110    -0.3490 N.2   1 <1>  -0.5650 
 14 N       -6.6340    -0.1260     1.7950 N.2   1 <1>  -0.4100 
 15 C       -7.3280    -0.1940     0.7140 C.2   1 <1>   0.4620 
 16 C       -8.7060    -0.6470     0.6180 C.ar  1 <1>   0.0540 
 17 C       -9.3920    -0.6690    -0.5990 C.ar  1 <1>  -0.1500 
 18 C       -9.4030    -1.0820     1.7470 C.ar  1 <1>  -0.1500 
 19 C      -10.7040    -1.1010    -0.6930 C.ar  1 <1>  -0.1440 
 20 C      -10.7130    -1.5150     1.6670 C.ar  1 <1>  -0.1500 
 21 C      -11.3650    -1.5240     0.4470 C.ar  1 <1>  -0.1500 
 22 C      -11.4240    -1.1120    -2.0290 C.3   1 <1>  -0.0970 
 23 H       -1.8330     2.1660    -0.5510 H     1 <1>   0.3700 
 24 H       -4.4350    -1.1240    -1.8130 H     1 <1>   0.0800 
 25 H       -4.5440     1.2970    -1.5210 H     1 <1>   0.0800 
 26 H       -3.9510     1.9050    -0.0040 H     1 <1>   0.0800 
 27 H        0.5770     1.7180     0.1540 H     1 <1>   0.0800 
 28 H       -0.1120     1.2390     1.6890 H     1 <1>   0.0800 
 29 H       -2.8550    -2.6500     0.2640 H     1 <1>   0.0800 
 30 H       -4.1060    -3.2730    -0.7700 H     1 <1>   0.0800 
 31 H       -4.5070    -2.1110     0.4610 H     1 <1>   0.0800 
 32 H       -1.5150    -1.8830    -1.7900 H     1 <1>   0.0800 
 33 H       -2.2810    -0.8360    -2.9700 H     1 <1>   0.0800 
 34 H       -2.7530    -2.5100    -2.8390 H     1 <1>   0.0800 
 35 H       -0.4500     3.9670     0.3920 H     1 <1>   0.0800 
 36 H        0.5670     3.6070     1.7620 H     1 <1>   0.0800 
 37 H       -1.1640     3.4730     1.9220 H     1 <1>   0.0800 
 38 H       -8.8830    -0.3390    -1.4870 H     1 <1>   0.1500 
 39 H       -8.9100    -1.0820     2.7040 H     1 <1>   0.1500 
 40 H      -11.2280    -1.8440     2.5530 H     1 <1>   0.1500 
 41 H      -12.3860    -1.8600     0.3900 H     1 <1>   0.1500 
 42 H      -10.7260    -1.0180    -2.8410 H     1 <1>   0.0800 
 43 H      -12.1180    -0.2920    -2.0750 H     1 <1>   0.0800 
 44 H      -11.9650    -2.0330    -2.1510 H     1 <1>   0.0800 
@<TRIPOS>BOND
  1   1   2  2   
  2   2   3  am  
  3   2   4  am  
  4   3   5  1   
  5   3   6  1   
  6   4   7  1   
  7   4  23  1   
  8   5   8  1   
  9   5   9  1   
 10   5  24  1   
 11   6  10  1   
 12   6  25  1   
 13   6  26  1   
 14   7  11  1   
 15   7  27  1   
 16   7  28  1   
 17   8  29  1   
 18   8  30  1   
 19   8  31  1   
 20   9  32  1   
 21   9  33  1   
 22   9  34  1   
 23  10  12  1   
 24  10  13  2   
 25  11  35  1   
 26  11  36  1   
 27  11  37  1   
 28  12  14  1   
 29  13  15  1   
 30  14  15  2   
 31  15  16  1   
 32  16  17  ar  
 33  16  18  ar  
 34  17  19  ar  
 35  17  38  1   
 36  18  20  ar  
 37  18  39  1   
 38  19  21  ar  
 39  19  22  1   
 40  20  21  ar  
 41  20  40  1   
 42  21  41  1   
 43  22  42  1   
 44  22  43  1   
 45  22  44  1   
@<TRIPOS>SUBSTRUCTURE
  1 ****  10 GROUP 4 **** **** 0

# MOE 2024.06 (io_trps.svl 2023.06)
