@<TRIPOS>MOLECULE
NONAME
53 57 1 0 0 
SMALL
USER_CHARGES


@<TRIPOS>ATOM
  1 F        0.8890    -1.0840     2.0570 F     1 <1>  -0.1900 
  2 C       -0.2220    -1.4480     1.4630 C.ar  1 <1>   0.1900 
  3 C       -0.1640    -2.1380     0.2460 C.ar  1 <1>   0.1000 
  4 C       -1.4100    -1.1230     2.0840 C.ar  1 <1>  -0.1500 
  5 N        1.0120    -2.4880    -0.4210 N.pl3 1 <1>  -0.8380 
  6 C       -1.3780    -2.4910    -0.3270 C.ar  1 <1>  -0.1500 
  7 C       -2.6170    -1.4850     1.4960 C.ar  1 <1>   0.0730 
  8 C        1.8910    -3.4850     0.2620 C.3   1 <1>   0.2090 
  9 C        1.7970    -1.3590    -1.0110 C.3   1 <1>   0.2090 
 10 C       -2.5800    -2.1720     0.2840 C.ar  1 <1>  -0.1500 
 11 C       -3.8660    -1.1590     2.1210 C.1   1 <1>   0.4840 
 12 C        2.9940    -3.9950    -0.6840 C.3   1 <1>   0.1400 
 13 C        2.8970    -1.8810    -1.9510 C.3   1 <1>   0.1400 
 14 N       -4.8580    -0.8990     2.6190 N.1   1 <1>  -0.5570 
 15 N        3.7950    -2.8570    -1.2430 N.am  1 <1>  -0.6600 
 16 C        5.1470    -2.5890    -1.1070 C.2   1 <1>   0.5690 
 17 O        5.5840    -1.5570    -1.5680 O.2   1 <1>  -0.5700 
 18 C        6.1660    -3.5280    -0.3910 C.3   1 <1>   0.0610 
 19 C        6.2300    -4.9310    -1.0580 C.3   1 <1>  -0.1600 
 20 C        7.6110    -2.9450    -0.4840 C.3   1 <1>  -0.1600 
 21 C        5.8570    -3.6610     1.1270 C.3   1 <1>  -0.1600 
 22 C        7.2360    -5.8480    -0.3380 C.3   1 <1>  -0.0800 
 23 C        8.6490    -3.8430     0.2140 C.3   1 <1>  -0.0800 
 24 C        6.8670    -4.5900     1.8250 C.3   1 <1>  -0.0800 
 25 C        8.6410    -5.2320    -0.4440 C.3   1 <1>  -0.1600 
 26 C        6.8430    -5.9730     1.1460 C.3   1 <1>  -0.1600 
 27 C        8.2750    -3.9850     1.6990 C.3   1 <1>  -0.1600 
 28 H       -1.3930    -0.5910     3.0190 H     1 <1>   0.1500 
 29 H       -1.3670    -3.0210    -1.2630 H     1 <1>   0.1500 
 30 H        1.2930    -4.3150     0.5930 H     1 <1>   0.0800 
 31 H        2.3480    -3.0340     1.1250 H     1 <1>   0.0800 
 32 H        2.2520    -0.7810    -0.2260 H     1 <1>   0.0800 
 33 H        1.1350    -0.7150    -1.5620 H     1 <1>   0.0800 
 34 H       -3.5030    -2.4620    -0.1890 H     1 <1>   0.1500 
 35 H        2.5300    -4.5250    -1.4970 H     1 <1>   0.0800 
 36 H        3.5990    -4.6940    -0.1510 H     1 <1>   0.0800 
 37 H        3.4520    -1.0420    -2.3330 H     1 <1>   0.0800 
 38 H        2.4370    -2.3710    -2.7900 H     1 <1>   0.0800 
 39 H        6.5220    -4.8180    -2.0880 H     1 <1>   0.0800 
 40 H        5.2770    -5.4160    -1.0620 H     1 <1>   0.0800 
 41 H        7.6360    -1.9660    -0.0360 H     1 <1>   0.0800 
 42 H        7.8860    -2.8250    -1.5180 H     1 <1>   0.0800 
 43 H        5.8950    -2.6850     1.5800 H     1 <1>   0.0800 
 44 H        4.8740    -4.0420     1.3020 H     1 <1>   0.0800 
 45 H        7.2340    -6.8210    -0.7990 H     1 <1>   0.0800 
 46 H        9.6280    -3.4040     0.1260 H     1 <1>   0.0800 
 47 H        6.6100    -4.6900     2.8660 H     1 <1>   0.0800 
 48 H        9.3590    -5.8710     0.0400 H     1 <1>   0.0800 
 49 H        8.9250    -5.1460    -1.4790 H     1 <1>   0.0800 
 50 H        7.5310    -6.6320     1.6470 H     1 <1>   0.0800 
 51 H        5.8610    -6.4040     1.2300 H     1 <1>   0.0800 
 52 H        8.3030    -3.0200     2.1760 H     1 <1>   0.0800 
 53 H        8.9910    -4.6160     2.1970 H     1 <1>   0.0800 
@<TRIPOS>BOND
  1   1   2  1   
  2   2   3  ar  
  3   2   4  ar  
  4   3   5  1   
  5   3   6  ar  
  6   4   7  ar  
  7   4  28  1   
  8   5   8  1   
  9   5   9  1   
 10   6  10  ar  
 11   6  29  1   
 12   7  10  ar  
 13   7  11  1   
 14   8  12  1   
 15   8  30  1   
 16   8  31  1   
 17   9  13  1   
 18   9  32  1   
 19   9  33  1   
 20  10  34  1   
 21  11  14  3   
 22  12  15  1   
 23  12  35  1   
 24  12  36  1   
 25  13  15  1   
 26  13  37  1   
 27  13  38  1   
 28  15  16  am  
 29  16  17  2   
 30  16  18  1   
 31  18  19  1   
 32  18  20  1   
 33  18  21  1   
 34  19  22  1   
 35  19  39  1   
 36  19  40  1   
 37  20  23  1   
 38  20  41  1   
 39  20  42  1   
 40  21  24  1   
 41  21  43  1   
 42  21  44  1   
 43  22  25  1   
 44  22  26  1   
 45  22  45  1   
 46  23  25  1   
 47  23  27  1   
 48  23  46  1   
 49  24  26  1   
 50  24  27  1   
 51  24  47  1   
 52  25  48  1   
 53  25  49  1   
 54  26  50  1   
 55  26  51  1   
 56  27  52  1   
 57  27  53  1   
@<TRIPOS>SUBSTRUCTURE
  1 ****   8 GROUP 4 **** **** 0

# MOE 2024.06 (io_trps.svl 2023.06)
