@<TRIPOS>MOLECULE
NONAME
28 29 1 0 0 
SMALL
USER_CHARGES


@<TRIPOS>ATOM
  1 O        0.2200    -1.5720    -2.3540 O.2   1 <1>  -0.5700 
  2 C        0.1660    -2.0990    -1.2570 C.2   1 <1>   0.5440 
  3 N        1.3330    -2.4780    -0.6440 N.am  1 <1>  -0.6600 
  4 C       -1.1220    -2.3600    -0.6430 C.ar  1 <1>   0.0860 
  5 C        2.5290    -1.5760    -0.5960 C.3   1 <1>   0.1140 
  6 C        1.4660    -3.5340     0.3800 C.3   1 <1>   0.1400 
  7 C       -2.1200    -3.0510    -1.3280 C.ar  1 <1>  -0.1500 
  8 C       -1.4100    -1.9220     0.6490 C.ar  1 <1>  -0.1500 
  9 C        2.4150    -0.3720     0.3790 C.2   1 <1>   0.9060 
 10 C        3.6300    -2.5410    -0.1540 C.3   1 <1>  -0.1600 
 11 C        2.9310    -3.4920     0.8190 C.3   1 <1>  -0.1600 
 12 C       -3.3470    -3.3120    -0.7430 C.ar  1 <1>  -0.1500 
 13 C       -2.6340    -2.1790     1.2410 C.ar  1 <1>  -0.1500 
 14 O        1.6730    -0.4310     1.3760 O.co2 1 <1>  -0.9000 
 15 O        3.1250     0.6220     0.1710 O.co2 1 <1>  -0.9000 
 16 C       -3.6050    -2.8780     0.5450 C.ar  1 <1>  -0.1500 
 17 H        2.7360    -1.1850    -1.5750 H     1 <1>   0.0800 
 18 H        0.8210    -3.3290     1.2160 H     1 <1>   0.0800 
 19 H        1.2180    -4.4870    -0.0540 H     1 <1>   0.0800 
 20 H       -1.9180    -3.3800    -2.3320 H     1 <1>   0.1500 
 21 H       -0.6550    -1.3670     1.1860 H     1 <1>   0.1500 
 22 H        3.9820    -3.0800    -1.0150 H     1 <1>   0.0800 
 23 H        4.4550    -2.0190     0.3000 H     1 <1>   0.0800 
 24 H        2.9760    -3.0810     1.8130 H     1 <1>   0.0800 
 25 H        3.3760    -4.4700     0.8230 H     1 <1>   0.0800 
 26 H       -4.1010    -3.8500    -1.2910 H     1 <1>   0.1500 
 27 H       -2.8240    -1.8290     2.2400 H     1 <1>   0.1500 
 28 H       -4.5570    -3.0780     1.0040 H     1 <1>   0.1500 
@<TRIPOS>BOND
  1   1   2  2   
  2   2   3  am  
  3   2   4  1   
  4   3   5  1   
  5   3   6  1   
  6   4   7  ar  
  7   4   8  ar  
  8   5   9  1   
  9   5  10  1   
 10   5  17  1   
 11   6  11  1   
 12   6  18  1   
 13   6  19  1   
 14   7  12  ar  
 15   7  20  1   
 16   8  13  ar  
 17   8  21  1   
 18   9  14  ar  
 19   9  15  ar  
 20  10  11  1   
 21  10  22  1   
 22  10  23  1   
 23  11  24  1   
 24  11  25  1   
 25  12  16  ar  
 26  12  26  1   
 27  13  16  ar  
 28  13  27  1   
 29  16  28  1   
@<TRIPOS>SUBSTRUCTURE
  1 ****   2 GROUP 4 **** **** 0

# MOE 2024.06 (io_trps.svl 2023.06)
