@<TRIPOS>MOLECULE
NONAME
44 45 1 0 0 
SMALL
USER_CHARGES


@<TRIPOS>ATOM
  1 S        0.3570     0.1310    -0.0600 S.3   1 <1>  -0.0800 
  2 C        1.3590    -1.2690    -0.3000 C.2   1 <1>   0.4420 
  3 C       -1.0150    -0.9170    -0.1700 C.2   1 <1>   0.1980 
  4 N        0.6660    -2.3380    -0.4360 N.2   1 <1>  -0.3380 
  5 N        2.7310    -1.1900    -0.3340 N.am  1 <1>  -0.4940 
  6 N       -0.6840    -2.1320    -0.3610 N.2   1 <1>  -0.3380 
  7 C       -2.3800    -0.2610    -0.0280 C.3   1 <1>   0.3000 
  8 C        3.5860    -0.1460    -0.2070 C.2   1 <1>   0.7800 
  9 O       -3.4140    -1.2170    -0.1340 O.3   1 <1>  -0.3630 
 10 O        3.2470     1.0040    -0.0280 O.2   1 <1>  -0.5700 
 11 O        4.8730    -0.4630    -0.2950 O.3   1 <1>  -0.4300 
 12 C       -4.7240    -0.8670    -0.0380 C.ar  1 <1>   0.0830 
 13 C        5.8740     0.5280    -0.1750 C.3   1 <1>   0.1200 
 14 C       -5.6670    -1.8830    -0.1540 C.ar  1 <1>  -0.1440 
 15 C       -5.1480     0.4440     0.1680 C.ar  1 <1>  -0.1500 
 16 C        7.2600    -0.1250    -0.2910 C.3   1 <1>  -0.0800 
 17 C       -7.0160    -1.5800    -0.0620 C.ar  1 <1>  -0.1500 
 18 C       -5.2280    -3.3240    -0.3800 C.3   1 <1>  -0.0970 
 19 C       -6.4980     0.7320     0.2570 C.ar  1 <1>  -0.1500 
 20 C        7.4970    -1.1650     0.8140 C.3   1 <1>  -0.2400 
 21 C        8.3540     0.9490    -0.2320 C.3   1 <1>  -0.2400 
 22 C       -7.4380    -0.2770     0.1440 C.ar  1 <1>  -0.1430 
 23 C       -8.9200     0.0380     0.2400 C.3   1 <1>  -0.0970 
 24 H        3.1980    -2.0780    -0.4800 H     1 <1>   0.3700 
 25 H       -2.5150     0.4650    -0.8090 H     1 <1>   0.0800 
 26 H       -2.4570     0.2090     0.9350 H     1 <1>   0.0800 
 27 H        5.7600     1.0120     0.7810 H     1 <1>   0.0800 
 28 H        5.7270     1.2510    -0.9590 H     1 <1>   0.0800 
 29 H       -4.4530     1.2550     0.2610 H     1 <1>   0.1500 
 30 H        7.3230    -0.6120    -1.2500 H     1 <1>   0.0800 
 31 H       -7.7460    -2.3640    -0.1530 H     1 <1>   0.1500 
 32 H       -4.6640    -3.3920    -1.2930 H     1 <1>   0.0800 
 33 H       -6.0730    -3.9840    -0.4480 H     1 <1>   0.0800 
 34 H       -4.6040    -3.6450     0.4340 H     1 <1>   0.0800 
 35 H       -6.8150     1.7480     0.4150 H     1 <1>   0.1500 
 36 H        7.4210    -0.7090     1.7860 H     1 <1>   0.0800 
 37 H        8.4750    -1.6010     0.7140 H     1 <1>   0.0800 
 38 H        6.7700    -1.9550     0.7490 H     1 <1>   0.0800 
 39 H        8.3290     1.4650     0.7120 H     1 <1>   0.0800 
 40 H        8.2170     1.6670    -1.0210 H     1 <1>   0.0800 
 41 H        9.3250     0.5000    -0.3510 H     1 <1>   0.0800 
 42 H       -9.4450    -0.7730     0.7130 H     1 <1>   0.0800 
 43 H       -9.3250     0.1870    -0.7450 H     1 <1>   0.0800 
 44 H       -9.0810     0.9290     0.8210 H     1 <1>   0.0800 
@<TRIPOS>BOND
  1   1   2  1   
  2   1   3  1   
  3   2   4  2   
  4   2   5  1   
  5   3   6  2   
  6   3   7  1   
  7   4   6  1   
  8   5   8  am  
  9   5  24  1   
 10   7   9  1   
 11   7  25  1   
 12   7  26  1   
 13   8  10  2   
 14   8  11  1   
 15   9  12  1   
 16  11  13  1   
 17  12  14  ar  
 18  12  15  ar  
 19  13  16  1   
 20  13  27  1   
 21  13  28  1   
 22  14  17  ar  
 23  14  18  1   
 24  15  19  ar  
 25  15  29  1   
 26  16  20  1   
 27  16  21  1   
 28  16  30  1   
 29  17  22  ar  
 30  17  31  1   
 31  18  32  1   
 32  18  33  1   
 33  18  34  1   
 34  19  22  ar  
 35  19  35  1   
 36  20  36  1   
 37  20  37  1   
 38  20  38  1   
 39  21  39  1   
 40  21  40  1   
 41  21  41  1   
 42  22  23  1   
 43  23  42  1   
 44  23  43  1   
 45  23  44  1   
@<TRIPOS>SUBSTRUCTURE
  1 ****   3 GROUP 4 **** **** 0

# MOE 2024.06 (io_trps.svl 2023.06)
