@<TRIPOS>MOLECULE
NONAME
45 47 1 0 0 
SMALL
USER_CHARGES


@<TRIPOS>ATOM
  1 O        0.7230    -1.5890     1.6090 O.2   1 <1>  -0.5700 
  2 C        0.5000    -2.4030     0.7380 C.2   1 <1>   0.6900 
  3 N        1.3760    -3.4430     0.5160 N.am  1 <1>  -0.1800 
  4 N       -0.6080    -2.2590    -0.0770 N.am  1 <1>  -0.4200 
  5 C        1.1590    -4.3020    -0.5310 C.2   1 <1>   0.5690 
  6 C        2.4570    -3.6330     1.3480 C.2   1 <1>   0.5440 
  7 C       -0.9620    -3.2240    -0.9990 C.2   1 <1>   0.5690 
  8 C       -1.4130    -1.0020     0.0250 C.3   1 <1>   0.0600 
  9 O        2.0850    -4.7680    -1.1530 O.2   1 <1>  -0.5700 
 10 C       -0.2980    -4.6090    -0.9150 C.3   1 <1>   0.2600 
 11 O        2.3960    -4.5290     2.1640 O.2   1 <1>  -0.5700 
 12 C        3.6210    -2.7700     1.2570 C.ar  1 <1>   0.0860 
 13 O       -1.7930    -3.0030    -1.8480 O.2   1 <1>  -0.5700 
 14 C       -0.9880    -5.4730     0.1690 C.2   1 <1>  -0.2760 
 15 C       -0.3740    -5.3770    -2.2600 C.3   1 <1>  -0.2400 
 16 C        4.0420    -2.2100     0.0470 C.ar  1 <1>  -0.1500 
 17 C        4.3700    -2.4690     2.3950 C.ar  1 <1>  -0.1500 
 18 C       -0.3240    -6.2190     1.0650 C.2   1 <1>  -0.2880 
 19 C       -2.5220    -5.4270     0.1600 C.3   1 <1>  -0.0220 
 20 C        5.1480    -1.3810    -0.0170 C.ar  1 <1>  -0.1500 
 21 C        5.4770    -1.6420     2.3370 C.ar  1 <1>  -0.1500 
 22 C       -0.9680    -7.0470     2.1630 C.3   1 <1>  -0.0220 
 23 C       -3.1440    -6.5620     0.9840 C.3   1 <1>  -0.1600 
 24 C        5.8670    -1.0930     1.1290 C.ar  1 <1>  -0.1500 
 25 C       -2.4490    -6.6950     2.3430 C.3   1 <1>  -0.1600 
 26 H       -1.5830    -0.7560     1.0590 H     1 <1>   0.0800 
 27 H       -2.3690    -1.1140    -0.4570 H     1 <1>   0.0800 
 28 H       -0.8780    -0.1940    -0.4430 H     1 <1>   0.0800 
 29 H        0.1190    -4.8200    -3.0370 H     1 <1>   0.0800 
 30 H       -1.3940    -5.5390    -2.5580 H     1 <1>   0.0800 
 31 H        0.1080    -6.3340    -2.1640 H     1 <1>   0.0800 
 32 H        3.5100    -2.4300    -0.8610 H     1 <1>   0.1500 
 33 H        4.0740    -2.8920     3.3400 H     1 <1>   0.1500 
 34 H        0.7510    -6.3130     1.0960 H     1 <1>   0.1500 
 35 H       -2.9010    -5.5000    -0.8450 H     1 <1>   0.0800 
 36 H       -2.8500    -4.4860     0.5660 H     1 <1>   0.0800 
 37 H        5.4530    -0.9600    -0.9600 H     1 <1>   0.1500 
 38 H        6.0340    -1.4240     3.2320 H     1 <1>   0.1500 
 39 H       -0.4500    -6.8780     3.0920 H     1 <1>   0.0800 
 40 H       -0.8690    -8.0890     1.9130 H     1 <1>   0.0800 
 41 H       -3.0420    -7.4880     0.4440 H     1 <1>   0.0800 
 42 H       -4.1940    -6.3730     1.1240 H     1 <1>   0.0800 
 43 H        6.7270    -0.4480     1.0810 H     1 <1>   0.1500 
 44 H       -2.5270    -5.7610     2.8730 H     1 <1>   0.0800 
 45 H       -2.9310    -7.4540     2.9340 H     1 <1>   0.0800 
@<TRIPOS>BOND
  1   1   2  2   
  2   2   3  am  
  3   2   4  am  
  4   3   5  am  
  5   3   6  am  
  6   4   7  am  
  7   4   8  1   
  8   5   9  2   
  9   5  10  1   
 10   6  11  2   
 11   6  12  1   
 12   7  10  1   
 13   7  13  2   
 14   8  26  1   
 15   8  27  1   
 16   8  28  1   
 17  10  14  1   
 18  10  15  1   
 19  12  16  ar  
 20  12  17  ar  
 21  14  18  2   
 22  14  19  1   
 23  15  29  1   
 24  15  30  1   
 25  15  31  1   
 26  16  20  ar  
 27  16  32  1   
 28  17  21  ar  
 29  17  33  1   
 30  18  22  1   
 31  18  34  1   
 32  19  23  1   
 33  19  35  1   
 34  19  36  1   
 35  20  24  ar  
 36  20  37  1   
 37  21  24  ar  
 38  21  38  1   
 39  22  25  1   
 40  22  39  1   
 41  22  40  1   
 42  23  25  1   
 43  23  41  1   
 44  23  42  1   
 45  24  43  1   
 46  25  44  1   
 47  25  45  1   
@<TRIPOS>SUBSTRUCTURE
  1 ****   3 GROUP 4 **** **** 0

# MOE 2024.06 (io_trps.svl 2023.06)
