@<TRIPOS>MOLECULE
NONAME
45 47 1 0 0 
SMALL
USER_CHARGES


@<TRIPOS>ATOM
  1 O        0.2250    -1.3290    -2.3830 O.2   1 <1>  -0.5700 
  2 C        0.2360    -2.1430    -1.4900 C.2   1 <1>   0.4950 
  3 C        1.3720    -2.3750    -0.6480 C.2   1 <1>   0.0290 
  4 C       -1.0530    -2.9250    -1.3210 C.3   1 <1>  -0.0990 
  5 C        1.2790    -3.3940     0.3640 C.2   1 <1>   0.4950 
  6 C        2.5100    -1.6160    -0.8360 C.2   1 <1>  -0.0500 
  7 C       -1.2310    -3.4140     0.1150 C.3   1 <1>   0.0640 
  8 O        2.1700    -3.6930     1.1280 O.2   1 <1>  -0.5700 
  9 C        0.0060    -4.2020     0.5420 C.3   1 <1>  -0.0990 
 10 N        3.6610    -1.7070    -0.1310 N.pl3 1 <1>  -0.8690 
 11 C       -2.5020    -4.2440     0.2690 C.ar  1 <1>  -0.1430 
 12 C        4.8790    -0.9070    -0.3220 C.3   1 <1>   0.2890 
 13 C       -2.6860    -5.4280    -0.4340 C.ar  1 <1>  -0.1500 
 14 C       -3.5030    -3.8120     1.1280 C.ar  1 <1>  -0.1500 
 15 C        6.0340    -1.8460    -0.6760 C.3   1 <1>  -0.1600 
 16 C        5.1650    -0.1320     0.9660 C.3   1 <1>  -0.1600 
 17 C       -3.8480    -6.1650    -0.2790 C.ar  1 <1>  -0.1500 
 18 C       -4.6650    -4.5480     1.2830 C.ar  1 <1>  -0.1500 
 19 C        7.3640    -1.0830    -0.7760 C.3   1 <1>  -0.1600 
 20 C        6.4920     0.6370     0.8720 C.3   1 <1>  -0.1600 
 21 C       -4.8380    -5.7260     0.5790 C.ar  1 <1>  -0.1500 
 22 C        7.6520    -0.3020     0.5140 C.3   1 <1>  -0.1600 
 23 H       -1.0390    -3.7510    -2.0080 H     1 <1>   0.0800 
 24 H       -1.8850    -2.2950    -1.5830 H     1 <1>   0.0800 
 25 H        2.5000    -0.8710    -1.6180 H     1 <1>   0.1500 
 26 H       -1.3060    -2.5480     0.7520 H     1 <1>   0.0800 
 27 H       -0.0940    -4.4770     1.5770 H     1 <1>   0.0800 
 28 H        0.1000    -5.1070    -0.0280 H     1 <1>   0.0800 
 29 H        3.7270    -2.4070     0.6300 H     1 <1>   0.4000 
 30 H        4.7270    -0.2100    -1.1300 H     1 <1>   0.0800 
 31 H       -1.9320    -5.7920    -1.1070 H     1 <1>   0.1500 
 32 H       -3.3900    -2.8990     1.6860 H     1 <1>   0.1500 
 33 H        5.8240    -2.3260    -1.6150 H     1 <1>   0.0800 
 34 H        6.1200    -2.6050     0.0820 H     1 <1>   0.0800 
 35 H        5.2160    -0.8210     1.7910 H     1 <1>   0.0800 
 36 H        4.3610     0.5580     1.1490 H     1 <1>   0.0800 
 37 H       -3.9820    -7.0820    -0.8270 H     1 <1>   0.1500 
 38 H       -5.4350    -4.2050     1.9520 H     1 <1>   0.1500 
 39 H        7.3200    -0.3970    -1.6060 H     1 <1>   0.0800 
 40 H        8.1640    -1.7770    -0.9650 H     1 <1>   0.0800 
 41 H        6.6960     1.1200     1.8120 H     1 <1>   0.0800 
 42 H        6.4070     1.4020     0.1190 H     1 <1>   0.0800 
 43 H       -5.7420    -6.2990     0.7000 H     1 <1>   0.1500 
 44 H        8.5560     0.2700     0.3940 H     1 <1>   0.0800 
 45 H        7.8090    -0.9970     1.3210 H     1 <1>   0.0800 
@<TRIPOS>BOND
  1   1   2  2   
  2   2   3  1   
  3   2   4  1   
  4   3   5  1   
  5   3   6  2   
  6   4   7  1   
  7   4  23  1   
  8   4  24  1   
  9   5   8  2   
 10   5   9  1   
 11   6  10  1   
 12   6  25  1   
 13   7   9  1   
 14   7  11  1   
 15   7  26  1   
 16   9  27  1   
 17   9  28  1   
 18  10  12  1   
 19  10  29  1   
 20  11  13  ar  
 21  11  14  ar  
 22  12  15  1   
 23  12  16  1   
 24  12  30  1   
 25  13  17  ar  
 26  13  31  1   
 27  14  18  ar  
 28  14  32  1   
 29  15  19  1   
 30  15  33  1   
 31  15  34  1   
 32  16  20  1   
 33  16  35  1   
 34  16  36  1   
 35  17  21  ar  
 36  17  37  1   
 37  18  21  ar  
 38  18  38  1   
 39  19  22  1   
 40  19  39  1   
 41  19  40  1   
 42  20  22  1   
 43  20  41  1   
 44  20  42  1   
 45  21  43  1   
 46  22  44  1   
 47  22  45  1   
@<TRIPOS>SUBSTRUCTURE
  1 ****   3 GROUP 4 **** **** 0

# MOE 2024.06 (io_trps.svl 2023.06)
