@<TRIPOS>MOLECULE
NONAME
37 39 1 0 0 
SMALL
USER_CHARGES


@<TRIPOS>ATOM
  1 S       -9.7830     1.5510     0.7860 S.3   1 <1>  -0.0800 
  2 C       -8.0680     1.8440     1.0410 C.ar  1 <1>   0.2970 
  3 C       -9.9420     3.0010    -0.2030 C.2   1 <1>  -0.1400 
  4 N       -7.3150     1.0260     1.7450 N.ar  1 <1>  -0.5670 
  5 C       -7.6710     3.0010     0.4120 C.ar  1 <1>   0.0000 
  6 C       -8.7590     3.6390    -0.3080 C.2   1 <1>  -0.1810 
  7 C      -11.3350     3.2570    -0.7460 C.3   1 <1>  -0.0600 
  8 C       -6.0630     1.4280     1.8030 C.ar  1 <1>   0.4700 
  9 C       -6.3140     3.3080     0.5900 C.ar  1 <1>   0.4100 
 10 C       -8.5280     4.9090    -1.1120 C.3   1 <1>  -0.0590 
 11 N       -5.5120     2.5090     1.2730 N.ar  1 <1>  -0.6200 
 12 N       -5.7350     4.4530     0.0930 N.pl3 1 <1>  -0.8380 
 13 C       -4.5660     4.3500    -0.8230 C.3   1 <1>   0.2090 
 14 C       -5.8170     5.6980     0.8960 C.3   1 <1>   0.2090 
 15 C       -3.2440     4.6120    -0.0790 C.3   1 <1>  -0.0800 
 16 C       -4.5080     5.9300     1.6550 C.3   1 <1>  -0.1600 
 17 C       -3.2980     5.9280     0.7120 C.3   1 <1>  -0.1600 
 18 C       -2.0600     4.6230    -1.0550 C.3   1 <1>  -0.2400 
 19 H      -12.0320     3.3380     0.0690 H     1 <1>   0.0800 
 20 H      -11.6340     2.4400    -1.3770 H     1 <1>   0.0800 
 21 H      -11.3710     4.1650    -1.3180 H     1 <1>   0.0800 
 22 H       -5.3940     0.7940     2.3600 H     1 <1>   0.1500 
 23 H       -9.3920     5.1710    -1.6910 H     1 <1>   0.0800 
 24 H       -7.7030     4.7680    -1.7860 H     1 <1>   0.0800 
 25 H       -8.3030     5.7240    -0.4500 H     1 <1>   0.0800 
 26 H       -4.6860     5.0680    -1.6160 H     1 <1>   0.0800 
 27 H       -4.5430     3.3670    -1.2630 H     1 <1>   0.0800 
 28 H       -6.6330     5.6250     1.5960 H     1 <1>   0.0800 
 29 H       -6.0090     6.5280     0.2380 H     1 <1>   0.0800 
 30 H       -3.0970     3.8010     0.6150 H     1 <1>   0.0800 
 31 H       -4.3960     5.1510     2.3890 H     1 <1>   0.0800 
 32 H       -4.5610     6.8680     2.1760 H     1 <1>   0.0800 
 33 H       -3.3740     6.7590     0.0310 H     1 <1>   0.0800 
 34 H       -2.3960     6.0460     1.2870 H     1 <1>   0.0800 
 35 H       -2.1660     5.4160    -1.7730 H     1 <1>   0.0800 
 36 H       -2.0040     3.6860    -1.5810 H     1 <1>   0.0800 
 37 H       -1.1380     4.7640    -0.5190 H     1 <1>   0.0800 
@<TRIPOS>BOND
  1   1   2  1   
  2   1   3  1   
  3   2   4  ar  
  4   2   5  ar  
  5   3   6  2   
  6   3   7  1   
  7   4   8  ar  
  8   5   6  1   
  9   5   9  ar  
 10   6  10  1   
 11   7  19  1   
 12   7  20  1   
 13   7  21  1   
 14   8  11  ar  
 15   8  22  1   
 16   9  11  ar  
 17   9  12  1   
 18  10  23  1   
 19  10  24  1   
 20  10  25  1   
 21  12  13  1   
 22  12  14  1   
 23  13  15  1   
 24  13  26  1   
 25  13  27  1   
 26  14  16  1   
 27  14  28  1   
 28  14  29  1   
 29  15  17  1   
 30  15  18  1   
 31  15  30  1   
 32  16  17  1   
 33  16  31  1   
 34  16  32  1   
 35  17  33  1   
 36  17  34  1   
 37  18  35  1   
 38  18  36  1   
 39  18  37  1   
@<TRIPOS>SUBSTRUCTURE
  1 ****   9 GROUP 4 **** **** 0

# MOE 2024.06 (io_trps.svl 2023.06)
