@<TRIPOS>MOLECULE
NONAME
42 42 1 0 0 
SMALL
USER_CHARGES


@<TRIPOS>ATOM
  1 CL      -2.3250     1.1160     1.8600 Cl    1 <1>  -0.1770 
  2 C       -1.1810     2.0780     0.9500 C.ar  1 <1>   0.1770 
  3 C       -1.4810     2.4480    -0.3530 C.ar  1 <1>  -0.1440 
  4 C       -0.0030     2.4630     1.5600 C.ar  1 <1>  -0.1500 
  5 C       -0.5650     3.2220    -1.0530 C.ar  1 <1>  -0.1500 
  6 C       -2.7790     2.0050    -0.9940 C.3   1 <1>   0.4870 
  7 C        0.9010     3.2370     0.8540 C.ar  1 <1>  -0.1500 
  8 C        0.6180     3.6140    -0.4480 C.ar  1 <1>  -0.1500 
  9 N       -3.9140     2.6790    -0.2860 N.4   1 <1>  -0.9590 
 10 C       -5.2110     1.9480    -0.5220 C.3   1 <1>   0.3430 
 11 C       -3.9460     4.1410    -0.6380 C.3   1 <1>   0.2630 
 12 C       -6.3630     2.3710     0.4360 C.3   1 <1>   0.3430 
 13 N       -7.6550     1.6040     0.2690 N.4   1 <1>  -0.9590 
 14 C       -8.7250     2.2400     1.0940 C.3   1 <1>   0.3430 
 15 C       -7.5390     0.1540     0.6150 C.3   1 <1>   0.3430 
 16 C      -10.0910     1.8420     0.5470 C.3   1 <1>  -0.2400 
 17 C       -7.4520    -0.6540    -0.6730 C.3   1 <1>  -0.2400 
 18 H        0.2090     2.1620     2.5720 H     1 <1>   0.1500 
 19 H       -0.7490     3.5250    -2.0710 H     1 <1>   0.1500 
 20 H       -2.8600     0.9340    -0.8970 H     1 <1>   0.0800 
 21 H       -2.7830     2.2540    -2.0430 H     1 <1>   0.0800 
 22 H        1.8260     3.5440     1.3160 H     1 <1>   0.1500 
 23 H        1.3300     4.2140    -0.9930 H     1 <1>   0.1500 
 24 H       -3.6450     2.6000     0.7110 H     1 <1>   0.4500 
 25 H       -5.0350     0.8940    -0.3850 H     1 <1>   0.0800 
 26 H       -5.5240     2.1060    -1.5410 H     1 <1>   0.0800 
 27 H       -4.1640     4.2740    -1.6860 H     1 <1>   0.0800 
 28 H       -2.9880     4.5940    -0.4320 H     1 <1>   0.0800 
 29 H       -4.6920     4.6590    -0.0600 H     1 <1>   0.0800 
 30 H       -6.5640     3.4170     0.2760 H     1 <1>   0.0800 
 31 H       -6.0240     2.2520     1.4530 H     1 <1>   0.0800 
 32 H       -7.9930     1.6620    -0.7040 H     1 <1>   0.4500 
 33 H       -8.6400     3.3140     1.0480 H     1 <1>   0.0800 
 34 H       -8.6370     1.9390     2.1270 H     1 <1>   0.0800 
 35 H       -8.4100    -0.1700     1.1640 H     1 <1>   0.0800 
 36 H       -6.6750    -0.0260     1.2350 H     1 <1>   0.0800 
 37 H      -10.2020     2.1510    -0.4780 H     1 <1>   0.0800 
 38 H      -10.8560     2.3350     1.1210 H     1 <1>   0.0800 
 39 H      -10.2620     0.7830     0.6260 H     1 <1>   0.0800 
 40 H       -8.3390    -0.5170    -1.2680 H     1 <1>   0.0800 
 41 H       -7.3910    -1.7000    -0.4250 H     1 <1>   0.0800 
 42 H       -6.5850    -0.4060    -1.2540 H     1 <1>   0.0800 
@<TRIPOS>BOND
  1   1   2  1   
  2   2   3  ar  
  3   2   4  ar  
  4   3   5  ar  
  5   3   6  1   
  6   4   7  ar  
  7   4  18  1   
  8   5   8  ar  
  9   5  19  1   
 10   6   9  1   
 11   6  20  1   
 12   6  21  1   
 13   7   8  ar  
 14   7  22  1   
 15   8  23  1   
 16   9  10  1   
 17   9  11  1   
 18   9  24  1   
 19  10  12  1   
 20  10  25  1   
 21  10  26  1   
 22  11  27  1   
 23  11  28  1   
 24  11  29  1   
 25  12  13  1   
 26  12  30  1   
 27  12  31  1   
 28  13  14  1   
 29  13  15  1   
 30  13  32  1   
 31  14  16  1   
 32  14  33  1   
 33  14  34  1   
 34  15  17  1   
 35  15  35  1   
 36  15  36  1   
 37  16  37  1   
 38  16  38  1   
 39  16  39  1   
 40  17  40  1   
 41  17  41  1   
 42  17  42  1   
@<TRIPOS>SUBSTRUCTURE
  1 ****   9 GROUP 4 **** **** 0

# MOE 2024.06 (io_trps.svl 2023.06)
