@<TRIPOS>MOLECULE
NONAME
49 51 1 0 0 
SMALL
USER_CHARGES


@<TRIPOS>ATOM
  1 O        0.6040     0.6330    -1.1590 O.2   1 <1>  -0.5700 
  2 C        1.4160     1.1750    -0.4500 C.2   1 <1>   0.5690 
  3 N        1.2990     2.3780     0.1620 N.am  1 <1>  -0.6600 
  4 C        2.7440     0.5460    -0.1420 C.3   1 <1>  -0.0990 
  5 C        0.1880     3.3540     0.0580 C.3   1 <1>   0.2200 
  6 C        2.5020     2.7210     0.9410 C.3   1 <1>   0.1400 
  7 C        3.2740     1.3940     1.0300 C.3   1 <1>  -0.0190 
  8 C       -1.1120     2.7550     0.6100 C.3   1 <1>  -0.1600 
  9 C        0.0170     3.8300    -1.3900 C.3   1 <1>  -0.1600 
 10 C        4.7850     1.5720     1.0480 C.2   1 <1>   0.5690 
 11 C       -2.2710     3.7560     0.4960 C.3   1 <1>  -0.1600 
 12 C       -1.1400     4.8330    -1.5060 C.3   1 <1>  -0.1600 
 13 O        5.2540     2.6500     1.3220 O.2   1 <1>  -0.5700 
 14 N        5.5750     0.5030     0.7690 N.am  1 <1>  -0.7300 
 15 C       -2.4430     4.2400    -0.9510 C.3   1 <1>  -0.1600 
 16 C        7.0580     0.5300     0.7620 C.3   1 <1>   0.1400 
 17 C        7.5690     0.7400    -0.6620 C.3   1 <1>  -0.0170 
 18 C        9.0880     0.7140    -0.6820 C.ar  1 <1>  -0.1440 
 19 C        9.8060     1.8550    -0.3560 C.ar  1 <1>  -0.1500 
 20 C        9.7700    -0.4450    -1.0190 C.ar  1 <1>  -0.1500 
 21 C       11.1900     1.8370    -0.3670 C.ar  1 <1>  -0.1500 
 22 C       11.1540    -0.4640    -1.0300 C.ar  1 <1>  -0.1500 
 23 C       11.8650     0.6770    -0.7040 C.ar  1 <1>  -0.1500 
 24 H        3.3680     0.6380    -1.0120 H     1 <1>   0.0800 
 25 H        2.6240    -0.4870     0.1260 H     1 <1>   0.0800 
 26 H        0.4360     4.2120     0.6600 H     1 <1>   0.0800 
 27 H        2.2430     3.0870     1.9200 H     1 <1>   0.0800 
 28 H        3.0640     3.4700     0.4080 H     1 <1>   0.0800 
 29 H        2.9900     0.9210     1.9530 H     1 <1>   0.0800 
 30 H       -0.9720     2.4810     1.6400 H     1 <1>   0.0800 
 31 H       -1.3640     1.8690     0.0530 H     1 <1>   0.0800 
 32 H       -0.1920     2.9860    -2.0240 H     1 <1>   0.0800 
 33 H        0.9280     4.2910    -1.7270 H     1 <1>   0.0800 
 34 H       -2.0780     4.6010     1.1340 H     1 <1>   0.0800 
 35 H       -3.1820     3.2900     0.8300 H     1 <1>   0.0800 
 36 H       -1.2790     5.1020    -2.5390 H     1 <1>   0.0800 
 37 H       -0.8950     5.7280    -0.9620 H     1 <1>   0.0800 
 38 H        5.1500    -0.3960     0.5350 H     1 <1>   0.3700 
 39 H       -3.2240     4.9790    -0.9950 H     1 <1>   0.0800 
 40 H       -2.7430     3.4090    -1.5670 H     1 <1>   0.0800 
 41 H        7.4370    -0.3970     1.1570 H     1 <1>   0.0800 
 42 H        7.4110     1.3310     1.3910 H     1 <1>   0.0800 
 43 H        7.2230     1.6910    -1.0290 H     1 <1>   0.0800 
 44 H        7.1850    -0.0310    -1.3060 H     1 <1>   0.0800 
 45 H        9.2890     2.7620    -0.0920 H     1 <1>   0.1500 
 46 H        9.2290    -1.3390    -1.2760 H     1 <1>   0.1500 
 47 H       11.7400     2.7260    -0.1130 H     1 <1>   0.1500 
 48 H       11.6780    -1.3660    -1.2930 H     1 <1>   0.1500 
 49 H       12.9410     0.6640    -0.7120 H     1 <1>   0.1500 
@<TRIPOS>BOND
  1   1   2  2   
  2   2   3  am  
  3   2   4  1   
  4   3   5  1   
  5   3   6  1   
  6   4   7  1   
  7   4  24  1   
  8   4  25  1   
  9   5   8  1   
 10   5   9  1   
 11   5  26  1   
 12   6   7  1   
 13   6  27  1   
 14   6  28  1   
 15   7  10  1   
 16   7  29  1   
 17   8  11  1   
 18   8  30  1   
 19   8  31  1   
 20   9  12  1   
 21   9  32  1   
 22   9  33  1   
 23  10  13  2   
 24  10  14  am  
 25  11  15  1   
 26  11  34  1   
 27  11  35  1   
 28  12  15  1   
 29  12  36  1   
 30  12  37  1   
 31  14  16  1   
 32  14  38  1   
 33  15  39  1   
 34  15  40  1   
 35  16  17  1   
 36  16  41  1   
 37  16  42  1   
 38  17  18  1   
 39  17  43  1   
 40  17  44  1   
 41  18  19  ar  
 42  18  20  ar  
 43  19  21  ar  
 44  19  45  1   
 45  20  22  ar  
 46  20  46  1   
 47  21  23  ar  
 48  21  47  1   
 49  22  23  ar  
 50  22  48  1   
 51  23  49  1   
@<TRIPOS>SUBSTRUCTURE
  1 ****  10 GROUP 4 **** **** 0

# MOE 2024.06 (io_trps.svl 2023.06)
