@<TRIPOS>MOLECULE
NONAME
40 41 1 0 0 
SMALL
USER_CHARGES


@<TRIPOS>ATOM
  1 O        0.1450    -0.4120    -1.4990 O.2   1 <1>  -0.5700 
  2 C        0.1670    -1.0860    -0.4880 C.2   1 <1>   0.6900 
  3 N        1.3300    -1.5240     0.0700 N.am  1 <1>  -0.5470 
  4 N       -0.9850    -1.4420     0.1290 N.am  1 <1>  -0.7300 
  5 C        2.6700    -1.2350    -0.2310 C.ar  1 <1>   0.1170 
  6 C       -2.3370    -1.0450    -0.3120 C.3   1 <1>   0.2200 
  7 C        3.6680    -2.1610     0.0880 C.ar  1 <1>  -0.1430 
  8 C        3.0410    -0.0310    -0.8210 C.ar  1 <1>  -0.1500 
  9 C       -2.9860    -0.1090     0.7310 C.3   1 <1>  -0.0800 
 10 C       -3.1650    -2.3180    -0.5170 C.3   1 <1>  -0.1600 
 11 C        4.9950    -1.8690    -0.1860 C.ar  1 <1>  -0.1500 
 12 C        3.3290    -3.5010     0.7310 C.3   1 <1>  -0.0970 
 13 C        4.3660     0.2530    -1.0930 C.ar  1 <1>  -0.1500 
 14 C       -4.4370     0.2140     0.3320 C.3   1 <1>  -0.1600 
 15 C       -2.1970     1.2010     0.9020 C.3   1 <1>  -0.2400 
 16 C       -4.6110    -1.9870    -0.9100 C.3   1 <1>  -0.1600 
 17 C        5.3460    -0.6680    -0.7750 C.ar  1 <1>  -0.1500 
 18 C       -5.2650    -1.0620     0.1250 C.3   1 <1>  -0.1600 
 19 H        1.2030    -2.2770     0.7330 H     1 <1>   0.3700 
 20 H       -0.9440    -1.8330     1.0650 H     1 <1>   0.3700 
 21 H       -2.2720    -0.5230    -1.2530 H     1 <1>   0.0800 
 22 H        2.2900     0.6960    -1.0690 H     1 <1>   0.1500 
 23 H       -3.0120    -0.6190     1.6780 H     1 <1>   0.0800 
 24 H       -3.1720    -2.8950     0.3910 H     1 <1>   0.0800 
 25 H       -2.7150    -2.9090    -1.2950 H     1 <1>   0.0800 
 26 H        5.7690    -2.5760     0.0550 H     1 <1>   0.1500 
 27 H        2.6160    -4.0310     0.1230 H     1 <1>   0.0800 
 28 H        2.9170    -3.3460     1.7110 H     1 <1>   0.0800 
 29 H        4.2060    -4.1140     0.8270 H     1 <1>   0.0800 
 30 H        4.6310     1.1890    -1.5530 H     1 <1>   0.1500 
 31 H       -4.4390     0.7860    -0.5810 H     1 <1>   0.0800 
 32 H       -4.9000     0.8140     1.0970 H     1 <1>   0.0800 
 33 H       -2.1170     1.7160    -0.0400 H     1 <1>   0.0800 
 34 H       -1.2030     1.0020     1.2620 H     1 <1>   0.0800 
 35 H       -2.6870     1.8460     1.6090 H     1 <1>   0.0800 
 36 H       -5.1810    -2.8960    -0.9930 H     1 <1>   0.0800 
 37 H       -4.6170    -1.5040    -1.8730 H     1 <1>   0.0800 
 38 H        6.3790    -0.4500    -0.9860 H     1 <1>   0.1500 
 39 H       -6.2560    -0.7990    -0.2040 H     1 <1>   0.0800 
 40 H       -5.3580    -1.5840     1.0620 H     1 <1>   0.0800 
@<TRIPOS>BOND
  1   1   2  2   
  2   2   3  am  
  3   2   4  am  
  4   3   5  1   
  5   3  19  1   
  6   4   6  1   
  7   4  20  1   
  8   5   7  ar  
  9   5   8  ar  
 10   6   9  1   
 11   6  10  1   
 12   6  21  1   
 13   7  11  ar  
 14   7  12  1   
 15   8  13  ar  
 16   8  22  1   
 17   9  14  1   
 18   9  15  1   
 19   9  23  1   
 20  10  16  1   
 21  10  24  1   
 22  10  25  1   
 23  11  17  ar  
 24  11  26  1   
 25  12  27  1   
 26  12  28  1   
 27  12  29  1   
 28  13  17  ar  
 29  13  30  1   
 30  14  18  1   
 31  14  31  1   
 32  14  32  1   
 33  15  33  1   
 34  15  34  1   
 35  15  35  1   
 36  16  18  1   
 37  16  36  1   
 38  16  37  1   
 39  17  38  1   
 40  18  39  1   
 41  18  40  1   
@<TRIPOS>SUBSTRUCTURE
  1 ****   2 GROUP 4 **** **** 0

# MOE 2024.06 (io_trps.svl 2023.06)
