@<TRIPOS>MOLECULE
NONAME
58 62 1 0 0 
SMALL
USER_CHARGES


@<TRIPOS>ATOM
  1 O       -2.1800    -0.3030     0.6940 O.3   1 <1>  -0.5600 
  2 C       -1.5370    -0.8730    -0.4280 C.3   1 <1>   0.5600 
  3 C       -3.4870    -0.6090     0.4990 C.3   1 <1>   0.4800 
  4 O       -2.4440    -1.8070    -0.9840 O.3   1 <1>  -0.5600 
  5 C       -0.2640    -1.5950     0.0310 C.3   1 <1>  -0.1600 
  6 C       -1.2340     0.2150    -1.4650 C.3   1 <1>  -0.1600 
  7 O       -4.3150    -0.7160     1.5900 O.3   1 <1>  -0.5600 
  8 C       -3.3800    -1.9910     0.0080 C.3   1 <1>   0.2000 
  9 C        0.8080    -0.6080     0.5250 C.3   1 <1>  -0.1600 
 10 C       -0.1650     1.2020    -0.9660 C.3   1 <1>  -0.1600 
 11 C       -5.3680    -1.5610     1.1380 C.3   1 <1>   0.2000 
 12 C       -4.8540    -2.2660    -0.1510 C.3   1 <1>   0.2000 
 13 C        1.1100     0.4620    -0.5340 C.3   1 <1>  -0.1600 
 14 C       -6.6600    -0.7650     0.8820 C.3   1 <1>   0.2000 
 15 O       -5.1560    -3.6310    -0.1190 O.3   1 <1>  -0.5600 
 16 O       -6.4740     0.1880    -0.1150 O.3   1 <1>  -0.5600 
 17 C       -7.1500     0.0310     2.0750 C.3   1 <1>   0.1200 
 18 C       -4.8010    -4.3210    -1.2730 C.3   1 <1>   0.1200 
 19 C       -6.8760     1.4370     0.3490 C.3   1 <1>   0.5600 
 20 O       -7.6100     1.1970     1.5050 O.3   1 <1>  -0.5600 
 21 C       -5.2190    -5.7730    -1.0840 C.3   1 <1>  -0.2400 
 22 C       -5.6490     2.3080     0.6590 C.3   1 <1>  -0.1600 
 23 C       -7.7860     2.0870    -0.6970 C.3   1 <1>  -0.1600 
 24 C       -6.0450     3.7430     1.0460 C.3   1 <1>  -0.1600 
 25 C       -8.1780     3.5240    -0.3100 C.3   1 <1>  -0.1600 
 26 C       -6.9360     4.3820    -0.0290 C.3   1 <1>  -0.1600 
 27 H       -3.9200     0.0660    -0.2220 H     1 <1>   0.0800 
 28 H        0.1320    -2.1470    -0.8020 H     1 <1>   0.0800 
 29 H       -0.5070    -2.2900     0.8130 H     1 <1>   0.0800 
 30 H       -2.1360     0.7450    -1.7110 H     1 <1>   0.0800 
 31 H       -0.8720    -0.2620    -2.3580 H     1 <1>   0.0800 
 32 H       -2.9600    -2.6220     0.7740 H     1 <1>   0.0800 
 33 H        1.7090    -1.1440     0.7680 H     1 <1>   0.0800 
 34 H        0.4580    -0.1280     1.4240 H     1 <1>   0.0800 
 35 H       -0.5550     1.7540    -0.1270 H     1 <1>   0.0800 
 36 H        0.0700     1.9060    -1.7440 H     1 <1>   0.0800 
 37 H       -5.5340    -2.2920     1.9100 H     1 <1>   0.0800 
 38 H       -5.2620    -1.8180    -1.0420 H     1 <1>   0.0800 
 39 H        1.5620    -0.0030    -1.3930 H     1 <1>   0.0800 
 40 H        1.8170     1.1700    -0.1350 H     1 <1>   0.0800 
 41 H       -7.4370    -1.4310     0.5500 H     1 <1>   0.0800 
 42 H       -6.3520     0.2730     2.7560 H     1 <1>   0.0800 
 43 H       -7.9510    -0.4570     2.5990 H     1 <1>   0.0800 
 44 H       -3.7350    -4.2500    -1.4160 H     1 <1>   0.0800 
 45 H       -5.3140    -3.8840    -2.1140 H     1 <1>   0.0800 
 46 H       -4.7100    -6.1950    -0.2360 H     1 <1>   0.0800 
 47 H       -4.9620    -6.3430    -1.9580 H     1 <1>   0.0800 
 48 H       -6.2820    -5.8350    -0.9330 H     1 <1>   0.0800 
 49 H       -5.0330     2.3480    -0.2200 H     1 <1>   0.0800 
 50 H       -5.0730     1.8670     1.4510 H     1 <1>   0.0800 
 51 H       -8.6680     1.4850    -0.8200 H     1 <1>   0.0800 
 52 H       -7.2600     2.1130    -1.6340 H     1 <1>   0.0800 
 53 H       -5.1590     4.3380     1.1850 H     1 <1>   0.0800 
 54 H       -6.5780     3.7210     1.9820 H     1 <1>   0.0800 
 55 H       -8.7960     3.4940     0.5730 H     1 <1>   0.0800 
 56 H       -8.7560     3.9670    -1.1020 H     1 <1>   0.0800 
 57 H       -6.3710     4.5000    -0.9380 H     1 <1>   0.0800 
 58 H       -7.2440     5.3610     0.2960 H     1 <1>   0.0800 
@<TRIPOS>BOND
  1   1   2  1   
  2   1   3  1   
  3   2   4  1   
  4   2   5  1   
  5   2   6  1   
  6   3   7  1   
  7   3   8  1   
  8   3  27  1   
  9   4   8  1   
 10   5   9  1   
 11   5  28  1   
 12   5  29  1   
 13   6  10  1   
 14   6  30  1   
 15   6  31  1   
 16   7  11  1   
 17   8  12  1   
 18   8  32  1   
 19   9  13  1   
 20   9  33  1   
 21   9  34  1   
 22  10  13  1   
 23  10  35  1   
 24  10  36  1   
 25  11  12  1   
 26  11  14  1   
 27  11  37  1   
 28  12  15  1   
 29  12  38  1   
 30  13  39  1   
 31  13  40  1   
 32  14  16  1   
 33  14  17  1   
 34  14  41  1   
 35  15  18  1   
 36  16  19  1   
 37  17  20  1   
 38  17  42  1   
 39  17  43  1   
 40  18  21  1   
 41  18  44  1   
 42  18  45  1   
 43  19  20  1   
 44  19  22  1   
 45  19  23  1   
 46  21  46  1   
 47  21  47  1   
 48  21  48  1   
 49  22  24  1   
 50  22  49  1   
 51  22  50  1   
 52  23  25  1   
 53  23  51  1   
 54  23  52  1   
 55  24  26  1   
 56  24  53  1   
 57  24  54  1   
 58  25  26  1   
 59  25  55  1   
 60  25  56  1   
 61  26  57  1   
 62  26  58  1   
@<TRIPOS>SUBSTRUCTURE
  1 ****   3 GROUP 4 **** **** 0

# MOE 2024.06 (io_trps.svl 2023.06)
