@<TRIPOS>MOLECULE
NONAME
46 48 1 0 0 
SMALL
USER_CHARGES


@<TRIPOS>ATOM
  1 F        0.4840    -1.9120     2.7170 F     1 <1>  -0.1900 
  2 C       -0.3590    -1.8880     1.7110 C.ar  1 <1>   0.1900 
  3 C        0.1480    -1.8310     0.4130 C.ar  1 <1>   0.1170 
  4 C       -1.7090    -1.9250     1.9980 C.ar  1 <1>  -0.1500 
  5 N        1.5410    -1.8000     0.2060 N.am  1 <1>  -0.5470 
  6 C       -0.7850    -1.8220    -0.6210 C.ar  1 <1>  -0.1500 
  7 C       -2.6120    -1.9090     0.9480 C.ar  1 <1>  -0.1500 
  8 C        2.3090    -1.4640    -0.8710 C.2   1 <1>   0.6900 
  9 C       -2.1460    -1.8590    -0.3570 C.ar  1 <1>  -0.1500 
 10 O        1.8110    -1.0120    -1.8850 O.2   1 <1>  -0.5700 
 11 N        3.6670    -1.6210    -0.7840 N.am  1 <1>  -0.6600 
 12 C        4.5580    -1.0730    -1.8590 C.3   1 <1>   0.1400 
 13 C        4.3460    -2.4500     0.2660 C.3   1 <1>   0.1400 
 14 C        5.9660    -0.7370    -1.3390 C.3   1 <1>   0.2090 
 15 C        5.7170    -2.9860    -0.1860 C.3   1 <1>   0.2090 
 16 N        6.6250    -1.8970    -0.6570 N.pl3 1 <1>  -0.8380 
 17 C        7.7200    -1.6110     0.1610 C.ar  1 <1>   0.1000 
 18 C        9.0020    -2.0800    -0.1470 C.ar  1 <1>  -0.1430 
 19 C        7.5310    -0.8600     1.3150 C.ar  1 <1>  -0.1500 
 20 C       10.0650    -1.8030     0.7100 C.ar  1 <1>  -0.1430 
 21 C        9.1970    -2.8970    -1.4250 C.3   1 <1>  -0.0970 
 22 C        8.5860    -0.5770     2.1570 C.ar  1 <1>  -0.1500 
 23 C        9.8490    -1.0500     1.8550 C.ar  1 <1>  -0.1500 
 24 C       11.4780    -2.3030     0.4430 C.3   1 <1>  -0.0970 
 25 H       -2.0470    -1.9660     3.0180 H     1 <1>   0.1500 
 26 H        2.0860    -1.9210     1.0540 H     1 <1>   0.3700 
 27 H       -0.4550    -1.7890    -1.6440 H     1 <1>   0.1500 
 28 H       -3.6700    -1.9360     1.1430 H     1 <1>   0.1500 
 29 H       -2.8460    -1.8480    -1.1750 H     1 <1>   0.1500 
 30 H        4.1190    -0.1820    -2.2740 H     1 <1>   0.0800 
 31 H        4.6380    -1.7970    -2.6500 H     1 <1>   0.0800 
 32 H        3.7220    -3.2880     0.5230 H     1 <1>   0.0800 
 33 H        4.4870    -1.8510     1.1480 H     1 <1>   0.0800 
 34 H        5.8970     0.0940    -0.6600 H     1 <1>   0.0800 
 35 H        6.5830    -0.4300    -2.1660 H     1 <1>   0.0800 
 36 H        5.5760    -3.6910    -0.9870 H     1 <1>   0.0800 
 37 H        6.1820    -3.5110     0.6310 H     1 <1>   0.0800 
 38 H        6.5490    -0.4980     1.5510 H     1 <1>   0.1500 
 39 H        8.6030    -2.4880    -2.2220 H     1 <1>   0.0800 
 40 H        8.8830    -3.9100    -1.2520 H     1 <1>   0.0800 
 41 H       10.2160    -2.8990    -1.7590 H     1 <1>   0.0800 
 42 H        8.4280     0.0070     3.0460 H     1 <1>   0.1500 
 43 H       10.6630    -0.8260     2.5200 H     1 <1>   0.1500 
 44 H       11.4680    -3.3640     0.2700 H     1 <1>   0.0800 
 45 H       12.1240    -2.1090     1.2800 H     1 <1>   0.0800 
 46 H       11.8840    -1.8080    -0.4200 H     1 <1>   0.0800 
@<TRIPOS>BOND
  1   1   2  1   
  2   2   3  ar  
  3   2   4  ar  
  4   3   5  1   
  5   3   6  ar  
  6   4   7  ar  
  7   4  25  1   
  8   5   8  am  
  9   5  26  1   
 10   6   9  ar  
 11   6  27  1   
 12   7   9  ar  
 13   7  28  1   
 14   8  10  2   
 15   8  11  am  
 16   9  29  1   
 17  11  12  1   
 18  11  13  1   
 19  12  14  1   
 20  12  30  1   
 21  12  31  1   
 22  13  15  1   
 23  13  32  1   
 24  13  33  1   
 25  14  16  1   
 26  14  34  1   
 27  14  35  1   
 28  15  16  1   
 29  15  36  1   
 30  15  37  1   
 31  16  17  1   
 32  17  18  ar  
 33  17  19  ar  
 34  18  20  ar  
 35  18  21  1   
 36  19  22  ar  
 37  19  38  1   
 38  20  23  ar  
 39  20  24  1   
 40  21  39  1   
 41  21  40  1   
 42  21  41  1   
 43  22  23  ar  
 44  22  42  1   
 45  23  43  1   
 46  24  44  1   
 47  24  45  1   
 48  24  46  1   
@<TRIPOS>SUBSTRUCTURE
  1 ****  13 GROUP 4 **** **** 0

# MOE 2024.06 (io_trps.svl 2023.06)
