@<TRIPOS>MOLECULE
NONAME
50 53 1 0 0 
SMALL
USER_CHARGES


@<TRIPOS>ATOM
  1 N        0.1400     0.1600     0.4180 N.3   1 <1>  -0.8100 
  2 C       -1.1280     0.8710     0.7240 C.3   1 <1>   0.1900 
  3 C        0.0640    -1.2510     0.8650 C.3   1 <1>   0.1100 
  4 C        1.3460     0.8210     0.9800 C.3   1 <1>   0.2540 
  5 C       -2.3770     0.1270     0.1450 C.3   1 <1>   0.4230 
  6 C       -1.0830     2.3180     0.2060 C.3   1 <1>  -0.2400 
  7 C       -1.1040    -1.9990     0.2030 C.3   1 <1>   0.3430 
  8 C        2.6200     0.0790     0.6000 C.ar  1 <1>  -0.1440 
  9 N       -2.4320    -1.3360     0.4560 N.4   1 <1>  -0.9590 
 10 C       -2.5310     0.1690    -1.3750 C.3   1 <1>  -0.1600 
 11 C        3.4420    -0.4670     1.5740 C.ar  1 <1>  -0.1500 
 12 C        2.9740    -0.0590    -0.7330 C.ar  1 <1>  -0.1500 
 13 C       -3.4690    -1.8920    -0.4500 C.3   1 <1>   0.3430 
 14 C       -3.3910    -1.0500    -1.7220 C.3   1 <1>  -0.1600 
 15 C        4.5950    -1.1420     1.2170 C.ar  1 <1>  -0.1500 
 16 C        4.1290    -0.7330    -1.0840 C.ar  1 <1>  -0.1500 
 17 C        4.9610    -1.2880    -0.1170 C.ar  1 <1>   0.0000 
 18 C        6.1700    -1.9910    -0.4850 C.ar  1 <1>   0.0000 
 19 C        6.1290    -3.0920    -1.3360 C.ar  1 <1>  -0.1500 
 20 C        7.4100    -1.5870     0.0010 C.ar  1 <1>  -0.1500 
 21 C        7.2840    -3.7670    -1.6880 C.ar  1 <1>  -0.1500 
 22 C        8.5690    -2.2580    -0.3480 C.ar  1 <1>  -0.1500 
 23 C        8.5070    -3.3510    -1.1940 C.ar  1 <1>  -0.1500 
 24 H       -1.2490     0.9130     1.7940 H     1 <1>   0.0800 
 25 H       -0.0290    -1.2980     1.9370 H     1 <1>   0.0800 
 26 H        0.9670    -1.7720     0.5930 H     1 <1>   0.0800 
 27 H        1.2630     0.8880     2.0520 H     1 <1>   0.0800 
 28 H        1.4370     1.8190     0.5890 H     1 <1>   0.0800 
 29 H       -3.2540     0.5920     0.5640 H     1 <1>   0.0800 
 30 H       -0.7520     2.3470    -0.8170 H     1 <1>   0.0800 
 31 H       -0.4270     2.9220     0.8060 H     1 <1>   0.0800 
 32 H       -2.0580     2.7660     0.2650 H     1 <1>   0.0800 
 33 H       -1.1270    -3.0140     0.5630 H     1 <1>   0.0800 
 34 H       -0.9120    -2.0300    -0.8570 H     1 <1>   0.0800 
 35 H       -2.6890    -1.4660     1.4400 H     1 <1>   0.4500 
 36 H       -1.5630     0.0880    -1.8430 H     1 <1>   0.0800 
 37 H       -2.9890     1.0890    -1.6950 H     1 <1>   0.0800 
 38 H        3.1920    -0.3700     2.6160 H     1 <1>   0.1500 
 39 H        2.3450     0.3610    -1.4980 H     1 <1>   0.1500 
 40 H       -4.4430    -1.7710    -0.0030 H     1 <1>   0.0800 
 41 H       -3.3020    -2.9380    -0.6540 H     1 <1>   0.0800 
 42 H       -2.9440    -1.6160    -2.5220 H     1 <1>   0.0800 
 43 H       -4.3810    -0.7570    -2.0260 H     1 <1>   0.0800 
 44 H        5.2240    -1.5650     1.9800 H     1 <1>   0.1500 
 45 H        4.3970    -0.8290    -2.1220 H     1 <1>   0.1500 
 46 H        5.1810    -3.4230    -1.7200 H     1 <1>   0.1500 
 47 H        7.4640    -0.7350     0.6550 H     1 <1>   0.1500 
 48 H        7.2320    -4.6170    -2.3470 H     1 <1>   0.1500 
 49 H        9.5180    -1.9300     0.0380 H     1 <1>   0.1500 
 50 H        9.4070    -3.8740    -1.4660 H     1 <1>   0.1500 
@<TRIPOS>BOND
  1   1   2  1   
  2   1   3  1   
  3   1   4  1   
  4   2   5  1   
  5   2   6  1   
  6   2  24  1   
  7   3   7  1   
  8   3  25  1   
  9   3  26  1   
 10   4   8  1   
 11   4  27  1   
 12   4  28  1   
 13   5   9  1   
 14   5  10  1   
 15   5  29  1   
 16   6  30  1   
 17   6  31  1   
 18   6  32  1   
 19   7   9  1   
 20   7  33  1   
 21   7  34  1   
 22   8  11  ar  
 23   8  12  ar  
 24   9  13  1   
 25   9  35  1   
 26  10  14  1   
 27  10  36  1   
 28  10  37  1   
 29  11  15  ar  
 30  11  38  1   
 31  12  16  ar  
 32  12  39  1   
 33  13  14  1   
 34  13  40  1   
 35  13  41  1   
 36  14  42  1   
 37  14  43  1   
 38  15  17  ar  
 39  15  44  1   
 40  16  17  ar  
 41  16  45  1   
 42  17  18  1   
 43  18  19  ar  
 44  18  20  ar  
 45  19  21  ar  
 46  19  46  1   
 47  20  22  ar  
 48  20  47  1   
 49  21  23  ar  
 50  21  48  1   
 51  22  23  ar  
 52  22  49  1   
 53  23  50  1   
@<TRIPOS>SUBSTRUCTURE
  1 ****  12 GROUP 4 **** **** 0

# MOE 2024.06 (io_trps.svl 2023.06)
