@<TRIPOS>MOLECULE
NONAME
26 27 1 0 0 
SMALL
USER_CHARGES


@<TRIPOS>ATOM
  1 CL       0.1920    -0.1720     1.1790 Cl    1 <1>  -0.1770 
  2 C        1.8960    -0.0680     0.8300 C.ar  1 <1>   0.1770 
  3 C        2.6130     1.0330     1.2560 C.ar  1 <1>  -0.1500 
  4 C        2.5120    -1.0880     0.1300 C.ar  1 <1>  -0.1500 
  5 C        3.9660     1.1090     0.9750 C.ar  1 <1>  -0.1500 
  6 C        3.8650    -1.0000    -0.1450 C.ar  1 <1>  -0.1500 
  7 C        4.6260     0.0990     0.2690 C.ar  1 <1>   0.0860 
  8 C        6.0490     0.2010    -0.0140 C.2   1 <1>   0.5140 
  9 O        6.6320    -0.7960    -0.6940 O.3   1 <1>  -0.4300 
 10 N        6.8310     1.1450     0.3110 N.2   1 <1>  -0.6960 
 11 C        7.9940    -0.5030    -0.8600 C.3   1 <1>   0.1200 
 12 C        8.1590     0.8530    -0.1630 C.3   1 <1>   0.2460 
 13 C        8.5780     1.9600    -1.1300 C.3   1 <1>  -0.2400 
 14 C        9.0950     0.7820     1.0420 C.3   1 <1>  -0.2400 
 15 H        2.1160     1.8170     1.7990 H     1 <1>   0.1500 
 16 H        1.9350    -1.9360    -0.1930 H     1 <1>   0.1500 
 17 H        4.5290     1.9660     1.3050 H     1 <1>   0.1500 
 18 H        4.3410    -1.7960    -0.6900 H     1 <1>   0.1500 
 19 H        8.2140    -0.4540    -1.9110 H     1 <1>   0.0800 
 20 H        8.5750    -1.2770    -0.3920 H     1 <1>   0.0800 
 21 H        7.8840     2.0240    -1.9490 H     1 <1>   0.0800 
 22 H        9.5580     1.7600    -1.5230 H     1 <1>   0.0800 
 23 H        8.6000     2.9060    -0.6190 H     1 <1>   0.0800 
 24 H        8.7610     0.0280     1.7320 H     1 <1>   0.0800 
 25 H        9.1170     1.7310     1.5490 H     1 <1>   0.0800 
 26 H       10.0930     0.5410     0.7250 H     1 <1>   0.0800 
@<TRIPOS>BOND
  1   1   2  1   
  2   2   3  ar  
  3   2   4  ar  
  4   3   5  ar  
  5   3  15  1   
  6   4   6  ar  
  7   4  16  1   
  8   5   7  ar  
  9   5  17  1   
 10   6   7  ar  
 11   6  18  1   
 12   7   8  1   
 13   8   9  1   
 14   8  10  2   
 15   9  11  1   
 16  10  12  1   
 17  11  12  1   
 18  11  19  1   
 19  11  20  1   
 20  12  13  1   
 21  12  14  1   
 22  13  21  1   
 23  13  22  1   
 24  13  23  1   
 25  14  24  1   
 26  14  25  1   
 27  14  26  1   
@<TRIPOS>SUBSTRUCTURE
  1 ****   7 GROUP 4 **** **** 0

# MOE 2024.06 (io_trps.svl 2023.06)
