@<TRIPOS>MOLECULE
NONAME
39 40 1 0 0 
SMALL
USER_CHARGES


@<TRIPOS>ATOM
  1 S        0.2990    -0.1590     0.0400 S.o2  1 <1>   1.3330 
  2 O        0.6130    -1.2720     0.9040 O.2   1 <1>  -0.6500 
  3 O       -0.0690    -0.3930    -1.3370 O.2   1 <1>  -0.6500 
  4 N        1.6930     0.8120    -0.0150 N.am  1 <1>  -0.8490 
  5 C       -0.9220     0.8860     0.8490 C.3   1 <1>  -0.0550 
  6 C        2.9130    -0.0310    -0.0200 C.3   1 <1>   0.1960 
  7 C        1.7050     1.7310    -1.1750 C.3   1 <1>   0.1960 
  8 C       -2.3010     0.2250     1.0250 C.3   1 <1>  -0.2400 
  9 C        4.2230     0.7770    -0.2020 C.3   1 <1>   0.3430 
 10 C        2.9390     2.6690    -1.1760 C.3   1 <1>   0.3430 
 11 N        3.9710     2.2550    -0.1600 N.4   1 <1>  -0.9590 
 12 C        5.2070     3.0810    -0.1840 C.3   1 <1>   0.4860 
 13 C        4.8380     4.5300     0.0600 C.ar  1 <1>  -0.1440 
 14 C        4.3140     4.9260     1.2810 C.ar  1 <1>   0.1900 
 15 C        5.0110     5.4970    -0.9210 C.ar  1 <1>  -0.1500 
 16 F        4.1340     4.0260     2.2110 F     1 <1>  -0.1900 
 17 C        3.9580     6.2320     1.5510 C.ar  1 <1>  -0.1500 
 18 C        4.6580     6.8150    -0.6680 C.ar  1 <1>  -0.1500 
 19 C        4.1330     7.1840     0.5620 C.ar  1 <1>  -0.1500 
 20 H       -1.0500     1.7860     0.2800 H     1 <1>   0.0800 
 21 H       -0.5530     1.1620     1.8180 H     1 <1>   0.0800 
 22 H        2.8450    -0.7700    -0.8020 H     1 <1>   0.0800 
 23 H        2.9770    -0.5670     0.9130 H     1 <1>   0.0800 
 24 H        0.8110     2.3320    -1.1780 H     1 <1>   0.0800 
 25 H        1.7070     1.1620    -2.0910 H     1 <1>   0.0800 
 26 H       -2.7110    -0.0420     0.0670 H     1 <1>   0.0800 
 27 H       -2.9790     0.9000     1.5160 H     1 <1>   0.0800 
 28 H       -2.2110    -0.6680     1.6200 H     1 <1>   0.0800 
 29 H        4.6670     0.5090    -1.1470 H     1 <1>   0.0800 
 30 H        4.9150     0.4950     0.5750 H     1 <1>   0.0800 
 31 H        2.6090     3.6730    -0.9640 H     1 <1>   0.0800 
 32 H        3.3710     2.6740    -2.1630 H     1 <1>   0.0800 
 33 H        3.5190     2.4260     0.7550 H     1 <1>   0.4500 
 34 H        5.7030     2.9830    -1.1350 H     1 <1>   0.0800 
 35 H        5.8830     2.7560     0.5910 H     1 <1>   0.0800 
 36 H        5.4230     5.2470    -1.8850 H     1 <1>   0.1500 
 37 H        3.5540     6.5000     2.5130 H     1 <1>   0.1500 
 38 H        4.7960     7.5650    -1.4300 H     1 <1>   0.1500 
 39 H        3.8650     8.2110     0.7470 H     1 <1>   0.1500 
@<TRIPOS>BOND
  1   1   2  2   
  2   1   3  2   
  3   1   4  am  
  4   1   5  1   
  5   4   6  1   
  6   4   7  1   
  7   5   8  1   
  8   5  20  1   
  9   5  21  1   
 10   6   9  1   
 11   6  22  1   
 12   6  23  1   
 13   7  10  1   
 14   7  24  1   
 15   7  25  1   
 16   8  26  1   
 17   8  27  1   
 18   8  28  1   
 19   9  11  1   
 20   9  29  1   
 21   9  30  1   
 22  10  11  1   
 23  10  31  1   
 24  10  32  1   
 25  11  12  1   
 26  11  33  1   
 27  12  13  1   
 28  12  34  1   
 29  12  35  1   
 30  13  14  ar  
 31  13  15  ar  
 32  14  16  1   
 33  14  17  ar  
 34  15  18  ar  
 35  15  36  1   
 36  17  19  ar  
 37  17  37  1   
 38  18  19  ar  
 39  18  38  1   
 40  19  39  1   
@<TRIPOS>SUBSTRUCTURE
  1 ****  10 GROUP 4 **** **** 0

# MOE 2024.06 (io_trps.svl 2023.06)
