@<TRIPOS>MOLECULE
NONAME
43 44 1 0 0 
SMALL
USER_CHARGES


@<TRIPOS>ATOM
  1 BR       0.6980     0.5980     1.3770 Br    1 <1>  -0.1110 
  2 C        0.0530    -1.0750     0.6670 C.ar  1 <1>   0.1110 
  3 C        0.7750    -1.7450    -0.3100 C.ar  1 <1>   0.0830 
  4 C       -1.1430    -1.5650     1.1570 C.ar  1 <1>  -0.1500 
  5 O        1.9310    -1.2560    -0.8050 O.3   1 <1>  -0.3630 
  6 C        0.2740    -2.9360    -0.8070 C.ar  1 <1>  -0.1500 
  7 C       -1.6440    -2.7570     0.6490 C.ar  1 <1>  -0.1430 
  8 C        3.1040    -1.5820    -0.0940 C.3   1 <1>   0.0400 
  9 C       -0.9260    -3.4410    -0.3280 C.ar  1 <1>  -0.1500 
 10 C       -2.9680    -3.3020     1.1510 C.3   1 <1>   0.4870 
 11 N       -4.0110    -3.0330     0.1230 N.4   1 <1>  -0.9590 
 12 C       -4.2290    -1.5490    -0.0690 C.3   1 <1>   0.3430 
 13 C       -5.2970    -3.7540     0.4400 C.3   1 <1>   0.3430 
 14 C       -5.3240    -1.2520    -1.1090 C.3   1 <1>   0.1400 
 15 C       -6.4020    -3.4670    -0.5960 C.3   1 <1>   0.1400 
 16 N       -6.5740    -1.9950    -0.7710 N.am  1 <1>  -0.6600 
 17 C       -7.7440    -1.3360    -0.4970 C.2   1 <1>   0.7800 
 18 O       -7.8190    -0.1250    -0.5070 O.2   1 <1>  -0.5700 
 19 O       -8.8090    -2.0710    -0.1840 O.3   1 <1>  -0.4300 
 20 C      -10.0500    -1.4620     0.0960 C.3   1 <1>   0.1200 
 21 C      -11.0560    -2.5630     0.4160 C.3   1 <1>  -0.2400 
 22 H       -1.6570    -1.0070     1.9220 H     1 <1>   0.1500 
 23 H        0.8280    -3.4590    -1.5680 H     1 <1>   0.1500 
 24 H        3.9390    -1.1290    -0.5980 H     1 <1>   0.0800 
 25 H        3.2180    -2.6520    -0.0800 H     1 <1>   0.0800 
 26 H        3.0290    -1.1980     0.9070 H     1 <1>   0.0800 
 27 H       -1.2840    -4.3740    -0.7280 H     1 <1>   0.1500 
 28 H       -3.2320    -2.8330     2.0850 H     1 <1>   0.0800 
 29 H       -2.8740    -4.3640     1.3160 H     1 <1>   0.0800 
 30 H       -3.6460    -3.3930    -0.7680 H     1 <1>   0.4500 
 31 H       -3.3120    -1.0790    -0.3870 H     1 <1>   0.0800 
 32 H       -4.5220    -1.1000     0.8660 H     1 <1>   0.0800 
 33 H       -5.6560    -3.4420     1.4070 H     1 <1>   0.0800 
 34 H       -5.1230    -4.8170     0.4800 H     1 <1>   0.0800 
 35 H       -4.9900    -1.5450    -2.0890 H     1 <1>   0.0800 
 36 H       -5.5070    -0.1910    -1.1350 H     1 <1>   0.0800 
 37 H       -7.3190    -3.9240    -0.2670 H     1 <1>   0.0800 
 38 H       -6.1420    -3.9080    -1.5420 H     1 <1>   0.0800 
 39 H      -10.3570    -0.8990    -0.7690 H     1 <1>   0.0800 
 40 H       -9.9250    -0.7970     0.9340 H     1 <1>   0.0800 
 41 H      -11.1660    -3.2230    -0.4260 H     1 <1>   0.0800 
 42 H      -12.0140    -2.1240     0.6320 H     1 <1>   0.0800 
 43 H      -10.7360    -3.1230     1.2760 H     1 <1>   0.0800 
@<TRIPOS>BOND
  1   1   2  1   
  2   2   3  ar  
  3   2   4  ar  
  4   3   5  1   
  5   3   6  ar  
  6   4   7  ar  
  7   4  22  1   
  8   5   8  1   
  9   6   9  ar  
 10   6  23  1   
 11   7   9  ar  
 12   7  10  1   
 13   8  24  1   
 14   8  25  1   
 15   8  26  1   
 16   9  27  1   
 17  10  11  1   
 18  10  28  1   
 19  10  29  1   
 20  11  12  1   
 21  11  13  1   
 22  11  30  1   
 23  12  14  1   
 24  12  31  1   
 25  12  32  1   
 26  13  15  1   
 27  13  33  1   
 28  13  34  1   
 29  14  16  1   
 30  14  35  1   
 31  14  36  1   
 32  15  16  1   
 33  15  37  1   
 34  15  38  1   
 35  16  17  am  
 36  17  18  2   
 37  17  19  1   
 38  19  20  1   
 39  20  21  1   
 40  20  39  1   
 41  20  40  1   
 42  21  41  1   
 43  21  42  1   
 44  21  43  1   
@<TRIPOS>SUBSTRUCTURE
  1 ****  12 GROUP 4 **** **** 0

# MOE 2024.06 (io_trps.svl 2023.06)
