@<TRIPOS>MOLECULE
NONAME
39 41 1 0 0 
SMALL
USER_CHARGES


@<TRIPOS>ATOM
  1 S       -0.1310     1.3480     1.8020 S.o2  1 <1>   1.4240 
  2 O       -0.2080    -0.0190     2.2770 O.2   1 <1>  -0.6500 
  3 O        0.3420     2.3740     2.7080 O.2   1 <1>  -0.6500 
  4 N        0.9230     1.3390     0.4680 N.am  1 <1>  -0.8490 
  5 N       -1.6800     1.8700     1.1350 N.pl3 1 <1>   0.3170 
  6 C        2.3240     1.2980     0.9020 C.3   1 <1>   0.1960 
  7 C        0.6330     0.2380    -0.4610 C.3   1 <1>   0.1960 
  8 C       -2.6930     1.1140     0.6100 C.ar  1 <1>  -0.1520 
  9 C       -1.9980     3.1480     0.7930 C.2   1 <1>   0.0360 
 10 C        3.2610     1.4470    -0.3010 C.3   1 <1>  -0.1600 
 11 C        1.5010     0.3610    -1.7170 C.3   1 <1>  -0.1600 
 12 C       -3.5480     2.0040    -0.0050 C.ar  1 <1>   0.2270 
 13 C       -2.9610    -0.2570     0.5980 C.ar  1 <1>  -0.1500 
 14 N       -3.0910     3.2790     0.1270 N.2   1 <1>  -0.5650 
 15 C        2.9920     0.3730    -1.3610 C.3   1 <1>  -0.1600 
 16 C       -4.6890     1.5390    -0.6520 C.ar  1 <1>  -0.1500 
 17 C       -4.0910    -0.7180    -0.0440 C.ar  1 <1>  -0.1430 
 18 C       -4.9630     0.1870    -0.6760 C.ar  1 <1>  -0.1430 
 19 C       -4.3780    -2.2130    -0.0520 C.3   1 <1>  -0.0970 
 20 C       -6.2160    -0.2990    -1.3900 C.3   1 <1>  -0.0970 
 21 H        2.5220     0.3690     1.4140 H     1 <1>   0.0800 
 22 H        2.5200     2.1060     1.5880 H     1 <1>   0.0800 
 23 H       -0.4020     0.2680    -0.7580 H     1 <1>   0.0800 
 24 H        0.8190    -0.7100     0.0190 H     1 <1>   0.0800 
 25 H       -1.3520     3.9640     1.0710 H     1 <1>   0.1500 
 26 H        4.2810     1.3810     0.0310 H     1 <1>   0.0800 
 27 H        3.1180     2.4240    -0.7300 H     1 <1>   0.0800 
 28 H        1.2410     1.2690    -2.2320 H     1 <1>   0.0800 
 29 H        1.2940    -0.4620    -2.3770 H     1 <1>   0.0800 
 30 H       -2.2900    -0.9410     1.0920 H     1 <1>   0.1500 
 31 H        3.2760    -0.5910    -0.9740 H     1 <1>   0.0800 
 32 H        3.5800     0.5680    -2.2420 H     1 <1>   0.0800 
 33 H       -5.3300     2.2620    -1.1210 H     1 <1>   0.1500 
 34 H       -3.6160    -2.7560     0.4790 H     1 <1>   0.0800 
 35 H       -4.4080    -2.5780    -1.0630 H     1 <1>   0.0800 
 36 H       -5.3220    -2.4100     0.4220 H     1 <1>   0.0800 
 37 H       -6.7600     0.5250    -1.8160 H     1 <1>   0.0800 
 38 H       -6.8630    -0.8060    -0.6970 H     1 <1>   0.0800 
 39 H       -5.9510    -0.9740    -2.1840 H     1 <1>   0.0800 
@<TRIPOS>BOND
  1   1   2  2   
  2   1   3  2   
  3   1   4  am  
  4   1   5  1   
  5   4   6  1   
  6   4   7  1   
  7   5   8  1   
  8   5   9  1   
  9   6  10  1   
 10   6  21  1   
 11   6  22  1   
 12   7  11  1   
 13   7  23  1   
 14   7  24  1   
 15   8  12  ar  
 16   8  13  ar  
 17   9  14  2   
 18   9  25  1   
 19  10  15  1   
 20  10  26  1   
 21  10  27  1   
 22  11  15  1   
 23  11  28  1   
 24  11  29  1   
 25  12  14  1   
 26  12  16  ar  
 27  13  17  ar  
 28  13  30  1   
 29  15  31  1   
 30  15  32  1   
 31  16  18  ar  
 32  16  33  1   
 33  17  18  ar  
 34  17  19  1   
 35  18  20  1   
 36  19  34  1   
 37  19  35  1   
 38  19  36  1   
 39  20  37  1   
 40  20  38  1   
 41  20  39  1   
@<TRIPOS>SUBSTRUCTURE
  1 ****   8 GROUP 4 **** **** 0

# MOE 2024.06 (io_trps.svl 2023.06)
