@<TRIPOS>MOLECULE
NONAME
49 50 1 0 0 
SMALL
USER_CHARGES


@<TRIPOS>ATOM
  1 S        0.2850    -0.3920     0.0720 S.o2  1 <1>   1.3330 
  2 O       -0.9950    -0.9630     0.4060 O.2   1 <1>  -0.6500 
  3 O        1.2420    -1.1420    -0.7120 O.2   1 <1>  -0.6500 
  4 N        0.0130     1.0910    -0.7810 N.am  1 <1>  -0.6930 
  5 C        1.0830     0.1770     1.5590 C.3   1 <1>  -0.1350 
  6 C       -0.9210     2.0300    -0.3530 C.ar  1 <1>   0.1990 
  7 C        0.9540     1.4450    -1.8910 C.3   1 <1>   0.2570 
  8 C       -2.2740     1.7150    -0.3070 C.ar  1 <1>  -0.1500 
  9 C       -0.5240     3.3030     0.0380 C.ar  1 <1>  -0.1500 
 10 C        2.3810     1.7540    -1.4270 C.2   1 <1>   0.5690 
 11 C       -3.2250     2.6350     0.1200 C.ar  1 <1>  -0.1440 
 12 C       -1.4520     4.2310     0.4660 C.ar  1 <1>  -0.1500 
 13 O        2.6850     2.9080    -1.2450 O.2   1 <1>  -0.5700 
 14 N        3.2340     0.7040    -1.2150 N.am  1 <1>  -0.5470 
 15 C       -2.7950     3.9000     0.5100 C.ar  1 <1>  -0.1500 
 16 C       -4.7140     2.2550     0.1670 C.3   1 <1>   1.1630 
 17 C        4.5470     0.6430    -0.7290 C.ar  1 <1>   0.1170 
 18 F       -5.0600     1.4030    -0.7900 F     1 <1>  -0.3400 
 19 F       -5.5160     3.3060     0.0300 F     1 <1>  -0.3400 
 20 F       -5.0450     1.6840     1.3170 F     1 <1>  -0.3400 
 21 C        5.0130    -0.5760    -0.2520 C.ar  1 <1>  -0.1500 
 22 C        5.4100     1.7330    -0.7000 C.ar  1 <1>  -0.1500 
 23 C        6.2960    -0.7020     0.2470 C.ar  1 <1>  -0.1500 
 24 C        6.6940     1.6080    -0.2000 C.ar  1 <1>  -0.1500 
 25 C        7.1510     0.3900     0.2810 C.ar  1 <1>  -0.1430 
 26 C        8.5700     0.2730     0.8330 C.3   1 <1>   0.0630 
 27 C        9.3980    -0.7190     0.0100 C.3   1 <1>  -0.2400 
 28 C        8.5480    -0.1290     2.3110 C.3   1 <1>  -0.2400 
 29 H        1.3310    -0.6570     2.1850 H     1 <1>   0.0800 
 30 H        0.4280     0.8300     2.1020 H     1 <1>   0.0800 
 31 H        1.9840     0.7100     1.3250 H     1 <1>   0.0800 
 32 H        0.5780     2.3090    -2.4100 H     1 <1>   0.0800 
 33 H        0.9830     0.6360    -2.5980 H     1 <1>   0.0800 
 34 H       -2.5800     0.7290    -0.6150 H     1 <1>   0.1500 
 35 H        0.5170     3.5720     0.0120 H     1 <1>   0.1500 
 36 H       -1.1300     5.2140     0.7680 H     1 <1>   0.1500 
 37 H        2.7860    -0.2200    -1.3050 H     1 <1>   0.3700 
 38 H       -3.5030     4.6390     0.8510 H     1 <1>   0.1500 
 39 H        4.3670    -1.4350    -0.2690 H     1 <1>   0.1500 
 40 H        5.0870     2.6880    -1.0710 H     1 <1>   0.1500 
 41 H        6.6280    -1.6580     0.6100 H     1 <1>   0.1500 
 42 H        7.3360     2.4710    -0.1900 H     1 <1>   0.1500 
 43 H        9.0490     1.2350     0.7630 H     1 <1>   0.0800 
 44 H        8.9950    -1.7130     0.0870 H     1 <1>   0.0800 
 45 H       10.4160    -0.7330     0.3580 H     1 <1>   0.0800 
 46 H        9.3940    -0.4270    -1.0250 H     1 <1>   0.0800 
 47 H        8.1250    -1.1090     2.4360 H     1 <1>   0.0800 
 48 H        7.9580     0.5740     2.8710 H     1 <1>   0.0800 
 49 H        9.5460    -0.1330     2.7110 H     1 <1>   0.0800 
@<TRIPOS>BOND
  1   1   2  2   
  2   1   3  2   
  3   1   4  am  
  4   1   5  1   
  5   4   6  1   
  6   4   7  1   
  7   5  29  1   
  8   5  30  1   
  9   5  31  1   
 10   6   8  ar  
 11   6   9  ar  
 12   7  10  1   
 13   7  32  1   
 14   7  33  1   
 15   8  11  ar  
 16   8  34  1   
 17   9  12  ar  
 18   9  35  1   
 19  10  13  2   
 20  10  14  am  
 21  11  15  ar  
 22  11  16  1   
 23  12  15  ar  
 24  12  36  1   
 25  14  17  1   
 26  14  37  1   
 27  15  38  1   
 28  16  18  1   
 29  16  19  1   
 30  16  20  1   
 31  17  21  ar  
 32  17  22  ar  
 33  21  23  ar  
 34  21  39  1   
 35  22  24  ar  
 36  22  40  1   
 37  23  25  ar  
 38  23  41  1   
 39  24  25  ar  
 40  24  42  1   
 41  25  26  1   
 42  26  27  1   
 43  26  28  1   
 44  26  43  1   
 45  27  44  1   
 46  27  45  1   
 47  27  46  1   
 48  28  47  1   
 49  28  48  1   
 50  28  49  1   
@<TRIPOS>SUBSTRUCTURE
  1 ****   4 GROUP 4 **** **** 0

# MOE 2024.06 (io_trps.svl 2023.06)
