@<TRIPOS>MOLECULE
NONAME
38 41 1 0 0 
SMALL
USER_CHARGES


@<TRIPOS>ATOM
  1 O        0.0620    -0.1070     0.3170 O.2   1 <1>  -0.5700 
  2 C        0.7980    -1.0560     0.0990 C.2   1 <1>   0.8060 
  3 O        2.1170    -0.8000     0.0300 O.3   1 <1>  -0.4300 
  4 C        0.3660    -2.4040    -0.0860 C.2   1 <1>  -0.0860 
  5 C        2.6250     0.5050     0.2020 C.3   1 <1>   0.1200 
  6 C        1.1330    -3.5330    -0.3270 C.2   1 <1>  -0.0680 
  7 C       -0.9850    -2.8380    -0.0580 C.ar  1 <1>   0.2560 
  8 C        4.1420     0.4430     0.0630 C.3   1 <1>  -0.2400 
  9 N        0.3200    -4.6370    -0.4290 N.pl3 1 <1>   0.2940 
 10 N        2.5020    -3.5820    -0.4610 N.pl3 1 <1>  -0.8840 
 11 N       -2.0800    -2.1360     0.1300 N.ar  1 <1>  -0.5660 
 12 C       -0.9920    -4.2350    -0.2830 C.ar  1 <1>   0.1050 
 13 C        0.7640    -6.0260    -0.7270 C.3   1 <1>  -0.0910 
 14 C       -3.2030    -2.8770     0.0810 C.ar  1 <1>   0.3100 
 15 N       -2.0650    -4.9890    -0.3430 N.ar  1 <1>  -0.5670 
 16 C        0.3580    -7.1500     0.1810 C.3   1 <1>  -0.2000 
 17 C        1.7820    -6.6950     0.1530 C.3   1 <1>  -0.2000 
 18 C       -3.1990    -4.2840    -0.1540 C.ar  1 <1>   0.3100 
 19 C       -4.4420    -2.2360     0.2690 C.ar  1 <1>  -0.1500 
 20 C       -4.4320    -4.9620    -0.1880 C.ar  1 <1>  -0.1500 
 21 C       -5.6230    -2.9260     0.2310 C.ar  1 <1>  -0.1500 
 22 C       -5.6180    -4.3060    -0.0010 C.ar  1 <1>  -0.1500 
 23 H        2.3390     0.8570     1.1790 H     1 <1>   0.0800 
 24 H        2.1930     1.1420    -0.5530 H     1 <1>   0.0800 
 25 H        4.5580    -0.2020     0.8160 H     1 <1>   0.0800 
 26 H        4.5570     1.4270     0.1900 H     1 <1>   0.0800 
 27 H        4.4120     0.0820    -0.9140 H     1 <1>   0.0800 
 28 H        3.0290    -4.4460    -0.6360 H     1 <1>   0.4000 
 29 H        3.0870    -2.7360    -0.3810 H     1 <1>   0.4000 
 30 H        0.7840    -6.2160    -1.7850 H     1 <1>   0.1000 
 31 H        0.1150    -8.1040    -0.2550 H     1 <1>   0.1000 
 32 H       -0.2500    -6.9240     1.0400 H     1 <1>   0.1000 
 33 H        2.1630    -6.1700     1.0130 H     1 <1>   0.1000 
 34 H        2.5090    -7.3530    -0.2890 H     1 <1>   0.1000 
 35 H       -4.4250    -1.1750     0.4450 H     1 <1>   0.1500 
 36 H       -4.4080    -6.0220    -0.3660 H     1 <1>   0.1500 
 37 H       -6.5630    -2.4210     0.3760 H     1 <1>   0.1500 
 38 H       -6.5550    -4.8370    -0.0290 H     1 <1>   0.1500 
@<TRIPOS>BOND
  1   1   2  2   
  2   2   3  1   
  3   2   4  1   
  4   3   5  1   
  5   4   6  2   
  6   4   7  1   
  7   5   8  1   
  8   5  23  1   
  9   5  24  1   
 10   6   9  1   
 11   6  10  1   
 12   7  11  ar  
 13   7  12  ar  
 14   8  25  1   
 15   8  26  1   
 16   8  27  1   
 17   9  12  1   
 18   9  13  1   
 19  10  28  1   
 20  10  29  1   
 21  11  14  ar  
 22  12  15  ar  
 23  13  16  1   
 24  13  17  1   
 25  13  30  1   
 26  14  18  ar  
 27  14  19  ar  
 28  15  18  ar  
 29  16  17  1   
 30  16  31  1   
 31  16  32  1   
 32  17  33  1   
 33  17  34  1   
 34  18  20  ar  
 35  19  21  ar  
 36  19  35  1   
 37  20  22  ar  
 38  20  36  1   
 39  21  22  ar  
 40  21  37  1   
 41  22  38  1   
@<TRIPOS>SUBSTRUCTURE
  1 ****   7 GROUP 4 **** **** 0

# MOE 2024.06 (io_trps.svl 2023.06)
