@<TRIPOS>MOLECULE
NONAME
31 32 1 0 0 
SMALL
USER_CHARGES


@<TRIPOS>ATOM
  1 CL       2.8290     2.6880    -2.9560 Cl    1 <1>  -0.1770 
  2 C        2.8630     1.9570    -1.3720 C.ar  1 <1>   0.1770 
  3 C        4.0460     1.4350    -0.8910 C.ar  1 <1>  -0.1500 
  4 C        1.7000     1.9140    -0.6280 C.ar  1 <1>  -0.1500 
  5 C        4.0970     0.8530     0.3760 C.ar  1 <1>   0.0860 
  6 C        1.7270     1.3300     0.6260 C.ar  1 <1>  -0.1500 
  7 C        5.3280     0.3020     0.9100 C.2   1 <1>   0.5440 
  8 C        2.9130     0.8060     1.1140 C.ar  1 <1>  -0.1500 
  9 O        5.3170    -0.8220     1.3760 O.2   1 <1>  -0.5700 
 10 N        6.5030     1.0210     0.9170 N.am  1 <1>  -0.6600 
 11 C        7.8280     0.3540     1.0540 C.3   1 <1>   0.1400 
 12 C        6.5730     2.5090     0.8590 C.3   1 <1>   0.1400 
 13 C        8.7460     0.7790    -0.0960 C.3   1 <1>  -0.1600 
 14 C        7.4770     2.9510    -0.2940 C.3   1 <1>  -0.1600 
 15 C        8.8760     2.3120    -0.1920 C.3   1 <1>  -0.1860 
 16 C        9.7780     2.7340    -1.3470 C.2   1 <1>   0.9060 
 17 O       10.8430     3.2990    -1.0790 O.co2 1 <1>  -0.9000 
 18 O        9.4210     2.5050    -2.5080 O.co2 1 <1>  -0.9000 
 19 H        4.9350     1.4750    -1.4960 H     1 <1>   0.1500 
 20 H        0.7910     2.3280    -1.0280 H     1 <1>   0.1500 
 21 H        0.8300     1.2810     1.2200 H     1 <1>   0.1500 
 22 H        2.9340     0.3440     2.0870 H     1 <1>   0.1500 
 23 H        7.7140    -0.7160     1.0420 H     1 <1>   0.0800 
 24 H        8.2670     0.6360     1.9950 H     1 <1>   0.0800 
 25 H        6.9840     2.8690     1.7870 H     1 <1>   0.0800 
 26 H        5.5950     2.9400     0.7430 H     1 <1>   0.0800 
 27 H        8.3530     0.3950    -1.0220 H     1 <1>   0.0800 
 28 H        9.7210     0.3490     0.0440 H     1 <1>   0.0800 
 29 H        7.5770     4.0210    -0.2860 H     1 <1>   0.0800 
 30 H        7.0280     2.6750    -1.2330 H     1 <1>   0.0800 
 31 H        9.3450     2.6670     0.7070 H     1 <1>   0.0800 
@<TRIPOS>BOND
  1   1   2  1   
  2   2   3  ar  
  3   2   4  ar  
  4   3   5  ar  
  5   3  19  1   
  6   4   6  ar  
  7   4  20  1   
  8   5   7  1   
  9   5   8  ar  
 10   6   8  ar  
 11   6  21  1   
 12   7   9  2   
 13   7  10  am  
 14   8  22  1   
 15  10  11  1   
 16  10  12  1   
 17  11  13  1   
 18  11  23  1   
 19  11  24  1   
 20  12  14  1   
 21  12  25  1   
 22  12  26  1   
 23  13  15  1   
 24  13  27  1   
 25  13  28  1   
 26  14  15  1   
 27  14  29  1   
 28  14  30  1   
 29  15  16  1   
 30  15  31  1   
 31  16  17  ar  
 32  16  18  ar  
@<TRIPOS>SUBSTRUCTURE
  1 ****  10 GROUP 4 **** **** 0

# MOE 2024.06 (io_trps.svl 2023.06)
