@<TRIPOS>MOLECULE
NONAME
31 31 1 0 0 
SMALL
USER_CHARGES


@<TRIPOS>ATOM
  1 F        0.0310    -0.5760     0.1000 F     1 <1>  -0.3400 
  2 C       -1.1840    -0.9830    -0.2630 C.3   1 <1>   1.0200 
  3 F       -1.5320    -1.9080     0.6290 F     1 <1>  -0.3400 
  4 F       -1.0230    -1.6270    -1.4180 F     1 <1>  -0.3400 
  5 C       -2.2270     0.2110    -0.3590 C.3   1 <1>   0.5600 
  6 O       -3.5190    -0.2120    -0.7120 O.3   1 <1>  -0.5600 
  7 O       -1.9270     1.1160    -1.3700 O.3   1 <1>  -0.6800 
  8 C       -2.3570     1.0020     0.9400 C.3   1 <1>  -0.0990 
  9 C       -4.5240     0.5740    -0.1170 C.3   1 <1>   0.3410 
 10 C       -3.7800     1.4400     0.8980 C.2   1 <1>   0.4480 
 11 C       -5.5720    -0.4010     0.5510 C.3   1 <1>   0.0000 
 12 C       -5.1120     1.4490    -1.2410 C.3   1 <1>  -0.2400 
 13 O       -4.2150     2.3400     1.5560 O.2   1 <1>  -0.5700 
 14 C       -6.7570     0.3570     1.1880 C.3   1 <1>  -0.2400 
 15 C       -6.1680    -1.3920    -0.4740 C.3   1 <1>  -0.2400 
 16 C       -4.9240    -1.2450     1.6700 C.3   1 <1>  -0.2400 
 17 H       -2.0750     0.6650    -2.2250 H     1 <1>   0.4000 
 18 H       -1.6760     1.8320     0.9820 H     1 <1>   0.0800 
 19 H       -2.2090     0.3730     1.7970 H     1 <1>   0.0800 
 20 H       -4.3560     2.0950    -1.6480 H     1 <1>   0.0800 
 21 H       -5.8910     2.0800    -0.8560 H     1 <1>   0.0800 
 22 H       -5.5130     0.8470    -2.0340 H     1 <1>   0.0800 
 23 H       -6.4180     1.0530     1.9340 H     1 <1>   0.0800 
 24 H       -7.4320    -0.3310     1.6640 H     1 <1>   0.0800 
 25 H       -7.3170     0.9000     0.4480 H     1 <1>   0.0800 
 26 H       -6.7320    -0.8790    -1.2310 H     1 <1>   0.0800 
 27 H       -6.8320    -2.0850     0.0110 H     1 <1>   0.0800 
 28 H       -5.3910    -1.9590    -0.9540 H     1 <1>   0.0800 
 29 H       -4.5490    -0.6220     2.4630 H     1 <1>   0.0800 
 30 H       -4.1170    -1.8400     1.2830 H     1 <1>   0.0800 
 31 H       -5.6460    -1.9170     2.1010 H     1 <1>   0.0800 
@<TRIPOS>BOND
  1   1   2  1   
  2   2   3  1   
  3   2   4  1   
  4   2   5  1   
  5   5   6  1   
  6   5   7  1   
  7   5   8  1   
  8   6   9  1   
  9   7  17  1   
 10   8  10  1   
 11   8  18  1   
 12   8  19  1   
 13   9  10  1   
 14   9  11  1   
 15   9  12  1   
 16  10  13  2   
 17  11  14  1   
 18  11  15  1   
 19  11  16  1   
 20  12  20  1   
 21  12  21  1   
 22  12  22  1   
 23  14  23  1   
 24  14  24  1   
 25  14  25  1   
 26  15  26  1   
 27  15  27  1   
 28  15  28  1   
 29  16  29  1   
 30  16  30  1   
 31  16  31  1   
@<TRIPOS>SUBSTRUCTURE
  1 ****   6 GROUP 4 **** **** 0

# MOE 2024.06 (io_trps.svl 2023.06)
