@<TRIPOS>MOLECULE
NONAME
54 56 1 0 0 
SMALL
USER_CHARGES


@<TRIPOS>ATOM
  1 O        1.4410     0.5370    -0.8810 O.2   1 <1>  -0.5700 
  2 C        1.2190     1.5010    -0.1950 C.2   1 <1>   0.6590 
  3 O        0.1590     1.5880     0.5920 O.3   1 <1>  -0.4300 
  4 C        2.1460     2.7030    -0.1910 C.3   1 <1>  -0.0190 
  5 C       -0.7840     0.5430     0.6830 C.3   1 <1>   0.1200 
  6 C        3.1660     2.5680    -1.3380 C.3   1 <1>   0.3430 
  7 C        2.8440     2.9000     1.1700 C.3   1 <1>  -0.1600 
  8 C       -1.8610     0.9640     1.6770 C.3   1 <1>  -0.2400 
  9 N        4.4790     3.2330    -1.0360 N.4   1 <1>  -0.9590 
 10 C        3.7680     4.1350     1.1470 C.3   1 <1>  -0.1600 
 11 C        4.3280     4.4830    -0.2390 C.3   1 <1>   0.3430 
 12 C        5.2930     3.4310    -2.2660 C.3   1 <1>   0.4860 
 13 C        6.6890     3.8490    -1.8500 C.ar  1 <1>  -0.1440 
 14 C        7.5220     2.9450    -1.2090 C.ar  1 <1>  -0.1500 
 15 C        7.1440     5.1370    -2.0950 C.ar  1 <1>  -0.1500 
 16 C        8.7890     3.3190    -0.7960 C.ar  1 <1>   0.0820 
 17 C        8.4130     5.5150    -1.6900 C.ar  1 <1>  -0.1500 
 18 O        9.5170     2.3680    -0.1660 O.3   1 <1>  -0.3630 
 19 C        9.2360     4.6140    -1.0390 C.ar  1 <1>  -0.1500 
 20 C       10.8470     2.6070     0.2440 C.3   1 <1>   0.2630 
 21 C       11.3920     1.3420     0.8860 C.ar  1 <1>  -0.1440 
 22 C       11.4920     1.2370     2.2650 C.ar  1 <1>  -0.1500 
 23 C       11.7990     0.2790     0.0930 C.ar  1 <1>  -0.1500 
 24 C       11.9980     0.0850     2.8440 C.ar  1 <1>  -0.1500 
 25 C       12.3050    -0.8730     0.6710 C.ar  1 <1>  -0.1500 
 26 C       12.4050    -0.9700     2.0470 C.ar  1 <1>  -0.1500 
 27 H        1.5340     3.5640    -0.3890 H     1 <1>   0.0800 
 28 H       -0.2770    -0.3470     1.0180 H     1 <1>   0.0800 
 29 H       -1.2050     0.3740    -0.2940 H     1 <1>   0.0800 
 30 H        2.7320     2.9880    -2.2310 H     1 <1>   0.0800 
 31 H        3.3510     1.5230    -1.5300 H     1 <1>   0.0800 
 32 H        3.4250     2.0210     1.3970 H     1 <1>   0.0800 
 33 H        2.1120     3.0110     1.9540 H     1 <1>   0.0800 
 34 H       -1.4270     1.1380     2.6460 H     1 <1>   0.0800 
 35 H       -2.5950     0.1840     1.7670 H     1 <1>   0.0800 
 36 H       -2.3540     1.8580     1.3370 H     1 <1>   0.0800 
 37 H        5.0250     2.5950    -0.4400 H     1 <1>   0.4500 
 38 H        4.5850     3.9790     1.8310 H     1 <1>   0.0800 
 39 H        3.2260     4.9940     1.5070 H     1 <1>   0.0800 
 40 H        3.6510     5.1520    -0.7460 H     1 <1>   0.0800 
 41 H        5.2770     4.9820    -0.1250 H     1 <1>   0.0800 
 42 H        4.8500     4.1870    -2.8920 H     1 <1>   0.0800 
 43 H        5.3520     2.5110    -2.8250 H     1 <1>   0.0800 
 44 H        7.2130     1.9320    -1.0160 H     1 <1>   0.1500 
 45 H        6.5250     5.8590    -2.6010 H     1 <1>   0.1500 
 46 H        8.7650     6.5160    -1.8820 H     1 <1>   0.1500 
 47 H       10.2150     4.9370    -0.7350 H     1 <1>   0.1500 
 48 H       10.8460     3.4200     0.9480 H     1 <1>   0.0800 
 49 H       11.4290     2.8680    -0.6210 H     1 <1>   0.0800 
 50 H       11.1750     2.0480     2.8960 H     1 <1>   0.1500 
 51 H       11.7200     0.3440    -0.9780 H     1 <1>   0.1500 
 52 H       12.0730     0.0100     3.9150 H     1 <1>   0.1500 
 53 H       12.6180    -1.6930     0.0490 H     1 <1>   0.1500 
 54 H       12.7970    -1.8650     2.4970 H     1 <1>   0.1500 
@<TRIPOS>BOND
  1   1   2  2   
  2   2   3  1   
  3   2   4  1   
  4   3   5  1   
  5   4   6  1   
  6   4   7  1   
  7   4  27  1   
  8   5   8  1   
  9   5  28  1   
 10   5  29  1   
 11   6   9  1   
 12   6  30  1   
 13   6  31  1   
 14   7  10  1   
 15   7  32  1   
 16   7  33  1   
 17   8  34  1   
 18   8  35  1   
 19   8  36  1   
 20   9  11  1   
 21   9  12  1   
 22   9  37  1   
 23  10  11  1   
 24  10  38  1   
 25  10  39  1   
 26  11  40  1   
 27  11  41  1   
 28  12  13  1   
 29  12  42  1   
 30  12  43  1   
 31  13  14  ar  
 32  13  15  ar  
 33  14  16  ar  
 34  14  44  1   
 35  15  17  ar  
 36  15  45  1   
 37  16  18  1   
 38  16  19  ar  
 39  17  19  ar  
 40  17  46  1   
 41  18  20  1   
 42  19  47  1   
 43  20  21  1   
 44  20  48  1   
 45  20  49  1   
 46  21  22  ar  
 47  21  23  ar  
 48  22  24  ar  
 49  22  50  1   
 50  23  25  ar  
 51  23  51  1   
 52  24  26  ar  
 53  24  52  1   
 54  25  26  ar  
 55  25  53  1   
 56  26  54  1   
@<TRIPOS>SUBSTRUCTURE
  1 ****  14 GROUP 4 **** **** 0

# MOE 2024.06 (io_trps.svl 2023.06)
