@<TRIPOS>MOLECULE
NONAME
43 43 1 0 0 
SMALL
USER_CHARGES


@<TRIPOS>ATOM
  1 O        0.3980    -2.7440    -0.2540 O.2   1 <1>  -0.5700 
  2 C       -0.5240    -1.9670    -0.1660 C.2   1 <1>   0.5690 
  3 N       -0.3200    -0.6390     0.0360 N.am  1 <1>  -0.7300 
  4 C       -1.9580    -2.4980    -0.3030 C.3   1 <1>   0.1250 
  5 C        0.9750     0.0280     0.1830 C.3   1 <1>   0.2200 
  6 C       -3.0080    -1.3800    -0.2330 C.ar  1 <1>  -0.1440 
  7 C       -2.2700    -3.6040     0.7210 C.3   1 <1>  -0.2400 
  8 C        1.0120     0.6940     1.5540 C.3   1 <1>  -0.2400 
  9 C        1.1090     1.0530    -0.9370 C.3   1 <1>  -0.2400 
 10 C       -3.6650    -0.9750    -1.3850 C.ar  1 <1>  -0.1500 
 11 C       -3.3070    -0.7440     0.9650 C.ar  1 <1>  -0.1500 
 12 C       -4.6010     0.0440    -1.3410 C.ar  1 <1>  -0.1500 
 13 C       -4.2430     0.2750     1.0080 C.ar  1 <1>  -0.1500 
 14 C       -4.8970     0.6760    -0.1450 C.ar  1 <1>  -0.1430 
 15 C       -5.9270     1.7970    -0.1040 C.3   1 <1>  -0.0170 
 16 C       -7.3740     1.2720    -0.1730 C.3   1 <1>  -0.0800 
 17 C       -8.3620     2.4420    -0.2470 C.3   1 <1>  -0.2400 
 18 C       -7.7170     0.3830     1.0310 C.3   1 <1>  -0.2400 
 19 H       -1.1410    -0.0290     0.0730 H     1 <1>   0.3700 
 20 H       -2.0140    -2.9490    -1.2770 H     1 <1>   0.0800 
 21 H        1.7700    -0.6970     0.1090 H     1 <1>   0.0800 
 22 H       -2.1270    -3.2480     1.7240 H     1 <1>   0.0800 
 23 H       -1.6140    -4.4420     0.5630 H     1 <1>   0.0800 
 24 H       -3.2870    -3.9370     0.6080 H     1 <1>   0.0800 
 25 H        0.2240     1.4190     1.6480 H     1 <1>   0.0800 
 26 H        1.9550     1.1900     1.6920 H     1 <1>   0.0800 
 27 H        0.9070    -0.0510     2.3220 H     1 <1>   0.0800 
 28 H        0.3220     1.7830    -0.8840 H     1 <1>   0.0800 
 29 H        1.0720     0.5570    -1.8910 H     1 <1>   0.0800 
 30 H        2.0540     1.5590    -0.8580 H     1 <1>   0.0800 
 31 H       -3.4530    -1.4470    -2.3280 H     1 <1>   0.1500 
 32 H       -2.8110    -1.0340     1.8750 H     1 <1>   0.1500 
 33 H       -5.1010     0.3440    -2.2450 H     1 <1>   0.1500 
 34 H       -4.4630     0.7520     1.9470 H     1 <1>   0.1500 
 35 H       -5.7480     2.4540    -0.9370 H     1 <1>   0.0800 
 36 H       -5.7970     2.3780     0.7920 H     1 <1>   0.0800 
 37 H       -7.4800     0.6830    -1.0690 H     1 <1>   0.0800 
 38 H       -8.2920     3.0550     0.6340 H     1 <1>   0.0800 
 39 H       -9.3700     2.0740    -0.3300 H     1 <1>   0.0800 
 40 H       -8.1560     3.0530    -1.1090 H     1 <1>   0.0800 
 41 H       -7.5930     0.9250     1.9520 H     1 <1>   0.0800 
 42 H       -7.0790    -0.4830     1.0530 H     1 <1>   0.0800 
 43 H       -8.7350     0.0430     0.9670 H     1 <1>   0.0800 
@<TRIPOS>BOND
  1   1   2  2   
  2   2   3  am  
  3   2   4  1   
  4   3   5  1   
  5   3  19  1   
  6   4   6  1   
  7   4   7  1   
  8   4  20  1   
  9   5   8  1   
 10   5   9  1   
 11   5  21  1   
 12   6  10  ar  
 13   6  11  ar  
 14   7  22  1   
 15   7  23  1   
 16   7  24  1   
 17   8  25  1   
 18   8  26  1   
 19   8  27  1   
 20   9  28  1   
 21   9  29  1   
 22   9  30  1   
 23  10  12  ar  
 24  10  31  1   
 25  11  13  ar  
 26  11  32  1   
 27  12  14  ar  
 28  12  33  1   
 29  13  14  ar  
 30  13  34  1   
 31  14  15  1   
 32  15  16  1   
 33  15  35  1   
 34  15  36  1   
 35  16  17  1   
 36  16  18  1   
 37  16  37  1   
 38  17  38  1   
 39  17  39  1   
 40  17  40  1   
 41  18  41  1   
 42  18  42  1   
 43  18  43  1   
@<TRIPOS>SUBSTRUCTURE
  1 ****  11 GROUP 4 **** **** 0

# MOE 2024.06 (io_trps.svl 2023.06)
