@<TRIPOS>MOLECULE
NONAME
44 45 1 0 0 
SMALL
USER_CHARGES


@<TRIPOS>ATOM
  1 CL      -3.2480     1.3730     1.8450 Cl    1 <1>  -0.1770 
  2 C       -1.8520     2.3730     1.5140 C.ar  1 <1>   0.1770 
  3 C       -1.5010     2.6510     0.2010 C.ar  1 <1>  -0.1440 
  4 C       -1.1290     2.8760     2.5790 C.ar  1 <1>  -0.1500 
  5 C       -0.3910     3.4500    -0.0370 C.ar  1 <1>  -0.1500 
  6 C       -2.3180     2.0890    -0.9440 C.3   1 <1>   0.4870 
  7 C       -0.0280     3.6760     2.3300 C.ar  1 <1>  -0.1500 
  8 C        0.3390     3.9600     1.0250 C.ar  1 <1>  -0.1500 
  9 N       -3.6380     2.7680    -0.9830 N.4   1 <1>  -0.9590 
 10 C       -4.6140     2.1640    -1.9430 C.3   1 <1>   0.3430 
 11 C       -3.5730     4.2590    -1.1390 C.3   1 <1>   0.3430 
 12 C       -6.0120     2.8190    -1.8020 C.3   1 <1>   0.1100 
 13 C       -4.9830     4.8920    -1.0450 C.3   1 <1>   0.1100 
 14 N       -6.0400     3.8880    -0.7710 N.3   1 <1>  -0.8100 
 15 C       -7.3650     4.5400    -0.6730 C.3   1 <1>   0.1100 
 16 C       -8.3750     3.6640     0.0730 C.3   1 <1>   0.1200 
 17 O       -9.5830     4.3520     0.1230 O.3   1 <1>  -0.5600 
 18 C      -10.5830     3.6930     0.8370 C.3   1 <1>   0.1200 
 19 C      -11.8230     4.5850     0.8660 C.3   1 <1>   0.1200 
 20 O      -12.8620     3.9080     1.4920 O.3   1 <1>  -0.6800 
 21 H       -1.4240     2.6450     3.5880 H     1 <1>   0.1500 
 22 H       -0.0770     3.6830    -1.0410 H     1 <1>   0.1500 
 23 H       -2.4540     1.0300    -0.7940 H     1 <1>   0.0800 
 24 H       -1.7960     2.2390    -1.8750 H     1 <1>   0.0800 
 25 H        0.5460     4.0740     3.1510 H     1 <1>   0.1500 
 26 H        1.2020     4.5790     0.8390 H     1 <1>   0.1500 
 27 H       -4.0860     2.6450    -0.0600 H     1 <1>   0.4500 
 28 H       -4.7070     1.1070    -1.7560 H     1 <1>   0.0800 
 29 H       -4.2660     2.2900    -2.9540 H     1 <1>   0.0800 
 30 H       -3.1310     4.5160    -2.0870 H     1 <1>   0.0800 
 31 H       -2.9530     4.6820    -0.3640 H     1 <1>   0.0800 
 32 H       -6.7220     2.0520    -1.5460 H     1 <1>   0.0800 
 33 H       -6.3070     3.2240    -2.7560 H     1 <1>   0.0800 
 34 H       -5.2000     5.4100    -1.9640 H     1 <1>   0.0800 
 35 H       -4.9760     5.6260    -0.2570 H     1 <1>   0.0800 
 36 H       -7.7410     4.7710    -1.6560 H     1 <1>   0.0800 
 37 H       -7.2710     5.4590    -0.1200 H     1 <1>   0.0800 
 38 H       -8.0360     3.4850     1.0790 H     1 <1>   0.0800 
 39 H       -8.5380     2.7340    -0.4410 H     1 <1>   0.0800 
 40 H      -10.2340     3.5170     1.8400 H     1 <1>   0.0800 
 41 H      -10.7980     2.7630     0.3410 H     1 <1>   0.0800 
 42 H      -12.1380     4.8420    -0.1300 H     1 <1>   0.0800 
 43 H      -11.6240     5.4800     1.4300 H     1 <1>   0.0800 
 44 H      -13.1970     3.1860     0.9260 H     1 <1>   0.4000 
@<TRIPOS>BOND
  1   1   2  1   
  2   2   3  ar  
  3   2   4  ar  
  4   3   5  ar  
  5   3   6  1   
  6   4   7  ar  
  7   4  21  1   
  8   5   8  ar  
  9   5  22  1   
 10   6   9  1   
 11   6  23  1   
 12   6  24  1   
 13   7   8  ar  
 14   7  25  1   
 15   8  26  1   
 16   9  10  1   
 17   9  11  1   
 18   9  27  1   
 19  10  12  1   
 20  10  28  1   
 21  10  29  1   
 22  11  13  1   
 23  11  30  1   
 24  11  31  1   
 25  12  14  1   
 26  12  32  1   
 27  12  33  1   
 28  13  14  1   
 29  13  34  1   
 30  13  35  1   
 31  14  15  1   
 32  15  16  1   
 33  15  36  1   
 34  15  37  1   
 35  16  17  1   
 36  16  38  1   
 37  16  39  1   
 38  17  18  1   
 39  18  19  1   
 40  18  40  1   
 41  18  41  1   
 42  19  20  1   
 43  19  42  1   
 44  19  43  1   
 45  20  44  1   
@<TRIPOS>SUBSTRUCTURE
  1 ****  14 GROUP 4 **** **** 0

# MOE 2024.06 (io_trps.svl 2023.06)
