@<TRIPOS>MOLECULE
NONAME
51 52 1 0 0 
SMALL
USER_CHARGES


@<TRIPOS>ATOM
  1 O       -4.4930    -3.2460     0.6060 O.3   1 <1>  -0.3630 
  2 C       -4.2750    -4.4140    -0.0640 C.ar  1 <1>   0.0830 
  3 C       -5.7780    -2.7260     0.8610 C.3   1 <1>   0.1200 
  4 C       -5.2300    -5.3880    -0.4080 C.ar  1 <1>   0.0830 
  5 C       -2.9500    -4.6080    -0.4160 C.ar  1 <1>  -0.1500 
  6 C       -5.6130    -1.3270     1.4470 C.3   1 <1>  -0.2400 
  7 O       -6.5370    -5.2220    -0.0580 O.3   1 <1>  -0.3620 
  8 C       -4.8100    -6.5220    -1.1010 C.ar  1 <1>  -0.1500 
  9 C       -2.5400    -5.7430    -1.0960 C.ar  1 <1>  -0.1440 
 10 C       -7.5600    -6.0960    -0.4780 C.3   1 <1>   0.1200 
 11 C       -3.4810    -6.6990    -1.4420 C.ar  1 <1>  -0.1500 
 12 C       -1.0810    -5.9280    -1.4350 C.3   1 <1>   0.4860 
 13 C       -8.8870    -5.5420     0.0330 C.3   1 <1>  -0.2400 
 14 N       -0.4330    -6.4270    -0.2050 N.4   1 <1>  -0.9060 
 15 C        1.0180    -6.6560    -0.3130 C.3   1 <1>   0.4230 
 16 C        1.4690    -7.4380     0.9240 C.3   1 <1>  -0.1600 
 17 C        1.7580    -5.3150    -0.4160 C.3   1 <1>  -0.1600 
 18 C        2.9900    -7.6520     0.9180 C.3   1 <1>  -0.1600 
 19 C        3.2800    -5.5240    -0.4210 C.3   1 <1>  -0.1600 
 20 C        3.7440    -6.3180     0.8100 C.3   1 <1>  -0.0800 
 21 C        5.2550    -6.5640     0.7470 C.3   1 <1>  -0.2400 
 22 H       -6.2750    -3.3740     1.5620 H     1 <1>   0.0800 
 23 H       -6.3240    -2.6900    -0.0660 H     1 <1>   0.0800 
 24 H       -2.2490    -3.8380    -0.1450 H     1 <1>   0.1500 
 25 H       -5.0550    -1.3740     2.3650 H     1 <1>   0.0800 
 26 H       -6.5790    -0.9050     1.6530 H     1 <1>   0.0800 
 27 H       -5.1030    -0.6910     0.7460 H     1 <1>   0.0800 
 28 H       -5.5070    -7.2880    -1.3860 H     1 <1>   0.1500 
 29 H       -7.3710    -7.0700    -0.0610 H     1 <1>   0.0800 
 30 H       -7.5560    -6.1370    -1.5530 H     1 <1>   0.0800 
 31 H       -3.1980    -7.5900    -1.9790 H     1 <1>   0.1500 
 32 H       -0.6550    -4.9850    -1.7370 H     1 <1>   0.0800 
 33 H       -0.9710    -6.6380    -2.2390 H     1 <1>   0.0800 
 34 H       -8.8760    -5.4880     1.1070 H     1 <1>   0.0800 
 35 H       -9.6920    -6.1880    -0.2690 H     1 <1>   0.0800 
 36 H       -9.0610    -4.5630    -0.3750 H     1 <1>   0.0800 
 37 H       -0.9050    -7.2950     0.0680 H     1 <1>   0.4500 
 38 H       -0.6240    -5.7590     0.5500 H     1 <1>   0.4500 
 39 H        1.2330    -7.2470    -1.1900 H     1 <1>   0.0800 
 40 H        0.9890    -8.4000     0.9470 H     1 <1>   0.0800 
 41 H        1.2050    -6.8990     1.8180 H     1 <1>   0.0800 
 42 H        1.5030    -4.6880     0.4210 H     1 <1>   0.0800 
 43 H        1.4890    -4.8030    -1.3230 H     1 <1>   0.0800 
 44 H        3.2620    -8.2880     0.0910 H     1 <1>   0.0800 
 45 H        3.2830    -8.1570     1.8240 H     1 <1>   0.0800 
 46 H        3.7720    -4.5650    -0.4340 H     1 <1>   0.0800 
 47 H        3.5700    -6.0480    -1.3160 H     1 <1>   0.0800 
 48 H        3.5400    -5.7340     1.6940 H     1 <1>   0.0800 
 49 H        5.5140    -7.1450    -0.1210 H     1 <1>   0.0800 
 50 H        5.5850    -7.0930     1.6230 H     1 <1>   0.0800 
 51 H        5.7850    -5.6280     0.7020 H     1 <1>   0.0800 
@<TRIPOS>BOND
  1   1   2  1   
  2   1   3  1   
  3   2   4  ar  
  4   2   5  ar  
  5   3   6  1   
  6   3  22  1   
  7   3  23  1   
  8   4   7  1   
  9   4   8  ar  
 10   5   9  ar  
 11   5  24  1   
 12   6  25  1   
 13   6  26  1   
 14   6  27  1   
 15   7  10  1   
 16   8  11  ar  
 17   8  28  1   
 18   9  11  ar  
 19   9  12  1   
 20  10  13  1   
 21  10  29  1   
 22  10  30  1   
 23  11  31  1   
 24  12  14  1   
 25  12  32  1   
 26  12  33  1   
 27  13  34  1   
 28  13  35  1   
 29  13  36  1   
 30  14  15  1   
 31  14  37  1   
 32  14  38  1   
 33  15  16  1   
 34  15  17  1   
 35  15  39  1   
 36  16  18  1   
 37  16  40  1   
 38  16  41  1   
 39  17  19  1   
 40  17  42  1   
 41  17  43  1   
 42  18  20  1   
 43  18  44  1   
 44  18  45  1   
 45  19  20  1   
 46  19  46  1   
 47  19  47  1   
 48  20  21  1   
 49  20  48  1   
 50  21  49  1   
 51  21  50  1   
 52  21  51  1   
@<TRIPOS>SUBSTRUCTURE
  1 ****   9 GROUP 4 **** **** 0

# MOE 2024.06 (io_trps.svl 2023.06)
