@<TRIPOS>MOLECULE
NONAME
38 39 1 0 0 
SMALL
USER_CHARGES


@<TRIPOS>ATOM
  1 O       -0.3000    -0.3310     0.8660 O.2   1 <1>  -0.5700 
  2 C       -1.0050    -1.2100     0.4320 C.2   1 <1>   0.6300 
  3 N       -2.2030    -0.9570    -0.1390 N.am  1 <1>  -0.7300 
  4 C       -0.5500    -2.6570     0.5370 C.3   1 <1>  -0.1000 
  5 C       -2.8290     0.3620    -0.2250 C.3   1 <1>   0.3640 
  6 C        0.5870    -3.1620    -0.2980 C.3   1 <1>  -0.1950 
  7 C       -0.7970    -3.6520    -0.5710 C.3   1 <1>  -0.2000 
  8 C       -4.3410     0.1710    -0.1830 C.ar  1 <1>  -0.1430 
  9 C       -2.3690     1.0480    -1.5090 C.3   1 <1>  -0.2400 
 10 C        1.6400    -4.0990     0.2960 C.3   1 <1>  -0.1450 
 11 C       -5.0670     0.6780     0.8840 C.ar  1 <1>  -0.1500 
 12 C       -5.0150    -0.5110    -1.1880 C.ar  1 <1>  -0.1500 
 13 C       -6.4400     0.5110     0.9450 C.ar  1 <1>  -0.1500 
 14 C       -6.3870    -0.6780    -1.1270 C.ar  1 <1>  -0.1500 
 15 C       -7.1090    -0.1670    -0.0610 C.ar  1 <1>  -0.1430 
 16 C       -8.6170    -0.3510     0.0070 C.3   1 <1>  -0.0170 
 17 C       -8.9680    -1.6470     0.7390 C.3   1 <1>  -0.2400 
 18 H       -2.8090    -1.7290    -0.4100 H     1 <1>   0.3700 
 19 H       -0.6110    -3.0090     1.5500 H     1 <1>   0.1000 
 20 H       -2.5140     0.9560     0.6180 H     1 <1>   0.0800 
 21 H        1.0130    -2.4630    -1.0000 H     1 <1>   0.1000 
 22 H       -1.2680    -3.3320    -1.4840 H     1 <1>   0.1000 
 23 H       -1.0590    -4.6610    -0.3050 H     1 <1>   0.1000 
 24 H       -2.5930     0.4490    -2.3720 H     1 <1>   0.0800 
 25 H       -1.3090     1.2240    -1.4650 H     1 <1>   0.0800 
 26 H       -2.8670     1.9960    -1.6070 H     1 <1>   0.0800 
 27 H        1.1940    -4.7820     0.9970 H     1 <1>   0.0800 
 28 H        2.3930    -3.5250     0.8060 H     1 <1>   0.0800 
 29 H        2.1090    -4.6670    -0.4880 H     1 <1>   0.0800 
 30 H       -4.5680     1.2060     1.6780 H     1 <1>   0.1500 
 31 H       -4.4770    -0.9160    -2.0260 H     1 <1>   0.1500 
 32 H       -6.9860     0.9100     1.7810 H     1 <1>   0.1500 
 33 H       -6.8930    -1.2090    -1.9140 H     1 <1>   0.1500 
 34 H       -9.0240    -0.3760    -0.9890 H     1 <1>   0.0800 
 35 H       -9.0610     0.4850     0.5180 H     1 <1>   0.0800 
 36 H       -8.5410    -2.4900     0.2250 H     1 <1>   0.0800 
 37 H      -10.0350    -1.7710     0.7840 H     1 <1>   0.0800 
 38 H       -8.5780    -1.6230     1.7410 H     1 <1>   0.0800 
@<TRIPOS>BOND
  1   1   2  2   
  2   2   3  am  
  3   2   4  1   
  4   3   5  1   
  5   3  18  1   
  6   4   6  1   
  7   4   7  1   
  8   4  19  1   
  9   5   8  1   
 10   5   9  1   
 11   5  20  1   
 12   6   7  1   
 13   6  10  1   
 14   6  21  1   
 15   7  22  1   
 16   7  23  1   
 17   8  11  ar  
 18   8  12  ar  
 19   9  24  1   
 20   9  25  1   
 21   9  26  1   
 22  10  27  1   
 23  10  28  1   
 24  10  29  1   
 25  11  13  ar  
 26  11  30  1   
 27  12  14  ar  
 28  12  31  1   
 29  13  15  ar  
 30  13  32  1   
 31  14  15  ar  
 32  14  33  1   
 33  15  16  1   
 34  16  17  1   
 35  16  34  1   
 36  16  35  1   
 37  17  36  1   
 38  17  37  1   
 39  17  38  1   
@<TRIPOS>SUBSTRUCTURE
  1 ****   3 GROUP 4 **** **** 0

# MOE 2024.06 (io_trps.svl 2023.06)
