@<TRIPOS>MOLECULE
NONAME
64 68 1 0 0 
SMALL
USER_CHARGES


@<TRIPOS>ATOM
  1 S        0.3620     0.0960     1.8070 S.o2  1 <1>   1.4470 
  2 O        0.5940     1.4180     2.3520 O.2   1 <1>  -0.6500 
  3 O        0.8770    -1.0620     2.5040 O.2   1 <1>  -0.6500 
  4 N        1.0220     0.0830     0.2460 N.am  1 <1>  -0.8490 
  5 C       -1.4100    -0.1520     1.4900 C.ar  1 <1>  -0.0090 
  6 C        2.4710    -0.1390     0.2810 C.3   1 <1>   0.1960 
  7 C        0.6990     1.3060    -0.4980 C.3   1 <1>   0.1960 
  8 C       -1.8560    -1.2590     0.7820 C.ar  1 <1>  -0.1500 
  9 C       -2.3660     0.7510     1.9390 C.ar  1 <1>  -0.1500 
 10 C        3.0180    -0.3050    -1.1420 C.3   1 <1>  -0.1600 
 11 C        1.1690     1.1820    -1.9500 C.3   1 <1>  -0.1600 
 12 C       -3.2010    -1.4560     0.5230 C.ar  1 <1>  -0.1500 
 13 C       -3.7110     0.5570     1.6800 C.ar  1 <1>  -0.1500 
 14 C        2.6740     0.9020    -2.0230 C.3   1 <1>  -0.1600 
 15 C       -4.1650    -0.5460     0.9580 C.ar  1 <1>   0.0860 
 16 C       -5.5790    -0.7300     0.6810 C.2   1 <1>   0.5440 
 17 O       -6.4220    -0.2830     1.4340 O.2   1 <1>  -0.5700 
 18 N       -5.9820    -1.4040    -0.4360 N.am  1 <1>  -0.7300 
 19 C       -7.3720    -1.7780    -0.7730 C.3   1 <1>   0.2200 
 20 C       -7.5430    -3.3300    -0.7770 C.3   1 <1>   0.0000 
 21 C       -7.7010    -1.0700    -2.0910 C.3   1 <1>  -0.2400 
 22 C       -7.2230    -3.8890     0.6360 C.3   1 <1>  -0.1600 
 23 C       -6.6120    -4.0390    -1.7980 C.3   1 <1>  -0.1600 
 24 C       -9.0070    -3.7190    -1.1130 C.3   1 <1>  -0.1600 
 25 C       -7.4110    -5.4150     0.6930 C.3   1 <1>  -0.0800 
 26 C       -6.8020    -5.5680    -1.7490 C.3   1 <1>  -0.0800 
 27 C       -9.2070    -5.2450    -1.0630 C.3   1 <1>  -0.0800 
 28 C       -6.4750    -6.0770    -0.3330 C.3   1 <1>  -0.1600 
 29 C       -8.8710    -5.7560     0.3480 C.3   1 <1>  -0.1600 
 30 C       -8.2650    -5.9100    -2.0830 C.3   1 <1>  -0.1600 
 31 H        2.6910    -1.0360     0.8370 H     1 <1>   0.0800 
 32 H        2.9570     0.6880     0.7720 H     1 <1>   0.0800 
 33 H        1.1720     2.1560    -0.0330 H     1 <1>   0.0800 
 34 H       -0.3660     1.4680    -0.4890 H     1 <1>   0.0800 
 35 H       -1.1330    -1.9780     0.4310 H     1 <1>   0.1500 
 36 H       -2.0540     1.6170     2.5000 H     1 <1>   0.1500 
 37 H        2.5990    -1.1990    -1.5690 H     1 <1>   0.0800 
 38 H        4.0850    -0.4300    -1.1000 H     1 <1>   0.0800 
 39 H        0.9450     2.0930    -2.4770 H     1 <1>   0.0800 
 40 H        0.6250     0.3840    -2.4250 H     1 <1>   0.0800 
 41 H       -3.5050    -2.3350    -0.0170 H     1 <1>   0.1500 
 42 H       -4.4330     1.2710     2.0420 H     1 <1>   0.1500 
 43 H        2.9660     0.7110    -3.0410 H     1 <1>   0.0800 
 44 H        3.2160     1.7650    -1.6750 H     1 <1>   0.0800 
 45 H       -5.2880    -1.7190    -1.1110 H     1 <1>   0.3700 
 46 H       -8.0300    -1.3790    -0.0180 H     1 <1>   0.0800 
 47 H       -7.0850    -1.4270    -2.8950 H     1 <1>   0.0800 
 48 H       -7.5450    -0.0120    -1.9770 H     1 <1>   0.0800 
 49 H       -8.7320    -1.2150    -2.3520 H     1 <1>   0.0800 
 50 H       -7.8620    -3.4210     1.3640 H     1 <1>   0.0800 
 51 H       -6.2090    -3.6580     0.9090 H     1 <1>   0.0800 
 52 H       -5.5840    -3.8120    -1.5850 H     1 <1>   0.0800 
 53 H       -6.8250    -3.6980    -2.7950 H     1 <1>   0.0800 
 54 H       -9.2690    -3.3790    -2.0980 H     1 <1>   0.0800 
 55 H       -9.6770    -3.2480    -0.4150 H     1 <1>   0.0800 
 56 H       -7.1790    -5.7720     1.6820 H     1 <1>   0.0800 
 57 H       -6.1480    -6.0390    -2.4630 H     1 <1>   0.0800 
 58 H      -10.2290    -5.4860    -1.3020 H     1 <1>   0.0800 
 59 H       -6.5920    -7.1460    -0.2950 H     1 <1>   0.0800 
 60 H       -5.4510    -5.8530    -0.0910 H     1 <1>   0.0800 
 61 H       -9.0170    -6.8210     0.3950 H     1 <1>   0.0800 
 62 H       -9.5310    -5.3030     1.0680 H     1 <1>   0.0800 
 63 H       -8.4030    -6.9770    -2.0640 H     1 <1>   0.0800 
 64 H       -8.5020    -5.5690    -3.0760 H     1 <1>   0.0800 
@<TRIPOS>BOND
  1   1   2  2   
  2   1   3  2   
  3   1   4  am  
  4   1   5  1   
  5   4   6  1   
  6   4   7  1   
  7   5   8  ar  
  8   5   9  ar  
  9   6  10  1   
 10   6  31  1   
 11   6  32  1   
 12   7  11  1   
 13   7  33  1   
 14   7  34  1   
 15   8  12  ar  
 16   8  35  1   
 17   9  13  ar  
 18   9  36  1   
 19  10  14  1   
 20  10  37  1   
 21  10  38  1   
 22  11  14  1   
 23  11  39  1   
 24  11  40  1   
 25  12  15  ar  
 26  12  41  1   
 27  13  15  ar  
 28  13  42  1   
 29  14  43  1   
 30  14  44  1   
 31  15  16  1   
 32  16  17  2   
 33  16  18  am  
 34  18  19  1   
 35  18  45  1   
 36  19  20  1   
 37  19  21  1   
 38  19  46  1   
 39  20  22  1   
 40  20  23  1   
 41  20  24  1   
 42  21  47  1   
 43  21  48  1   
 44  21  49  1   
 45  22  25  1   
 46  22  50  1   
 47  22  51  1   
 48  23  26  1   
 49  23  52  1   
 50  23  53  1   
 51  24  27  1   
 52  24  54  1   
 53  24  55  1   
 54  25  28  1   
 55  25  29  1   
 56  25  56  1   
 57  26  28  1   
 58  26  30  1   
 59  26  57  1   
 60  27  29  1   
 61  27  30  1   
 62  27  58  1   
 63  28  59  1   
 64  28  60  1   
 65  29  61  1   
 66  29  62  1   
 67  30  63  1   
 68  30  64  1   
@<TRIPOS>SUBSTRUCTURE
  1 ****  12 GROUP 4 **** **** 0

# MOE 2024.06 (io_trps.svl 2023.06)
