@<TRIPOS>MOLECULE
NONAME
48 48 1 0 0 
SMALL
USER_CHARGES


@<TRIPOS>ATOM
  1 BR       0.0550     0.7850     1.0460 Br    1 <1>  -0.1110 
  2 C        0.9130     2.4140     0.4640 C.ar  1 <1>   0.1110 
  3 C        0.2190     3.6160     0.4640 C.ar  1 <1>   0.0820 
  4 C        2.2350     2.3230     0.0730 C.ar  1 <1>  -0.1500 
  5 O       -1.0720     3.6780     0.8820 O.3   1 <1>  -0.3630 
  6 C        0.8910     4.7700     0.0600 C.ar  1 <1>   0.0820 
  7 C        2.9030     3.4740    -0.3200 C.ar  1 <1>  -0.1440 
  8 C       -2.0770     3.2440    -0.0080 C.3   1 <1>   0.2000 
  9 O        0.2130     5.9490     0.0740 O.3   1 <1>  -0.3630 
 10 C        2.2270     4.6890    -0.3310 C.ar  1 <1>  -0.1500 
 11 C        4.3630     3.4080    -0.7090 C.3   1 <1>   0.4870 
 12 C       -2.4460     4.3950    -0.9440 C.3   1 <1>  -0.2400 
 13 C       -3.2720     2.8100     0.8370 C.3   1 <1>  -0.2400 
 14 C        0.5760     7.0230    -0.7610 C.3   1 <1>   0.1200 
 15 N        5.1320     3.5880     0.5450 N.4   1 <1>  -0.9060 
 16 C       -0.5530     8.0460    -0.7240 C.3   1 <1>  -0.2400 
 17 C        6.6080     3.5880     0.4490 C.3   1 <1>   0.5030 
 18 C        7.1940     3.7850     1.8790 C.3   1 <1>   0.1200 
 19 C        7.0360     4.7390    -0.4700 C.3   1 <1>  -0.2400 
 20 C        7.0590     2.2430    -0.1360 C.3   1 <1>  -0.2400 
 21 O        8.5850     3.7960     1.8620 O.3   1 <1>  -0.6800 
 22 H        2.7140     1.3580     0.0890 H     1 <1>   0.1500 
 23 H       -1.7060     2.4060    -0.5730 H     1 <1>   0.0800 
 24 H        2.7410     5.5820    -0.6370 H     1 <1>   0.1500 
 25 H        4.5910     4.1910    -1.4140 H     1 <1>   0.0800 
 26 H        4.5820     2.4540    -1.1600 H     1 <1>   0.0800 
 27 H       -2.7400     5.2580    -0.3720 H     1 <1>   0.0800 
 28 H       -3.2630     4.1060    -1.5790 H     1 <1>   0.0800 
 29 H       -1.6100     4.6500    -1.5680 H     1 <1>   0.0800 
 30 H       -3.6350     3.6360     1.4220 H     1 <1>   0.0800 
 31 H       -2.9830     2.0100     1.4940 H     1 <1>   0.0800 
 32 H       -4.0650     2.4610     0.2030 H     1 <1>   0.0800 
 33 H        0.7150     6.6490    -1.7610 H     1 <1>   0.0800 
 34 H        1.4880     7.4550    -0.3890 H     1 <1>   0.0800 
 35 H        4.8400     2.8470     1.1890 H     1 <1>   0.4500 
 36 H        4.8230     4.4690     0.9670 H     1 <1>   0.4500 
 37 H       -1.4650     7.6040    -1.0840 H     1 <1>   0.0800 
 38 H       -0.3090     8.8860    -1.3490 H     1 <1>   0.0800 
 39 H       -0.7010     8.3980     0.2820 H     1 <1>   0.0800 
 40 H        6.8890     2.9810     2.5260 H     1 <1>   0.0800 
 41 H        6.8710     4.7250     2.2930 H     1 <1>   0.0800 
 42 H        6.6860     5.6850    -0.0960 H     1 <1>   0.0800 
 43 H        6.6950     4.6020    -1.4800 H     1 <1>   0.0800 
 44 H        8.1110     4.7870    -0.5100 H     1 <1>   0.0800 
 45 H        6.7250     1.4240     0.4760 H     1 <1>   0.0800 
 46 H        8.1340     2.2050    -0.1650 H     1 <1>   0.0800 
 47 H        6.7170     2.1030    -1.1450 H     1 <1>   0.0800 
 48 H        8.9650     3.9190     2.7590 H     1 <1>   0.4000 
@<TRIPOS>BOND
  1   1   2  1   
  2   2   3  ar  
  3   2   4  ar  
  4   3   5  1   
  5   3   6  ar  
  6   4   7  ar  
  7   4  22  1   
  8   5   8  1   
  9   6   9  1   
 10   6  10  ar  
 11   7  10  ar  
 12   7  11  1   
 13   8  12  1   
 14   8  13  1   
 15   8  23  1   
 16   9  14  1   
 17  10  24  1   
 18  11  15  1   
 19  11  25  1   
 20  11  26  1   
 21  12  27  1   
 22  12  28  1   
 23  12  29  1   
 24  13  30  1   
 25  13  31  1   
 26  13  32  1   
 27  14  16  1   
 28  14  33  1   
 29  14  34  1   
 30  15  17  1   
 31  15  35  1   
 32  15  36  1   
 33  16  37  1   
 34  16  38  1   
 35  16  39  1   
 36  17  18  1   
 37  17  19  1   
 38  17  20  1   
 39  18  21  1   
 40  18  40  1   
 41  18  41  1   
 42  19  42  1   
 43  19  43  1   
 44  19  44  1   
 45  20  45  1   
 46  20  46  1   
 47  20  47  1   
 48  21  48  1   
@<TRIPOS>SUBSTRUCTURE
  1 ****  10 GROUP 4 **** **** 0

# MOE 2024.06 (io_trps.svl 2023.06)
