@<TRIPOS>MOLECULE
NONAME
48 49 1 0 0 
SMALL
USER_CHARGES


@<TRIPOS>ATOM
  1 S      -17.5640     1.6460    -0.2630 S.o2  1 <1>   1.4470 
  2 O      -18.2630     2.6670     0.4770 O.2   1 <1>  -0.6500 
  3 O      -17.9270     1.3470    -1.6260 O.2   1 <1>  -0.6500 
  4 N      -17.9940     0.2630     0.5370 N.am  1 <1>  -0.9780 
  5 C      -15.7630     1.7620    -0.0480 C.ar  1 <1>  -0.0090 
  6 C      -14.8900     1.1700    -0.9520 C.ar  1 <1>  -0.1500 
  7 C      -15.2080     2.4240     1.0410 C.ar  1 <1>  -0.1500 
  8 C      -13.5170     1.2380    -0.7820 C.ar  1 <1>  -0.1500 
  9 C      -13.8370     2.4980     1.2200 C.ar  1 <1>  -0.1500 
 10 C      -12.9790     1.9050     0.3070 C.ar  1 <1>  -0.1430 
 11 C      -11.4740     1.9800     0.5010 C.3   1 <1>  -0.0170 
 12 C      -10.9300     3.2270    -0.1980 C.3   1 <1>   0.3430 
 13 N       -9.4540     3.3310    -0.0290 N.4   1 <1>  -0.9060 
 14 C       -8.8660     4.5180    -0.6840 C.3   1 <1>   0.4860 
 15 C       -7.3850     4.4480    -0.4090 C.ar  1 <1>  -0.1430 
 16 C       -6.8530     5.0480     0.7220 C.ar  1 <1>  -0.1500 
 17 C       -6.5440     3.7710    -1.2790 C.ar  1 <1>  -0.1500 
 18 C       -5.4980     4.9600     0.9840 C.ar  1 <1>  -0.1500 
 19 C       -5.1890     3.6870    -1.0120 C.ar  1 <1>  -0.1500 
 20 C       -4.6530     4.2780     0.1230 C.ar  1 <1>  -0.1430 
 21 C       -3.1590     4.1920     0.4300 C.3   1 <1>   0.0630 
 22 C       -2.3340     4.8650    -0.6720 C.3   1 <1>  -0.2400 
 23 C       -2.7220     2.7370     0.6230 C.3   1 <1>  -0.2400 
 24 H      -18.4870    -0.2720    -0.1740 H     1 <1>   0.4200 
 25 H      -18.7040     0.5850     1.1910 H     1 <1>   0.4200 
 26 H      -15.2930     0.6430    -1.8020 H     1 <1>   0.1500 
 27 H      -15.8630     2.8870     1.7620 H     1 <1>   0.1500 
 28 H      -12.8800     0.7570    -1.5050 H     1 <1>   0.1500 
 29 H      -13.4540     3.0170     2.0830 H     1 <1>   0.1500 
 30 H      -11.0210     1.0950     0.0890 H     1 <1>   0.0800 
 31 H      -11.2550     2.0180     1.5530 H     1 <1>   0.0800 
 32 H      -11.4120     4.0980     0.2160 H     1 <1>   0.0800 
 33 H      -11.1780     3.1760    -1.2470 H     1 <1>   0.0800 
 34 H       -8.9710     2.5070    -0.4070 H     1 <1>   0.4500 
 35 H       -9.1900     3.3720     0.9640 H     1 <1>   0.4500 
 36 H       -9.2770     5.4260    -0.2720 H     1 <1>   0.0800 
 37 H       -9.0470     4.4980    -1.7470 H     1 <1>   0.0800 
 38 H       -7.4760     5.5920     1.4120 H     1 <1>   0.1500 
 39 H       -6.9210     3.3050    -2.1740 H     1 <1>   0.1500 
 40 H       -5.0980     5.4320     1.8660 H     1 <1>   0.1500 
 41 H       -4.5470     3.1590    -1.6950 H     1 <1>   0.1500 
 42 H       -2.9620     4.7170     1.3500 H     1 <1>   0.0800 
 43 H       -2.4480     4.3490    -1.6080 H     1 <1>   0.0800 
 44 H       -1.2920     4.8680    -0.4070 H     1 <1>   0.0800 
 45 H       -2.6570     5.8830    -0.8000 H     1 <1>   0.0800 
 46 H       -2.8450     2.1740    -0.2840 H     1 <1>   0.0800 
 47 H       -3.3110     2.2770     1.3970 H     1 <1>   0.0800 
 48 H       -1.6870     2.6950     0.9140 H     1 <1>   0.0800 
@<TRIPOS>BOND
  1   1   2  2   
  2   1   3  2   
  3   1   4  am  
  4   1   5  1   
  5   4  24  1   
  6   4  25  1   
  7   5   6  ar  
  8   5   7  ar  
  9   6   8  ar  
 10   6  26  1   
 11   7   9  ar  
 12   7  27  1   
 13   8  10  ar  
 14   8  28  1   
 15   9  10  ar  
 16   9  29  1   
 17  10  11  1   
 18  11  12  1   
 19  11  30  1   
 20  11  31  1   
 21  12  13  1   
 22  12  32  1   
 23  12  33  1   
 24  13  14  1   
 25  13  34  1   
 26  13  35  1   
 27  14  15  1   
 28  14  36  1   
 29  14  37  1   
 30  15  16  ar  
 31  15  17  ar  
 32  16  18  ar  
 33  16  38  1   
 34  17  19  ar  
 35  17  39  1   
 36  18  20  ar  
 37  18  40  1   
 38  19  20  ar  
 39  19  41  1   
 40  20  21  1   
 41  21  22  1   
 42  21  23  1   
 43  21  42  1   
 44  22  43  1   
 45  22  44  1   
 46  22  45  1   
 47  23  46  1   
 48  23  47  1   
 49  23  48  1   
@<TRIPOS>SUBSTRUCTURE
  1 ****  12 GROUP 4 **** **** 0

# MOE 2024.06 (io_trps.svl 2023.06)
