@<TRIPOS>MOLECULE
NONAME
49 52 1 0 0 
SMALL
USER_CHARGES


@<TRIPOS>ATOM
  1 S       -0.0110     0.2700     0.2150 S.o2  1 <1>   1.4470 
  2 O       -0.0210     0.5980     1.6250 O.2   1 <1>  -0.6500 
  3 O       -0.4060     1.2730    -0.7490 O.2   1 <1>  -0.6500 
  4 N        1.5840    -0.1770    -0.1560 N.am  1 <1>  -0.8490 
  5 C       -0.9470    -1.2560    -0.0870 C.ar  1 <1>  -0.0090 
  6 C        2.1350    -1.1060     0.8350 C.3   1 <1>   0.1960 
  7 C        2.4380     1.0010    -0.3240 C.3   1 <1>   0.1960 
  8 C       -1.7770    -1.8000     0.8870 C.ar  1 <1>  -0.1500 
  9 C       -0.8510    -1.9200    -1.3040 C.ar  1 <1>  -0.1500 
 10 C        3.5010    -1.6120     0.3710 C.3   1 <1>  -0.1600 
 11 C        3.8210     0.5780    -0.8200 C.3   1 <1>  -0.1600 
 12 C       -2.4820    -2.9690     0.6580 C.ar  1 <1>  -0.1500 
 13 C       -1.5520    -3.0900    -1.5420 C.ar  1 <1>  -0.1500 
 14 C        4.4640    -0.4410     0.1320 C.3   1 <1>   0.1000 
 15 C       -2.3680    -3.6160    -0.5590 C.ar  1 <1>  -0.1500 
 16 C        5.8100    -0.9230    -0.3920 C.2   1 <1>   0.2980 
 17 O        5.8590    -1.5660    -1.5300 O.3   1 <1>  -0.0190 
 18 N        6.9250    -0.7550     0.1890 N.2   1 <1>  -0.5650 
 19 N        7.1170    -1.8310    -1.6880 N.2   1 <1>  -0.4100 
 20 C        7.7500    -1.3640    -0.6700 C.2   1 <1>   0.4620 
 21 C        9.1790    -1.4180    -0.4380 C.ar  1 <1>   0.0540 
 22 C        9.9240    -2.6000    -0.5600 C.ar  1 <1>   0.0830 
 23 C        9.8590    -0.2540    -0.0760 C.ar  1 <1>  -0.1500 
 24 O        9.2580    -3.7410    -0.8780 O.3   1 <1>  -0.3630 
 25 C       11.3000    -2.5880    -0.3450 C.ar  1 <1>  -0.1500 
 26 C       11.2240    -0.2470     0.1410 C.ar  1 <1>  -0.1500 
 27 C        9.9180    -4.9610    -1.1290 C.3   1 <1>   0.0400 
 28 C       11.9470    -1.4170     0.0030 C.ar  1 <1>  -0.1500 
 29 H        1.4750    -1.9490     0.9540 H     1 <1>   0.0800 
 30 H        2.2290    -0.6150     1.7910 H     1 <1>   0.0800 
 31 H        2.5180     1.5320     0.6120 H     1 <1>   0.0800 
 32 H        2.0030     1.6680    -1.0510 H     1 <1>   0.0800 
 33 H       -1.8740    -1.3020     1.8380 H     1 <1>   0.1500 
 34 H       -0.2170    -1.5130    -2.0750 H     1 <1>   0.1500 
 35 H        3.3720    -2.1780    -0.5350 H     1 <1>   0.0800 
 36 H        3.9120    -2.2690     1.1160 H     1 <1>   0.0800 
 37 H        4.4530     1.4450    -0.9010 H     1 <1>   0.0800 
 38 H        3.7190     0.1520    -1.8030 H     1 <1>   0.0800 
 39 H       -3.1190    -3.3740     1.4250 H     1 <1>   0.1500 
 40 H       -1.4620    -3.5880    -2.4930 H     1 <1>   0.1500 
 41 H        4.6400     0.0470     1.0750 H     1 <1>   0.0800 
 42 H       -2.9150    -4.5250    -0.7400 H     1 <1>   0.1500 
 43 H        9.3020     0.6600     0.0340 H     1 <1>   0.1500 
 44 H       11.8870    -3.4810    -0.4380 H     1 <1>   0.1500 
 45 H       11.7230     0.6660     0.4170 H     1 <1>   0.1500 
 46 H        9.1760    -5.6890    -1.4060 H     1 <1>   0.0800 
 47 H       10.4230    -5.2760    -0.2340 H     1 <1>   0.0800 
 48 H       10.6120    -4.8220    -1.9390 H     1 <1>   0.0800 
 49 H       13.0110    -1.4140     0.1700 H     1 <1>   0.1500 
@<TRIPOS>BOND
  1   1   2  2   
  2   1   3  2   
  3   1   4  am  
  4   1   5  1   
  5   4   6  1   
  6   4   7  1   
  7   5   8  ar  
  8   5   9  ar  
  9   6  10  1   
 10   6  29  1   
 11   6  30  1   
 12   7  11  1   
 13   7  31  1   
 14   7  32  1   
 15   8  12  ar  
 16   8  33  1   
 17   9  13  ar  
 18   9  34  1   
 19  10  14  1   
 20  10  35  1   
 21  10  36  1   
 22  11  14  1   
 23  11  37  1   
 24  11  38  1   
 25  12  15  ar  
 26  12  39  1   
 27  13  15  ar  
 28  13  40  1   
 29  14  16  1   
 30  14  41  1   
 31  15  42  1   
 32  16  17  1   
 33  16  18  2   
 34  17  19  1   
 35  18  20  1   
 36  19  20  2   
 37  20  21  1   
 38  21  22  ar  
 39  21  23  ar  
 40  22  24  1   
 41  22  25  ar  
 42  23  26  ar  
 43  23  43  1   
 44  24  27  1   
 45  25  28  ar  
 46  25  44  1   
 47  26  28  ar  
 48  26  45  1   
 49  27  46  1   
 50  27  47  1   
 51  27  48  1   
 52  28  49  1   
@<TRIPOS>SUBSTRUCTURE
  1 ****  14 GROUP 4 **** **** 0

# MOE 2024.06 (io_trps.svl 2023.06)
