@<TRIPOS>MOLECULE
NONAME
33 33 1 0 0 
SMALL
USER_CHARGES


@<TRIPOS>ATOM
  1 S        0.3170     0.0240     0.6260 S.3   1 <1>  -0.3320 
  2 C        0.2340    -1.7390     0.3550 C.ar  1 <1>   0.7220 
  3 C        2.1180     0.3510     0.9740 C.3   1 <1>   0.1310 
  4 N       -0.9340    -2.1940     0.0320 N.ar  1 <1>  -0.6200 
  5 N        1.3460    -2.3840     0.4960 N.ar  1 <1>  -0.6200 
  6 C        2.9830     0.1250    -0.2610 C.2   1 <1>   0.5690 
  7 C       -0.9350    -3.4920    -0.1670 C.ar  1 <1>   0.7200 
  8 C        1.2280    -3.6660     0.2540 C.ar  1 <1>   0.7200 
  9 O        4.1510    -0.1360    -0.1240 O.2   1 <1>  -0.5700 
 10 N        2.4600     0.2310    -1.4990 N.am  1 <1>  -0.8000 
 11 N        0.1150    -4.2710    -0.0720 N.ar  1 <1>  -0.6200 
 12 N       -2.1370    -4.0770    -0.5080 N.pl3 1 <1>  -0.8380 
 13 N        2.3750    -4.4240     0.3480 N.pl3 1 <1>  -0.8380 
 14 C       -3.4400    -3.3670    -0.3620 C.3   1 <1>   0.1290 
 15 C       -2.2230    -5.4660    -1.0400 C.3   1 <1>   0.1290 
 16 C        2.3440    -5.9100     0.4290 C.3   1 <1>   0.1290 
 17 C        3.7350    -3.8080     0.3420 C.3   1 <1>   0.1290 
 18 H        2.4190    -0.3080     1.7670 H     1 <1>   0.0800 
 19 H        2.1980     1.3700     1.2980 H     1 <1>   0.0800 
 20 H        3.0410     0.0370    -2.3150 H     1 <1>   0.3700 
 21 H        1.4610     0.3680    -1.6640 H     1 <1>   0.3700 
 22 H       -3.3860    -2.6270     0.4180 H     1 <1>   0.0800 
 23 H       -4.2160    -4.0670    -0.1060 H     1 <1>   0.0800 
 24 H       -3.6900    -2.8810    -1.2880 H     1 <1>   0.0800 
 25 H       -1.3080    -5.7410    -1.5360 H     1 <1>   0.0800 
 26 H       -3.0270    -5.5410    -1.7510 H     1 <1>   0.0800 
 27 H       -2.4000    -6.1510    -0.2300 H     1 <1>   0.0800 
 28 H        1.3970    -6.2520     0.8100 H     1 <1>   0.0800 
 29 H        3.1180    -6.2590     1.0890 H     1 <1>   0.0800 
 30 H        2.4970    -6.3270    -0.5510 H     1 <1>   0.0800 
 31 H        3.7330    -2.8830    -0.2110 H     1 <1>   0.0800 
 32 H        4.4430    -4.4730    -0.1220 H     1 <1>   0.0800 
 33 H        4.0460    -3.6070     1.3520 H     1 <1>   0.0800 
@<TRIPOS>BOND
  1   1   2  1   
  2   1   3  1   
  3   2   4  ar  
  4   2   5  ar  
  5   3   6  1   
  6   3  18  1   
  7   3  19  1   
  8   4   7  ar  
  9   5   8  ar  
 10   6   9  2   
 11   6  10  am  
 12   7  11  ar  
 13   7  12  1   
 14   8  11  ar  
 15   8  13  1   
 16  10  20  1   
 17  10  21  1   
 18  12  14  1   
 19  12  15  1   
 20  13  16  1   
 21  13  17  1   
 22  14  22  1   
 23  14  23  1   
 24  14  24  1   
 25  15  25  1   
 26  15  26  1   
 27  15  27  1   
 28  16  28  1   
 29  16  29  1   
 30  16  30  1   
 31  17  31  1   
 32  17  32  1   
 33  17  33  1   
@<TRIPOS>SUBSTRUCTURE
  1 ****   5 GROUP 4 **** **** 0

# MOE 2024.06 (io_trps.svl 2023.06)
