@<TRIPOS>MOLECULE
NONAME
59 62 1 0 0 
SMALL
USER_CHARGES


@<TRIPOS>ATOM
  1 O        0.6550     2.3780     0.1830 O.3   1 <1>  -0.5600 
  2 C        1.3380     1.3610    -0.4820 C.3   1 <1>   0.1200 
  3 C       -0.6090     2.6520    -0.3310 C.3   1 <1>   0.1200 
  4 C        2.7060     1.1830     0.1910 C.3   1 <1>   0.2000 
  5 C       -1.2170     3.7810     0.5060 C.3   1 <1>  -0.1600 
  6 O        3.2700     2.4450     0.3740 O.3   1 <1>  -0.6800 
  7 C        3.6780     0.3080    -0.6280 C.3   1 <1>   0.3430 
  8 C       -2.6330     4.2290     0.0750 C.3   1 <1>   0.0000 
  9 N        5.0920     0.6240    -0.2600 N.4   1 <1>  -0.9590 
 10 C       -3.0940     5.3650     1.0190 C.3   1 <1>  -0.1600 
 11 C       -2.6450     4.7700    -1.3750 C.3   1 <1>  -0.1600 
 12 C       -3.6550     3.0710     0.1770 C.3   1 <1>  -0.1600 
 13 C        6.0490     0.3740    -1.3730 C.3   1 <1>   0.3430 
 14 C        5.5100    -0.0080     1.0230 C.3   1 <1>   0.3430 
 15 C       -4.5030     5.8600     0.6430 C.3   1 <1>  -0.0800 
 16 C       -4.0530     5.2610    -1.7640 C.3   1 <1>  -0.0800 
 17 C       -5.0680     3.5540    -0.2050 C.3   1 <1>  -0.0800 
 18 C        7.4300     0.9130    -0.9940 C.3   1 <1>  -0.1600 
 19 C        6.8830     0.5260     1.4350 C.3   1 <1>  -0.1600 
 20 C       -4.4830     6.3850    -0.8040 C.3   1 <1>  -0.1600 
 21 C       -5.4940     4.6860     0.7470 C.3   1 <1>  -0.1600 
 22 C       -5.0460     4.0890    -1.6490 C.3   1 <1>  -0.1600 
 23 C        7.9290     0.3230     0.3320 C.3   1 <1>  -0.1600 
 24 H        1.4560     1.6460    -1.5140 H     1 <1>   0.0800 
 25 H        0.7610     0.4540    -0.4200 H     1 <1>   0.0800 
 26 H       -1.2070     1.7590    -0.2630 H     1 <1>   0.0800 
 27 H       -0.5030     2.9500    -1.3600 H     1 <1>   0.0800 
 28 H        2.5570     0.7500     1.1650 H     1 <1>   0.0800 
 29 H       -0.5570     4.6290     0.4540 H     1 <1>   0.0800 
 30 H       -1.2550     3.4550     1.5300 H     1 <1>   0.0800 
 31 H        2.5260     3.0530     0.6090 H     1 <1>   0.4000 
 32 H        3.5250     0.5320    -1.6700 H     1 <1>   0.0800 
 33 H        3.4640    -0.7370    -0.4770 H     1 <1>   0.0800 
 34 H        5.0600     1.6470    -0.0790 H     1 <1>   0.4500 
 35 H       -2.4040     6.1890     0.9650 H     1 <1>   0.0800 
 36 H       -3.1020     5.0150     2.0360 H     1 <1>   0.0800 
 37 H       -2.3490     4.0020    -2.0660 H     1 <1>   0.0800 
 38 H       -1.9450     5.5820    -1.4680 H     1 <1>   0.0800 
 39 H       -3.6700     2.6830     1.1810 H     1 <1>   0.0800 
 40 H       -3.3800     2.2670    -0.4810 H     1 <1>   0.0800 
 41 H        5.7080     0.8640    -2.2710 H     1 <1>   0.0800 
 42 H        6.1170    -0.6840    -1.5650 H     1 <1>   0.0800 
 43 H        5.5610    -1.0780     0.9050 H     1 <1>   0.0800 
 44 H        4.7940     0.2190     1.7970 H     1 <1>   0.0800 
 45 H       -4.8020     6.6490     1.3120 H     1 <1>   0.0800 
 46 H       -4.0430     5.6310    -2.7740 H     1 <1>   0.0800 
 47 H       -5.7650     2.7370    -0.1310 H     1 <1>   0.0800 
 48 H        7.3840     1.9860    -0.9220 H     1 <1>   0.0800 
 49 H        8.1280     0.6730    -1.7770 H     1 <1>   0.0800 
 50 H        7.2040     0.0200     2.3290 H     1 <1>   0.0800 
 51 H        6.7980     1.5730     1.6720 H     1 <1>   0.0800 
 52 H       -5.4620     6.7410    -1.0750 H     1 <1>   0.0800 
 53 H       -3.8000     7.2120    -0.8820 H     1 <1>   0.0800 
 54 H       -6.4840     5.0220     0.4940 H     1 <1>   0.0800 
 55 H       -5.5210     4.3210     1.7590 H     1 <1>   0.0800 
 56 H       -4.7620     3.3020    -2.3260 H     1 <1>   0.0800 
 57 H       -6.0310     4.4200    -1.9290 H     1 <1>   0.0800 
 58 H        8.8560     0.7950     0.6150 H     1 <1>   0.0800 
 59 H        8.1220    -0.7300     0.2070 H     1 <1>   0.0800 
@<TRIPOS>BOND
  1   1   2  1   
  2   1   3  1   
  3   2   4  1   
  4   2  24  1   
  5   2  25  1   
  6   3   5  1   
  7   3  26  1   
  8   3  27  1   
  9   4   6  1   
 10   4   7  1   
 11   4  28  1   
 12   5   8  1   
 13   5  29  1   
 14   5  30  1   
 15   6  31  1   
 16   7   9  1   
 17   7  32  1   
 18   7  33  1   
 19   8  10  1   
 20   8  11  1   
 21   8  12  1   
 22   9  13  1   
 23   9  14  1   
 24   9  34  1   
 25  10  15  1   
 26  10  35  1   
 27  10  36  1   
 28  11  16  1   
 29  11  37  1   
 30  11  38  1   
 31  12  17  1   
 32  12  39  1   
 33  12  40  1   
 34  13  18  1   
 35  13  41  1   
 36  13  42  1   
 37  14  19  1   
 38  14  43  1   
 39  14  44  1   
 40  15  20  1   
 41  15  21  1   
 42  15  45  1   
 43  16  20  1   
 44  16  22  1   
 45  16  46  1   
 46  17  21  1   
 47  17  22  1   
 48  17  47  1   
 49  18  23  1   
 50  18  48  1   
 51  18  49  1   
 52  19  23  1   
 53  19  50  1   
 54  19  51  1   
 55  20  52  1   
 56  20  53  1   
 57  21  54  1   
 58  21  55  1   
 59  22  56  1   
 60  22  57  1   
 61  23  58  1   
 62  23  59  1   
@<TRIPOS>SUBSTRUCTURE
  1 ****   1 GROUP 4 **** **** 0

# MOE 2024.06 (io_trps.svl 2023.06)
