@<TRIPOS>MOLECULE
NONAME
43 44 1 0 0 
SMALL
USER_CHARGES


@<TRIPOS>ATOM
  1 O        0.2520    -0.7840     0.2970 O.2   1 <1>  -0.5700 
  2 C       -0.2820    -1.6850    -0.3150 C.2   1 <1>   0.6340 
  3 O        0.2920    -2.1340    -1.4360 O.3   1 <1>  -0.4300 
  4 C       -1.5270    -2.3020     0.1090 C.ar  1 <1>   0.0860 
  5 C        1.5040    -1.5900    -1.9220 C.3   1 <1>   0.0400 
  6 C       -2.1430    -3.3190    -0.6240 C.ar  1 <1>  -0.1500 
  7 C       -2.1660    -1.8960     1.2820 C.ar  1 <1>  -0.1500 
  8 C       -3.3320    -3.8930    -0.2150 C.ar  1 <1>  -0.1500 
  9 C       -3.3550    -2.4640     1.6990 C.ar  1 <1>  -0.1500 
 10 C       -3.9530    -3.4640     0.9480 C.ar  1 <1>  -0.1440 
 11 C       -5.2710    -4.0730     1.3900 C.3   1 <1>   0.4860 
 12 N       -6.3450    -3.5600     0.5000 N.4   1 <1>  -0.9590 
 13 C       -6.5410    -2.0890     0.6240 C.3   1 <1>   0.3430 
 14 C       -7.6310    -4.3130     0.6680 C.3   1 <1>   0.3430 
 15 C       -7.3590    -1.5790    -0.5770 C.3   1 <1>  -0.0800 
 16 C       -8.8320    -3.5980     0.0090 C.3   1 <1>  -0.0800 
 17 C       -8.3840    -2.6160    -1.0920 C.3   1 <1>  -0.1600 
 18 C       -6.4320    -1.1400    -1.7200 C.3   1 <1>  -0.2400 
 19 C       -9.7140    -2.8960     1.0570 C.3   1 <1>  -0.2400 
 20 H        1.7710    -2.1040    -2.8270 H     1 <1>   0.0800 
 21 H        2.2690    -1.7260    -1.1770 H     1 <1>   0.0800 
 22 H        1.3600    -0.5410    -2.1190 H     1 <1>   0.0800 
 23 H       -1.6770    -3.6680    -1.5310 H     1 <1>   0.1500 
 24 H       -1.7120    -1.1190     1.8760 H     1 <1>   0.1500 
 25 H       -3.7600    -4.6790    -0.8150 H     1 <1>   0.1500 
 26 H       -3.8020    -2.1150     2.6160 H     1 <1>   0.1500 
 27 H       -5.4780    -3.8110     2.4150 H     1 <1>   0.0800 
 28 H       -5.2080    -5.1460     1.3160 H     1 <1>   0.0800 
 29 H       -6.0240    -3.7000    -0.4650 H     1 <1>   0.4500 
 30 H       -5.5930    -1.5760     0.6480 H     1 <1>   0.0800 
 31 H       -7.0650    -1.8720     1.5400 H     1 <1>   0.0800 
 32 H       -7.8440    -4.4480     1.7160 H     1 <1>   0.0800 
 33 H       -7.5240    -5.2910     0.2270 H     1 <1>   0.0800 
 34 H       -7.8950    -0.7060    -0.2430 H     1 <1>   0.0800 
 35 H       -9.4460    -4.3560    -0.4490 H     1 <1>   0.0800 
 36 H       -7.9460    -3.1930    -1.8890 H     1 <1>   0.0800 
 37 H       -9.2370    -2.1080    -1.5100 H     1 <1>   0.0800 
 38 H       -5.8410    -1.9620    -2.0850 H     1 <1>   0.0800 
 39 H       -5.7650    -0.3630    -1.3870 H     1 <1>   0.0800 
 40 H       -7.0120    -0.7490    -2.5390 H     1 <1>   0.0800 
 41 H       -9.1850    -2.1250     1.5870 H     1 <1>   0.0800 
 42 H      -10.0830    -3.6090     1.7740 H     1 <1>   0.0800 
 43 H      -10.5670    -2.4450     0.5780 H     1 <1>   0.0800 
@<TRIPOS>BOND
  1   1   2  2   
  2   2   3  1   
  3   2   4  1   
  4   3   5  1   
  5   4   6  ar  
  6   4   7  ar  
  7   5  20  1   
  8   5  21  1   
  9   5  22  1   
 10   6   8  ar  
 11   6  23  1   
 12   7   9  ar  
 13   7  24  1   
 14   8  10  ar  
 15   8  25  1   
 16   9  10  ar  
 17   9  26  1   
 18  10  11  1   
 19  11  12  1   
 20  11  27  1   
 21  11  28  1   
 22  12  13  1   
 23  12  14  1   
 24  12  29  1   
 25  13  15  1   
 26  13  30  1   
 27  13  31  1   
 28  14  16  1   
 29  14  32  1   
 30  14  33  1   
 31  15  17  1   
 32  15  18  1   
 33  15  34  1   
 34  16  17  1   
 35  16  19  1   
 36  16  35  1   
 37  17  36  1   
 38  17  37  1   
 39  18  38  1   
 40  18  39  1   
 41  18  40  1   
 42  19  41  1   
 43  19  42  1   
 44  19  43  1   
@<TRIPOS>SUBSTRUCTURE
  1 ****  10 GROUP 4 **** **** 0

# MOE 2024.06 (io_trps.svl 2023.06)
