@<TRIPOS>MOLECULE
NONAME
41 44 1 0 0 
SMALL
USER_CHARGES


@<TRIPOS>ATOM
  1 O       -0.2150     0.8050     1.3640 O.2   1 <1>  -0.5700 
  2 C       -1.0560     1.2940     0.6620 C.2   1 <1>   0.6590 
  3 O       -0.9880     2.5940     0.1780 O.3   1 <1>  -0.4300 
  4 C       -2.3770     0.5300     0.2210 C.3   1 <1>  -0.0190 
  5 C       -2.0770     2.9690    -0.7520 C.3   1 <1>   0.2000 
  6 C       -3.9500     0.7150     0.9600 C.3   1 <1>  -0.0190 
  7 C       -2.4770     1.5210    -0.9170 C.3   1 <1>  -0.0800 
  8 C       -3.5790     3.6690    -0.2090 C.3   1 <1>  -0.1600 
  9 C       -4.9340    -0.3730     0.5180 C.2   1 <1>   0.5690 
 10 C       -4.4180     2.3660     0.6060 C.3   1 <1>  -0.0800 
 11 C       -3.4850     1.9760    -0.0850 C.3   1 <1>  -0.1600 
 12 O       -5.8930    -0.0680    -0.1470 O.2   1 <1>  -0.5700 
 13 N       -4.6520    -1.6550     0.9030 N.am  1 <1>  -0.5470 
 14 C       -5.3200    -2.8670     0.6560 C.ar  1 <1>   0.1170 
 15 C       -6.6570    -2.9410     0.2740 C.ar  1 <1>  -0.1500 
 16 C       -4.6160    -4.0550     0.8180 C.ar  1 <1>  -0.1500 
 17 C       -7.2700    -4.1610     0.0510 C.ar  1 <1>  -0.1500 
 18 C       -5.2240    -5.2770     0.5980 C.ar  1 <1>  -0.1500 
 19 C       -6.5520    -5.3420     0.2130 C.ar  1 <1>   0.0820 
 20 O       -7.0720    -6.5820     0.0170 O.3   1 <1>  -0.3630 
 21 C       -8.4080    -6.7490    -0.3980 C.3   1 <1>   0.1200 
 22 C       -8.6750    -8.2440    -0.5380 C.3   1 <1>  -0.2400 
 23 H       -2.1590    -0.4660    -0.1200 H     1 <1>   0.0800 
 24 H       -1.6610     3.4180    -1.6390 H     1 <1>   0.0800 
 25 H       -3.8430     0.5990     2.0280 H     1 <1>   0.0800 
 26 H       -2.8120     1.1780    -1.8870 H     1 <1>   0.0800 
 27 H       -4.1530     4.0470    -1.0460 H     1 <1>   0.0800 
 28 H       -3.3860     4.5030     0.4480 H     1 <1>   0.0800 
 29 H       -4.5930     2.7800     1.6000 H     1 <1>   0.0800 
 30 H       -2.9290     2.3480     1.0270 H     1 <1>   0.0800 
 31 H       -4.2790     1.7780    -0.8740 H     1 <1>   0.0800 
 32 H       -3.7950    -1.7640     1.4400 H     1 <1>   0.3700 
 33 H       -7.2320    -2.0420     0.1490 H     1 <1>   0.1500 
 34 H       -3.5830    -4.0310     1.1130 H     1 <1>   0.1500 
 35 H       -8.3020    -4.1680    -0.2450 H     1 <1>   0.1500 
 36 H       -4.6740    -6.1930     0.7220 H     1 <1>   0.1500 
 37 H       -8.5370    -6.2490    -1.3430 H     1 <1>   0.0800 
 38 H       -9.0530    -6.3150     0.3470 H     1 <1>   0.0800 
 39 H       -8.0140    -8.6700    -1.2720 H     1 <1>   0.0800 
 40 H       -9.6890    -8.4050    -0.8540 H     1 <1>   0.0800 
 41 H       -8.5270    -8.7350     0.4070 H     1 <1>   0.0800 
@<TRIPOS>BOND
  1   1   2  2   
  2   2   3  1   
  3   2   4  1   
  4   3   5  1   
  5   4   6  1   
  6   4   7  1   
  7   4  23  1   
  8   5   7  1   
  9   5   8  1   
 10   5  24  1   
 11   6   9  1   
 12   6  10  1   
 13   6  25  1   
 14   7  11  1   
 15   7  26  1   
 16   8  10  1   
 17   8  27  1   
 18   8  28  1   
 19   9  12  2   
 20   9  13  am  
 21  10  11  1   
 22  10  29  1   
 23  11  30  1   
 24  11  31  1   
 25  13  14  1   
 26  13  32  1   
 27  14  15  ar  
 28  14  16  ar  
 29  15  17  ar  
 30  15  33  1   
 31  16  18  ar  
 32  16  34  1   
 33  17  19  ar  
 34  17  35  1   
 35  18  19  ar  
 36  18  36  1   
 37  19  20  1   
 38  20  21  1   
 39  21  22  1   
 40  21  37  1   
 41  21  38  1   
 42  22  39  1   
 43  22  40  1   
 44  22  41  1   
@<TRIPOS>SUBSTRUCTURE
  1 ****  13 GROUP 4 **** **** 0

# MOE 2024.06 (io_trps.svl 2023.06)
