@<TRIPOS>MOLECULE
NONAME
26 26 1 0 0 
SMALL
USER_CHARGES


@<TRIPOS>ATOM
  1 S       -1.0050     0.9550     0.5340 S.3   1 <1>  -0.4600 
  2 C       -1.3090    -0.0310    -0.9820 C.3   1 <1>   0.1310 
  3 C        0.7440     1.4120     0.4130 C.3   1 <1>   0.0700 
  4 C       -2.7680    -0.4500    -1.1200 C.2   1 <1>   0.5690 
  5 C        1.5870     0.1910     0.7740 C.3   1 <1>  -0.2400 
  6 O       -3.0780    -1.0720    -2.1050 O.2   1 <1>  -0.5700 
  7 N       -3.6460    -0.1040    -0.1290 N.am  1 <1>  -0.5470 
  8 C       -5.0270    -0.3240     0.0610 C.ar  1 <1>   0.1170 
  9 C       -5.6590     0.1810     1.1970 C.ar  1 <1>   0.1900 
 10 C       -5.8270    -1.0320    -0.8340 C.ar  1 <1>  -0.1500 
 11 F       -4.9490     0.8540     2.0700 F     1 <1>  -0.1900 
 12 C       -7.0050     0.0090     1.4570 C.ar  1 <1>  -0.1500 
 13 C       -7.1800    -1.2170    -0.5930 C.ar  1 <1>  -0.1500 
 14 C       -7.7720    -0.6990     0.5490 C.ar  1 <1>  -0.1500 
 15 H       -0.6850    -0.9030    -0.9310 H     1 <1>   0.0800 
 16 H       -1.0230     0.5750    -1.8210 H     1 <1>   0.0800 
 17 H        0.9070     2.2170     1.1090 H     1 <1>   0.0800 
 18 H        0.9300     1.7530    -0.5910 H     1 <1>   0.0800 
 19 H        1.3310    -0.1560     1.7590 H     1 <1>   0.0800 
 20 H        2.6300     0.4530     0.7630 H     1 <1>   0.0800 
 21 H        1.4290    -0.6050     0.0690 H     1 <1>   0.0800 
 22 H       -3.2050     0.4310     0.6270 H     1 <1>   0.3700 
 23 H       -5.4030    -1.4480    -1.7290 H     1 <1>   0.1500 
 24 H       -7.4390     0.4210     2.3500 H     1 <1>   0.1500 
 25 H       -7.7750    -1.7680    -1.3010 H     1 <1>   0.1500 
 26 H       -8.8240    -0.8480     0.7270 H     1 <1>   0.1500 
@<TRIPOS>BOND
  1   1   2  1   
  2   1   3  1   
  3   2   4  1   
  4   2  15  1   
  5   2  16  1   
  6   3   5  1   
  7   3  17  1   
  8   3  18  1   
  9   4   6  2   
 10   4   7  am  
 11   5  19  1   
 12   5  20  1   
 13   5  21  1   
 14   7   8  1   
 15   7  22  1   
 16   8   9  ar  
 17   8  10  ar  
 18   9  11  1   
 19   9  12  ar  
 20  10  13  ar  
 21  10  23  1   
 22  12  14  ar  
 23  12  24  1   
 24  13  14  ar  
 25  13  25  1   
 26  14  26  1   
@<TRIPOS>SUBSTRUCTURE
  1 ****   7 GROUP 4 **** **** 0

# MOE 2024.06 (io_trps.svl 2023.06)
