@<TRIPOS>MOLECULE
NONAME
47 49 1 0 0 
SMALL
USER_CHARGES


@<TRIPOS>ATOM
  1 F        1.4710    -0.7860     1.0050 F     1 <1>  -0.1900 
  2 C        2.6410    -1.3330     0.8100 C.ar  1 <1>   0.1900 
  3 C        3.0390    -1.6130    -0.4820 C.ar  1 <1>  -0.1500 
  4 C        3.4360    -1.6120     1.9040 C.ar  1 <1>  -0.1500 
  5 C        4.2810    -2.1910    -0.6820 C.ar  1 <1>  -0.1500 
  6 C        4.6760    -2.1900     1.6910 C.ar  1 <1>  -0.1500 
  7 C        5.1060    -2.4750     0.4000 C.ar  1 <1>  -0.1430 
  8 C        6.4820    -3.0910     0.1720 C.3   1 <1>  -0.0160 
  9 C        7.5840    -2.0200    -0.0120 C.3   1 <1>   0.1220 
 10 C        7.6480    -1.1640     1.2550 C.2   1 <1>   0.5690 
 11 C        7.2340    -1.1650    -1.2320 C.2   1 <1>   0.5690 
 12 C        8.9450    -2.7400    -0.2380 C.3   1 <1>  -0.1600 
 13 O        8.0470    -1.6930     2.2670 O.2   1 <1>  -0.5700 
 14 N        7.2520     0.1520     1.2510 N.am  1 <1>  -0.4200 
 15 O        7.2840    -1.6940    -2.3180 O.2   1 <1>  -0.5700 
 16 N        6.8610     0.1510    -1.1020 N.am  1 <1>  -0.4200 
 17 C       10.1340    -1.7840    -0.4360 C.3   1 <1>  -0.0170 
 18 C        6.8020     0.7880     0.1170 C.2   1 <1>   0.6900 
 19 C        7.2320     0.9170     2.5380 C.3   1 <1>   0.0600 
 20 C        6.4250     0.9150    -2.3130 C.3   1 <1>   0.0600 
 21 C       11.4070    -2.5810    -0.6470 C.ar  1 <1>  -0.1430 
 22 O        6.3710     1.9220     0.1880 O.2   1 <1>  -0.5700 
 23 C       12.2090    -2.9650     0.4080 C.ar  1 <1>  -0.1500 
 24 C       11.8260    -2.9660    -1.9040 C.ar  1 <1>  -0.1500 
 25 C       13.3600    -3.6950     0.1620 C.ar  1 <1>   0.1600 
 26 C       12.9950    -3.6950    -2.0420 C.ar  1 <1>   0.1600 
 27 N       13.7730    -4.0680    -1.0390 N.ar  1 <1>  -0.6200 
 28 H        2.3900    -1.3840    -1.3080 H     1 <1>   0.1500 
 29 H        3.0890    -1.3830     2.8950 H     1 <1>   0.1500 
 30 H        4.6020    -2.4170    -1.6860 H     1 <1>   0.1500 
 31 H        5.3050    -2.4150     2.5380 H     1 <1>   0.1500 
 32 H        6.4430    -3.7240    -0.6990 H     1 <1>   0.0800 
 33 H        6.7270    -3.7230     1.0080 H     1 <1>   0.0800 
 34 H        8.8740    -3.3780    -1.1030 H     1 <1>   0.0800 
 35 H        9.1580    -3.3770     0.6040 H     1 <1>   0.0800 
 36 H       10.2570    -1.1500     0.4250 H     1 <1>   0.0800 
 37 H        9.9710    -1.1520    -1.2920 H     1 <1>   0.0800 
 38 H        7.8780     0.4660     3.2710 H     1 <1>   0.0800 
 39 H        6.2280     0.9400     2.9230 H     1 <1>   0.0800 
 40 H        7.5650     1.9270     2.3740 H     1 <1>   0.0800 
 41 H        6.7990     0.4640    -3.2160 H     1 <1>   0.0800 
 42 H        6.7940     1.9250    -2.2670 H     1 <1>   0.0800 
 43 H        5.3500     0.9380    -2.3520 H     1 <1>   0.0800 
 44 H       11.9480    -2.7070     1.4180 H     1 <1>   0.1500 
 45 H       11.2530    -2.7080    -2.7770 H     1 <1>   0.1500 
 46 H       13.9740    -3.9860     0.9970 H     1 <1>   0.1500 
 47 H       13.3070    -3.9880    -3.0300 H     1 <1>   0.1500 
@<TRIPOS>BOND
  1   1   2  1   
  2   2   3  ar  
  3   2   4  ar  
  4   3   5  ar  
  5   3  28  1   
  6   4   6  ar  
  7   4  29  1   
  8   5   7  ar  
  9   5  30  1   
 10   6   7  ar  
 11   6  31  1   
 12   7   8  1   
 13   8   9  1   
 14   8  32  1   
 15   8  33  1   
 16   9  10  1   
 17   9  11  1   
 18   9  12  1   
 19  10  13  2   
 20  10  14  am  
 21  11  15  2   
 22  11  16  am  
 23  12  17  1   
 24  12  34  1   
 25  12  35  1   
 26  14  18  am  
 27  14  19  1   
 28  16  18  am  
 29  16  20  1   
 30  17  21  1   
 31  17  36  1   
 32  17  37  1   
 33  18  22  2   
 34  19  38  1   
 35  19  39  1   
 36  19  40  1   
 37  20  41  1   
 38  20  42  1   
 39  20  43  1   
 40  21  23  ar  
 41  21  24  ar  
 42  23  25  ar  
 43  23  44  1   
 44  24  26  ar  
 45  24  45  1   
 46  25  27  ar  
 47  25  46  1   
 48  26  27  ar  
 49  26  47  1   
@<TRIPOS>SUBSTRUCTURE
  1 ****   9 GROUP 4 **** **** 0

# MOE 2024.06 (io_trps.svl 2023.06)
