@<TRIPOS>MOLECULE
NONAME
46 46 1 0 0 
SMALL
USER_CHARGES


@<TRIPOS>ATOM
  1 O        0.2470     0.5990     1.9140 O.3   1 <1>  -0.6800 
  2 C        0.1360     1.3920     0.8020 C.3   1 <1>   0.2800 
  3 C        1.4030     1.2450    -0.0720 C.3   1 <1>  -0.1600 
  4 C       -1.1490     0.9850     0.0770 C.3   1 <1>  -0.2400 
  5 C       -0.0050     2.8230     1.3180 C.3   1 <1>  -0.2400 
  6 C        2.1970    -0.0820    -0.0300 C.3   1 <1>   0.1000 
  7 C        3.4950     0.1320    -0.8120 C.2   1 <1>   0.0070 
  8 C        1.4070    -1.2970    -0.5630 C.3   1 <1>  -0.1600 
  9 N        3.5790     0.1110    -2.1000 N.2   1 <1>  -0.3380 
 10 N        4.6880     0.3780    -0.2520 N.pl3 1 <1>   0.0480 
 11 C        2.2160    -2.6080    -0.5110 C.3   1 <1>  -0.1600 
 12 N        4.8530     0.3320    -2.4200 N.2   1 <1>  -0.3380 
 13 C        5.4910     0.4850    -1.3130 C.2   1 <1>   0.0360 
 14 C        5.0560     0.5000     1.1760 C.3   1 <1>   0.2340 
 15 C        1.4500    -3.8190    -1.0750 C.3   1 <1>  -0.0800 
 16 C        6.2490     1.4260     1.3670 C.2   1 <1>  -0.2880 
 17 C        0.2170    -4.1780    -0.2340 C.3   1 <1>  -0.2400 
 18 C        2.3860    -5.0310    -1.1450 C.3   1 <1>  -0.2400 
 19 C        7.4280     1.0700     1.8860 C.2   1 <1>  -0.3000 
 20 H        0.0040    -0.3150     1.6810 H     1 <1>   0.4000 
 21 H        2.0890     2.0200     0.2180 H     1 <1>   0.0800 
 22 H        1.1460     1.4630    -1.0950 H     1 <1>   0.0800 
 23 H       -1.1050    -0.0180    -0.2980 H     1 <1>   0.0800 
 24 H       -1.3120     1.6380    -0.7610 H     1 <1>   0.0800 
 25 H       -1.9940     1.0760     0.7360 H     1 <1>   0.0800 
 26 H        0.8540     3.0990     1.9040 H     1 <1>   0.0800 
 27 H       -0.8840     2.9180     1.9290 H     1 <1>   0.0800 
 28 H       -0.0890     3.5080     0.4940 H     1 <1>   0.0800 
 29 H        2.4490    -0.2950     0.9920 H     1 <1>   0.0800 
 30 H        1.1030    -1.1050    -1.5780 H     1 <1>   0.0800 
 31 H        0.5290    -1.4250     0.0350 H     1 <1>   0.0800 
 32 H        2.5120    -2.8110     0.5030 H     1 <1>   0.0800 
 33 H        3.1140    -2.4840    -1.0940 H     1 <1>   0.0800 
 34 H        6.5450     0.6790    -1.2360 H     1 <1>   0.1500 
 35 H        5.2820    -0.4820     1.5530 H     1 <1>   0.0800 
 36 H        4.2180     0.8930     1.7240 H     1 <1>   0.0800 
 37 H        1.1300    -3.5880    -2.0780 H     1 <1>   0.0800 
 38 H        6.0460     2.4300     1.0310 H     1 <1>   0.1500 
 39 H        0.4930    -4.3440     0.7920 H     1 <1>   0.0800 
 40 H       -0.2400    -5.0760    -0.6130 H     1 <1>   0.0800 
 41 H       -0.5190    -3.3970    -0.2770 H     1 <1>   0.0800 
 42 H        2.7340    -5.3010    -0.1640 H     1 <1>   0.0800 
 43 H        3.2390    -4.8090    -1.7630 H     1 <1>   0.0800 
 44 H        1.8740    -5.8750    -1.5730 H     1 <1>   0.0800 
 45 H        8.2570     1.7470     2.0100 H     1 <1>   0.1500 
 46 H        7.6720     0.0790     2.2330 H     1 <1>   0.1500 
@<TRIPOS>BOND
  1   1   2  1   
  2   1  20  1   
  3   2   3  1   
  4   2   4  1   
  5   2   5  1   
  6   3   6  1   
  7   3  21  1   
  8   3  22  1   
  9   4  23  1   
 10   4  24  1   
 11   4  25  1   
 12   5  26  1   
 13   5  27  1   
 14   5  28  1   
 15   6   7  1   
 16   6   8  1   
 17   6  29  1   
 18   7   9  2   
 19   7  10  1   
 20   8  11  1   
 21   8  30  1   
 22   8  31  1   
 23   9  12  1   
 24  10  13  1   
 25  10  14  1   
 26  11  15  1   
 27  11  32  1   
 28  11  33  1   
 29  12  13  2   
 30  13  34  1   
 31  14  16  1   
 32  14  35  1   
 33  14  36  1   
 34  15  17  1   
 35  15  18  1   
 36  15  37  1   
 37  16  19  2   
 38  16  38  1   
 39  17  39  1   
 40  17  40  1   
 41  17  41  1   
 42  18  42  1   
 43  18  43  1   
 44  18  44  1   
 45  19  45  1   
 46  19  46  1   
@<TRIPOS>SUBSTRUCTURE
  1 ****   6 GROUP 4 **** **** 0

# MOE 2024.06 (io_trps.svl 2023.06)
