@<TRIPOS>MOLECULE
NONAME
42 43 1 0 0 
SMALL
USER_CHARGES


@<TRIPOS>ATOM
  1 CL       0.5190     1.1070    -2.0370 Cl    1 <1>  -0.1770 
  2 C        1.1540     2.2890    -0.9140 C.ar  1 <1>   0.1770 
  3 C        0.3710     3.3530    -0.4850 C.ar  1 <1>   0.0820 
  4 C        2.4550     2.1200    -0.4750 C.ar  1 <1>  -0.1500 
  5 O       -0.9060     3.4580    -0.9310 O.3   1 <1>  -0.3630 
  6 C        0.9330     4.2850     0.3980 C.ar  1 <1>   0.0830 
  7 C        3.0050     3.0330     0.4130 C.ar  1 <1>  -0.1440 
  8 C       -1.8740     2.7410    -0.1970 C.3   1 <1>   0.0400 
  9 O        0.3110     5.3940     0.8820 O.3   1 <1>  -0.3630 
 10 C        2.2330     4.1030     0.8450 C.ar  1 <1>  -0.1500 
 11 C        4.4280     2.8780     0.8980 C.3   1 <1>   0.4860 
 12 C       -0.6450     6.0900     0.1100 C.3   1 <1>   0.0400 
 13 N        5.2700     3.6970     0.0010 N.4   1 <1>  -0.9060 
 14 C        6.7010     3.7210     0.3480 C.3   1 <1>   0.4230 
 15 C        7.3700     4.8250    -0.4770 C.3   1 <1>  -0.1600 
 16 C        7.3390     2.3540     0.0600 C.3   1 <1>  -0.1600 
 17 C        8.8840     4.8650    -0.2260 C.3   1 <1>  -0.1600 
 18 C        8.8540     2.3870     0.3080 C.3   1 <1>  -0.1600 
 19 C        9.5270     3.5010    -0.5040 C.3   1 <1>  -0.1600 
 20 H        3.0110     1.2720    -0.8380 H     1 <1>   0.1500 
 21 H       -2.8370     2.9310    -0.6360 H     1 <1>   0.0800 
 22 H       -1.8600     3.0780     0.8240 H     1 <1>   0.0800 
 23 H       -1.6500     1.6900    -0.2500 H     1 <1>   0.0800 
 24 H        2.6240     4.8260     1.5410 H     1 <1>   0.1500 
 25 H        4.7220     1.8410     0.8560 H     1 <1>   0.0800 
 26 H        4.5110     3.2240     1.9160 H     1 <1>   0.0800 
 27 H       -0.7310     7.0880     0.5010 H     1 <1>   0.0800 
 28 H       -1.5930     5.5900     0.1910 H     1 <1>   0.0800 
 29 H       -0.3190     6.1230    -0.9150 H     1 <1>   0.0800 
 30 H        4.8990     4.6530     0.0100 H     1 <1>   0.4500 
 31 H        5.1550     3.3590    -0.9600 H     1 <1>   0.4500 
 32 H        6.8240     3.9540     1.3940 H     1 <1>   0.0800 
 33 H        6.9560     5.7830    -0.2150 H     1 <1>   0.0800 
 34 H        7.2050     4.6540    -1.5270 H     1 <1>   0.0800 
 35 H        7.1690     2.0780    -0.9670 H     1 <1>   0.0800 
 36 H        6.9140     1.5970     0.6950 H     1 <1>   0.0800 
 37 H        9.0790     5.1490     0.7960 H     1 <1>   0.0800 
 38 H        9.3390     5.6090    -0.8600 H     1 <1>   0.0800 
 39 H        9.2880     1.4380     0.0370 H     1 <1>   0.0800 
 40 H        9.0500     2.5440     1.3560 H     1 <1>   0.0800 
 41 H       10.5750     3.5410    -0.2570 H     1 <1>   0.0800 
 42 H        9.4530     3.2750    -1.5550 H     1 <1>   0.0800 
@<TRIPOS>BOND
  1   1   2  1   
  2   2   3  ar  
  3   2   4  ar  
  4   3   5  1   
  5   3   6  ar  
  6   4   7  ar  
  7   4  20  1   
  8   5   8  1   
  9   6   9  1   
 10   6  10  ar  
 11   7  10  ar  
 12   7  11  1   
 13   8  21  1   
 14   8  22  1   
 15   8  23  1   
 16   9  12  1   
 17  10  24  1   
 18  11  13  1   
 19  11  25  1   
 20  11  26  1   
 21  12  27  1   
 22  12  28  1   
 23  12  29  1   
 24  13  14  1   
 25  13  30  1   
 26  13  31  1   
 27  14  15  1   
 28  14  16  1   
 29  14  32  1   
 30  15  17  1   
 31  15  33  1   
 32  15  34  1   
 33  16  18  1   
 34  16  35  1   
 35  16  36  1   
 36  17  19  1   
 37  17  37  1   
 38  17  38  1   
 39  18  19  1   
 40  18  39  1   
 41  18  40  1   
 42  19  41  1   
 43  19  42  1   
@<TRIPOS>SUBSTRUCTURE
  1 ****   7 GROUP 4 **** **** 0

# MOE 2024.06 (io_trps.svl 2023.06)
