@<TRIPOS>MOLECULE
NONAME
39 42 1 0 0 
SMALL
USER_CHARGES


@<TRIPOS>ATOM
  1 S       -1.7400    -6.2220    -1.3310 S.3   1 <1>  -0.0800 
  2 C       -0.0080    -6.2850    -1.0260 C.ar  1 <1>   0.2970 
  3 C       -1.9660    -4.8400    -0.2370 C.2   1 <1>  -0.0130 
  4 N        0.7960    -7.1620    -1.5850 N.ar  1 <1>  -0.5670 
  5 C        0.3500    -5.3000    -0.1410 C.ar  1 <1>   0.0000 
  6 C       -3.2880    -4.2830    -0.0640 C.ar  1 <1>   0.0530 
  7 C       -0.7630    -4.5040     0.2880 C.2   1 <1>  -0.1500 
  8 C        2.0500    -7.0070    -1.2010 C.ar  1 <1>   0.4700 
  9 C        1.7080    -5.2560     0.1720 C.ar  1 <1>   0.4100 
 10 C       -3.4460    -2.9650     0.3630 C.ar  1 <1>  -0.1500 
 11 C       -4.4500    -5.0190    -0.3050 C.ar  1 <1>  -0.1500 
 12 N        2.5590    -6.1120    -0.3640 N.ar  1 <1>  -0.6200 
 13 N        2.2070    -4.3180     1.0380 N.pl3 1 <1>  -0.8690 
 14 C       -4.6980    -2.4050     0.5410 C.ar  1 <1>  -0.1500 
 15 C       -5.7050    -4.4660    -0.1310 C.ar  1 <1>  -0.1500 
 16 C        3.6410    -4.1930     1.4370 C.3   1 <1>   0.2090 
 17 C       -5.8330    -3.1560     0.2940 C.ar  1 <1>  -0.1500 
 18 C        4.4790    -3.5030     0.3490 C.3   1 <1>   0.2000 
 19 O        5.7450    -3.2130     0.8470 O.3   1 <1>  -0.5600 
 20 C        3.9520    -2.1500    -0.1150 C.3   1 <1>  -0.1600 
 21 C        6.3490    -2.2310     0.0680 C.3   1 <1>   0.1200 
 22 C        5.2120    -1.4220    -0.5550 C.3   1 <1>  -0.1600 
 23 H       -0.6100    -3.7030     0.9870 H     1 <1>   0.1500 
 24 H        2.7570    -7.7000    -1.6260 H     1 <1>   0.1500 
 25 H       -2.5760    -2.3640     0.5550 H     1 <1>   0.1500 
 26 H       -4.3790    -6.0410    -0.6290 H     1 <1>   0.1500 
 27 H        1.5790    -3.6140     1.4260 H     1 <1>   0.4000 
 28 H       -4.7910    -1.3850     0.8710 H     1 <1>   0.1500 
 29 H       -6.5850    -5.0540    -0.3240 H     1 <1>   0.1500 
 30 H        4.0470    -5.1730     1.6210 H     1 <1>   0.0800 
 31 H        3.7020    -3.6220     2.3460 H     1 <1>   0.0800 
 32 H       -6.8090    -2.7230     0.4300 H     1 <1>   0.1500 
 33 H        4.6060    -4.1660    -0.4900 H     1 <1>   0.0800 
 34 H        3.4950    -1.6350     0.7120 H     1 <1>   0.0800 
 35 H        3.2340    -2.2600    -0.9080 H     1 <1>   0.0800 
 36 H        6.9400    -2.7200    -0.6880 H     1 <1>   0.0800 
 37 H        6.9790    -1.6310     0.7000 H     1 <1>   0.0800 
 38 H        5.2240    -0.4050    -0.2060 H     1 <1>   0.0800 
 39 H        5.3100    -1.4270    -1.6260 H     1 <1>   0.0800 
@<TRIPOS>BOND
  1   1   2  1   
  2   1   3  1   
  3   2   4  ar  
  4   2   5  ar  
  5   3   6  1   
  6   3   7  2   
  7   4   8  ar  
  8   5   7  1   
  9   5   9  ar  
 10   6  10  ar  
 11   6  11  ar  
 12   7  23  1   
 13   8  12  ar  
 14   8  24  1   
 15   9  12  ar  
 16   9  13  1   
 17  10  14  ar  
 18  10  25  1   
 19  11  15  ar  
 20  11  26  1   
 21  13  16  1   
 22  13  27  1   
 23  14  17  ar  
 24  14  28  1   
 25  15  17  ar  
 26  15  29  1   
 27  16  18  1   
 28  16  30  1   
 29  16  31  1   
 30  17  32  1   
 31  18  19  1   
 32  18  20  1   
 33  18  33  1   
 34  19  21  1   
 35  20  22  1   
 36  20  34  1   
 37  20  35  1   
 38  21  22  1   
 39  21  36  1   
 40  21  37  1   
 41  22  38  1   
 42  22  39  1   
@<TRIPOS>SUBSTRUCTURE
  1 ****   5 GROUP 4 **** **** 0

# MOE 2024.06 (io_trps.svl 2023.06)
