@<TRIPOS>MOLECULE
NONAME
45 47 1 0 0 
SMALL
USER_CHARGES


@<TRIPOS>ATOM
  1 CL       0.8410    -0.5330     2.8900 Cl    1 <1>  -0.1770 
  2 C        0.9590    -1.8540     1.7480 C.ar  1 <1>   0.1770 
  3 C        2.1910    -2.3370     1.3200 C.ar  1 <1>  -0.1440 
  4 C       -0.2330    -2.3910     1.2960 C.ar  1 <1>  -0.1500 
  5 C        2.2130    -3.3980     0.4080 C.ar  1 <1>   0.1170 
  6 C        3.5080    -1.7370     1.8210 C.3   1 <1>  -0.0970 
  7 C       -0.2070    -3.4380     0.3950 C.ar  1 <1>  -0.1500 
  8 N        3.4470    -3.9060    -0.0260 N.am  1 <1>  -0.5470 
  9 C        1.0070    -3.9340    -0.0400 C.ar  1 <1>  -0.1500 
 10 C        3.8350    -4.7080    -1.0600 C.2   1 <1>   0.5690 
 11 O        3.0880    -5.1890    -1.8780 O.2   1 <1>  -0.5700 
 12 C        5.3360    -4.9880    -1.1590 C.3   1 <1>   0.1710 
 13 N        6.1770    -3.9650    -0.4650 N.3   1 <1>  -0.8100 
 14 C        7.5440    -4.4800    -0.2190 C.3   1 <1>   0.1100 
 15 C        6.2640    -2.7170    -1.2690 C.3   1 <1>   0.1100 
 16 C        8.4390    -3.4430     0.4880 C.3   1 <1>   0.2090 
 17 C        7.1330    -1.6430    -0.5870 C.3   1 <1>   0.2090 
 18 N        8.4970    -2.1700    -0.2830 N.pl3 1 <1>  -0.8380 
 19 C        9.4570    -1.2630     0.1200 C.ar  1 <1>   0.4100 
 20 N        9.0590    -0.2390     0.8670 N.ar  1 <1>  -0.6200 
 21 C       10.7830    -1.4630    -0.2570 C.ar  1 <1>  -0.1500 
 22 C       10.0070     0.6000     1.2470 C.ar  1 <1>   0.1600 
 23 C       11.7590    -0.5830     0.1460 C.ar  1 <1>  -0.1500 
 24 C       11.3470     0.4800     0.9230 C.ar  1 <1>  -0.1500 
 25 H       -1.1670    -1.9910     1.6480 H     1 <1>   0.1500 
 26 H        3.3580    -0.8980     2.4730 H     1 <1>   0.0800 
 27 H        4.0970    -1.3980     0.9880 H     1 <1>   0.0800 
 28 H        4.0660    -2.4790     2.3630 H     1 <1>   0.0800 
 29 H       -1.1270    -3.8670     0.0340 H     1 <1>   0.1500 
 30 H        4.2690    -3.5610     0.4800 H     1 <1>   0.3700 
 31 H        1.0090    -4.7520    -0.7360 H     1 <1>   0.1500 
 32 H        5.6140    -5.0560    -2.1960 H     1 <1>   0.0800 
 33 H        5.5030    -5.9500    -0.7090 H     1 <1>   0.0800 
 34 H        8.0060    -4.7540    -1.1520 H     1 <1>   0.0800 
 35 H        7.4870    -5.3600     0.3980 H     1 <1>   0.0800 
 36 H        5.2790    -2.3120    -1.4230 H     1 <1>   0.0800 
 37 H        6.6880    -2.9320    -2.2350 H     1 <1>   0.0800 
 38 H        9.4310    -3.8420     0.5980 H     1 <1>   0.0800 
 39 H        8.0470    -3.2440     1.4700 H     1 <1>   0.0800 
 40 H        6.6600    -1.3270     0.3270 H     1 <1>   0.0800 
 41 H        7.2210    -0.7860    -1.2310 H     1 <1>   0.0800 
 42 H       11.0200    -2.3120    -0.8690 H     1 <1>   0.1500 
 43 H        9.6980     1.4340     1.8530 H     1 <1>   0.1500 
 44 H       12.7900    -0.7140    -0.1320 H     1 <1>   0.1500 
 45 H       12.0570     1.2080     1.2730 H     1 <1>   0.1500 
@<TRIPOS>BOND
  1   1   2  1   
  2   2   3  ar  
  3   2   4  ar  
  4   3   5  ar  
  5   3   6  1   
  6   4   7  ar  
  7   4  25  1   
  8   5   8  1   
  9   5   9  ar  
 10   6  26  1   
 11   6  27  1   
 12   6  28  1   
 13   7   9  ar  
 14   7  29  1   
 15   8  10  am  
 16   8  30  1   
 17   9  31  1   
 18  10  11  2   
 19  10  12  1   
 20  12  13  1   
 21  12  32  1   
 22  12  33  1   
 23  13  14  1   
 24  13  15  1   
 25  14  16  1   
 26  14  34  1   
 27  14  35  1   
 28  15  17  1   
 29  15  36  1   
 30  15  37  1   
 31  16  18  1   
 32  16  38  1   
 33  16  39  1   
 34  17  18  1   
 35  17  40  1   
 36  17  41  1   
 37  18  19  1   
 38  19  20  ar  
 39  19  21  ar  
 40  20  22  ar  
 41  21  23  ar  
 42  21  42  1   
 43  22  24  ar  
 44  22  43  1   
 45  23  24  ar  
 46  23  44  1   
 47  24  45  1   
@<TRIPOS>SUBSTRUCTURE
  1 ****  15 GROUP 4 **** **** 0

# MOE 2024.06 (io_trps.svl 2023.06)
