@<TRIPOS>MOLECULE
NONAME
48 49 1 0 0 
SMALL
USER_CHARGES


@<TRIPOS>ATOM
  1 O        0.7560    -0.5100    -0.2140 O.3   1 <1>  -0.3630 
  2 C       -0.4910    -1.0170    -0.0300 C.ar  1 <1>   0.0830 
  3 C        1.9020    -1.2810     0.0500 C.3   1 <1>   0.1200 
  4 C       -1.5530    -0.1770    -0.3230 C.ar  1 <1>  -0.1500 
  5 C       -0.7450    -2.3080     0.4280 C.ar  1 <1>  -0.1500 
  6 C        3.1220    -0.4110    -0.2630 C.3   1 <1>  -0.1600 
  7 C       -2.8580    -0.6070    -0.1660 C.ar  1 <1>  -0.1500 
  8 C       -2.0520    -2.7380     0.5850 C.ar  1 <1>  -0.1500 
  9 C        4.4390    -1.1600    -0.0150 C.3   1 <1>  -0.1600 
 10 C       -3.1140    -1.8970     0.2920 C.ar  1 <1>   0.0830 
 11 C        5.6330    -0.2550    -0.3330 C.3   1 <1>   0.3430 
 12 O       -4.3610    -2.4030     0.4750 O.3   1 <1>  -0.3620 
 13 N        6.9140    -0.9360     0.0020 N.4   1 <1>  -0.9590 
 14 C       -5.5070    -1.6270     0.2040 C.3   1 <1>   0.0400 
 15 C        8.0260     0.0570     0.0740 C.3   1 <1>   0.3430 
 16 C        7.2380    -2.0410    -0.9510 C.3   1 <1>   0.3430 
 17 C        9.3020    -0.6300     0.5630 C.3   1 <1>  -0.1600 
 18 C        8.4980    -2.7720    -0.4850 C.3   1 <1>  -0.1600 
 19 C        9.6880    -1.8130    -0.3370 C.3   1 <1>  -0.0800 
 20 C       10.9070    -2.5480     0.2300 C.3   1 <1>  -0.2400 
 21 H        1.8750    -2.1530    -0.5800 H     1 <1>   0.0800 
 22 H        1.8850    -1.5660     1.0880 H     1 <1>   0.0800 
 23 H       -1.3480     0.8180    -0.6760 H     1 <1>   0.1500 
 24 H        0.0490    -2.9880     0.6670 H     1 <1>   0.1500 
 25 H        3.0800     0.4680     0.3580 H     1 <1>   0.0800 
 26 H        3.0660    -0.1060    -1.2940 H     1 <1>   0.0800 
 27 H       -3.6550     0.0710    -0.4030 H     1 <1>   0.1500 
 28 H       -2.2590    -3.7320     0.9380 H     1 <1>   0.1500 
 29 H        4.4580    -2.0360    -0.6380 H     1 <1>   0.0800 
 30 H        4.4790    -1.4610     1.0180 H     1 <1>   0.0800 
 31 H        5.5430     0.6480     0.2500 H     1 <1>   0.0800 
 32 H        5.6200     0.0190    -1.3760 H     1 <1>   0.0800 
 33 H        6.8240    -1.3530     0.9370 H     1 <1>   0.4500 
 34 H       -6.3740    -2.2250     0.4190 H     1 <1>   0.0800 
 35 H       -5.5020    -1.3490    -0.8350 H     1 <1>   0.0800 
 36 H       -5.4960    -0.7570     0.8370 H     1 <1>   0.0800 
 37 H        7.7680     0.8540     0.7520 H     1 <1>   0.0800 
 38 H        8.1990     0.4830    -0.9020 H     1 <1>   0.0800 
 39 H        7.4010    -1.6370    -1.9370 H     1 <1>   0.0800 
 40 H        6.4220    -2.7430    -1.0030 H     1 <1>   0.0800 
 41 H        9.1600    -0.9620     1.5770 H     1 <1>   0.0800 
 42 H       10.1020     0.0890     0.5680 H     1 <1>   0.0800 
 43 H        8.7420    -3.5340    -1.2040 H     1 <1>   0.0800 
 44 H        8.2970    -3.2650     0.4500 H     1 <1>   0.0800 
 45 H        9.9490    -1.4340    -1.3130 H     1 <1>   0.0800 
 46 H       10.6990    -2.9470     1.2070 H     1 <1>   0.0800 
 47 H       11.7460    -1.8780     0.3070 H     1 <1>   0.0800 
 48 H       11.1890    -3.3600    -0.4170 H     1 <1>   0.0800 
@<TRIPOS>BOND
  1   1   2  1   
  2   1   3  1   
  3   2   4  ar  
  4   2   5  ar  
  5   3   6  1   
  6   3  21  1   
  7   3  22  1   
  8   4   7  ar  
  9   4  23  1   
 10   5   8  ar  
 11   5  24  1   
 12   6   9  1   
 13   6  25  1   
 14   6  26  1   
 15   7  10  ar  
 16   7  27  1   
 17   8  10  ar  
 18   8  28  1   
 19   9  11  1   
 20   9  29  1   
 21   9  30  1   
 22  10  12  1   
 23  11  13  1   
 24  11  31  1   
 25  11  32  1   
 26  12  14  1   
 27  13  15  1   
 28  13  16  1   
 29  13  33  1   
 30  14  34  1   
 31  14  35  1   
 32  14  36  1   
 33  15  17  1   
 34  15  37  1   
 35  15  38  1   
 36  16  18  1   
 37  16  39  1   
 38  16  40  1   
 39  17  19  1   
 40  17  41  1   
 41  17  42  1   
 42  18  19  1   
 43  18  43  1   
 44  18  44  1   
 45  19  20  1   
 46  19  45  1   
 47  20  46  1   
 48  20  47  1   
 49  20  48  1   
@<TRIPOS>SUBSTRUCTURE
  1 ****   3 GROUP 4 **** **** 0

# MOE 2024.06 (io_trps.svl 2023.06)
