@<TRIPOS>MOLECULE
NONAME
40 42 1 0 0 
SMALL
USER_CHARGES


@<TRIPOS>ATOM
  1 O       -2.1790     0.7400    -2.7310 O.3   1 <1>  -0.5320 
  2 C       -2.4670     1.0570    -1.4620 C.ar  1 <1>   0.0830 
  3 C       -3.5980     0.5140    -0.8820 C.ar  1 <1>  -0.1500 
  4 C       -1.6470     1.9130    -0.7460 C.ar  1 <1>  -0.1500 
  5 C       -3.9280     0.8330     0.4270 C.ar  1 <1>  -0.1430 
  6 C       -1.9680     2.2250     0.5630 C.ar  1 <1>  -0.1500 
  7 C       -3.1030     1.6880     1.1480 C.ar  1 <1>  -0.1500 
  8 C       -5.1810     0.2590     1.0560 C.3   1 <1>   0.4860 
  9 N       -6.3650     0.8750     0.4020 N.4   1 <1>  -0.9590 
 10 C       -6.3910     2.3740     0.5840 C.3   1 <1>   0.3430 
 11 C       -7.6540     0.2490     0.8670 C.3   1 <1>   0.3430 
 12 C       -7.6270     3.0280    -0.0670 C.3   1 <1>   0.2090 
 13 C       -8.8930     0.8950     0.2150 C.3   1 <1>   0.2090 
 14 N       -8.8900     2.3780     0.3920 N.pl3 1 <1>  -0.8380 
 15 C      -10.0330     3.0050    -0.0550 C.ar  1 <1>   0.4100 
 16 N      -10.3160     2.8580    -1.3420 N.ar  1 <1>  -0.6200 
 17 C      -10.8110     3.7440     0.8300 C.ar  1 <1>  -0.1500 
 18 C      -11.4140     3.4690    -1.7580 C.ar  1 <1>   0.1600 
 19 C      -11.9480     4.3730     0.3830 C.ar  1 <1>  -0.1500 
 20 C      -12.2500     4.2250    -0.9550 C.ar  1 <1>  -0.1500 
 21 H       -1.3470     1.1340    -3.0510 H     1 <1>   0.4500 
 22 H       -4.1970    -0.1550    -1.4740 H     1 <1>   0.1500 
 23 H       -0.7650     2.3320    -1.1970 H     1 <1>   0.1500 
 24 H       -1.3290     2.8850     1.1270 H     1 <1>   0.1500 
 25 H       -3.3280     1.9440     2.1700 H     1 <1>   0.1500 
 26 H       -5.1890     0.4650     2.1140 H     1 <1>   0.0800 
 27 H       -5.1900    -0.8100     0.9150 H     1 <1>   0.0800 
 28 H       -6.2710     0.7090    -0.6080 H     1 <1>   0.4500 
 29 H       -5.5030     2.8110     0.1580 H     1 <1>   0.0800 
 30 H       -6.4030     2.6100     1.6350 H     1 <1>   0.0800 
 31 H       -7.7460     0.3620     1.9350 H     1 <1>   0.0800 
 32 H       -7.6540    -0.8050     0.6440 H     1 <1>   0.0800 
 33 H       -7.5550     2.9570    -1.1390 H     1 <1>   0.0800 
 34 H       -7.6540     4.0730     0.1900 H     1 <1>   0.0800 
 35 H       -9.7850     0.4900     0.6610 H     1 <1>   0.0800 
 36 H       -8.9160     0.6560    -0.8350 H     1 <1>   0.0800 
 37 H      -10.5100     3.8110     1.8580 H     1 <1>   0.1500 
 38 H      -11.6630     3.3630    -2.8000 H     1 <1>   0.1500 
 39 H      -12.5730     4.9520     1.0410 H     1 <1>   0.1500 
 40 H      -13.1260     4.6910    -1.3710 H     1 <1>   0.1500 
@<TRIPOS>BOND
  1   1   2  1   
  2   1  21  1   
  3   2   3  ar  
  4   2   4  ar  
  5   3   5  ar  
  6   3  22  1   
  7   4   6  ar  
  8   4  23  1   
  9   5   7  ar  
 10   5   8  1   
 11   6   7  ar  
 12   6  24  1   
 13   7  25  1   
 14   8   9  1   
 15   8  26  1   
 16   8  27  1   
 17   9  10  1   
 18   9  11  1   
 19   9  28  1   
 20  10  12  1   
 21  10  29  1   
 22  10  30  1   
 23  11  13  1   
 24  11  31  1   
 25  11  32  1   
 26  12  14  1   
 27  12  33  1   
 28  12  34  1   
 29  13  14  1   
 30  13  35  1   
 31  13  36  1   
 32  14  15  1   
 33  15  16  ar  
 34  15  17  ar  
 35  16  18  ar  
 36  17  19  ar  
 37  17  37  1   
 38  18  20  ar  
 39  18  38  1   
 40  19  20  ar  
 41  19  39  1   
 42  20  40  1   
@<TRIPOS>SUBSTRUCTURE
  1 ****  10 GROUP 4 **** **** 0

# MOE 2024.06 (io_trps.svl 2023.06)
