@<TRIPOS>MOLECULE
NONAME
41 42 1 0 0 
SMALL
USER_CHARGES


@<TRIPOS>ATOM
  1 S       -3.0380     3.6600    -0.8460 S.3   1 <1>  -0.0800 
  2 C       -4.2600     2.6060    -0.1510 C.2   1 <1>  -0.1400 
  3 C       -1.7710     2.8800     0.0850 C.2   1 <1>  -0.1100 
  4 C       -3.6970     1.7440     0.7180 C.2   1 <1>  -0.1500 
  5 C       -5.6880     2.8220    -0.6140 C.3   1 <1>   0.3000 
  6 C       -2.2810     1.9000     0.8520 C.2   1 <1>  -0.1500 
  7 O       -6.5370     1.9000     0.0390 O.3   1 <1>  -0.3630 
  8 C       -7.8670     1.8540    -0.2150 C.ar  1 <1>   0.0830 
  9 C       -8.5840     0.8520     0.4180 C.ar  1 <1>  -0.1500 
 10 C       -8.5310     2.7380    -1.0600 C.ar  1 <1>  -0.1500 
 11 C       -9.9460     0.7270     0.2180 C.ar  1 <1>  -0.1500 
 12 C       -9.8950     2.6140    -1.2600 C.ar  1 <1>  -0.1500 
 13 C      -10.6110     1.6110    -0.6200 C.ar  1 <1>  -0.1430 
 14 C      -12.1030     1.4840    -0.8250 C.3   1 <1>   0.4860 
 15 N      -12.7420     2.2610     0.2600 N.4   1 <1>  -0.9060 
 16 C      -14.2020     2.2850     0.3070 C.3   1 <1>   0.5030 
 17 C      -14.7490     2.9080    -0.9770 C.3   1 <1>  -0.2400 
 18 C      -14.7340     0.8660     0.5010 C.3   1 <1>  -0.2400 
 19 C      -14.5780     3.1490     1.5050 C.3   1 <1>  -0.2400 
 20 H       -0.7670     3.2440    -0.0440 H     1 <1>   0.1500 
 21 H       -4.2280     0.9940     1.2780 H     1 <1>   0.1500 
 22 H       -5.7610     2.6590    -1.6750 H     1 <1>   0.0800 
 23 H       -6.0100     3.8170    -0.3650 H     1 <1>   0.0800 
 24 H       -1.7180     1.2680     1.5170 H     1 <1>   0.1500 
 25 H       -8.0600     0.1700     1.0650 H     1 <1>   0.1500 
 26 H       -8.0040     3.5240    -1.5700 H     1 <1>   0.1500 
 27 H      -10.4690    -0.0700     0.7210 H     1 <1>   0.1500 
 28 H      -10.3840     3.3080    -1.9230 H     1 <1>   0.1500 
 29 H      -12.3930     0.4470    -0.7730 H     1 <1>   0.0800 
 30 H      -12.3780     1.8780    -1.7900 H     1 <1>   0.0800 
 31 H      -12.3980     3.2230     0.1990 H     1 <1>   0.4500 
 32 H      -12.3890     1.9000     1.1500 H     1 <1>   0.4500 
 33 H      -14.5510     2.2920    -1.8350 H     1 <1>   0.0800 
 34 H      -14.3390     3.8890    -1.1380 H     1 <1>   0.0800 
 35 H      -15.8180     3.0100    -0.9010 H     1 <1>   0.0800 
 36 H      -15.8030     0.8960     0.6300 H     1 <1>   0.0800 
 37 H      -14.5370     0.2450    -0.3540 H     1 <1>   0.0800 
 38 H      -14.3130     0.4090     1.3790 H     1 <1>   0.0800 
 39 H      -14.1970     2.7330     2.4210 H     1 <1>   0.0800 
 40 H      -15.6490     3.2060     1.5950 H     1 <1>   0.0800 
 41 H      -14.2090     4.1540     1.3930 H     1 <1>   0.0800 
@<TRIPOS>BOND
  1   1   2  1   
  2   1   3  1   
  3   2   4  2   
  4   2   5  1   
  5   3   6  2   
  6   3  20  1   
  7   4   6  1   
  8   4  21  1   
  9   5   7  1   
 10   5  22  1   
 11   5  23  1   
 12   6  24  1   
 13   7   8  1   
 14   8   9  ar  
 15   8  10  ar  
 16   9  11  ar  
 17   9  25  1   
 18  10  12  ar  
 19  10  26  1   
 20  11  13  ar  
 21  11  27  1   
 22  12  13  ar  
 23  12  28  1   
 24  13  14  1   
 25  14  15  1   
 26  14  29  1   
 27  14  30  1   
 28  15  16  1   
 29  15  31  1   
 30  15  32  1   
 31  16  17  1   
 32  16  18  1   
 33  16  19  1   
 34  17  33  1   
 35  17  34  1   
 36  17  35  1   
 37  18  36  1   
 38  18  37  1   
 39  18  38  1   
 40  19  39  1   
 41  19  40  1   
 42  19  41  1   
@<TRIPOS>SUBSTRUCTURE
  1 ****   8 GROUP 4 **** **** 0

# MOE 2024.06 (io_trps.svl 2023.06)
