@<TRIPOS>MOLECULE
NONAME
46 48 1 0 0 
SMALL
USER_CHARGES


@<TRIPOS>ATOM
  1 S        0.0390     0.0920    -1.4570 S.o2  1 <1>   1.4470 
  2 O       -0.3230     1.2620    -2.2270 O.2   1 <1>  -0.6500 
  3 O        0.3710    -1.1350    -2.1490 O.2   1 <1>  -0.6500 
  4 N        1.3930     0.5020    -0.5210 N.am  1 <1>  -0.8490 
  5 C       -1.2480    -0.2190    -0.2140 C.ar  1 <1>  -0.0090 
  6 C        2.4120     1.1830    -1.3240 C.3   1 <1>   0.1960 
  7 C        1.9500    -0.6610     0.1780 C.3   1 <1>   0.1960 
  8 C       -1.4710     0.6890     0.8210 C.ar  1 <1>  -0.1500 
  9 C       -2.0430    -1.3630    -0.2730 C.ar  1 <1>  -0.1500 
 10 C        3.5520     1.6770    -0.4300 C.3   1 <1>  -0.1600 
 11 C        3.0620    -0.2220     1.1320 C.3   1 <1>  -0.1600 
 12 C       -2.4500     0.4660     1.7760 C.ar  1 <1>  -0.1500 
 13 C       -3.0270    -1.6040     0.6730 C.ar  1 <1>  -0.1500 
 14 C        4.1740     0.5270     0.3780 C.3   1 <1>  -0.0190 
 15 C       -3.2110    -0.6820     1.6830 C.ar  1 <1>   0.1900 
 16 C        5.2690     1.0390     1.3110 C.2   1 <1>   0.5690 
 17 F       -4.1350    -0.9020     2.5780 F     1 <1>  -0.1900 
 18 O        4.9760     1.5760     2.3520 O.2   1 <1>  -0.5700 
 19 N        6.5600     0.8880     0.9350 N.am  1 <1>  -0.7300 
 20 C        7.7320     1.4250     1.6600 C.3   1 <1>   0.2840 
 21 C        8.6830     2.0840     0.6670 C.ar  1 <1>   0.1670 
 22 N        9.1290     1.3240    -0.3290 N.ar  1 <1>  -0.6200 
 23 C        9.0290     3.4170     0.8360 C.ar  1 <1>  -0.1500 
 24 C        9.9550     1.9170    -1.1770 C.ar  1 <1>   0.1600 
 25 C        9.8890     4.0200    -0.0570 C.ar  1 <1>  -0.1500 
 26 C       10.3590     3.2380    -1.0890 C.ar  1 <1>  -0.1500 
 27 H        1.9760     2.0350    -1.8210 H     1 <1>   0.0800 
 28 H        2.7910     0.5130    -2.0790 H     1 <1>   0.0800 
 29 H        2.3390    -1.3700    -0.5360 H     1 <1>   0.0800 
 30 H        1.1770    -1.1490     0.7480 H     1 <1>   0.0800 
 31 H       -0.8670     1.5800     0.8760 H     1 <1>   0.1500 
 32 H       -1.8880    -2.0730    -1.0690 H     1 <1>   0.1500 
 33 H        3.1670     2.4250     0.2420 H     1 <1>   0.0800 
 34 H        4.3070     2.1430    -1.0390 H     1 <1>   0.0800 
 35 H        3.4760    -1.0840     1.6230 H     1 <1>   0.0800 
 36 H        2.6370     0.4140     1.8890 H     1 <1>   0.0800 
 37 H       -2.6210     1.1650     2.5750 H     1 <1>   0.1500 
 38 H       -3.6400    -2.4870     0.6290 H     1 <1>   0.1500 
 39 H        4.6250    -0.1620    -0.3140 H     1 <1>   0.0800 
 40 H        6.8170     0.5110     0.0190 H     1 <1>   0.3700 
 41 H        8.2430     0.6160     2.1520 H     1 <1>   0.0800 
 42 H        7.4140     2.1320     2.4070 H     1 <1>   0.0800 
 43 H        8.6290     3.9830     1.6580 H     1 <1>   0.1500 
 44 H       10.3310     1.3170    -1.9890 H     1 <1>   0.1500 
 45 H       10.1780     5.0520     0.0460 H     1 <1>   0.1500 
 46 H       11.0340     3.6450    -1.8200 H     1 <1>   0.1500 
@<TRIPOS>BOND
  1   1   2  2   
  2   1   3  2   
  3   1   4  am  
  4   1   5  1   
  5   4   6  1   
  6   4   7  1   
  7   5   8  ar  
  8   5   9  ar  
  9   6  10  1   
 10   6  27  1   
 11   6  28  1   
 12   7  11  1   
 13   7  29  1   
 14   7  30  1   
 15   8  12  ar  
 16   8  31  1   
 17   9  13  ar  
 18   9  32  1   
 19  10  14  1   
 20  10  33  1   
 21  10  34  1   
 22  11  14  1   
 23  11  35  1   
 24  11  36  1   
 25  12  15  ar  
 26  12  37  1   
 27  13  15  ar  
 28  13  38  1   
 29  14  16  1   
 30  14  39  1   
 31  15  17  1   
 32  16  18  2   
 33  16  19  am  
 34  19  20  1   
 35  19  40  1   
 36  20  21  1   
 37  20  41  1   
 38  20  42  1   
 39  21  22  ar  
 40  21  23  ar  
 41  22  24  ar  
 42  23  25  ar  
 43  23  43  1   
 44  24  26  ar  
 45  24  44  1   
 46  25  26  ar  
 47  25  45  1   
 48  26  46  1   
@<TRIPOS>SUBSTRUCTURE
  1 ****  14 GROUP 4 **** **** 0

# MOE 2024.06 (io_trps.svl 2023.06)
