@<TRIPOS>MOLECULE
NONAME
47 47 1 0 0 
SMALL
USER_CHARGES


@<TRIPOS>ATOM
  1 O       -0.3020     0.2520     1.1290 O.2   1 <1>  -0.5700 
  2 C       -1.1830     0.9220     0.6370 C.2   1 <1>   0.4950 
  3 C       -1.2570     2.3450     0.7230 C.2   1 <1>   0.0290 
  4 C       -2.3080     0.1540    -0.0260 C.3   1 <1>   0.0420 
  5 C       -2.5120     2.7580     1.2790 C.2   1 <1>   0.4950 
  6 C       -0.2110     3.1650     0.3100 C.2   1 <1>  -0.0380 
  7 C       -1.7420    -0.4590    -1.3020 C.2   1 <1>   0.6590 
  8 C       -3.5920     1.0110    -0.2350 C.3   1 <1>   0.0000 
  9 O       -2.6860     3.6900     2.0280 O.2   1 <1>  -0.5700 
 10 C       -3.7580     1.9300     0.9910 C.3   1 <1>  -0.0990 
 11 N       -0.1900     4.5230     0.2160 N.pl3 1 <1>  -0.8690 
 12 C        1.1140     2.5110    -0.1290 C.3   1 <1>  -0.0220 
 13 O       -1.0940     0.2080    -2.0640 O.2   1 <1>  -0.5700 
 14 O       -2.0040    -1.7280    -1.6090 O.3   1 <1>  -0.4300 
 15 C       -3.5560     1.8810    -1.5120 C.3   1 <1>  -0.2400 
 16 C       -4.8230     0.0930    -0.3440 C.3   1 <1>  -0.2400 
 17 C       -1.2620     5.5410     0.3840 C.3   1 <1>   0.2090 
 18 C        2.0890     3.4030    -0.9230 C.3   1 <1>  -0.1600 
 19 C       -2.3030    -2.7630    -0.6970 C.3   1 <1>   0.0400 
 20 C       -0.9770     6.7500    -0.5130 C.3   1 <1>   0.1200 
 21 C        3.3110     2.6080    -1.3950 C.3   1 <1>  -0.2400 
 22 O       -1.9990     7.6840    -0.3960 O.3   1 <1>  -0.6800 
 23 H       -2.5480    -0.6240     0.6700 H     1 <1>   0.0800 
 24 H       -3.9700     1.3450     1.8690 H     1 <1>   0.0800 
 25 H       -4.5890     2.5970     0.8440 H     1 <1>   0.0800 
 26 H        0.7060     4.9590    -0.0330 H     1 <1>   0.4000 
 27 H        1.6180     2.1500     0.7510 H     1 <1>   0.0800 
 28 H        0.8960     1.6600    -0.7490 H     1 <1>   0.0800 
 29 H       -2.6790     2.5030    -1.5550 H     1 <1>   0.0800 
 30 H       -4.4190     2.5220    -1.5600 H     1 <1>   0.0800 
 31 H       -3.5620     1.2680    -2.3970 H     1 <1>   0.0800 
 32 H       -5.7200     0.6770    -0.4610 H     1 <1>   0.0800 
 33 H       -4.9360    -0.5140     0.5380 H     1 <1>   0.0800 
 34 H       -4.7380    -0.5590    -1.1960 H     1 <1>   0.0800 
 35 H       -2.2070     5.1180     0.0990 H     1 <1>   0.0800 
 36 H       -1.2990     5.8500     1.4150 H     1 <1>   0.0800 
 37 H        1.5820     3.8090    -1.7820 H     1 <1>   0.0800 
 38 H        2.4260     4.2160    -0.3030 H     1 <1>   0.0800 
 39 H       -2.2660    -3.6970    -1.2290 H     1 <1>   0.0800 
 40 H       -3.2910    -2.6120    -0.2990 H     1 <1>   0.0800 
 41 H       -1.5650    -2.7650     0.0880 H     1 <1>   0.0800 
 42 H       -0.9150     6.4480    -1.5440 H     1 <1>   0.0800 
 43 H       -0.0610     7.2290    -0.2150 H     1 <1>   0.0800 
 44 H        3.0070     1.8010    -2.0400 H     1 <1>   0.0800 
 45 H        3.8410     2.1970    -0.5530 H     1 <1>   0.0800 
 46 H        3.9790     3.2490    -1.9420 H     1 <1>   0.0800 
 47 H       -2.8520     7.3080    -0.6870 H     1 <1>   0.4000 
@<TRIPOS>BOND
  1   1   2  2   
  2   2   3  1   
  3   2   4  1   
  4   3   5  1   
  5   3   6  2   
  6   4   7  1   
  7   4   8  1   
  8   4  23  1   
  9   5   9  2   
 10   5  10  1   
 11   6  11  1   
 12   6  12  1   
 13   7  13  2   
 14   7  14  1   
 15   8  10  1   
 16   8  15  1   
 17   8  16  1   
 18  10  24  1   
 19  10  25  1   
 20  11  17  1   
 21  11  26  1   
 22  12  18  1   
 23  12  27  1   
 24  12  28  1   
 25  14  19  1   
 26  15  29  1   
 27  15  30  1   
 28  15  31  1   
 29  16  32  1   
 30  16  33  1   
 31  16  34  1   
 32  17  20  1   
 33  17  35  1   
 34  17  36  1   
 35  18  21  1   
 36  18  37  1   
 37  18  38  1   
 38  19  39  1   
 39  19  40  1   
 40  19  41  1   
 41  20  22  1   
 42  20  42  1   
 43  20  43  1   
 44  21  44  1   
 45  21  45  1   
 46  21  46  1   
 47  22  47  1   
@<TRIPOS>SUBSTRUCTURE
  1 ****   3 GROUP 4 **** **** 0

# MOE 2024.06 (io_trps.svl 2023.06)
