@<TRIPOS>MOLECULE
NONAME
36 38 1 0 0 
SMALL
USER_CHARGES


@<TRIPOS>ATOM
  1 BR       0.0620    -0.4930     1.6700 Br    1 <1>  -0.1110 
  2 C        1.3900    -1.6330     0.8630 C.ar  1 <1>   0.1110 
  3 C        2.7120    -1.2680     0.9310 C.ar  1 <1>  -0.1500 
  4 C        0.9530    -2.8010     0.2320 C.ar  1 <1>  -0.1500 
  5 C        3.6540    -2.1140     0.3380 C.ar  1 <1>   0.0000 
  6 C        1.8790    -3.6330    -0.3530 C.ar  1 <1>  -0.1500 
  7 C        3.2330    -3.2830    -0.2930 C.ar  1 <1>  -0.1520 
  8 C        5.0570    -2.0780     0.1970 C.2   1 <1>  -0.1810 
  9 N        4.3350    -3.9300    -0.7930 N.pl3 1 <1>   0.0330 
 10 C        5.4470    -3.1940    -0.4590 C.2   1 <1>  -0.3320 
 11 C        5.9860    -0.9700     0.6470 C.3   1 <1>   0.0210 
 12 C        6.8840    -3.5300    -0.7880 C.3   1 <1>   0.6030 
 13 C        7.2810    -1.0430    -0.1790 C.3   1 <1>  -0.1600 
 14 N        7.1270    -4.8130    -0.1270 N.4   1 <1>  -0.9060 
 15 C        7.8570    -2.4750    -0.2100 C.3   1 <1>  -0.1600 
 16 C        8.4480    -5.4270    -0.4510 C.3   1 <1>   0.3430 
 17 C        8.6590    -6.7500     0.2940 C.3   1 <1>   0.1200 
 18 O        9.8870    -7.2490    -0.0960 O.3   1 <1>  -0.6800 
 19 H        3.0180    -0.3640     1.4220 H     1 <1>   0.1500 
 20 H       -0.0990    -3.0260     0.2130 H     1 <1>   0.1500 
 21 H        1.5690    -4.5370    -0.8480 H     1 <1>   0.1500 
 22 H        4.2630    -4.7620    -1.3880 H     1 <1>   0.2700 
 23 H        6.1960    -1.0830     1.6970 H     1 <1>   0.0800 
 24 H        5.5160    -0.0140     0.4970 H     1 <1>   0.0800 
 25 H        7.0030    -3.6070    -1.8580 H     1 <1>   0.0800 
 26 H        8.0050    -0.3620     0.2350 H     1 <1>   0.0800 
 27 H        7.0680    -0.7210    -1.1850 H     1 <1>   0.0800 
 28 H        6.3580    -5.4370    -0.3740 H     1 <1>   0.4500 
 29 H        7.0330    -4.6230     0.8760 H     1 <1>   0.4500 
 30 H        8.7590    -2.4700    -0.7970 H     1 <1>   0.0800 
 31 H        8.1190    -2.7290     0.8020 H     1 <1>   0.0800 
 32 H        9.2430    -4.7520    -0.1770 H     1 <1>   0.0800 
 33 H        8.5120    -5.6160    -1.5110 H     1 <1>   0.0800 
 34 H        7.9070    -7.4740     0.0300 H     1 <1>   0.0800 
 35 H        8.6840    -6.6000     1.3600 H     1 <1>   0.0800 
 36 H       10.0990    -8.0970     0.3520 H     1 <1>   0.4000 
@<TRIPOS>BOND
  1   1   2  1   
  2   2   3  ar  
  3   2   4  ar  
  4   3   5  ar  
  5   3  19  1   
  6   4   6  ar  
  7   4  20  1   
  8   5   7  ar  
  9   5   8  1   
 10   6   7  ar  
 11   6  21  1   
 12   7   9  1   
 13   8  10  2   
 14   8  11  1   
 15   9  10  1   
 16   9  22  1   
 17  10  12  1   
 18  11  13  1   
 19  11  23  1   
 20  11  24  1   
 21  12  14  1   
 22  12  15  1   
 23  12  25  1   
 24  13  15  1   
 25  13  26  1   
 26  13  27  1   
 27  14  16  1   
 28  14  28  1   
 29  14  29  1   
 30  15  30  1   
 31  15  31  1   
 32  16  17  1   
 33  16  32  1   
 34  16  33  1   
 35  17  18  1   
 36  17  34  1   
 37  17  35  1   
 38  18  36  1   
@<TRIPOS>SUBSTRUCTURE
  1 ****  10 GROUP 4 **** **** 0

# MOE 2024.06 (io_trps.svl 2023.06)
