@<TRIPOS>MOLECULE
NONAME
42 43 1 0 0 
SMALL
USER_CHARGES


@<TRIPOS>ATOM
  1 O        0.7300    -1.0170    -2.0630 O.2   1 <1>  -0.5700 
  2 C        1.1200    -1.4470    -1.0050 C.2   1 <1>   0.5690 
  3 N        0.5410    -2.4120    -0.2360 N.am  1 <1>  -0.0840 
  4 C        2.3680    -0.9260    -0.3240 C.3   1 <1>  -0.0990 
  5 O       -0.5720    -3.1640    -0.6410 O.3   1 <1>  -0.3160 
  6 C        1.2160    -2.6280     0.9280 C.2   1 <1>   0.5690 
  7 C        2.4340    -1.7300     0.9920 C.3   1 <1>  -0.0990 
  8 C       -1.7600    -2.5410    -0.2010 C.3   1 <1>   0.1200 
  9 O        0.9220    -3.3890     1.8170 O.2   1 <1>  -0.5700 
 10 C       -2.9420    -3.3880    -0.6590 C.3   1 <1>   0.1200 
 11 O       -4.1290    -2.7640    -0.2200 O.3   1 <1>  -0.3630 
 12 C       -5.3460    -3.3030    -0.4880 C.ar  1 <1>   0.0830 
 13 C       -6.4500    -2.6120    -0.0130 C.ar  1 <1>  -0.1500 
 14 C       -5.5280    -4.4840    -1.1980 C.ar  1 <1>  -0.1500 
 15 C       -7.7470    -3.0700    -0.2280 C.ar  1 <1>  -0.1440 
 16 C       -6.8070    -4.9540    -1.4220 C.ar  1 <1>  -0.1500 
 17 C       -7.9000    -4.2550    -0.9420 C.ar  1 <1>  -0.1500 
 18 C       -8.9980    -2.3250     0.2870 C.3   1 <1>   0.1430 
 19 C       -9.7850    -3.2390     1.2390 C.3   1 <1>  -0.2400 
 20 C       -8.6610    -1.0360     1.0550 C.3   1 <1>  -0.2400 
 21 C       -9.8900    -1.9360    -0.9010 C.3   1 <1>  -0.2400 
 22 H        2.2710     0.1290    -0.1400 H     1 <1>   0.0800 
 23 H        3.2270    -1.1120    -0.9450 H     1 <1>   0.0800 
 24 H        2.3700    -1.0890     1.8530 H     1 <1>   0.0800 
 25 H        3.3250    -2.3290     1.0460 H     1 <1>   0.0800 
 26 H       -1.8140    -1.5590    -0.6390 H     1 <1>   0.0800 
 27 H       -1.7390    -2.4820     0.8730 H     1 <1>   0.0800 
 28 H       -2.8920    -4.3680    -0.2200 H     1 <1>   0.0800 
 29 H       -2.9670    -3.4450    -1.7330 H     1 <1>   0.0800 
 30 H       -6.2530    -1.7080     0.5280 H     1 <1>   0.1500 
 31 H       -4.6970    -5.0450    -1.5810 H     1 <1>   0.1500 
 32 H       -6.9550    -5.8680    -1.9710 H     1 <1>   0.1500 
 33 H       -8.8810    -4.6490    -1.1340 H     1 <1>   0.1500 
 34 H       -9.1560    -3.5450     2.0560 H     1 <1>   0.0800 
 35 H      -10.1310    -4.1200     0.7320 H     1 <1>   0.0800 
 36 H      -10.6410    -2.7250     1.6380 H     1 <1>   0.0800 
 37 H       -8.0560    -1.2570     1.9170 H     1 <1>   0.0800 
 38 H       -9.5590    -0.5510     1.3950 H     1 <1>   0.0800 
 39 H       -8.1300    -0.3480     0.4220 H     1 <1>   0.0800 
 40 H      -10.2380    -2.8060    -1.4270 H     1 <1>   0.0800 
 41 H       -9.3360    -1.3250    -1.5910 H     1 <1>   0.0800 
 42 H      -10.7490    -1.3830    -0.5670 H     1 <1>   0.0800 
@<TRIPOS>BOND
  1   1   2  2   
  2   2   3  am  
  3   2   4  1   
  4   3   5  1   
  5   3   6  am  
  6   4   7  1   
  7   4  22  1   
  8   4  23  1   
  9   5   8  1   
 10   6   7  1   
 11   6   9  2   
 12   7  24  1   
 13   7  25  1   
 14   8  10  1   
 15   8  26  1   
 16   8  27  1   
 17  10  11  1   
 18  10  28  1   
 19  10  29  1   
 20  11  12  1   
 21  12  13  ar  
 22  12  14  ar  
 23  13  15  ar  
 24  13  30  1   
 25  14  16  ar  
 26  14  31  1   
 27  15  17  ar  
 28  15  18  1   
 29  16  17  ar  
 30  16  32  1   
 31  17  33  1   
 32  18  19  1   
 33  18  20  1   
 34  18  21  1   
 35  19  34  1   
 36  19  35  1   
 37  19  36  1   
 38  20  37  1   
 39  20  38  1   
 40  20  39  1   
 41  21  40  1   
 42  21  41  1   
 43  21  42  1   
@<TRIPOS>SUBSTRUCTURE
  1 ****  11 GROUP 4 **** **** 0

# MOE 2024.06 (io_trps.svl 2023.06)
