@<TRIPOS>MOLECULE
NONAME
49 51 1 0 0 
SMALL
USER_CHARGES


@<TRIPOS>ATOM
  1 S       -0.1670    -0.1800    -0.6210 S.3   1 <1>  -0.2860 
  2 C        1.3130     0.8320    -0.6620 C.2   1 <1>   0.2420 
  3 C       -1.5060     1.0870    -0.4560 C.3   1 <1>   0.2080 
  4 N        1.2760     2.1210    -0.6060 N.2   1 <1>  -0.5650 
  5 N        2.5430     0.2820    -0.7550 N.pl3 1 <1>   0.0480 
  6 C       -2.8680     0.3890    -0.4350 C.2   1 <1>  -0.0290 
  7 C        2.5830     2.4500    -0.6660 C.2   1 <1>   0.0770 
  8 C        3.3670     1.3500    -0.7570 C.2   1 <1>  -0.3020 
  9 C        2.9090    -1.1430    -0.8320 C.3   1 <1>   0.0160 
 10 N       -3.0520    -0.5600    -1.4270 N.am  1 <1>  -0.5390 
 11 C       -3.8620     0.6320     0.4650 C.2   1 <1>  -0.1240 
 12 C       -4.1550    -1.3380    -1.5520 C.2   1 <1>   0.6900 
 13 C       -3.8710     1.5690     1.5430 C.2   1 <1>   0.7060 
 14 C       -5.1760    -0.1480     0.3770 C.3   1 <1>   0.5020 
 15 O       -4.2530    -2.1200    -2.4680 O.2   1 <1>  -0.5700 
 16 N       -5.1380    -1.2100    -0.6470 N.am  1 <1>  -0.7300 
 17 O       -4.4820     1.3830     2.5780 O.2   1 <1>  -0.5700 
 18 O       -3.1780     2.7040     1.4060 O.3   1 <1>  -0.4300 
 19 C       -6.3470     0.7740     0.0230 C.ar  1 <1>  -0.1430 
 20 C       -3.1590     3.6920     2.4180 C.3   1 <1>   0.0400 
 21 C       -7.4880     0.8820     0.8170 C.ar  1 <1>  -0.1430 
 22 C       -6.2610     1.5300    -1.1410 C.ar  1 <1>  -0.1500 
 23 C       -8.5040     1.7450     0.4350 C.ar  1 <1>  -0.1500 
 24 C       -7.6680     0.0860     2.1030 C.3   1 <1>  -0.0970 
 25 C       -7.2780     2.3870    -1.5200 C.ar  1 <1>  -0.1430 
 26 C       -8.4020     2.4930    -0.7230 C.ar  1 <1>  -0.1500 
 27 C       -7.1550     3.2000    -2.7960 C.3   1 <1>  -0.0970 
 28 H       -1.4200     1.7460    -1.3010 H     1 <1>   0.0800 
 29 H       -1.2900     1.6260     0.4460 H     1 <1>   0.0800 
 30 H        2.8990     3.4810    -0.6400 H     1 <1>   0.1500 
 31 H        4.4370     1.2740    -0.8200 H     1 <1>   0.1500 
 32 H        2.5740    -1.6430     0.0580 H     1 <1>   0.0800 
 33 H        3.9760    -1.2380    -0.9190 H     1 <1>   0.0800 
 34 H        2.4370    -1.5840    -1.6910 H     1 <1>   0.0800 
 35 H       -2.3060    -0.7850    -2.0870 H     1 <1>   0.3700 
 36 H       -5.3420    -0.6280     1.3250 H     1 <1>   0.0800 
 37 H       -6.0350    -1.6240    -0.8880 H     1 <1>   0.3700 
 38 H       -2.5410     4.5070     2.0860 H     1 <1>   0.0800 
 39 H       -2.7540     3.2620     3.3180 H     1 <1>   0.0800 
 40 H       -4.1650     4.0340     2.5880 H     1 <1>   0.0800 
 41 H       -5.3880     1.4490    -1.7660 H     1 <1>   0.1500 
 42 H       -9.3890     1.8440     1.0390 H     1 <1>   0.1500 
 43 H       -6.9270     0.3760     2.8260 H     1 <1>   0.0800 
 44 H       -7.5800    -0.9670     1.9060 H     1 <1>   0.0800 
 45 H       -8.6370     0.2620     2.5340 H     1 <1>   0.0800 
 46 H       -9.2030     3.1570    -0.9990 H     1 <1>   0.1500 
 47 H       -6.5790     4.0880    -2.6060 H     1 <1>   0.0800 
 48 H       -8.1250     3.4860    -3.1590 H     1 <1>   0.0800 
 49 H       -6.6640     2.6230    -3.5590 H     1 <1>   0.0800 
@<TRIPOS>BOND
  1   1   2  1   
  2   1   3  1   
  3   2   4  2   
  4   2   5  1   
  5   3   6  1   
  6   3  28  1   
  7   3  29  1   
  8   4   7  1   
  9   5   8  1   
 10   5   9  1   
 11   6  10  1   
 12   6  11  2   
 13   7   8  2   
 14   7  30  1   
 15   8  31  1   
 16   9  32  1   
 17   9  33  1   
 18   9  34  1   
 19  10  12  am  
 20  10  35  1   
 21  11  13  1   
 22  11  14  1   
 23  12  15  2   
 24  12  16  am  
 25  13  17  2   
 26  13  18  1   
 27  14  16  1   
 28  14  19  1   
 29  14  36  1   
 30  16  37  1   
 31  18  20  1   
 32  19  21  ar  
 33  19  22  ar  
 34  20  38  1   
 35  20  39  1   
 36  20  40  1   
 37  21  23  ar  
 38  21  24  1   
 39  22  25  ar  
 40  22  41  1   
 41  23  26  ar  
 42  23  42  1   
 43  24  43  1   
 44  24  44  1   
 45  24  45  1   
 46  25  26  ar  
 47  25  27  1   
 48  26  46  1   
 49  27  47  1   
 50  27  48  1   
 51  27  49  1   
@<TRIPOS>SUBSTRUCTURE
  1 ****   6 GROUP 4 **** **** 0

# MOE 2024.06 (io_trps.svl 2023.06)
