@<TRIPOS>MOLECULE
NONAME
42 41 1 0 0 
SMALL
USER_CHARGES


@<TRIPOS>ATOM
  1 O        0.0920    -0.3640     1.8410 O.2   1 <1>  -0.5700 
  2 C        0.6810    -1.1790     1.1750 C.2   1 <1>   0.5690 
  3 N        1.8750    -1.6010     1.6730 N.am  1 <1>  -0.7300 
  4 C        0.0510    -1.6700    -0.1650 C.3   1 <1>   0.0610 
  5 C        2.9060    -2.5350     1.1900 C.3   1 <1>   0.1400 
  6 C       -1.2590    -0.9060    -0.4660 C.3   1 <1>  -0.2400 
  7 C        0.9830    -1.4220    -1.3700 C.3   1 <1>  -0.2400 
  8 C       -0.3200    -3.1640    -0.0910 C.3   1 <1>  -0.2400 
  9 C        4.1190    -1.7150     0.7490 C.3   1 <1>  -0.1600 
 10 C        5.2110    -2.6190     0.1790 C.3   1 <1>   0.3430 
 11 N        6.4240    -1.8260    -0.1770 N.4   1 <1>  -0.9590 
 12 C        6.1990    -0.9450    -1.3580 C.3   1 <1>   0.3430 
 13 C        7.5860    -2.7340    -0.3800 C.3   1 <1>   0.3430 
 14 C        6.3170     0.5050    -0.9080 C.3   1 <1>  -0.2400 
 15 C        8.8840    -1.9380    -0.3120 C.3   1 <1>  -0.2400 
 16 H        2.0700    -1.1780     2.5850 H     1 <1>   0.3700 
 17 H        2.5330    -3.1280     0.3770 H     1 <1>   0.0800 
 18 H        3.1730    -3.2020     1.9940 H     1 <1>   0.0800 
 19 H       -1.0670     0.1500    -0.5430 H     1 <1>   0.0800 
 20 H       -1.9700    -1.0550     0.3280 H     1 <1>   0.0800 
 21 H       -1.7060    -1.2400    -1.3850 H     1 <1>   0.0800 
 22 H        1.8650    -2.0250    -1.3270 H     1 <1>   0.0800 
 23 H        1.2740    -0.3860    -1.3990 H     1 <1>   0.0800 
 24 H        0.4750    -1.6540    -2.2900 H     1 <1>   0.0800 
 25 H        0.5400    -3.7850     0.0610 H     1 <1>   0.0800 
 26 H       -0.8040    -3.4810    -0.9980 H     1 <1>   0.0800 
 27 H       -0.9980    -3.3310     0.7290 H     1 <1>   0.0800 
 28 H        4.5010    -1.1790     1.5990 H     1 <1>   0.0800 
 29 H        3.7950    -1.0130     0.0020 H     1 <1>   0.0800 
 30 H        4.8430    -3.1390    -0.6910 H     1 <1>   0.0800 
 31 H        5.4720    -3.3560     0.9230 H     1 <1>   0.0800 
 32 H        6.6510    -1.2150     0.6190 H     1 <1>   0.4500 
 33 H        5.2210    -1.1180    -1.7790 H     1 <1>   0.0800 
 34 H        6.9330    -1.1460    -2.1230 H     1 <1>   0.0800 
 35 H        7.5070    -3.2360    -1.3320 H     1 <1>   0.0800 
 36 H        7.6010    -3.4830     0.3960 H     1 <1>   0.0800 
 37 H        5.5760     0.7440    -0.1680 H     1 <1>   0.0800 
 38 H        6.1590     1.1510    -1.7540 H     1 <1>   0.0800 
 39 H        7.2990     0.7080    -0.5180 H     1 <1>   0.0800 
 40 H        8.9600    -1.2340    -1.1210 H     1 <1>   0.0800 
 41 H        9.7160    -2.6160    -0.3930 H     1 <1>   0.0800 
 42 H        8.9700    -1.4220     0.6280 H     1 <1>   0.0800 
@<TRIPOS>BOND
  1   1   2  2   
  2   2   3  am  
  3   2   4  1   
  4   3   5  1   
  5   3  16  1   
  6   4   6  1   
  7   4   7  1   
  8   4   8  1   
  9   5   9  1   
 10   5  17  1   
 11   5  18  1   
 12   6  19  1   
 13   6  20  1   
 14   6  21  1   
 15   7  22  1   
 16   7  23  1   
 17   7  24  1   
 18   8  25  1   
 19   8  26  1   
 20   8  27  1   
 21   9  10  1   
 22   9  28  1   
 23   9  29  1   
 24  10  11  1   
 25  10  30  1   
 26  10  31  1   
 27  11  12  1   
 28  11  13  1   
 29  11  32  1   
 30  12  14  1   
 31  12  33  1   
 32  12  34  1   
 33  13  15  1   
 34  13  35  1   
 35  13  36  1   
 36  14  37  1   
 37  14  38  1   
 38  14  39  1   
 39  15  40  1   
 40  15  41  1   
 41  15  42  1   
@<TRIPOS>SUBSTRUCTURE
  1 ****   9 GROUP 4 **** **** 0

# MOE 2024.06 (io_trps.svl 2023.06)
