@<TRIPOS>MOLECULE
NONAME
34 35 1 0 0 
SMALL
USER_CHARGES


@<TRIPOS>ATOM
  1 BR      -2.3070     0.8020    -0.8680 Br    1 <1>  -0.1110 
  2 C       -1.0620     2.2410    -0.5410 C.ar  1 <1>   0.1110 
  3 C       -1.5190     3.4380    -0.0070 C.ar  1 <1>   0.0820 
  4 C        0.2670     2.0360    -0.8550 C.ar  1 <1>  -0.1500 
  5 O       -2.8280     3.5980     0.2920 O.3   1 <1>  -0.3630 
  6 C       -0.6140     4.4740     0.2000 C.ar  1 <1>  -0.1440 
  7 C        1.1710     3.0620    -0.6330 C.ar  1 <1>  -0.1430 
  8 C       -3.2270     3.1480     1.5800 C.3   1 <1>   0.1810 
  9 C        0.7250     4.2700    -0.1130 C.ar  1 <1>  -0.1500 
 10 C       -1.0650     5.8170     0.7550 C.3   1 <1>  -0.0960 
 11 C        2.6410     2.8760    -0.9650 C.3   1 <1>  -0.0970 
 12 C       -4.7420     3.0300     1.6710 C.2   1 <1>   0.5690 
 13 O       -5.2390     2.9730     2.7690 O.2   1 <1>  -0.5700 
 14 N       -5.4510     2.9870     0.5130 N.am  1 <1>  -0.4930 
 15 C       -6.8100     2.8590     0.2810 C.2   1 <1>   0.5790 
 16 N       -7.7460     2.6920     1.2140 N.2   1 <1>  -0.2270 
 17 N       -7.2530     2.8930    -0.9170 N.2   1 <1>  -0.7070 
 18 N       -8.8520     2.6150     0.5840 N.2   1 <1>  -0.4180 
 19 N       -8.5420     2.7370    -0.6940 N.pl3 1 <1>   0.5800 
 20 C       -9.5320     2.7030    -1.7730 C.3   1 <1>   0.0160 
 21 H        0.5810     1.0930    -1.2650 H     1 <1>   0.1500 
 22 H       -2.8720     3.8530     2.3090 H     1 <1>   0.0800 
 23 H       -2.7860     2.1870     1.7670 H     1 <1>   0.0800 
 24 H        1.4330     5.0640     0.0490 H     1 <1>   0.1500 
 25 H       -1.9740     6.1310     0.2740 H     1 <1>   0.0800 
 26 H       -0.3180     6.5720     0.5860 H     1 <1>   0.0800 
 27 H       -1.2400     5.7370     1.8120 H     1 <1>   0.0800 
 28 H        2.8880     1.8320    -1.0310 H     1 <1>   0.0800 
 29 H        3.2540     3.3220    -0.2020 H     1 <1>   0.0800 
 30 H        2.8640     3.3440    -1.9070 H     1 <1>   0.0800 
 31 H       -4.9170     3.0880    -0.3470 H     1 <1>   0.3700 
 32 H       -9.4880     3.6290    -2.3140 H     1 <1>   0.0800 
 33 H      -10.5110     2.5700    -1.3540 H     1 <1>   0.0800 
 34 H       -9.3010     1.8860    -2.4300 H     1 <1>   0.0800 
@<TRIPOS>BOND
  1   1   2  1   
  2   2   3  ar  
  3   2   4  ar  
  4   3   5  1   
  5   3   6  ar  
  6   4   7  ar  
  7   4  21  1   
  8   5   8  1   
  9   6   9  ar  
 10   6  10  1   
 11   7   9  ar  
 12   7  11  1   
 13   8  12  1   
 14   8  22  1   
 15   8  23  1   
 16   9  24  1   
 17  10  25  1   
 18  10  26  1   
 19  10  27  1   
 20  11  28  1   
 21  11  29  1   
 22  11  30  1   
 23  12  13  2   
 24  12  14  am  
 25  14  15  1   
 26  14  31  1   
 27  15  16  1   
 28  15  17  2   
 29  16  18  2   
 30  17  19  1   
 31  18  19  1   
 32  19  20  1   
 33  20  32  1   
 34  20  33  1   
 35  20  34  1   
@<TRIPOS>SUBSTRUCTURE
  1 ****   5 GROUP 4 **** **** 0

# MOE 2024.06 (io_trps.svl 2023.06)
