@<TRIPOS>MOLECULE
NONAME
24 24 1 0 0 
SMALL
USER_CHARGES


@<TRIPOS>ATOM
  1 S       -0.1780     0.2900    -0.0080 S.3   1 <1>  -0.3710 
  2 C        1.4070     1.0990     0.0200 C.2   1 <1>   0.6410 
  3 C        0.1390    -1.5300     0.0080 C.3   1 <1>   0.0700 
  4 N        1.4300     2.3790     0.0140 N.2   1 <1>  -0.6610 
  5 N        2.5010     0.2860     0.0460 N.pl3 1 <1>  -0.5500 
  6 C       -1.2150    -2.2400    -0.0160 C.3   1 <1>  -0.1600 
  7 C        2.6650     2.9580     0.0360 C.2   1 <1>   0.7670 
  8 C        3.7590     0.8170     0.0690 C.2   1 <1>  -0.0380 
  9 C       -1.0460    -3.7620    -0.0050 C.3   1 <1>  -0.2400 
 10 O        2.7430     4.1760     0.0320 O.2   1 <1>  -0.5700 
 11 C        3.8460     2.1660     0.0640 C.2   1 <1>  -0.1360 
 12 C        4.9400    -0.1320     0.0980 C.3   1 <1>  -0.1020 
 13 H        0.6830    -1.7580     0.9070 H     1 <1>   0.0800 
 14 H        0.7190    -1.7670    -0.8670 H     1 <1>   0.0800 
 15 H        2.3480    -0.7200     0.0480 H     1 <1>   0.4000 
 16 H       -1.7550    -1.9460    -0.9010 H     1 <1>   0.0800 
 17 H       -1.7900    -1.9380     0.8420 H     1 <1>   0.0800 
 18 H       -0.4920    -4.0880    -0.8690 H     1 <1>   0.0800 
 19 H       -2.0110    -4.2380    -0.0230 H     1 <1>   0.0800 
 20 H       -0.5270    -4.0790     0.8830 H     1 <1>   0.0800 
 21 H        4.7770     2.6980     0.0800 H     1 <1>   0.1500 
 22 H        4.8970    -0.7510     0.9760 H     1 <1>   0.0800 
 23 H        5.8640     0.4180     0.1130 H     1 <1>   0.0800 
 24 H        4.9320    -0.7600    -0.7760 H     1 <1>   0.0800 
@<TRIPOS>BOND
  1   1   2  1   
  2   1   3  1   
  3   2   4  2   
  4   2   5  1   
  5   3   6  1   
  6   3  13  1   
  7   3  14  1   
  8   4   7  1   
  9   5   8  1   
 10   5  15  1   
 11   6   9  1   
 12   6  16  1   
 13   6  17  1   
 14   7  10  2   
 15   7  11  1   
 16   8  11  2   
 17   8  12  1   
 18   9  18  1   
 19   9  19  1   
 20   9  20  1   
 21  11  21  1   
 22  12  22  1   
 23  12  23  1   
 24  12  24  1   
@<TRIPOS>SUBSTRUCTURE
  1 ****   2 GROUP 4 **** **** 0

# MOE 2024.06 (io_trps.svl 2023.06)
