@<TRIPOS>MOLECULE
NONAME
32 33 1 0 0 
SMALL
USER_CHARGES


@<TRIPOS>ATOM
  1 CL       1.2870     0.6840     2.8320 Cl    1 <1>  -0.1770 
  2 C        2.1580     0.4650     1.3370 C.ar  1 <1>   0.1770 
  3 C        3.2340    -0.3980     1.3010 C.ar  1 <1>  -0.1500 
  4 C        1.7560     1.1620     0.2150 C.ar  1 <1>  -0.1500 
  5 C        3.9550    -0.5870     0.1210 C.ar  1 <1>   0.0860 
  6 C        2.4480     0.9820    -0.9690 C.ar  1 <1>  -0.1500 
  7 C        5.0990    -1.4830     0.0800 C.2   1 <1>   0.5440 
  8 C        3.5290     0.1170    -1.0110 C.ar  1 <1>  -0.1500 
  9 O        5.2240    -2.3780     0.8930 O.2   1 <1>  -0.5700 
 10 N        6.1180    -1.3240    -0.8320 N.am  1 <1>  -0.6600 
 11 C        6.9150    -0.0650    -0.8120 C.3   1 <1>   0.1400 
 12 C        6.9150    -2.5230    -1.2280 C.3   1 <1>   0.1400 
 13 C        8.1410    -0.2300     0.1150 C.3   1 <1>   0.3430 
 14 C        8.1160    -2.6910    -0.2790 C.3   1 <1>   0.3430 
 15 N        8.9700    -1.4450    -0.2260 N.4   1 <1>  -0.9590 
 16 C       10.0840    -1.6190     0.7530 C.3   1 <1>   0.2630 
 17 H        3.5130    -0.9290     2.1940 H     1 <1>   0.1500 
 18 H        0.9140     1.8290     0.2700 H     1 <1>   0.1500 
 19 H        2.1420     1.5120    -1.8560 H     1 <1>   0.1500 
 20 H        4.0470    -0.0210    -1.9440 H     1 <1>   0.1500 
 21 H        6.3090     0.7500    -0.4540 H     1 <1>   0.0800 
 22 H        7.2340     0.1760    -1.8110 H     1 <1>   0.0800 
 23 H        7.2510    -2.4180    -2.2450 H     1 <1>   0.0800 
 24 H        6.2950    -3.4030    -1.1760 H     1 <1>   0.0800 
 25 H        7.7830    -0.3170     1.1280 H     1 <1>   0.0800 
 26 H        8.7500     0.6570     0.0560 H     1 <1>   0.0800 
 27 H        8.7080    -3.5320    -0.6010 H     1 <1>   0.0800 
 28 H        7.7330    -2.9120     0.7050 H     1 <1>   0.0800 
 29 H        9.3700    -1.3030    -1.1640 H     1 <1>   0.4500 
 30 H        9.6900    -1.7760     1.7440 H     1 <1>   0.0800 
 31 H       10.7130    -0.7420     0.7670 H     1 <1>   0.0800 
 32 H       10.6900    -2.4700     0.4850 H     1 <1>   0.0800 
@<TRIPOS>BOND
  1   1   2  1   
  2   2   3  ar  
  3   2   4  ar  
  4   3   5  ar  
  5   3  17  1   
  6   4   6  ar  
  7   4  18  1   
  8   5   7  1   
  9   5   8  ar  
 10   6   8  ar  
 11   6  19  1   
 12   7   9  2   
 13   7  10  am  
 14   8  20  1   
 15  10  11  1   
 16  10  12  1   
 17  11  13  1   
 18  11  21  1   
 19  11  22  1   
 20  12  14  1   
 21  12  23  1   
 22  12  24  1   
 23  13  15  1   
 24  13  25  1   
 25  13  26  1   
 26  14  15  1   
 27  14  27  1   
 28  14  28  1   
 29  15  16  1   
 30  15  29  1   
 31  16  30  1   
 32  16  31  1   
 33  16  32  1   
@<TRIPOS>SUBSTRUCTURE
  1 ****   7 GROUP 4 **** **** 0

# MOE 2024.06 (io_trps.svl 2023.06)
