@<TRIPOS>MOLECULE
NONAME
38 39 1 0 0 
SMALL
USER_CHARGES


@<TRIPOS>ATOM
  1 O       -0.3420     0.4210    -0.4690 O.2   1 <1>  -0.5700 
  2 C       -0.2510     1.5600    -0.0420 C.2   1 <1>   0.5440 
  3 N       -1.3730     2.1490     0.4780 N.am  1 <1>  -0.7300 
  4 C        1.0000     2.2890    -0.0780 C.ar  1 <1>   0.0860 
  5 C       -2.7130     1.5200     0.5760 C.3   1 <1>   0.1400 
  6 C        2.2300     1.6700     0.2150 C.ar  1 <1>   0.1000 
  7 C        1.0160     3.6480    -0.4080 C.ar  1 <1>  -0.1500 
  8 C       -3.6760     2.1900    -0.4050 C.3   1 <1>  -0.0220 
  9 N        2.3080     0.3270     0.5350 N.pl3 1 <1>  -0.9000 
 10 C        3.4040     2.4150     0.1860 C.ar  1 <1>  -0.1500 
 11 C        2.1890     4.3760    -0.4360 C.ar  1 <1>  -0.1500 
 12 C       -5.0860     1.6280    -0.2770 C.2   1 <1>  -0.2760 
 13 C        3.3900     3.7560    -0.1350 C.ar  1 <1>  -0.1500 
 14 C       -6.1130     2.3470     0.1900 C.2   1 <1>  -0.2880 
 15 C       -5.2390     0.1790    -0.7320 C.3   1 <1>  -0.0220 
 16 C       -7.5300     1.8200     0.3500 C.3   1 <1>  -0.0220 
 17 C       -6.7130    -0.2010    -0.9360 C.3   1 <1>  -0.1600 
 18 C       -7.5770     0.2900     0.2330 C.3   1 <1>  -0.1600 
 19 H       -1.2810     3.0580     0.9310 H     1 <1>   0.3700 
 20 H       -3.0850     1.6260     1.5810 H     1 <1>   0.0800 
 21 H       -2.6420     0.4680     0.3560 H     1 <1>   0.0800 
 22 H        0.0910     4.1390    -0.6540 H     1 <1>   0.1500 
 23 H       -3.3210     2.0460    -1.4110 H     1 <1>   0.0800 
 24 H       -3.6970     3.2460    -0.2050 H     1 <1>   0.0800 
 25 H        3.1690    -0.1780     0.3130 H     1 <1>   0.4000 
 26 H        1.4630    -0.2180     0.2920 H     1 <1>   0.4000 
 27 H        4.3350     1.9320     0.4220 H     1 <1>   0.1500 
 28 H        2.1760     5.4210    -0.6930 H     1 <1>   0.1500 
 29 H        4.3070     4.3190    -0.1540 H     1 <1>   0.1500 
 30 H       -6.0190     3.3760     0.4940 H     1 <1>   0.1500 
 31 H       -4.8040    -0.4700     0.0080 H     1 <1>   0.0800 
 32 H       -4.7130     0.0260    -1.6590 H     1 <1>   0.0800 
 33 H       -8.1490     2.2620    -0.4110 H     1 <1>   0.0800 
 34 H       -7.9190     2.1110     1.3090 H     1 <1>   0.0800 
 35 H       -6.8000    -1.2690    -1.0360 H     1 <1>   0.0800 
 36 H       -7.0680     0.2490    -1.8470 H     1 <1>   0.0800 
 37 H       -8.5960    -0.0300     0.0990 H     1 <1>   0.0800 
 38 H       -7.2080    -0.1440     1.1460 H     1 <1>   0.0800 
@<TRIPOS>BOND
  1   1   2  2   
  2   2   3  am  
  3   2   4  1   
  4   3   5  1   
  5   3  19  1   
  6   4   6  ar  
  7   4   7  ar  
  8   5   8  1   
  9   5  20  1   
 10   5  21  1   
 11   6   9  1   
 12   6  10  ar  
 13   7  11  ar  
 14   7  22  1   
 15   8  12  1   
 16   8  23  1   
 17   8  24  1   
 18   9  25  1   
 19   9  26  1   
 20  10  13  ar  
 21  10  27  1   
 22  11  13  ar  
 23  11  28  1   
 24  12  14  2   
 25  12  15  1   
 26  13  29  1   
 27  14  16  1   
 28  14  30  1   
 29  15  17  1   
 30  15  31  1   
 31  15  32  1   
 32  16  18  1   
 33  16  33  1   
 34  16  34  1   
 35  17  18  1   
 36  17  35  1   
 37  17  36  1   
 38  18  37  1   
 39  18  38  1   
@<TRIPOS>SUBSTRUCTURE
  1 ****   3 GROUP 4 **** **** 0

# MOE 2024.06 (io_trps.svl 2023.06)
