@<TRIPOS>MOLECULE
NONAME
47 49 1 0 0 
SMALL
USER_CHARGES


@<TRIPOS>ATOM
  1 BR       3.4960     2.8120     3.6860 Br    1 <1>  -0.1110 
  2 C        3.1910     2.2430     1.8690 C.ar  1 <1>   0.1110 
  3 C        2.0490     2.6570     1.1970 C.ar  1 <1>   0.0820 
  4 C        4.1420     1.4290     1.2860 C.ar  1 <1>  -0.1500 
  5 O        1.1670     3.4600     1.8450 O.3   1 <1>  -0.3630 
  6 C        1.8780     2.2200    -0.1130 C.ar  1 <1>  -0.1500 
  7 C        3.9790     1.0010    -0.0260 C.ar  1 <1>  -0.0090 
  8 C       -0.0480     3.8580     1.2490 C.3   1 <1>   0.0400 
  9 C        2.8320     1.4060    -0.7060 C.ar  1 <1>  -0.1500 
 10 S        5.2370    -0.0330    -0.8210 S.o2  1 <1>   1.4470 
 11 O        4.9540    -0.2090    -2.2280 O.2   1 <1>  -0.6500 
 12 O        5.5430    -1.1750     0.0080 O.2   1 <1>  -0.6500 
 13 N        6.6230     0.9510    -0.7750 N.am  1 <1>  -0.8490 
 14 C        7.8440     0.1400    -0.9940 C.3   1 <1>   0.1960 
 15 C        6.5650     2.0630    -1.7480 C.3   1 <1>   0.1960 
 16 C        9.1350     0.9910    -1.0870 C.3   1 <1>   0.3430 
 17 C        7.7890     3.0080    -1.6340 C.3   1 <1>   0.3430 
 18 N        8.8710     2.4370    -0.7590 N.4   1 <1>  -0.9590 
 19 C       10.1020     3.2690    -0.7010 C.3   1 <1>   0.4860 
 20 C       11.0270     2.6820     0.3450 C.ar  1 <1>  -0.1430 
 21 C       12.1790     2.0090    -0.0410 C.ar  1 <1>  -0.1500 
 22 C       10.7270     2.8030     1.6950 C.ar  1 <1>  -0.1500 
 23 C       13.0130     1.4530     0.9120 C.ar  1 <1>  -0.1500 
 24 C       11.5620     2.2450     2.6470 C.ar  1 <1>  -0.1500 
 25 C       12.7030     1.5680     2.2550 C.ar  1 <1>  -0.1500 
 26 H        5.0050     1.1290     1.8540 H     1 <1>   0.1500 
 27 H        1.0120     2.5010    -0.6840 H     1 <1>   0.1500 
 28 H       -0.5840     4.4620     1.9600 H     1 <1>   0.0800 
 29 H       -0.6230     2.9820     1.0080 H     1 <1>   0.0800 
 30 H        0.1660     4.4370     0.3680 H     1 <1>   0.0800 
 31 H        2.6780     1.0760    -1.7220 H     1 <1>   0.1500 
 32 H        7.7430    -0.4430    -1.8960 H     1 <1>   0.0800 
 33 H        7.9570    -0.5580    -0.1800 H     1 <1>   0.0800 
 34 H        5.6670     2.6390    -1.5950 H     1 <1>   0.0800 
 35 H        6.5230     1.6700    -2.7520 H     1 <1>   0.0800 
 36 H        9.5380     0.9090    -2.0830 H     1 <1>   0.0800 
 37 H        9.8660     0.5830    -0.4070 H     1 <1>   0.0800 
 38 H        7.4600     3.9510    -1.2280 H     1 <1>   0.0800 
 39 H        8.1730     3.1980    -2.6230 H     1 <1>   0.0800 
 40 H        8.4770     2.4030     0.1920 H     1 <1>   0.4500 
 41 H        9.8550     4.2830    -0.4290 H     1 <1>   0.0800 
 42 H       10.5920     3.2810    -1.6610 H     1 <1>   0.0800 
 43 H       12.4450     1.9110    -1.0800 H     1 <1>   0.1500 
 44 H        9.8490     3.3310     2.0270 H     1 <1>   0.1500 
 45 H       13.9070     0.9310     0.6140 H     1 <1>   0.1500 
 46 H       11.3310     2.3380     3.6950 H     1 <1>   0.1500 
 47 H       13.3540     1.1350     2.9970 H     1 <1>   0.1500 
@<TRIPOS>BOND
  1   1   2  1   
  2   2   3  ar  
  3   2   4  ar  
  4   3   5  1   
  5   3   6  ar  
  6   4   7  ar  
  7   4  26  1   
  8   5   8  1   
  9   6   9  ar  
 10   6  27  1   
 11   7   9  ar  
 12   7  10  1   
 13   8  28  1   
 14   8  29  1   
 15   8  30  1   
 16   9  31  1   
 17  10  11  2   
 18  10  12  2   
 19  10  13  am  
 20  13  14  1   
 21  13  15  1   
 22  14  16  1   
 23  14  32  1   
 24  14  33  1   
 25  15  17  1   
 26  15  34  1   
 27  15  35  1   
 28  16  18  1   
 29  16  36  1   
 30  16  37  1   
 31  17  18  1   
 32  17  38  1   
 33  17  39  1   
 34  18  19  1   
 35  18  40  1   
 36  19  20  1   
 37  19  41  1   
 38  19  42  1   
 39  20  21  ar  
 40  20  22  ar  
 41  21  23  ar  
 42  21  43  1   
 43  22  24  ar  
 44  22  44  1   
 45  23  25  ar  
 46  23  45  1   
 47  24  25  ar  
 48  24  46  1   
 49  25  47  1   
@<TRIPOS>SUBSTRUCTURE
  1 ****  13 GROUP 4 **** **** 0

# MOE 2024.06 (io_trps.svl 2023.06)
