@<TRIPOS>MOLECULE
NONAME
48 50 1 0 0 
SMALL
USER_CHARGES


@<TRIPOS>ATOM
  1 O       -0.2290    -0.3250    -1.8070 O.2   1 <1>  -0.5700 
  2 C       -0.7690    -1.0020    -0.9610 C.2   1 <1>   0.5690 
  3 N       -0.0810    -1.8040    -0.0870 N.am  1 <1>  -0.5470 
  4 C       -2.3120    -0.9800    -0.8630 C.3   1 <1>   0.3950 
  5 C        1.2820    -2.0930     0.0660 C.ar  1 <1>   0.1170 
  6 N       -2.8590    -0.0240     0.1530 N.3   1 <1>  -0.8100 
  7 C       -2.8140    -2.4050    -0.5790 C.ar  1 <1>  -0.1430 
  8 C        1.6600    -3.3060     0.6460 C.ar  1 <1>  -0.1430 
  9 C        2.2710    -1.1970    -0.3260 C.ar  1 <1>  -0.1500 
 10 C       -4.3310     0.0960     0.0340 C.3   1 <1>   0.1100 
 11 C       -2.2560     1.3230     0.0190 C.3   1 <1>   0.1100 
 12 C       -3.0660    -3.2640    -1.6390 C.ar  1 <1>  -0.1500 
 13 C       -2.9950    -2.8690     0.7200 C.ar  1 <1>  -0.1500 
 14 C        3.0040    -3.5930     0.8200 C.ar  1 <1>  -0.1500 
 15 C        0.6200    -4.3300     1.0870 C.3   1 <1>  -0.0970 
 16 C        3.6130    -1.4870    -0.1530 C.ar  1 <1>  -0.1430 
 17 C       -4.8900     1.1250     1.0320 C.3   1 <1>   0.1200 
 18 C       -2.8840     2.3210     1.0080 C.3   1 <1>   0.1200 
 19 C       -3.4880    -4.5620    -1.4070 C.ar  1 <1>  -0.1500 
 20 C       -3.4170    -4.1660     0.9530 C.ar  1 <1>  -0.1500 
 21 C        3.9750    -2.6910     0.4230 C.ar  1 <1>  -0.1500 
 22 C        4.6820    -0.5020    -0.5890 C.3   1 <1>  -0.0970 
 23 O       -4.2720     2.3660     0.8480 O.3   1 <1>  -0.5600 
 24 C       -3.6630    -5.0140    -0.1120 C.ar  1 <1>  -0.1500 
 25 H       -0.6930    -2.3800     0.4910 H     1 <1>   0.3700 
 26 H       -2.6740    -0.6790    -1.8310 H     1 <1>   0.0800 
 27 H        1.9870    -0.2620    -0.7700 H     1 <1>   0.1500 
 28 H       -4.7950    -0.8550     0.2260 H     1 <1>   0.0800 
 29 H       -4.5980     0.4020    -0.9640 H     1 <1>   0.0800 
 30 H       -2.3900     1.6930    -0.9840 H     1 <1>   0.0800 
 31 H       -1.1990     1.2730     0.2180 H     1 <1>   0.0800 
 32 H       -2.9290    -2.9310    -2.6540 H     1 <1>   0.1500 
 33 H       -2.8120    -2.2170     1.5580 H     1 <1>   0.1500 
 34 H        3.3080    -4.5240     1.2640 H     1 <1>   0.1500 
 35 H        0.0360    -3.9370     1.8990 H     1 <1>   0.0800 
 36 H        1.0900    -5.2390     1.4160 H     1 <1>   0.0800 
 37 H       -0.0340    -4.5710     0.2670 H     1 <1>   0.0800 
 38 H       -4.7210     0.8000     2.0430 H     1 <1>   0.0800 
 39 H       -5.9450     1.2570     0.8790 H     1 <1>   0.0800 
 40 H       -2.5010     3.3100     0.8330 H     1 <1>   0.0800 
 41 H       -2.6620     2.0360     2.0220 H     1 <1>   0.0800 
 42 H       -3.6790    -5.2210    -2.2360 H     1 <1>   0.1500 
 43 H       -3.5570    -4.5150     1.9610 H     1 <1>   0.1500 
 44 H        5.0140    -2.9320     0.5640 H     1 <1>   0.1500 
 45 H        4.2490     0.4530    -0.8260 H     1 <1>   0.0800 
 46 H        5.1860    -0.8770    -1.4620 H     1 <1>   0.0800 
 47 H        5.4020    -0.3650     0.1980 H     1 <1>   0.0800 
 48 H       -3.9920    -6.0230     0.0670 H     1 <1>   0.1500 
@<TRIPOS>BOND
  1   1   2  2   
  2   2   3  am  
  3   2   4  1   
  4   3   5  1   
  5   3  25  1   
  6   4   6  1   
  7   4   7  1   
  8   4  26  1   
  9   5   8  ar  
 10   5   9  ar  
 11   6  10  1   
 12   6  11  1   
 13   7  12  ar  
 14   7  13  ar  
 15   8  14  ar  
 16   8  15  1   
 17   9  16  ar  
 18   9  27  1   
 19  10  17  1   
 20  10  28  1   
 21  10  29  1   
 22  11  18  1   
 23  11  30  1   
 24  11  31  1   
 25  12  19  ar  
 26  12  32  1   
 27  13  20  ar  
 28  13  33  1   
 29  14  21  ar  
 30  14  34  1   
 31  15  35  1   
 32  15  36  1   
 33  15  37  1   
 34  16  21  ar  
 35  16  22  1   
 36  17  23  1   
 37  17  38  1   
 38  17  39  1   
 39  18  23  1   
 40  18  40  1   
 41  18  41  1   
 42  19  24  ar  
 43  19  42  1   
 44  20  24  ar  
 45  20  43  1   
 46  21  44  1   
 47  22  45  1   
 48  22  46  1   
 49  22  47  1   
 50  24  48  1   
@<TRIPOS>SUBSTRUCTURE
  1 ****   3 GROUP 4 **** **** 0

# MOE 2024.06 (io_trps.svl 2023.06)
