@<TRIPOS>MOLECULE
NONAME
41 44 1 0 0 
SMALL
USER_CHARGES


@<TRIPOS>ATOM
  1 N        0.8200     0.7000    -2.2010 N.1   1 <1>  -0.5570 
  2 C        1.8240     0.9160    -1.7080 C.1   1 <1>   0.5370 
  3 C        3.0760     1.2020    -1.0910 C.2   1 <1>  -0.1320 
  4 N        3.9210     0.2470    -0.6220 N.pl3 1 <1>   0.0480 
  5 C        3.6570     2.4040    -0.8140 C.2   1 <1>   0.0830 
  6 C        4.9920     0.8190    -0.0780 C.2   1 <1>  -0.3320 
  7 C        3.8570    -1.2100    -0.4640 C.3   1 <1>   0.0960 
  8 N        3.2230     3.7050    -0.9630 N.pl3 1 <1>  -0.5330 
  9 C        4.9050     2.2000    -0.1970 C.2   1 <1>  -0.0860 
 10 C        5.8850    -0.2370     0.5450 C.3   1 <1>   0.0200 
 11 C        4.9830    -1.4860     0.5470 C.3   1 <1>  -0.1600 
 12 C        3.9480     4.7240    -0.4990 C.2   1 <1>   0.4400 
 13 C        5.6530     3.3640     0.1600 C.2   1 <1>   0.6970 
 14 N        5.1270     4.5970     0.0540 N.2   1 <1>  -0.6610 
 15 N        6.9430     3.3030     0.5640 N.2   1 <1>  -0.0920 
 16 C        7.9200     2.3120     0.0250 C.3   1 <1>   0.1860 
 17 C        7.5800     4.3900     1.3760 C.3   1 <1>   0.1860 
 18 C        9.0290     3.0240    -0.7830 C.3   1 <1>   0.3430 
 19 C        8.6410     5.1310     0.5440 C.3   1 <1>   0.3430 
 20 N        9.6550     4.1810    -0.0450 N.4   1 <1>  -0.9590 
 21 C       10.5910     4.9280    -0.9550 C.3   1 <1>   0.2630 
 22 H        4.0550    -1.6770    -1.4120 H     1 <1>   0.0800 
 23 H        2.8950    -1.5100    -0.0880 H     1 <1>   0.0800 
 24 H        2.3030     3.8720    -1.3910 H     1 <1>   0.4000 
 25 H        6.1930     0.0200     1.5440 H     1 <1>   0.0800 
 26 H        6.7430    -0.4280    -0.0750 H     1 <1>   0.0800 
 27 H        5.5260    -2.3820     0.2990 H     1 <1>   0.0800 
 28 H        4.5470    -1.6130     1.5230 H     1 <1>   0.0800 
 29 H        3.5320     5.7130    -0.5950 H     1 <1>   0.0600 
 30 H        7.4300     1.6280    -0.6420 H     1 <1>   0.0800 
 31 H        8.3500     1.7480     0.8340 H     1 <1>   0.0800 
 32 H        8.0410     3.9580     2.2470 H     1 <1>   0.0800 
 33 H        6.8450     5.0950     1.7270 H     1 <1>   0.0800 
 34 H        8.5990     3.3820    -1.7060 H     1 <1>   0.0800 
 35 H        9.7900     2.3060    -1.0460 H     1 <1>   0.0800 
 36 H        9.1400     5.8560     1.1690 H     1 <1>   0.0800 
 37 H        8.1440     5.6720    -0.2460 H     1 <1>   0.0800 
 38 H       10.2450     3.8100     0.7220 H     1 <1>   0.4500 
 39 H       10.0520     5.3550    -1.7870 H     1 <1>   0.0800 
 40 H       11.3500     4.2670    -1.3420 H     1 <1>   0.0800 
 41 H       11.0810     5.7270    -0.4200 H     1 <1>   0.0800 
@<TRIPOS>BOND
  1   1   2  3   
  2   2   3  1   
  3   3   4  1   
  4   3   5  2   
  5   4   6  1   
  6   4   7  1   
  7   5   8  1   
  8   5   9  1   
  9   6   9  2   
 10   6  10  1   
 11   7  11  1   
 12   7  22  1   
 13   7  23  1   
 14   8  12  1   
 15   8  24  1   
 16   9  13  1   
 17  10  11  1   
 18  10  25  1   
 19  10  26  1   
 20  11  27  1   
 21  11  28  1   
 22  12  14  2   
 23  12  29  1   
 24  13  14  1   
 25  13  15  2   
 26  15  16  1   
 27  15  17  1   
 28  16  18  1   
 29  16  30  1   
 30  16  31  1   
 31  17  19  1   
 32  17  32  1   
 33  17  33  1   
 34  18  20  1   
 35  18  34  1   
 36  18  35  1   
 37  19  20  1   
 38  19  36  1   
 39  19  37  1   
 40  20  21  1   
 41  20  38  1   
 42  21  39  1   
 43  21  40  1   
 44  21  41  1   
@<TRIPOS>SUBSTRUCTURE
  1 ****   9 GROUP 4 **** **** 0

# MOE 2024.06 (io_trps.svl 2023.06)
