@<TRIPOS>MOLECULE
NONAME
44 46 1 0 0 
SMALL
USER_CHARGES


@<TRIPOS>ATOM
  1 O       -0.1270    -0.4130    -0.1670 O.2   1 <1>  -0.5640 
  2 N       -0.7750    -1.4860     0.1140 N.2   1 <1>   1.5890 
  3 C       -0.0820    -2.6790     0.1910 C.2   1 <1>  -0.0410 
  4 C       -2.1230    -1.3640     0.3950 C.2   1 <1>  -0.1510 
  5 C        1.3540    -2.6130     0.0960 C.ar  1 <1>   0.0280 
  6 C       -0.8220    -3.8240     0.3320 C.2   1 <1>  -0.0380 
  7 C       -2.8430    -2.5010     0.5100 C.2   1 <1>  -0.0380 
  8 C       -2.7790     0.0170     0.5430 C.3   1 <1>  -0.0220 
  9 C        2.1370    -2.2940     1.2060 C.ar  1 <1>  -0.1500 
 10 C        2.0000    -2.8400    -1.1170 C.ar  1 <1>  -0.1500 
 11 N       -2.1910    -3.6990     0.3320 N.pl3 1 <1>  -0.5080 
 12 C       -0.2550    -5.2550     0.4670 C.3   1 <1>   0.0580 
 13 C       -4.3480    -2.5030     0.7850 C.3   1 <1>  -0.0220 
 14 C       -3.7550     0.2950    -0.6100 C.3   1 <1>  -0.1600 
 15 C        3.5120    -2.2020     1.1040 C.ar  1 <1>  -0.1500 
 16 C        3.3750    -2.7490    -1.2220 C.ar  1 <1>  -0.1500 
 17 O       -2.8840    -4.6960     0.0050 O.3   1 <1>  -0.6920 
 18 C        0.9630    -5.3960     1.3910 C.3   1 <1>  -0.2400 
 19 C        0.0370    -5.8650    -0.9080 C.3   1 <1>  -0.2400 
 20 C       -5.1250    -1.9010    -0.3930 C.3   1 <1>  -0.1600 
 21 C       -5.1320    -0.3630    -0.4220 C.3   1 <1>  -0.1600 
 22 C        4.1340    -2.4280    -0.1110 C.ar  1 <1>  -0.1500 
 23 H       -2.0520     0.8100     0.5710 H     1 <1>   0.0800 
 24 H       -3.3090     0.0690     1.4790 H     1 <1>   0.0800 
 25 H        1.6730    -2.1260     2.1630 H     1 <1>   0.1500 
 26 H        1.4230    -3.0940    -1.9910 H     1 <1>   0.1500 
 27 H       -1.0210    -5.8610     0.9240 H     1 <1>   0.0800 
 28 H       -4.5610    -1.9670     1.6910 H     1 <1>   0.0800 
 29 H       -4.6940    -3.5090     0.9460 H     1 <1>   0.0800 
 30 H       -3.3260    -0.0210    -1.5460 H     1 <1>   0.0800 
 31 H       -3.9100     1.3590    -0.6730 H     1 <1>   0.0800 
 32 H        4.1050    -1.9560     1.9690 H     1 <1>   0.1500 
 33 H        3.8590    -2.9290    -2.1670 H     1 <1>   0.1500 
 34 H        1.8610    -5.0450     0.9210 H     1 <1>   0.0800 
 35 H        1.1060    -6.4340     1.6340 H     1 <1>   0.0800 
 36 H        0.7960    -4.8580     2.3060 H     1 <1>   0.0800 
 37 H        0.8440    -5.3570    -1.3970 H     1 <1>   0.0800 
 38 H       -0.8470    -5.7920    -1.5190 H     1 <1>   0.0800 
 39 H        0.2900    -6.9050    -0.8050 H     1 <1>   0.0800 
 40 H       -6.1440    -2.2390    -0.3230 H     1 <1>   0.0800 
 41 H       -4.7250    -2.2960    -1.3120 H     1 <1>   0.0800 
 42 H       -5.7660    -0.0520    -1.2350 H     1 <1>   0.0800 
 43 H       -5.5830     0.0030     0.4840 H     1 <1>   0.0800 
 44 H        5.2050    -2.3560    -0.1910 H     1 <1>   0.1500 
@<TRIPOS>BOND
  1   1   2  2   
  2   2   3  1   
  3   2   4  1   
  4   3   5  1   
  5   3   6  2   
  6   4   7  2   
  7   4   8  1   
  8   5   9  ar  
  9   5  10  ar  
 10   6  11  1   
 11   6  12  1   
 12   7  11  1   
 13   7  13  1   
 14   8  14  1   
 15   8  23  1   
 16   8  24  1   
 17   9  15  ar  
 18   9  25  1   
 19  10  16  ar  
 20  10  26  1   
 21  11  17  1   
 22  12  18  1   
 23  12  19  1   
 24  12  27  1   
 25  13  20  1   
 26  13  28  1   
 27  13  29  1   
 28  14  21  1   
 29  14  30  1   
 30  14  31  1   
 31  15  22  ar  
 32  15  32  1   
 33  16  22  ar  
 34  16  33  1   
 35  18  34  1   
 36  18  35  1   
 37  18  36  1   
 38  19  37  1   
 39  19  38  1   
 40  19  39  1   
 41  20  21  1   
 42  20  40  1   
 43  20  41  1   
 44  21  42  1   
 45  21  43  1   
 46  22  44  1   
@<TRIPOS>SUBSTRUCTURE
  1 ****   3 GROUP 4 **** **** 0

# MOE 2024.06 (io_trps.svl 2023.06)
