@<TRIPOS>MOLECULE
NONAME
49 51 1 0 0 
SMALL
USER_CHARGES


@<TRIPOS>ATOM
  1 N       -0.2380     0.4670     0.0710 N.3   1 <1>  -0.8100 
  2 C       -0.5050     1.8700     0.4660 C.3   1 <1>   0.1100 
  3 C        0.3530    -0.2940     1.2020 C.3   1 <1>   0.1100 
  4 C       -1.4440    -0.1890    -0.4770 C.3   1 <1>   0.2540 
  5 C        0.7480     2.5660     1.0530 C.3   1 <1>   0.3430 
  6 C        1.6500     0.3630     1.7340 C.3   1 <1>   0.3430 
  7 C       -1.1110    -1.5890    -0.9850 C.ar  1 <1>  -0.1440 
  8 N        1.9370     1.6480     1.0210 N.4   1 <1>  -0.9590 
  9 C       -1.6530    -2.7470    -0.4300 C.ar  1 <1>  -0.1440 
 10 C       -0.2220    -1.6960    -2.0460 C.ar  1 <1>  -0.1500 
 11 C        3.2180     2.2910     1.4080 C.3   1 <1>   0.4860 
 12 C       -1.2900    -3.9840    -0.9450 C.ar  1 <1>  -0.1500 
 13 C       -2.6440    -2.7100     0.7250 C.3   1 <1>  -0.0970 
 14 C        0.1340    -2.9320    -2.5540 C.ar  1 <1>  -0.1500 
 15 C        3.4410     3.5060     0.5300 C.ar  1 <1>  -0.1440 
 16 C       -0.4010    -4.0780    -2.0000 C.ar  1 <1>  -0.1500 
 17 C        3.3210     4.7820     1.0610 C.ar  1 <1>  -0.1500 
 18 C        3.7540     3.3550    -0.8140 C.ar  1 <1>  -0.1500 
 19 C        3.5010     5.8920     0.2550 C.ar  1 <1>  -0.1500 
 20 C        3.9330     4.4680    -1.6160 C.ar  1 <1>  -0.1500 
 21 C        3.8070     5.7410    -1.0870 C.ar  1 <1>  -0.1440 
 22 C        4.0040     6.9620    -1.9670 C.3   1 <1>  -0.0970 
 23 H       -1.3000     1.9040     1.1930 H     1 <1>   0.0800 
 24 H       -0.8330     2.4240    -0.3980 H     1 <1>   0.0800 
 25 H        0.5930    -1.2950     0.8840 H     1 <1>   0.0800 
 26 H       -0.3610    -0.3740     2.0030 H     1 <1>   0.0800 
 27 H       -1.8150     0.3890    -1.3070 H     1 <1>   0.0800 
 28 H       -2.2160    -0.2160     0.2700 H     1 <1>   0.0800 
 29 H        0.5450     2.8730     2.0650 H     1 <1>   0.0800 
 30 H        0.9510     3.4540     0.4760 H     1 <1>   0.0800 
 31 H        2.4670    -0.3250     1.5910 H     1 <1>   0.0800 
 32 H        1.5480     0.5380     2.7920 H     1 <1>   0.0800 
 33 H        1.9890     1.3800     0.0270 H     1 <1>   0.4500 
 34 H        0.1990    -0.8060    -2.4800 H     1 <1>   0.1500 
 35 H        4.0350     1.6000     1.2750 H     1 <1>   0.0800 
 36 H        3.1860     2.5900     2.4430 H     1 <1>   0.0800 
 37 H       -1.7000    -4.8880    -0.5300 H     1 <1>   0.1500 
 38 H       -2.2100    -2.2130     1.5730 H     1 <1>   0.0800 
 39 H       -2.9220    -3.7040     1.0280 H     1 <1>   0.0800 
 40 H       -3.5370    -2.1910     0.4270 H     1 <1>   0.0800 
 41 H        0.8220    -3.0010    -3.3770 H     1 <1>   0.1500 
 42 H       -0.1300    -5.0440    -2.3910 H     1 <1>   0.1500 
 43 H        3.0900     4.9310     2.1020 H     1 <1>   0.1500 
 44 H        3.8640     2.3780    -1.2530 H     1 <1>   0.1500 
 45 H        3.4070     6.8790     0.6750 H     1 <1>   0.1500 
 46 H        4.1740     4.3410    -2.6580 H     1 <1>   0.1500 
 47 H        3.0540     7.3000    -2.3420 H     1 <1>   0.0800 
 48 H        4.6420     6.7300    -2.8010 H     1 <1>   0.0800 
 49 H        4.4590     7.7590    -1.4070 H     1 <1>   0.0800 
@<TRIPOS>BOND
  1   1   2  1   
  2   1   3  1   
  3   1   4  1   
  4   2   5  1   
  5   2  23  1   
  6   2  24  1   
  7   3   6  1   
  8   3  25  1   
  9   3  26  1   
 10   4   7  1   
 11   4  27  1   
 12   4  28  1   
 13   5   8  1   
 14   5  29  1   
 15   5  30  1   
 16   6   8  1   
 17   6  31  1   
 18   6  32  1   
 19   7   9  ar  
 20   7  10  ar  
 21   8  11  1   
 22   8  33  1   
 23   9  12  ar  
 24   9  13  1   
 25  10  14  ar  
 26  10  34  1   
 27  11  15  1   
 28  11  35  1   
 29  11  36  1   
 30  12  16  ar  
 31  12  37  1   
 32  13  38  1   
 33  13  39  1   
 34  13  40  1   
 35  14  16  ar  
 36  14  41  1   
 37  15  17  ar  
 38  15  18  ar  
 39  16  42  1   
 40  17  19  ar  
 41  17  43  1   
 42  18  20  ar  
 43  18  44  1   
 44  19  21  ar  
 45  19  45  1   
 46  20  21  ar  
 47  20  46  1   
 48  21  22  1   
 49  22  47  1   
 50  22  48  1   
 51  22  49  1   
@<TRIPOS>SUBSTRUCTURE
  1 ****   1 GROUP 4 **** **** 0

# MOE 2024.06 (io_trps.svl 2023.06)
