@<TRIPOS>MOLECULE
NONAME
33 33 1 0 0 
SMALL
USER_CHARGES


@<TRIPOS>ATOM
  1 F       -0.6730     1.0030     0.1160 F     1 <1>  -0.3400 
  2 C       -1.2760    -0.0600     0.6430 C.3   1 <1>   1.0200 
  3 F       -1.1010     0.0600     1.9550 F     1 <1>  -0.3400 
  4 F       -2.5710     0.1480     0.4250 F     1 <1>  -0.3400 
  5 C       -0.7400    -1.4130     0.0440 C.3   1 <1>   0.5600 
  6 O        0.6030    -1.7180     0.4250 O.3   1 <1>  -0.5600 
  7 O       -0.6980    -1.4040    -1.3840 O.3   1 <1>  -0.6800 
  8 C       -1.7070    -2.5310     0.5700 C.3   1 <1>   1.0200 
  9 C        1.6360    -0.8510     0.0310 C.3   1 <1>   0.3000 
 10 F       -1.9260    -2.5120     1.8820 F     1 <1>  -0.3400 
 11 F       -1.2680    -3.7590     0.3060 F     1 <1>  -0.3400 
 12 F       -2.9090    -2.4730    -0.0010 F     1 <1>  -0.3400 
 13 C        2.9720    -1.5130     0.3140 C.2   1 <1>  -0.0400 
 14 O        4.0720    -0.8620    -0.0040 O.3   1 <1>  -0.2800 
 15 C        3.2800    -2.7120     0.8510 C.2   1 <1>  -0.1500 
 16 C        5.1100    -1.6190     0.3040 C.2   1 <1>  -0.0400 
 17 C        4.6770    -2.7840     0.8450 C.2   1 <1>  -0.1500 
 18 C        6.5210    -1.0760     0.0100 C.3   1 <1>   0.4600 
 19 O        6.5530    -0.7620    -1.3940 O.3   1 <1>  -0.6800 
 20 C        6.7970     0.1770     0.8880 C.3   1 <1>   1.0200 
 21 C        7.6150    -2.1220     0.3620 C.3   1 <1>   1.0200 
 22 F        5.9810     1.1930     0.6190 F     1 <1>  -0.3400 
 23 F        8.0170     0.6790     0.7150 F     1 <1>  -0.3400 
 24 F        6.6740    -0.0320     2.1950 F     1 <1>  -0.3400 
 25 F        8.8380    -1.7360     0.0100 F     1 <1>  -0.3400 
 26 F        7.4370    -3.2800    -0.2690 F     1 <1>  -0.3400 
 27 F        7.6920    -2.4390     1.6500 F     1 <1>  -0.3400 
 28 H       -1.6020    -1.4090    -1.7620 H     1 <1>   0.4000 
 29 H        1.5690     0.0650     0.5920 H     1 <1>   0.0800 
 30 H        1.5670    -0.6440    -1.0230 H     1 <1>   0.0800 
 31 H        2.6100    -3.4740     1.2080 H     1 <1>   0.1500 
 32 H        5.2330    -3.6310     1.2110 H     1 <1>   0.1500 
 33 H        7.4080    -0.3610    -1.6530 H     1 <1>   0.4000 
@<TRIPOS>BOND
  1   1   2  1   
  2   2   3  1   
  3   2   4  1   
  4   2   5  1   
  5   5   6  1   
  6   5   7  1   
  7   5   8  1   
  8   6   9  1   
  9   7  28  1   
 10   8  10  1   
 11   8  11  1   
 12   8  12  1   
 13   9  13  1   
 14   9  29  1   
 15   9  30  1   
 16  13  14  1   
 17  13  15  2   
 18  14  16  1   
 19  15  17  1   
 20  15  31  1   
 21  16  17  2   
 22  16  18  1   
 23  17  32  1   
 24  18  19  1   
 25  18  20  1   
 26  18  21  1   
 27  19  33  1   
 28  20  22  1   
 29  20  23  1   
 30  20  24  1   
 31  21  25  1   
 32  21  26  1   
 33  21  27  1   
@<TRIPOS>SUBSTRUCTURE
  1 ****  13 GROUP 4 **** **** 0

# MOE 2024.06 (io_trps.svl 2023.06)
