@<TRIPOS>MOLECULE
NONAME
48 48 1 0 0 
SMALL
USER_CHARGES


@<TRIPOS>ATOM
  1 S        0.5840    -1.2790     0.0380 S.o2  1 <1>   1.2040 
  2 O        1.2620    -1.3920     1.3120 O.2   1 <1>  -0.6500 
  3 O        0.7880    -2.3050    -0.9550 O.2   1 <1>  -0.6500 
  4 C       -1.1970    -1.1720     0.3400 C.ar  1 <1>  -0.0090 
  5 C        0.9620     0.3320    -0.6380 C.3   1 <1>   0.1300 
  6 C       -1.7040    -0.9270     1.6110 C.ar  1 <1>  -0.1500 
  7 C       -2.1020    -1.3130    -0.7060 C.ar  1 <1>  -0.1500 
  8 S        2.6270     0.2800    -1.3180 S.o2  1 <1>   1.0900 
  9 C        0.7380     1.4880     0.3860 C.3   1 <1>  -0.1600 
 10 C       -3.0660    -0.8090     1.8300 C.ar  1 <1>  -0.1500 
 11 C       -3.4650    -1.1960    -0.4960 C.ar  1 <1>  -0.1500 
 12 O        3.0430     1.6490    -1.5150 O.2   1 <1>  -0.6500 
 13 O        2.6290    -0.5600    -2.4920 O.2   1 <1>  -0.6500 
 14 C        3.7790    -0.3820    -0.0980 C.3   1 <1>  -0.0550 
 15 C       -0.1540     2.6520    -0.1040 C.3   1 <1>   0.0000 
 16 C       -3.9480    -0.9400     0.7740 C.ar  1 <1>  -0.1500 
 17 C        4.1290    -1.8750    -0.2480 C.3   1 <1>  -0.1600 
 18 C       -0.2340     3.6980     1.0170 C.3   1 <1>  -0.2400 
 19 C        0.4280     3.3290    -1.3520 C.3   1 <1>  -0.2400 
 20 C       -1.5810     2.1770    -0.4160 C.3   1 <1>  -0.2400 
 21 C        5.1260    -2.3160     0.8290 C.3   1 <1>  -0.1600 
 22 C        5.4780    -3.7970     0.6720 C.3   1 <1>  -0.2400 
 23 H        0.3020     0.4920    -1.4640 H     1 <1>   0.0800 
 24 H       -1.0300    -0.8300     2.4470 H     1 <1>   0.1500 
 25 H       -1.7420    -1.5240    -1.7000 H     1 <1>   0.1500 
 26 H        1.6930     1.8860     0.6840 H     1 <1>   0.0800 
 27 H        0.2960     1.0930     1.2840 H     1 <1>   0.0800 
 28 H       -3.4390    -0.6180     2.8220 H     1 <1>   0.1500 
 29 H       -4.1510    -1.3070    -1.3190 H     1 <1>   0.1500 
 30 H        3.4220    -0.1890     0.8960 H     1 <1>   0.0800 
 31 H        4.7000     0.1600    -0.1990 H     1 <1>   0.0800 
 32 H       -5.0080    -0.8490     0.9410 H     1 <1>   0.1500 
 33 H        4.5550    -2.0400    -1.2240 H     1 <1>   0.0800 
 34 H        3.2450    -2.4810    -0.1740 H     1 <1>   0.0800 
 35 H       -0.6600     3.2730     1.9080 H     1 <1>   0.0800 
 36 H       -0.8470     4.5300     0.7160 H     1 <1>   0.0800 
 37 H        0.7450     4.0760     1.2550 H     1 <1>   0.0800 
 38 H        1.4200     3.6980    -1.1550 H     1 <1>   0.0800 
 39 H       -0.1810     4.1660    -1.6460 H     1 <1>   0.0800 
 40 H        0.4800     2.6520    -2.1850 H     1 <1>   0.0800 
 41 H       -2.0220     1.7000     0.4410 H     1 <1>   0.0800 
 42 H       -1.6020     1.4930    -1.2430 H     1 <1>   0.0800 
 43 H       -2.2020     3.0160    -0.6770 H     1 <1>   0.0800 
 44 H        4.6970    -2.1590     1.8050 H     1 <1>   0.0800 
 45 H        6.0260    -1.7290     0.7580 H     1 <1>   0.0800 
 46 H        4.5950    -4.4050     0.7630 H     1 <1>   0.0800 
 47 H        6.1760    -4.0940     1.4360 H     1 <1>   0.0800 
 48 H        5.9260    -3.9790    -0.2890 H     1 <1>   0.0800 
@<TRIPOS>BOND
  1   1   2  2   
  2   1   3  2   
  3   1   4  1   
  4   1   5  1   
  5   4   6  ar  
  6   4   7  ar  
  7   5   8  1   
  8   5   9  1   
  9   5  23  1   
 10   6  10  ar  
 11   6  24  1   
 12   7  11  ar  
 13   7  25  1   
 14   8  12  2   
 15   8  13  2   
 16   8  14  1   
 17   9  15  1   
 18   9  26  1   
 19   9  27  1   
 20  10  16  ar  
 21  10  28  1   
 22  11  16  ar  
 23  11  29  1   
 24  14  17  1   
 25  14  30  1   
 26  14  31  1   
 27  15  18  1   
 28  15  19  1   
 29  15  20  1   
 30  16  32  1   
 31  17  21  1   
 32  17  33  1   
 33  17  34  1   
 34  18  35  1   
 35  18  36  1   
 36  18  37  1   
 37  19  38  1   
 38  19  39  1   
 39  19  40  1   
 40  20  41  1   
 41  20  42  1   
 42  20  43  1   
 43  21  22  1   
 44  21  44  1   
 45  21  45  1   
 46  22  46  1   
 47  22  47  1   
 48  22  48  1   
@<TRIPOS>SUBSTRUCTURE
  1 ****   5 GROUP 4 **** **** 0

# MOE 2024.06 (io_trps.svl 2023.06)
