@<TRIPOS>MOLECULE
NONAME
40 41 1 0 0 
SMALL
USER_CHARGES


@<TRIPOS>ATOM
  1 O       -1.3410     0.1510     0.4510 O.3   1 <1>  -0.5600 
  2 C       -1.1750     1.5320     0.6340 C.3   1 <1>   0.1200 
  3 C       -1.9500    -0.1990    -0.7620 C.3   1 <1>   0.1200 
  4 C       -2.5240     2.2810     0.5270 C.3   1 <1>   0.3430 
  5 C       -3.3550     0.4370    -0.8850 C.3   1 <1>   0.3430 
  6 N       -3.6620     1.3310     0.2870 N.4   1 <1>  -0.9590 
  7 C       -4.9810     2.0360     0.1920 C.3   1 <1>   0.3430 
  8 C       -6.1600     1.0630     0.1740 C.3   1 <1>   0.1200 
  9 O       -7.3400     1.8220     0.1150 O.3   1 <1>  -0.3630 
 10 C       -8.5780     1.2620    -0.0280 C.ar  1 <1>   0.0830 
 11 C       -8.8900    -0.1120    -0.0060 C.ar  1 <1>   0.0830 
 12 C       -9.5950     2.1860    -0.2080 C.ar  1 <1>  -0.1500 
 13 O       -7.9080    -1.0440     0.1840 O.3   1 <1>  -0.3630 
 14 C      -10.2180    -0.5020    -0.1800 C.ar  1 <1>  -0.1500 
 15 C      -10.9070     1.7830    -0.3750 C.ar  1 <1>  -0.1500 
 16 C       -8.2000    -2.4030     0.4250 C.3   1 <1>   0.1200 
 17 C      -11.2170     0.4380    -0.3620 C.ar  1 <1>  -0.1500 
 18 C       -6.8880    -3.1210     0.7270 C.3   1 <1>  -0.2400 
 19 H       -0.4770     1.8950    -0.1010 H     1 <1>   0.0800 
 20 H       -0.7440     1.6830     1.6090 H     1 <1>   0.0800 
 21 H       -2.0240    -1.2720    -0.7960 H     1 <1>   0.0800 
 22 H       -1.3150     0.1190    -1.5710 H     1 <1>   0.0800 
 23 H       -2.4640     2.9930    -0.2800 H     1 <1>   0.0800 
 24 H       -2.6900     2.8360     1.4360 H     1 <1>   0.0800 
 25 H       -4.0870    -0.3520    -0.9490 H     1 <1>   0.0800 
 26 H       -3.4040     0.9990    -1.8030 H     1 <1>   0.0800 
 27 H       -3.6590     0.7070     1.1090 H     1 <1>   0.4500 
 28 H       -5.0100     2.6330    -0.7050 H     1 <1>   0.0800 
 29 H       -5.0990     2.6890     1.0410 H     1 <1>   0.0800 
 30 H       -6.1870     0.4780     1.0770 H     1 <1>   0.0800 
 31 H       -6.1310     0.4340    -0.6970 H     1 <1>   0.0800 
 32 H       -9.3570     3.2340    -0.2190 H     1 <1>   0.1500 
 33 H      -10.5070    -1.5350    -0.1810 H     1 <1>   0.1500 
 34 H      -11.6830     2.5160    -0.5140 H     1 <1>   0.1500 
 35 H       -8.6630    -2.8150    -0.4550 H     1 <1>   0.0800 
 36 H       -8.8700    -2.4660     1.2660 H     1 <1>   0.0800 
 37 H      -12.2380     0.1220    -0.4940 H     1 <1>   0.1500 
 38 H       -6.2220    -3.0480    -0.1130 H     1 <1>   0.0800 
 39 H       -7.0830    -4.1610     0.9180 H     1 <1>   0.0800 
 40 H       -6.4260    -2.6960     1.6000 H     1 <1>   0.0800 
@<TRIPOS>BOND
  1   1   2  1   
  2   1   3  1   
  3   2   4  1   
  4   2  19  1   
  5   2  20  1   
  6   3   5  1   
  7   3  21  1   
  8   3  22  1   
  9   4   6  1   
 10   4  23  1   
 11   4  24  1   
 12   5   6  1   
 13   5  25  1   
 14   5  26  1   
 15   6   7  1   
 16   6  27  1   
 17   7   8  1   
 18   7  28  1   
 19   7  29  1   
 20   8   9  1   
 21   8  30  1   
 22   8  31  1   
 23   9  10  1   
 24  10  11  ar  
 25  10  12  ar  
 26  11  13  1   
 27  11  14  ar  
 28  12  15  ar  
 29  12  32  1   
 30  13  16  1   
 31  14  17  ar  
 32  14  33  1   
 33  15  17  ar  
 34  15  34  1   
 35  16  18  1   
 36  16  35  1   
 37  16  36  1   
 38  17  37  1   
 39  18  38  1   
 40  18  39  1   
 41  18  40  1   
@<TRIPOS>SUBSTRUCTURE
  1 ****   8 GROUP 4 **** **** 0

# MOE 2024.06 (io_trps.svl 2023.06)
