@<TRIPOS>MOLECULE
NONAME
41 41 1 0 0 
SMALL
USER_CHARGES


@<TRIPOS>ATOM
  1 O        0.1900    -0.2750     0.1110 O.3   1 <1>  -0.5320 
  2 C       -0.2820    -1.5330     0.0660 C.ar  1 <1>   0.0830 
  3 C       -1.6550    -1.8060     0.0380 C.ar  1 <1>  -0.1430 
  4 C        0.6660    -2.5510     0.0720 C.ar  1 <1>  -0.1430 
  5 C       -2.0200    -3.1520     0.0390 C.ar  1 <1>  -0.1500 
  6 C       -2.7360    -0.6830     0.0120 C.3   1 <1>   0.1440 
  7 C        0.2480    -3.8690     0.0740 C.ar  1 <1>  -0.1500 
  8 C        2.1620    -2.2590     0.0450 C.3   1 <1>   0.2630 
  9 C       -1.1010    -4.1960     0.0610 C.ar  1 <1>  -0.1430 
 10 C       -4.1790    -1.2220    -0.0440 C.3   1 <1>  -0.2400 
 11 C       -2.6530     0.1780     1.2850 C.3   1 <1>  -0.2400 
 12 C       -2.5670     0.2020    -1.2350 C.3   1 <1>  -0.2400 
 13 O        2.4780    -1.4140     1.0970 O.3   1 <1>  -0.6800 
 14 C       -1.6120    -5.6560     0.0650 C.3   1 <1>   0.1430 
 15 C       -2.4410    -5.9150    -1.2020 C.3   1 <1>  -0.2400 
 16 C       -2.4860    -5.8940     1.3060 C.3   1 <1>  -0.2400 
 17 C       -0.4800    -6.6980     0.0950 C.3   1 <1>  -0.2400 
 18 H        1.1410    -0.2810     0.3640 H     1 <1>   0.4500 
 19 H       -3.0530    -3.4240     0.0230 H     1 <1>   0.1500 
 20 H        0.9980    -4.6370     0.0810 H     1 <1>   0.1500 
 21 H        2.4360    -1.7720    -0.8750 H     1 <1>   0.0800 
 22 H        2.7420    -3.1590     0.1530 H     1 <1>   0.0800 
 23 H       -4.8880    -0.4140    -0.0700 H     1 <1>   0.0800 
 24 H       -4.3950    -1.8180     0.8250 H     1 <1>   0.0800 
 25 H       -4.3270    -1.8170    -0.9280 H     1 <1>   0.0800 
 26 H       -2.7220    -0.4480     2.1550 H     1 <1>   0.0800 
 27 H       -3.4510     0.8970     1.3120 H     1 <1>   0.0800 
 28 H       -1.7280     0.7190     1.3340 H     1 <1>   0.0800 
 29 H       -2.5770    -0.4070    -2.1200 H     1 <1>   0.0800 
 30 H       -1.6420     0.7440    -1.2120 H     1 <1>   0.0800 
 31 H       -3.3620     0.9230    -1.3040 H     1 <1>   0.0800 
 32 H        2.1260    -1.8000     1.9260 H     1 <1>   0.4000 
 33 H       -3.3100    -5.2850    -1.2360 H     1 <1>   0.0800 
 34 H       -2.7710    -6.9380    -1.2390 H     1 <1>   0.0800 
 35 H       -1.8470    -5.7150    -2.0760 H     1 <1>   0.0800 
 36 H       -2.8170    -6.9160     1.3480 H     1 <1>   0.0800 
 37 H       -3.3560    -5.2640     1.2970 H     1 <1>   0.0800 
 38 H       -1.9240    -5.6780     2.1970 H     1 <1>   0.0800 
 39 H       -0.8840    -7.6950     0.1000 H     1 <1>   0.0800 
 40 H        0.1200    -6.5790     0.9790 H     1 <1>   0.0800 
 41 H        0.1480    -6.5990    -0.7730 H     1 <1>   0.0800 
@<TRIPOS>BOND
  1   1   2  1   
  2   1  18  1   
  3   2   3  ar  
  4   2   4  ar  
  5   3   5  ar  
  6   3   6  1   
  7   4   7  ar  
  8   4   8  1   
  9   5   9  ar  
 10   5  19  1   
 11   6  10  1   
 12   6  11  1   
 13   6  12  1   
 14   7   9  ar  
 15   7  20  1   
 16   8  13  1   
 17   8  21  1   
 18   8  22  1   
 19   9  14  1   
 20  10  23  1   
 21  10  24  1   
 22  10  25  1   
 23  11  26  1   
 24  11  27  1   
 25  11  28  1   
 26  12  29  1   
 27  12  30  1   
 28  12  31  1   
 29  13  32  1   
 30  14  15  1   
 31  14  16  1   
 32  14  17  1   
 33  15  33  1   
 34  15  34  1   
 35  15  35  1   
 36  16  36  1   
 37  16  37  1   
 38  16  38  1   
 39  17  39  1   
 40  17  40  1   
 41  17  41  1   
@<TRIPOS>SUBSTRUCTURE
  1 ****   5 GROUP 4 **** **** 0

# MOE 2024.06 (io_trps.svl 2023.06)
