@<TRIPOS>MOLECULE
NONAME
41 42 1 0 0 
SMALL
USER_CHARGES


@<TRIPOS>ATOM
  1 S        0.3420     0.3010     0.8660 S.o2  1 <1>   1.4470 
  2 O       -0.2190     1.4550     0.2040 O.2   1 <1>  -0.6500 
  3 O        0.8240     0.4080     2.2240 O.2   1 <1>  -0.6500 
  4 N        1.6540    -0.1080    -0.0840 N.am  1 <1>  -0.9140 
  5 C       -0.7640    -1.1280     0.7020 C.ar  1 <1>  -0.0090 
  6 C        2.7950     0.7150     0.2160 C.3   1 <1>   0.3340 
  7 C       -1.8590    -1.0990    -0.1490 C.ar  1 <1>  -0.1500 
  8 C       -0.5280    -2.2980     1.4090 C.ar  1 <1>  -0.1500 
  9 C        3.7930     0.4830    -0.8930 C.2   1 <1>  -0.2880 
 10 C       -2.7210    -2.1830    -0.3050 C.ar  1 <1>   0.0860 
 11 C       -1.3610    -3.3930     1.2750 C.ar  1 <1>  -0.1500 
 12 C        4.2260     1.4080    -1.7560 C.2   1 <1>  -0.3000 
 13 C       -2.4530    -3.3440     0.4260 C.ar  1 <1>  -0.1430 
 14 C       -3.8550    -2.0680    -1.2030 C.2   1 <1>   0.5440 
 15 C       -3.3550    -4.5650     0.2950 C.3   1 <1>  -0.0970 
 16 O       -3.8820    -2.7040    -2.2400 O.2   1 <1>  -0.5700 
 17 N       -4.9080    -1.2380    -0.9040 N.am  1 <1>  -0.6600 
 18 C       -5.1070    -0.5390     0.3830 C.3   1 <1>   0.1400 
 19 C       -6.0900    -1.0980    -1.7800 C.3   1 <1>   0.1400 
 20 C       -6.5900    -0.1880     0.4020 C.3   1 <1>  -0.1600 
 21 C       -6.9820    -0.0850    -1.0700 C.3   1 <1>  -0.1600 
 22 H        1.3770     0.1590    -1.0250 H     1 <1>   0.4200 
 23 H        3.2170     0.4360     1.1690 H     1 <1>   0.0800 
 24 H        2.5130     1.7560     0.2480 H     1 <1>   0.0800 
 25 H       -2.0610    -0.2060    -0.7170 H     1 <1>   0.1500 
 26 H        0.3190    -2.3520     2.0740 H     1 <1>   0.1500 
 27 H        4.1310    -0.5400    -0.9210 H     1 <1>   0.1500 
 28 H       -1.1500    -4.2870     1.8370 H     1 <1>   0.1500 
 29 H        4.9390     1.2100    -2.5380 H     1 <1>   0.1500 
 30 H        3.9090     2.4380    -1.7580 H     1 <1>   0.1500 
 31 H       -4.3750    -4.2970     0.5090 H     1 <1>   0.0800 
 32 H       -3.0590    -5.3440     0.9740 H     1 <1>   0.0800 
 33 H       -3.3050    -4.9500    -0.7080 H     1 <1>   0.0800 
 34 H       -4.5110     0.3580     0.3920 H     1 <1>   0.0800 
 35 H       -4.8380    -1.1670     1.2160 H     1 <1>   0.0800 
 36 H       -6.5820    -2.0530    -1.8590 H     1 <1>   0.0800 
 37 H       -5.7990    -0.7610    -2.7600 H     1 <1>   0.0800 
 38 H       -6.7790     0.7230     0.9420 H     1 <1>   0.0800 
 39 H       -7.1330    -0.9920     0.8690 H     1 <1>   0.0800 
 40 H       -8.0250    -0.2890    -1.2350 H     1 <1>   0.0800 
 41 H       -6.7530     0.8980    -1.4420 H     1 <1>   0.0800 
@<TRIPOS>BOND
  1   1   2  2   
  2   1   3  2   
  3   1   4  am  
  4   1   5  1   
  5   4   6  1   
  6   4  22  1   
  7   5   7  ar  
  8   5   8  ar  
  9   6   9  1   
 10   6  23  1   
 11   6  24  1   
 12   7  10  ar  
 13   7  25  1   
 14   8  11  ar  
 15   8  26  1   
 16   9  12  2   
 17   9  27  1   
 18  10  13  ar  
 19  10  14  1   
 20  11  13  ar  
 21  11  28  1   
 22  12  29  1   
 23  12  30  1   
 24  13  15  1   
 25  14  16  2   
 26  14  17  am  
 27  15  31  1   
 28  15  32  1   
 29  15  33  1   
 30  17  18  1   
 31  17  19  1   
 32  18  20  1   
 33  18  34  1   
 34  18  35  1   
 35  19  21  1   
 36  19  36  1   
 37  19  37  1   
 38  20  21  1   
 39  20  38  1   
 40  20  39  1   
 41  21  40  1   
 42  21  41  1   
@<TRIPOS>SUBSTRUCTURE
  1 ****   7 GROUP 4 **** **** 0

# MOE 2024.06 (io_trps.svl 2023.06)
