@<TRIPOS>MOLECULE
NONAME
46 48 1 0 0 
SMALL
USER_CHARGES


@<TRIPOS>ATOM
  1 O        0.5850     0.3750     0.1170 O.2   1 <1>  -0.5700 
  2 C        0.8880     1.5430     0.1260 C.2   1 <1>   0.5690 
  3 N        0.0740     2.6150    -0.0620 N.am  1 <1>  -0.6600 
  4 C        2.3100     1.9690     0.3550 C.3   1 <1>  -0.0990 
  5 C       -1.3650     2.5690    -0.4580 C.3   1 <1>   0.3000 
  6 C        0.8450     3.8790     0.0090 C.3   1 <1>   0.1400 
  7 C        2.1850     3.4740     0.6410 C.3   1 <1>  -0.0190 
  8 C       -1.9500     3.9810    -0.6080 C.3   1 <1>  -0.2400 
  9 C       -2.1600     1.8330     0.6240 C.3   1 <1>  -0.2400 
 10 C       -1.4890     1.8490    -1.8030 C.3   1 <1>  -0.2400 
 11 C        3.3660     4.3110     0.1690 C.2   1 <1>   0.5690 
 12 O        3.1480     5.3480    -0.4080 O.2   1 <1>  -0.5700 
 13 N        4.6240     3.8450     0.4430 N.am  1 <1>  -0.5470 
 14 C        5.8950     4.3760     0.1700 C.ar  1 <1>   0.1170 
 15 C        6.9900     3.5160     0.2110 C.ar  1 <1>  -0.1500 
 16 C        6.1160     5.7230    -0.1200 C.ar  1 <1>  -0.1500 
 17 C        8.2590     4.0000    -0.0370 C.ar  1 <1>  -0.1440 
 18 C        7.3910     6.2030    -0.3700 C.ar  1 <1>  -0.1500 
 19 C        8.4580     5.3260    -0.3250 C.ar  1 <1>  -0.1440 
 20 C        9.5620     3.2390    -0.0450 C.3   1 <1>  -0.0170 
 21 C        9.9170     5.6270    -0.5610 C.3   1 <1>  -0.0170 
 22 C       10.6260     4.3510    -0.0750 C.3   1 <1>  -0.1600 
 23 H        2.8640     1.7810    -0.5470 H     1 <1>   0.0800 
 24 H        2.7390     1.4310     1.1790 H     1 <1>   0.0800 
 25 H        0.3520     4.6160     0.6190 H     1 <1>   0.0800 
 26 H        0.9830     4.2620    -0.9890 H     1 <1>   0.0800 
 27 H        2.0890     3.6140     1.7030 H     1 <1>   0.0800 
 28 H       -1.4310     4.5340    -1.3690 H     1 <1>   0.0800 
 29 H       -1.9050     4.5140     0.3240 H     1 <1>   0.0800 
 30 H       -2.9840     3.9200    -0.8970 H     1 <1>   0.0800 
 31 H       -2.0250     2.3120     1.5770 H     1 <1>   0.0800 
 32 H       -1.8470     0.8080     0.7010 H     1 <1>   0.0800 
 33 H       -3.2070     1.8370     0.3850 H     1 <1>   0.0800 
 34 H       -1.1650     0.8280    -1.7210 H     1 <1>   0.0800 
 35 H       -0.8960     2.3460    -2.5480 H     1 <1>   0.0800 
 36 H       -2.5130     1.8430    -2.1290 H     1 <1>   0.0800 
 37 H        4.6540     2.9350     0.8960 H     1 <1>   0.3700 
 38 H        6.8540     2.4740     0.4310 H     1 <1>   0.1500 
 39 H        5.2920     6.4100    -0.1510 H     1 <1>   0.1500 
 40 H        7.5470     7.2430    -0.5950 H     1 <1>   0.1500 
 41 H        9.6190     2.6360    -0.9330 H     1 <1>   0.0800 
 42 H        9.6650     2.6190     0.8280 H     1 <1>   0.0800 
 43 H       10.2370     6.4930    -0.0080 H     1 <1>   0.0800 
 44 H       10.0840     5.7790    -1.6130 H     1 <1>   0.0800 
 45 H       11.4580     4.0910    -0.7060 H     1 <1>   0.0800 
 46 H       10.9830     4.5150     0.9260 H     1 <1>   0.0800 
@<TRIPOS>BOND
  1   1   2  2   
  2   2   3  am  
  3   2   4  1   
  4   3   5  1   
  5   3   6  1   
  6   4   7  1   
  7   4  23  1   
  8   4  24  1   
  9   5   8  1   
 10   5   9  1   
 11   5  10  1   
 12   6   7  1   
 13   6  25  1   
 14   6  26  1   
 15   7  11  1   
 16   7  27  1   
 17   8  28  1   
 18   8  29  1   
 19   8  30  1   
 20   9  31  1   
 21   9  32  1   
 22   9  33  1   
 23  10  34  1   
 24  10  35  1   
 25  10  36  1   
 26  11  12  2   
 27  11  13  am  
 28  13  14  1   
 29  13  37  1   
 30  14  15  ar  
 31  14  16  ar  
 32  15  17  ar  
 33  15  38  1   
 34  16  18  ar  
 35  16  39  1   
 36  17  19  ar  
 37  17  20  1   
 38  18  19  ar  
 39  18  40  1   
 40  19  21  1   
 41  20  22  1   
 42  20  41  1   
 43  20  42  1   
 44  21  22  1   
 45  21  43  1   
 46  21  44  1   
 47  22  45  1   
 48  22  46  1   
@<TRIPOS>SUBSTRUCTURE
  1 ****  11 GROUP 4 **** **** 0

# MOE 2024.06 (io_trps.svl 2023.06)
