@<TRIPOS>MOLECULE
NONAME
61 61 1 0 0 
SMALL
USER_CHARGES


@<TRIPOS>ATOM
  1 O       -0.3850    -0.4160     0.7280 O.3   1 <1>  -0.5320 
  2 C       -1.5830    -0.6960     0.2070 C.ar  1 <1>   0.0830 
  3 C       -1.9530    -2.0460     0.0790 C.ar  1 <1>  -0.1430 
  4 C       -2.4110     0.3690    -0.1890 C.ar  1 <1>  -0.1430 
  5 C       -3.2110    -2.3050    -0.4540 C.ar  1 <1>  -0.1500 
  6 C       -1.0210    -3.2300     0.4980 C.3   1 <1>   0.1440 
  7 C       -3.6530     0.0290    -0.7090 C.ar  1 <1>  -0.1500 
  8 C       -2.0980     1.9000    -0.1140 C.3   1 <1>   0.1440 
  9 C       -4.0620    -1.2850    -0.8310 C.ar  1 <1>  -0.1430 
 10 C        0.2830    -3.2160    -0.3200 C.3   1 <1>  -0.2400 
 11 C       -1.6460    -4.6210     0.2570 C.3   1 <1>  -0.2400 
 12 C       -0.7030    -3.1760     2.0040 C.3   1 <1>  -0.2400 
 13 C       -2.1650     2.4980    -1.5320 C.3   1 <1>  -0.2400 
 14 C       -3.1520     2.5890     0.7720 C.3   1 <1>  -0.2400 
 15 C       -0.7280     2.3220     0.4550 C.3   1 <1>  -0.2400 
 16 C       -5.4420    -1.6090    -1.3590 C.3   1 <1>   0.4860 
 17 N       -6.2740    -2.0330    -0.1880 N.4   1 <1>  -0.9590 
 18 C       -7.5160    -2.7640    -0.6320 C.3   1 <1>   0.3430 
 19 C       -6.5410    -0.8440     0.6970 C.3   1 <1>   0.2630 
 20 C       -8.3070    -3.4420     0.5260 C.3   1 <1>   0.3430 
 21 N       -9.5610    -4.1670     0.0960 N.4   1 <1>  -0.9590 
 22 C      -10.3370    -4.6190     1.3010 C.3   1 <1>   0.2630 
 23 C       -9.3000    -5.3620    -0.7800 C.3   1 <1>   0.2630 
 24 H       -0.2190     0.5440     0.7420 H     1 <1>   0.4500 
 25 H       -3.5510    -3.3110    -0.5920 H     1 <1>   0.1500 
 26 H       -4.3250     0.8030    -1.0300 H     1 <1>   0.1500 
 27 H        0.0590    -3.2040    -1.3710 H     1 <1>   0.0800 
 28 H        0.8790    -4.0840    -0.1050 H     1 <1>   0.0800 
 29 H        0.8830    -2.3550    -0.0970 H     1 <1>   0.0800 
 30 H       -1.8560    -4.7680    -0.7870 H     1 <1>   0.0800 
 31 H       -2.5460    -4.7410     0.8300 H     1 <1>   0.0800 
 32 H       -0.9650    -5.3980     0.5590 H     1 <1>   0.0800 
 33 H       -0.1090    -2.3180     2.2540 H     1 <1>   0.0800 
 34 H       -0.1470    -4.0450     2.3080 H     1 <1>   0.0800 
 35 H       -1.6120    -3.1330     2.5740 H     1 <1>   0.0800 
 36 H       -3.1420     2.4040    -1.9650 H     1 <1>   0.0800 
 37 H       -1.4620     1.9960    -2.1740 H     1 <1>   0.0800 
 38 H       -1.9200     3.5460    -1.5180 H     1 <1>   0.0800 
 39 H       -3.1440     2.1540     1.7560 H     1 <1>   0.0800 
 40 H       -4.1410     2.4980     0.3680 H     1 <1>   0.0800 
 41 H       -2.9410     3.6400     0.8680 H     1 <1>   0.0800 
 42 H        0.0770     1.9380    -0.1480 H     1 <1>   0.0800 
 43 H       -0.6180     2.0080     1.4790 H     1 <1>   0.0800 
 44 H       -0.6360     3.3940     0.4480 H     1 <1>   0.0800 
 45 H       -5.3610    -2.4080    -2.0780 H     1 <1>   0.0800 
 46 H       -5.8710    -0.7470    -1.8440 H     1 <1>   0.0800 
 47 H       -5.6380    -2.6570     0.3370 H     1 <1>   0.4500 
 48 H       -7.2310    -3.5270    -1.3380 H     1 <1>   0.0800 
 49 H       -8.1660    -2.0680    -1.1370 H     1 <1>   0.0800 
 50 H       -7.1270    -0.1050     0.1740 H     1 <1>   0.0800 
 51 H       -5.6100    -0.3880     0.9980 H     1 <1>   0.0800 
 52 H       -7.0680    -1.1400     1.5890 H     1 <1>   0.0800 
 53 H       -8.5810    -2.6800     1.2370 H     1 <1>   0.0800 
 54 H       -7.6570    -4.1420     1.0250 H     1 <1>   0.0800 
 55 H      -10.1870    -3.5240    -0.4220 H     1 <1>   0.4500 
 56 H       -9.7590    -5.3160     1.8860 H     1 <1>   0.0800 
 57 H      -11.2510    -5.1060     0.9980 H     1 <1>   0.0800 
 58 H      -10.5950    -3.7770     1.9250 H     1 <1>   0.0800 
 59 H       -8.6760    -6.0770    -0.2680 H     1 <1>   0.0800 
 60 H       -8.8150    -5.0690    -1.6970 H     1 <1>   0.0800 
 61 H      -10.2300    -5.8480    -1.0340 H     1 <1>   0.0800 
@<TRIPOS>BOND
  1   1   2  1   
  2   1  24  1   
  3   2   3  ar  
  4   2   4  ar  
  5   3   5  ar  
  6   3   6  1   
  7   4   7  ar  
  8   4   8  1   
  9   5   9  ar  
 10   5  25  1   
 11   6  10  1   
 12   6  11  1   
 13   6  12  1   
 14   7   9  ar  
 15   7  26  1   
 16   8  13  1   
 17   8  14  1   
 18   8  15  1   
 19   9  16  1   
 20  10  27  1   
 21  10  28  1   
 22  10  29  1   
 23  11  30  1   
 24  11  31  1   
 25  11  32  1   
 26  12  33  1   
 27  12  34  1   
 28  12  35  1   
 29  13  36  1   
 30  13  37  1   
 31  13  38  1   
 32  14  39  1   
 33  14  40  1   
 34  14  41  1   
 35  15  42  1   
 36  15  43  1   
 37  15  44  1   
 38  16  17  1   
 39  16  45  1   
 40  16  46  1   
 41  17  18  1   
 42  17  19  1   
 43  17  47  1   
 44  18  20  1   
 45  18  48  1   
 46  18  49  1   
 47  19  50  1   
 48  19  51  1   
 49  19  52  1   
 50  20  21  1   
 51  20  53  1   
 52  20  54  1   
 53  21  22  1   
 54  21  23  1   
 55  21  55  1   
 56  22  56  1   
 57  22  57  1   
 58  22  58  1   
 59  23  59  1   
 60  23  60  1   
 61  23  61  1   
@<TRIPOS>SUBSTRUCTURE
  1 ****   9 GROUP 4 **** **** 0

# MOE 2024.06 (io_trps.svl 2023.06)
