@<TRIPOS>MOLECULE
NONAME
26 26 1 0 0 
SMALL
USER_CHARGES


@<TRIPOS>ATOM
  1 O       -0.9520    -1.1610    -0.9650 O.2   1 <1>  -0.5700 
  2 C       -1.0490    -2.3340    -0.6670 C.2   1 <1>   0.8060 
  3 O       -2.2620    -2.8940    -0.6210 O.3   1 <1>  -0.4300 
  4 C        0.1000    -3.1560    -0.3650 C.2   1 <1>  -0.0860 
  5 C       -3.4530    -2.1790    -0.8740 C.3   1 <1>   0.1200 
  6 C        0.2410    -4.4510     0.0460 C.2   1 <1>  -0.0400 
  7 C        1.4190    -2.7160    -0.4530 C.2   1 <1>  -0.1500 
  8 C       -3.9100    -1.5050     0.4190 C.3   1 <1>  -0.2400 
  9 O        1.4900    -4.8310     0.2070 O.3   1 <1>  -0.2800 
 10 C       -0.8040    -5.5110     0.3460 C.3   1 <1>  -0.0600 
 11 C        2.2180    -3.7530    -0.1010 C.2   1 <1>   0.0550 
 12 C        3.6540    -3.8050    -0.0330 C.2   1 <1>   0.5940 
 13 O        4.3660    -2.8690    -0.3020 O.2   1 <1>  -0.5700 
 14 C        4.3280    -5.0920     0.3950 C.3   1 <1>  -0.1790 
 15 H       -4.1920    -2.8860    -1.2080 H     1 <1>   0.0800 
 16 H       -3.2810    -1.4580    -1.6570 H     1 <1>   0.0800 
 17 H        1.7250    -1.7260    -0.7490 H     1 <1>   0.1500 
 18 H       -4.0590    -2.2400     1.1900 H     1 <1>   0.0800 
 19 H       -4.8390    -0.9930     0.2500 H     1 <1>   0.0800 
 20 H       -3.1810    -0.7840     0.7430 H     1 <1>   0.0800 
 21 H       -0.6800    -6.3390    -0.3280 H     1 <1>   0.0800 
 22 H       -0.6750    -5.8670     1.3520 H     1 <1>   0.0800 
 23 H       -1.8040    -5.1370     0.2460 H     1 <1>   0.0800 
 24 H        4.0020    -5.3590     1.3830 H     1 <1>   0.0800 
 25 H        5.3950    -4.9670     0.3990 H     1 <1>   0.0800 
 26 H        4.0700    -5.8790    -0.2890 H     1 <1>   0.0800 
@<TRIPOS>BOND
  1   1   2  2   
  2   2   3  1   
  3   2   4  1   
  4   3   5  1   
  5   4   6  2   
  6   4   7  1   
  7   5   8  1   
  8   5  15  1   
  9   5  16  1   
 10   6   9  1   
 11   6  10  1   
 12   7  11  2   
 13   7  17  1   
 14   8  18  1   
 15   8  19  1   
 16   8  20  1   
 17   9  11  1   
 18  10  21  1   
 19  10  22  1   
 20  10  23  1   
 21  11  12  1   
 22  12  13  2   
 23  12  14  1   
 24  14  24  1   
 25  14  25  1   
 26  14  26  1   
@<TRIPOS>SUBSTRUCTURE
  1 ****   4 GROUP 4 **** **** 0

# MOE 2024.06 (io_trps.svl 2023.06)
