@<TRIPOS>MOLECULE
NONAME
42 44 1 0 0 
SMALL
USER_CHARGES


@<TRIPOS>ATOM
  1 O        1.7240     0.3130    -0.5920 O.3   1 <1>  -0.3630 
  2 C        2.8710     0.1130     0.1030 C.ar  1 <1>   0.0830 
  3 C        1.5540    -0.1970    -1.8940 C.3   1 <1>   0.1200 
  4 C        3.9860    -0.5450    -0.4090 C.ar  1 <1>  -0.1500 
  5 C        2.9070     0.6020     1.3980 C.ar  1 <1>  -0.1500 
  6 C        0.1530     0.1780    -2.3670 C.3   1 <1>  -0.2400 
  7 C        5.1170    -0.7040     0.3730 C.ar  1 <1>  -0.1500 
  8 C        4.0370     0.4410     2.1790 C.ar  1 <1>  -0.1500 
  9 C        5.1510    -0.2110     1.6700 C.ar  1 <1>  -0.1430 
 10 C        6.3940    -0.3740     2.5230 C.3   1 <1>   0.3530 
 11 N        7.1820     0.8720     2.3990 N.pl3 1 <1>  -0.8650 
 12 C        8.1340     0.9970     1.4380 C.2   1 <1>   0.7490 
 13 N        8.6870     0.0610     0.7280 N.2   1 <1>  -0.2600 
 14 N        8.6070     2.2120     1.1510 N.pl3 1 <1>  -0.7000 
 15 N        9.5710     0.7360    -0.0660 N.pl3 1 <1>  -0.3220 
 16 C        9.5070     2.0430     0.2140 C.cat 1 <1>   0.9620 
 17 C       10.4430     0.2870    -1.0140 C.2   1 <1>   0.2410 
 18 N       10.2390     2.9980    -0.3620 N.2   1 <1>  -0.6120 
 19 C       11.2120     1.2260    -1.6310 C.2   1 <1>  -0.1360 
 20 C       10.5030    -1.2000    -1.3180 C.3   1 <1>  -0.1020 
 21 C       11.0740     2.5810    -1.2670 C.2   1 <1>   0.3750 
 22 C       11.9300     3.6230    -1.9550 C.3   1 <1>  -0.1790 
 23 H        1.6700    -1.2670    -1.8590 H     1 <1>   0.0800 
 24 H        2.3010     0.2410    -2.5330 H     1 <1>   0.0800 
 25 H        3.9880    -0.9380    -1.4080 H     1 <1>   0.1500 
 26 H        2.0410     1.1060     1.7860 H     1 <1>   0.1500 
 27 H       -0.5850    -0.2500    -1.7130 H     1 <1>   0.0800 
 28 H       -0.0090    -0.1970    -3.3610 H     1 <1>   0.0800 
 29 H        0.0420     1.2480    -2.3810 H     1 <1>   0.0800 
 30 H        5.9700    -1.2160    -0.0370 H     1 <1>   0.1500 
 31 H        4.0370     0.8260     3.1840 H     1 <1>   0.1500 
 32 H        6.9650    -1.2300     2.2040 H     1 <1>   0.0800 
 33 H        6.1180    -0.5240     3.5530 H     1 <1>   0.0800 
 34 H        6.5770     1.6870     2.5140 H     1 <1>   0.4000 
 35 H        8.3750     3.0950     1.5850 H     1 <1>   0.4500 
 36 H       11.9230     0.9560    -2.3900 H     1 <1>   0.1500 
 37 H       10.7700    -1.7460    -0.4300 H     1 <1>   0.0800 
 38 H       11.2320    -1.4070    -2.0800 H     1 <1>   0.0800 
 39 H        9.5430    -1.5450    -1.6580 H     1 <1>   0.0800 
 40 H       12.7510     3.1710    -2.4810 H     1 <1>   0.0800 
 41 H       12.3290     4.3080    -1.2280 H     1 <1>   0.0800 
 42 H       11.3320     4.1780    -2.6560 H     1 <1>   0.0800 
@<TRIPOS>BOND
  1   1   2  1   
  2   1   3  1   
  3   2   4  ar  
  4   2   5  ar  
  5   3   6  1   
  6   3  23  1   
  7   3  24  1   
  8   4   7  ar  
  9   4  25  1   
 10   5   8  ar  
 11   5  26  1   
 12   6  27  1   
 13   6  28  1   
 14   6  29  1   
 15   7   9  ar  
 16   7  30  1   
 17   8   9  ar  
 18   8  31  1   
 19   9  10  1   
 20  10  11  1   
 21  10  32  1   
 22  10  33  1   
 23  11  12  1   
 24  11  34  1   
 25  12  13  2   
 26  12  14  1   
 27  13  15  1   
 28  14  16  ar  
 29  14  35  1   
 30  15  16  ar  
 31  15  17  1   
 32  16  18  1   
 33  17  19  2   
 34  17  20  1   
 35  18  21  2   
 36  19  21  1   
 37  19  36  1   
 38  20  37  1   
 39  20  38  1   
 40  20  39  1   
 41  21  22  1   
 42  22  40  1   
 43  22  41  1   
 44  22  42  1   
@<TRIPOS>SUBSTRUCTURE
  1 ****  12 GROUP 4 **** **** 0

# MOE 2024.06 (io_trps.svl 2023.06)
