@<TRIPOS>MOLECULE
NONAME
45 46 1 0 0 
SMALL
USER_CHARGES


@<TRIPOS>ATOM
  1 CL       1.7590     0.6370    -1.3450 Cl    1 <1>  -0.1770 
  2 C        0.8510     1.9670    -0.6620 C.ar  1 <1>   0.1770 
  3 C        1.3420     2.6440     0.4520 C.ar  1 <1>  -0.1440 
  4 C       -0.3420     2.3210    -1.2610 C.ar  1 <1>  -0.1500 
  5 C        0.6040     3.7030     0.9670 C.ar  1 <1>  -0.1500 
  6 C        2.6570     2.2370     1.1020 C.3   1 <1>  -0.0160 
  7 C       -1.0540     3.3770    -0.7300 C.ar  1 <1>   0.1770 
  8 C       -0.5950     4.0700     0.3750 C.ar  1 <1>  -0.1500 
  9 C        3.8270     2.6440     0.2030 C.3   1 <1>   0.3430 
 10 CL      -2.5620     3.8480    -1.4680 Cl    1 <1>  -0.1770 
 11 N        5.1070     2.0780     0.7150 N.4   1 <1>  -0.9060 
 12 C        6.2770     2.3760    -0.1390 C.3   1 <1>   0.4230 
 13 C        7.4380     1.4930     0.3330 C.3   1 <1>  -0.1600 
 14 C        6.6060     3.8740    -0.0580 C.3   1 <1>  -0.1600 
 15 C        8.7480     1.8620    -0.3670 C.3   1 <1>   0.1400 
 16 C        7.9330     4.1860    -0.7500 C.3   1 <1>   0.1400 
 17 N        8.9740     3.3100    -0.1690 N.am  1 <1>  -0.6600 
 18 C        9.7830     3.7790     0.8380 C.2   1 <1>   0.7800 
 19 O        9.5120     4.7780     1.4680 O.2   1 <1>  -0.5700 
 20 O       10.8640     3.0900     1.1820 O.3   1 <1>  -0.4300 
 21 C       11.8960     2.9050     0.2420 C.3   1 <1>   0.1200 
 22 C       12.9270     1.9640     0.8560 C.3   1 <1>  -0.2400 
 23 H       -0.7110     1.7900    -2.1190 H     1 <1>   0.1500 
 24 H        0.9450     4.2500     1.8310 H     1 <1>   0.1500 
 25 H        2.6510     1.1720     1.2530 H     1 <1>   0.0800 
 26 H        2.7520     2.7130     2.0620 H     1 <1>   0.0800 
 27 H       -1.1750     4.8880     0.7660 H     1 <1>   0.1500 
 28 H        3.8820     3.7200     0.1610 H     1 <1>   0.0800 
 29 H        3.6480     2.2800    -0.7960 H     1 <1>   0.0800 
 30 H        5.0150     1.0580     0.7960 H     1 <1>   0.4500 
 31 H        5.3020     2.4360     1.6590 H     1 <1>   0.4500 
 32 H        6.0550     2.1250    -1.1650 H     1 <1>   0.0800 
 33 H        7.2230     0.4590     0.1300 H     1 <1>   0.0800 
 34 H        7.5890     1.6080     1.3930 H     1 <1>   0.0800 
 35 H        6.6890     4.1870     0.9690 H     1 <1>   0.0800 
 36 H        5.8390     4.4580    -0.5320 H     1 <1>   0.0800 
 37 H        8.6970     1.6470    -1.4220 H     1 <1>   0.0800 
 38 H        9.5590     1.2890     0.0540 H     1 <1>   0.0800 
 39 H        8.1940     5.2230    -0.6020 H     1 <1>   0.0800 
 40 H        7.8660     4.0090    -1.8100 H     1 <1>   0.0800 
 41 H       12.3320     3.8670     0.0310 H     1 <1>   0.0800 
 42 H       11.4870     2.4880    -0.6620 H     1 <1>   0.0800 
 43 H       13.3240     2.3920     1.7590 H     1 <1>   0.0800 
 44 H       13.7370     1.8120     0.1650 H     1 <1>   0.0800 
 45 H       12.4800     1.0120     1.0760 H     1 <1>   0.0800 
@<TRIPOS>BOND
  1   1   2  1   
  2   2   3  ar  
  3   2   4  ar  
  4   3   5  ar  
  5   3   6  1   
  6   4   7  ar  
  7   4  23  1   
  8   5   8  ar  
  9   5  24  1   
 10   6   9  1   
 11   6  25  1   
 12   6  26  1   
 13   7   8  ar  
 14   7  10  1   
 15   8  27  1   
 16   9  11  1   
 17   9  28  1   
 18   9  29  1   
 19  11  12  1   
 20  11  30  1   
 21  11  31  1   
 22  12  13  1   
 23  12  14  1   
 24  12  32  1   
 25  13  15  1   
 26  13  33  1   
 27  13  34  1   
 28  14  16  1   
 29  14  35  1   
 30  14  36  1   
 31  15  17  1   
 32  15  37  1   
 33  15  38  1   
 34  16  17  1   
 35  16  39  1   
 36  16  40  1   
 37  17  18  am  
 38  18  19  2   
 39  18  20  1   
 40  20  21  1   
 41  21  22  1   
 42  21  41  1   
 43  21  42  1   
 44  22  43  1   
 45  22  44  1   
 46  22  45  1   
@<TRIPOS>SUBSTRUCTURE
  1 ****  11 GROUP 4 **** **** 0

# MOE 2024.06 (io_trps.svl 2023.06)
