@<TRIPOS>MOLECULE
NONAME
32 32 1 0 0 
SMALL
USER_CHARGES


@<TRIPOS>ATOM
  1 O       -0.2290    -0.1490     0.2770 O.3   1 <1>  -0.5600 
  2 C        0.3580    -1.2490     0.8970 C.3   1 <1>   0.4700 
  3 C       -1.6230    -0.0610     0.4240 C.3   1 <1>   0.2000 
  4 N        1.8080    -1.0880     0.7520 N.3   1 <1>  -0.9000 
  5 C       -0.1940    -2.5950     0.3470 C.3   1 <1>   0.2000 
  6 C       -2.3190    -1.3140    -0.1700 C.3   1 <1>   0.2000 
  7 C       -2.0670     1.2550    -0.2340 C.3   1 <1>   0.1200 
  8 C        2.2890    -0.5620    -0.5240 C.3   1 <1>   0.2480 
  9 O        0.2010    -2.8230    -0.9770 O.3   1 <1>  -0.6800 
 10 C       -1.7290    -2.6020     0.4360 C.3   1 <1>   0.2000 
 11 O       -2.1570    -1.3510    -1.5530 O.3   1 <1>  -0.6800 
 12 O       -3.4520     1.3090    -0.3500 O.3   1 <1>  -0.6800 
 13 C        3.7920    -0.4640    -0.4070 C.2   1 <1>  -0.2880 
 14 O       -2.0940    -2.6810     1.7820 O.3   1 <1>  -0.6800 
 15 C        4.5050     0.6610    -0.5210 C.2   1 <1>  -0.3000 
 16 H        0.1130    -1.1960     1.9450 H     1 <1>   0.0800 
 17 H       -1.8340     0.0000     1.4780 H     1 <1>   0.0800 
 18 H        2.0780    -0.3770     1.4380 H     1 <1>   0.3600 
 19 H        0.1980    -3.4050     0.9360 H     1 <1>   0.0800 
 20 H       -3.3770    -1.2750     0.0190 H     1 <1>   0.0800 
 21 H       -1.6520     1.3390    -1.2240 H     1 <1>   0.0800 
 22 H       -1.7520     2.0920     0.3630 H     1 <1>   0.0800 
 23 H        1.8790     0.4170    -0.7120 H     1 <1>   0.0800 
 24 H        2.0300    -1.2070    -1.3420 H     1 <1>   0.0800 
 25 H        1.1790    -2.7580    -1.0020 H     1 <1>   0.4000 
 26 H       -2.1260    -3.4740    -0.0540 H     1 <1>   0.0800 
 27 H       -1.2340    -1.6510    -1.7400 H     1 <1>   0.4000 
 28 H       -3.7330     0.7140    -1.0780 H     1 <1>   0.4000 
 29 H        4.2440    -1.4210    -0.2120 H     1 <1>   0.1500 
 30 H       -3.0440    -2.9030     1.8660 H     1 <1>   0.4000 
 31 H        5.5770     0.7020    -0.4310 H     1 <1>   0.1500 
 32 H        4.0810     1.6320    -0.7130 H     1 <1>   0.1500 
@<TRIPOS>BOND
  1   1   2  1   
  2   1   3  1   
  3   2   4  1   
  4   2   5  1   
  5   2  16  1   
  6   3   6  1   
  7   3   7  1   
  8   3  17  1   
  9   4   8  1   
 10   4  18  1   
 11   5   9  1   
 12   5  10  1   
 13   5  19  1   
 14   6  10  1   
 15   6  11  1   
 16   6  20  1   
 17   7  12  1   
 18   7  21  1   
 19   7  22  1   
 20   8  13  1   
 21   8  23  1   
 22   8  24  1   
 23   9  25  1   
 24  10  14  1   
 25  10  26  1   
 26  11  27  1   
 27  12  28  1   
 28  13  15  2   
 29  13  29  1   
 30  14  30  1   
 31  15  31  1   
 32  15  32  1   
@<TRIPOS>SUBSTRUCTURE
  1 ****   1 GROUP 4 **** **** 0

# MOE 2024.06 (io_trps.svl 2023.06)
