@<TRIPOS>MOLECULE
NONAME
39 40 1 0 0 
SMALL
USER_CHARGES


@<TRIPOS>ATOM
  1 S        0.6900     1.3860     0.0530 S.3   1 <1>  -0.3320 
  2 C       -1.0620     1.7770     0.2240 C.ar  1 <1>   0.1020 
  3 C        0.8320    -0.3820    -0.5220 C.3   1 <1>   0.2110 
  4 C       -1.3710     3.0820     0.5640 C.ar  1 <1>  -0.1500 
  5 C       -2.0670     0.8400     0.0330 C.ar  1 <1>  -0.1500 
  6 C        2.2250    -0.9370    -0.2070 C.2   1 <1>   0.5690 
  7 C        0.5210    -0.3970    -2.0250 C.3   1 <1>  -0.2400 
  8 C       -2.6940     3.4590     0.7140 C.ar  1 <1>  -0.1500 
  9 C       -3.3900     1.2220     0.1840 C.ar  1 <1>  -0.1500 
 10 O        2.3600    -2.1340    -0.1130 O.2   1 <1>  -0.5700 
 11 N        3.2720    -0.0820    -0.0520 N.am  1 <1>  -0.7300 
 12 C       -3.7020     2.5290     0.5230 C.ar  1 <1>  -0.1500 
 13 C        4.6580    -0.4610     0.2540 C.3   1 <1>   0.2200 
 14 C        5.0320     0.1050     1.6280 C.3   1 <1>  -0.1600 
 15 C        5.5740     0.0900    -0.8430 C.3   1 <1>  -0.1600 
 16 C        6.5080    -0.1630     1.9560 C.3   1 <1>  -0.1600 
 17 C        7.0510    -0.1790    -0.5200 C.3   1 <1>  -0.1600 
 18 C        7.4290     0.3850     0.8570 C.3   1 <1>  -0.1600 
 19 H        0.1140    -0.9550     0.0320 H     1 <1>   0.0800 
 20 H       -0.5800     3.7960     0.7110 H     1 <1>   0.1500 
 21 H       -1.8510    -0.1760    -0.2280 H     1 <1>   0.1500 
 22 H        1.2500     0.1870    -2.5580 H     1 <1>   0.0800 
 23 H       -0.4560     0.0060    -2.2180 H     1 <1>   0.0800 
 24 H        0.5570    -1.4070    -2.3920 H     1 <1>   0.0800 
 25 H       -2.9390     4.4730     0.9790 H     1 <1>   0.1500 
 26 H       -4.1780     0.5040     0.0380 H     1 <1>   0.1500 
 27 H        3.0820     0.9220    -0.0770 H     1 <1>   0.3700 
 28 H       -4.7310     2.8220     0.6400 H     1 <1>   0.1500 
 29 H        4.7440    -1.5350     0.2800 H     1 <1>   0.0800 
 30 H        4.4120    -0.3520     2.3790 H     1 <1>   0.0800 
 31 H        4.8580     1.1670     1.6400 H     1 <1>   0.0800 
 32 H        5.4240     1.1510    -0.9390 H     1 <1>   0.0800 
 33 H        5.3240    -0.3780    -1.7800 H     1 <1>   0.0800 
 34 H        6.6630    -1.2240     2.0540 H     1 <1>   0.0800 
 35 H        6.7580     0.2940     2.8980 H     1 <1>   0.0800 
 36 H        7.6730     0.2680    -1.2760 H     1 <1>   0.0800 
 37 H        7.2300    -1.2410    -0.5310 H     1 <1>   0.0800 
 38 H        8.4500     0.1290     1.0820 H     1 <1>   0.0800 
 39 H        7.3560     1.4590     0.8340 H     1 <1>   0.0800 
@<TRIPOS>BOND
  1   1   2  1   
  2   1   3  1   
  3   2   4  ar  
  4   2   5  ar  
  5   3   6  1   
  6   3   7  1   
  7   3  19  1   
  8   4   8  ar  
  9   4  20  1   
 10   5   9  ar  
 11   5  21  1   
 12   6  10  2   
 13   6  11  am  
 14   7  22  1   
 15   7  23  1   
 16   7  24  1   
 17   8  12  ar  
 18   8  25  1   
 19   9  12  ar  
 20   9  26  1   
 21  11  13  1   
 22  11  27  1   
 23  12  28  1   
 24  13  14  1   
 25  13  15  1   
 26  13  29  1   
 27  14  16  1   
 28  14  30  1   
 29  14  31  1   
 30  15  17  1   
 31  15  32  1   
 32  15  33  1   
 33  16  18  1   
 34  16  34  1   
 35  16  35  1   
 36  17  18  1   
 37  17  36  1   
 38  17  37  1   
 39  18  38  1   
 40  18  39  1   
@<TRIPOS>SUBSTRUCTURE
  1 ****   1 GROUP 4 **** **** 0

# MOE 2024.06 (io_trps.svl 2023.06)
