@<TRIPOS>MOLECULE
NONAME
41 42 1 0 0 
SMALL
USER_CHARGES


@<TRIPOS>ATOM
  1 CL       0.8060    -0.1160     1.7390 Cl    1 <1>  -0.1770 
  2 C       -0.1570    -1.5040     1.2890 C.ar  1 <1>   0.1770 
  3 C        0.2030    -2.3290     0.2170 C.ar  1 <1>   0.0860 
  4 C       -1.2930    -1.7300     2.0440 C.ar  1 <1>  -0.1500 
  5 C        1.3890    -2.1470    -0.5990 C.2   1 <1>   0.5440 
  6 C       -0.6610    -3.3930    -0.0610 C.ar  1 <1>  -0.1500 
  7 C       -2.1190    -2.7970     1.7460 C.ar  1 <1>  -0.1500 
  8 O        1.3450    -2.4220    -1.7830 O.2   1 <1>  -0.5700 
  9 N        2.5650    -1.7040    -0.0530 N.am  1 <1>  -0.4930 
 10 C       -1.8000    -3.6280     0.6870 C.ar  1 <1>  -0.1500 
 11 C        3.8340    -1.5220    -0.6560 C.2   1 <1>   0.0630 
 12 C        4.5440    -2.3620    -1.5210 C.2   1 <1>   0.1080 
 13 C        4.6460    -0.4580    -0.4680 C.2   1 <1>  -0.3320 
 14 N        5.6980    -1.8680    -1.8450 N.2   1 <1>  -0.7070 
 15 C        4.0850    -3.7050    -2.0430 C.3   1 <1>  -0.0590 
 16 N        5.7690    -0.6940    -1.1960 N.pl3 1 <1>   0.3140 
 17 C        4.4050     0.7930     0.3680 C.3   1 <1>  -0.0600 
 18 C        6.9320     0.1820    -1.3760 C.3   1 <1>   0.1570 
 19 C        7.6720     0.3250    -0.0740 C.2   1 <1>   0.6590 
 20 O        7.6310     1.3520     0.5560 O.2   1 <1>  -0.5700 
 21 O        8.3810    -0.7250     0.3260 O.3   1 <1>  -0.4300 
 22 C        9.1310    -0.7390     1.5200 C.3   1 <1>   0.1200 
 23 C       10.5140    -0.1520     1.2410 C.3   1 <1>  -0.2400 
 24 H       -1.5310    -1.0720     2.8610 H     1 <1>   0.1500 
 25 H       -0.4300    -4.0470    -0.8860 H     1 <1>   0.1500 
 26 H       -3.0060    -2.9790     2.3300 H     1 <1>   0.1500 
 27 H        2.4970    -1.3030     0.8820 H     1 <1>   0.3700 
 28 H       -2.4420    -4.4590     0.4440 H     1 <1>   0.1500 
 29 H        3.4710    -4.1980    -1.3140 H     1 <1>   0.0800 
 30 H        4.9370    -4.3220    -2.2590 H     1 <1>   0.0800 
 31 H        3.5180    -3.5610    -2.9440 H     1 <1>   0.0800 
 32 H        3.3850     0.8350     0.7030 H     1 <1>   0.0800 
 33 H        4.5990     1.6770    -0.2140 H     1 <1>   0.0800 
 34 H        5.0460     0.7970     1.2310 H     1 <1>   0.0800 
 35 H        6.5950     1.1410    -1.7150 H     1 <1>   0.0800 
 36 H        7.5820    -0.2480    -2.1130 H     1 <1>   0.0800 
 37 H        9.2140    -1.7630     1.8390 H     1 <1>   0.0800 
 38 H        8.6080    -0.1760     2.2750 H     1 <1>   0.0800 
 39 H       11.0100    -0.7180     0.4730 H     1 <1>   0.0800 
 40 H       11.1100    -0.1930     2.1340 H     1 <1>   0.0800 
 41 H       10.4300     0.8760     0.9370 H     1 <1>   0.0800 
@<TRIPOS>BOND
  1   1   2  1   
  2   2   3  ar  
  3   2   4  ar  
  4   3   5  1   
  5   3   6  ar  
  6   4   7  ar  
  7   4  24  1   
  8   5   8  2   
  9   5   9  am  
 10   6  10  ar  
 11   6  25  1   
 12   7  10  ar  
 13   7  26  1   
 14   9  11  1   
 15   9  27  1   
 16  10  28  1   
 17  11  12  1   
 18  11  13  2   
 19  12  14  2   
 20  12  15  1   
 21  13  16  1   
 22  13  17  1   
 23  14  16  1   
 24  15  29  1   
 25  15  30  1   
 26  15  31  1   
 27  16  18  1   
 28  17  32  1   
 29  17  33  1   
 30  17  34  1   
 31  18  19  1   
 32  18  35  1   
 33  18  36  1   
 34  19  20  2   
 35  19  21  1   
 36  21  22  1   
 37  22  23  1   
 38  22  37  1   
 39  22  38  1   
 40  23  39  1   
 41  23  40  1   
 42  23  41  1   
@<TRIPOS>SUBSTRUCTURE
  1 ****  11 GROUP 4 **** **** 0

# MOE 2024.06 (io_trps.svl 2023.06)
