@<TRIPOS>MOLECULE
NONAME
52 56 1 0 0 
SMALL
USER_CHARGES


@<TRIPOS>ATOM
  1 CL      -0.7320     0.2580     0.2680 Cl    1 <1>  -0.1770 
  2 C       -2.4530    -0.0170     0.1760 C.ar  1 <1>   0.1770 
  3 C       -3.3180     1.0560     0.2680 C.ar  1 <1>  -0.1500 
  4 C       -2.9250    -1.3060     0.0140 C.ar  1 <1>  -0.1500 
  5 C       -4.6820     0.8310     0.1940 C.ar  1 <1>  -0.1500 
  6 C       -4.2910    -1.5240    -0.0590 C.ar  1 <1>  -0.1500 
  7 C       -5.1780    -0.4570     0.0310 C.ar  1 <1>  -0.1430 
  8 C       -6.6820    -0.6950    -0.0490 C.3   1 <1>   0.6240 
  9 O       -7.2100     0.0190    -1.1300 O.3   1 <1>  -0.5600 
 10 O       -7.2940    -0.2100     1.1110 O.3   1 <1>  -0.5600 
 11 C       -8.5840    -0.1440    -1.3070 C.3   1 <1>   0.1200 
 12 C       -8.6730    -0.4090     1.1500 C.3   1 <1>   0.1200 
 13 C       -9.3110     0.3250    -0.0370 C.3   1 <1>   0.0610 
 14 C      -10.7890     0.0150    -0.1520 C.2   1 <1>   0.4480 
 15 C       -9.2490     1.8600     0.1190 C.3   1 <1>  -0.1600 
 16 O      -11.2270    -1.0940    -0.2430 O.2   1 <1>  -0.5700 
 17 C      -11.6040     1.2990    -0.1710 C.3   1 <1>   0.0610 
 18 C      -10.5530     2.3790    -0.4940 C.3   1 <1>  -0.1600 
 19 C      -12.7340     1.2370    -1.2180 C.3   1 <1>   0.1200 
 20 C      -12.2170     1.5510     1.2250 C.3   1 <1>   0.1200 
 21 O      -13.8000     2.0050    -0.7490 O.3   1 <1>  -0.5600 
 22 O      -13.4730     0.9550     1.2780 O.3   1 <1>  -0.5600 
 23 C      -14.4360     1.4780     0.3900 C.3   1 <1>   0.6240 
 24 C      -15.4380     0.3980    -0.0290 C.ar  1 <1>  -0.1430 
 25 C      -16.6700     0.7860    -0.5430 C.ar  1 <1>  -0.1500 
 26 C      -15.1470    -0.9600     0.0840 C.ar  1 <1>  -0.1500 
 27 C      -17.6010    -0.1620    -0.9340 C.ar  1 <1>  -0.1500 
 28 C      -16.0730    -1.9130    -0.3040 C.ar  1 <1>  -0.1500 
 29 C      -17.2930    -1.5030    -0.8090 C.ar  1 <1>   0.1770 
 30 CL     -18.4640    -2.7000    -1.2980 Cl    1 <1>  -0.1770 
 31 H       -2.9290     2.0500     0.3940 H     1 <1>   0.1500 
 32 H       -2.2300    -2.1230    -0.0540 H     1 <1>   0.1500 
 33 H       -5.3700     1.6570     0.2640 H     1 <1>   0.1500 
 34 H       -4.6580    -2.5280    -0.1860 H     1 <1>   0.1500 
 35 H       -6.9060    -1.7430    -0.1640 H     1 <1>   0.0800 
 36 H       -8.7820    -1.1850    -1.5060 H     1 <1>   0.0800 
 37 H       -8.8810     0.4370    -2.1620 H     1 <1>   0.0800 
 38 H       -9.0400    -0.0310     2.0880 H     1 <1>   0.0800 
 39 H       -8.8690    -1.4680     1.1030 H     1 <1>   0.0800 
 40 H       -8.3810     2.2860    -0.3570 H     1 <1>   0.0800 
 41 H       -9.2190     2.1230     1.1630 H     1 <1>   0.0800 
 42 H      -10.4210     2.4580    -1.5600 H     1 <1>   0.0800 
 43 H      -10.8220     3.3510    -0.1160 H     1 <1>   0.0800 
 44 H      -13.0840     0.2280    -1.3620 H     1 <1>   0.0800 
 45 H      -12.4250     1.6310    -2.1690 H     1 <1>   0.0800 
 46 H      -12.3480     2.6040     1.4100 H     1 <1>   0.0800 
 47 H      -11.6100     1.1300     2.0070 H     1 <1>   0.0800 
 48 H      -14.9450     2.2850     0.8870 H     1 <1>   0.0800 
 49 H      -16.9050     1.8310    -0.6470 H     1 <1>   0.1500 
 50 H      -14.1950    -1.2810     0.4750 H     1 <1>   0.1500 
 51 H      -18.5550     0.1310    -1.3320 H     1 <1>   0.1500 
 52 H      -15.8530    -2.9610    -0.2180 H     1 <1>   0.1500 
@<TRIPOS>BOND
  1   1   2  1   
  2   2   3  ar  
  3   2   4  ar  
  4   3   5  ar  
  5   3  31  1   
  6   4   6  ar  
  7   4  32  1   
  8   5   7  ar  
  9   5  33  1   
 10   6   7  ar  
 11   6  34  1   
 12   7   8  1   
 13   8   9  1   
 14   8  10  1   
 15   8  35  1   
 16   9  11  1   
 17  10  12  1   
 18  11  13  1   
 19  11  36  1   
 20  11  37  1   
 21  12  13  1   
 22  12  38  1   
 23  12  39  1   
 24  13  14  1   
 25  13  15  1   
 26  14  16  2   
 27  14  17  1   
 28  15  18  1   
 29  15  40  1   
 30  15  41  1   
 31  17  18  1   
 32  17  19  1   
 33  17  20  1   
 34  18  42  1   
 35  18  43  1   
 36  19  21  1   
 37  19  44  1   
 38  19  45  1   
 39  20  22  1   
 40  20  46  1   
 41  20  47  1   
 42  21  23  1   
 43  22  23  1   
 44  23  24  1   
 45  23  48  1   
 46  24  25  ar  
 47  24  26  ar  
 48  25  27  ar  
 49  25  49  1   
 50  26  28  ar  
 51  26  50  1   
 52  27  29  ar  
 53  27  51  1   
 54  28  29  ar  
 55  28  52  1   
 56  29  30  1   
@<TRIPOS>SUBSTRUCTURE
  1 ****  14 GROUP 4 **** **** 0

# MOE 2024.06 (io_trps.svl 2023.06)
