@<TRIPOS>MOLECULE
NONAME
42 42 1 0 0 
SMALL
USER_CHARGES


@<TRIPOS>ATOM
  1 O        0.3330     1.1010     1.8050 O.2   1 <1>  -0.5700 
  2 C        0.0630     1.8970     0.9220 C.2   1 <1>   0.5440 
  3 N        1.0170     2.1820    -0.0490 N.am  1 <1>  -0.6600 
  4 C       -1.2490     2.5030     0.9620 C.ar  1 <1>   0.0860 
  5 C        2.0870     1.2100    -0.4310 C.3   1 <1>   0.2200 
  6 C        1.1570     3.4950    -0.7490 C.3   1 <1>   0.2200 
  7 C       -2.2450     2.2200     0.0170 C.ar  1 <1>   0.0820 
  8 C       -1.5770     3.3890     1.9890 C.ar  1 <1>  -0.1500 
  9 C        1.5250    -0.1860    -0.7000 C.3   1 <1>  -0.2400 
 10 C        3.1980     1.1960     0.6190 C.3   1 <1>  -0.2400 
 11 C        0.9140     4.6950     0.1670 C.3   1 <1>  -0.2400 
 12 C        0.2760     3.5390    -1.9960 C.3   1 <1>  -0.2400 
 13 O       -2.0450     1.3170    -0.9630 O.3   1 <1>  -0.3630 
 14 C       -3.4750     2.8560     0.0540 C.ar  1 <1>  -0.1500 
 15 C       -2.8090     4.0130     2.0400 C.ar  1 <1>  -0.1500 
 16 C       -2.1130    -0.0430    -0.5940 C.3   1 <1>   0.0400 
 17 C       -3.7640     3.7620     1.0670 C.ar  1 <1>   0.0820 
 18 O       -4.9380     4.4240     1.1750 O.3   1 <1>  -0.3630 
 19 C       -5.9730     4.2500     0.2330 C.3   1 <1>   0.0400 
 20 H        2.5250     1.5360    -1.3590 H     1 <1>   0.0800 
 21 H        2.1790     3.5840    -1.0760 H     1 <1>   0.0800 
 22 H       -0.8430     3.5870     2.7510 H     1 <1>   0.1500 
 23 H        1.1620    -0.6420     0.2020 H     1 <1>   0.0800 
 24 H        2.2980    -0.8150    -1.1010 H     1 <1>   0.0800 
 25 H        0.7300    -0.1260    -1.4200 H     1 <1>   0.0800 
 26 H        2.8370     0.8030     1.5520 H     1 <1>   0.0800 
 27 H        3.5700     2.1920     0.7780 H     1 <1>   0.0800 
 28 H        4.0100     0.5770     0.2850 H     1 <1>   0.0800 
 29 H       -0.1340     4.8640     0.3240 H     1 <1>   0.0800 
 30 H        1.3140     5.5790    -0.2930 H     1 <1>   0.0800 
 31 H        1.4100     4.5510     1.1100 H     1 <1>   0.0800 
 32 H       -0.7620     3.6030    -1.7320 H     1 <1>   0.0800 
 33 H        0.4340     2.6620    -2.5950 H     1 <1>   0.0800 
 34 H        0.5220     4.4040    -2.5840 H     1 <1>   0.0800 
 35 H       -4.1880     2.6210    -0.7110 H     1 <1>   0.1500 
 36 H       -3.0420     4.7000     2.8340 H     1 <1>   0.1500 
 37 H       -1.9320    -0.6390    -1.4690 H     1 <1>   0.0800 
 38 H       -3.0940    -0.2470    -0.2030 H     1 <1>   0.0800 
 39 H       -1.3660    -0.2500     0.1520 H     1 <1>   0.0800 
 40 H       -6.7950     4.8810     0.5200 H     1 <1>   0.0800 
 41 H       -6.2820     3.2200     0.2400 H     1 <1>   0.0800 
 42 H       -5.6120     4.5390    -0.7390 H     1 <1>   0.0800 
@<TRIPOS>BOND
  1   1   2  2   
  2   2   3  am  
  3   2   4  1   
  4   3   5  1   
  5   3   6  1   
  6   4   7  ar  
  7   4   8  ar  
  8   5   9  1   
  9   5  10  1   
 10   5  20  1   
 11   6  11  1   
 12   6  12  1   
 13   6  21  1   
 14   7  13  1   
 15   7  14  ar  
 16   8  15  ar  
 17   8  22  1   
 18   9  23  1   
 19   9  24  1   
 20   9  25  1   
 21  10  26  1   
 22  10  27  1   
 23  10  28  1   
 24  11  29  1   
 25  11  30  1   
 26  11  31  1   
 27  12  32  1   
 28  12  33  1   
 29  12  34  1   
 30  13  16  1   
 31  14  17  ar  
 32  14  35  1   
 33  15  17  ar  
 34  15  36  1   
 35  16  37  1   
 36  16  38  1   
 37  16  39  1   
 38  17  18  1   
 39  18  19  1   
 40  19  40  1   
 41  19  41  1   
 42  19  42  1   
@<TRIPOS>SUBSTRUCTURE
  1 ****   4 GROUP 4 **** **** 0

# MOE 2024.06 (io_trps.svl 2023.06)
