@<TRIPOS>MOLECULE
NONAME
51 55 1 0 0 
SMALL
USER_CHARGES


@<TRIPOS>ATOM
  1 O       -0.9280     0.5970     0.4570 O.2   1 <1>  -0.5700 
  2 C       -0.7340     1.6580    -0.1110 C.2   1 <1>   0.5440 
  3 N       -1.6300     2.0960    -1.0560 N.am  1 <1>  -0.7300 
  4 C        0.4330     2.4850     0.2080 C.ar  1 <1>   0.3960 
  5 C       -2.9470     1.5670    -1.4970 C.3   1 <1>   0.2200 
  6 N        0.5840     3.6580    -0.3800 N.ar  1 <1>  -0.6200 
  7 C        1.3810     2.0130     1.1460 C.ar  1 <1>  -0.1500 
  8 C       -4.1200     2.0880    -0.6050 C.3   1 <1>   0.0000 
  9 C       -2.8750     0.0470    -1.7010 C.3   1 <1>  -0.2400 
 10 C        1.6680     4.4070    -0.0680 C.ar  1 <1>   0.3100 
 11 C        2.4770     2.7470     1.4760 C.ar  1 <1>  -0.1500 
 12 C       -4.0280     1.6060     0.8670 C.3   1 <1>  -0.1600 
 13 C       -5.4840     1.6160    -1.1750 C.3   1 <1>  -0.1600 
 14 C       -4.1260     3.6410    -0.5990 C.3   1 <1>  -0.1600 
 15 C        2.6500     3.9940     0.8590 C.ar  1 <1>   0.0000 
 16 C        1.8290     5.6550    -0.6930 C.ar  1 <1>  -0.1500 
 17 C       -5.1990     2.1520     1.7060 C.3   1 <1>  -0.0800 
 18 C       -6.6610     2.1640    -0.3470 C.3   1 <1>  -0.0800 
 19 C       -5.2950     4.1970     0.2340 C.3   1 <1>  -0.0800 
 20 C        3.7460     4.8380     1.1230 C.ar  1 <1>  -0.1500 
 21 C        2.9020     6.4620    -0.4240 C.ar  1 <1>  -0.1500 
 22 C       -6.5290     1.6650     1.1030 C.3   1 <1>  -0.1600 
 23 C       -5.1660     3.6910     1.6820 C.3   1 <1>  -0.1600 
 24 C       -6.6230     3.7020    -0.3630 C.3   1 <1>  -0.1600 
 25 C        3.8720     6.0480     0.4950 C.ar  1 <1>  -0.1500 
 26 H       -1.4130     3.0240    -1.4300 H     1 <1>   0.3700 
 27 H       -3.1120     1.9780    -2.4780 H     1 <1>   0.0800 
 28 H        1.2130     1.0510     1.5980 H     1 <1>   0.1500 
 29 H       -2.8610    -0.4740    -0.7630 H     1 <1>   0.0800 
 30 H       -1.9870    -0.2050    -2.2510 H     1 <1>   0.0800 
 31 H       -3.7210    -0.2980    -2.2650 H     1 <1>   0.0800 
 32 H        3.2040     2.3970     2.1880 H     1 <1>   0.1500 
 33 H       -3.1050     1.9380     1.3060 H     1 <1>   0.0800 
 34 H       -4.0340     0.5330     0.9100 H     1 <1>   0.0800 
 35 H       -5.5390     0.5420    -1.1650 H     1 <1>   0.0800 
 36 H       -5.5860     1.9400    -2.1960 H     1 <1>   0.0800 
 37 H       -4.2000     4.0100    -1.6060 H     1 <1>   0.0800 
 38 H       -3.2060     4.0130    -0.1830 H     1 <1>   0.0800 
 39 H        1.0760     5.9590    -1.3960 H     1 <1>   0.1500 
 40 H       -5.1100     1.8020     2.7200 H     1 <1>   0.0800 
 41 H       -7.5920     1.8190    -0.7650 H     1 <1>   0.0800 
 42 H       -5.2700     5.2730     0.2230 H     1 <1>   0.0800 
 43 H        4.4890     4.5140     1.8300 H     1 <1>   0.1500 
 44 H        3.0130     7.4170    -0.9110 H     1 <1>   0.1500 
 45 H       -7.3520     2.0320     1.6920 H     1 <1>   0.0800 
 46 H       -6.5650     0.5900     1.1250 H     1 <1>   0.0800 
 47 H       -4.2430     4.0410     2.1100 H     1 <1>   0.0800 
 48 H       -5.9720     4.0820     2.2790 H     1 <1>   0.0800 
 49 H       -7.4470     4.0920     0.2080 H     1 <1>   0.0800 
 50 H       -6.7260     4.0590    -1.3730 H     1 <1>   0.0800 
 51 H        4.7110     6.6920     0.6980 H     1 <1>   0.1500 
@<TRIPOS>BOND
  1   1   2  2   
  2   2   3  am  
  3   2   4  1   
  4   3   5  1   
  5   3  26  1   
  6   4   6  ar  
  7   4   7  ar  
  8   5   8  1   
  9   5   9  1   
 10   5  27  1   
 11   6  10  ar  
 12   7  11  ar  
 13   7  28  1   
 14   8  12  1   
 15   8  13  1   
 16   8  14  1   
 17   9  29  1   
 18   9  30  1   
 19   9  31  1   
 20  10  15  ar  
 21  10  16  ar  
 22  11  15  ar  
 23  11  32  1   
 24  12  17  1   
 25  12  33  1   
 26  12  34  1   
 27  13  18  1   
 28  13  35  1   
 29  13  36  1   
 30  14  19  1   
 31  14  37  1   
 32  14  38  1   
 33  15  20  ar  
 34  16  21  ar  
 35  16  39  1   
 36  17  22  1   
 37  17  23  1   
 38  17  40  1   
 39  18  22  1   
 40  18  24  1   
 41  18  41  1   
 42  19  23  1   
 43  19  24  1   
 44  19  42  1   
 45  20  25  ar  
 46  20  43  1   
 47  21  25  ar  
 48  21  44  1   
 49  22  45  1   
 50  22  46  1   
 51  23  47  1   
 52  23  48  1   
 53  24  49  1   
 54  24  50  1   
 55  25  51  1   
@<TRIPOS>SUBSTRUCTURE
  1 ****   3 GROUP 4 **** **** 0

# MOE 2024.06 (io_trps.svl 2023.06)
