@<TRIPOS>MOLECULE
NONAME
32 33 1 0 0 
SMALL
USER_CHARGES


@<TRIPOS>ATOM
  1 CL       0.8730     1.5260    -2.9400 Cl    1 <1>  -0.1770 
  2 C        1.0510     2.3530    -1.4110 C.ar  1 <1>   0.1770 
  3 C        0.6150     1.7690    -0.2330 C.ar  1 <1>   0.1770 
  4 C        1.6440     3.6030    -1.3970 C.ar  1 <1>  -0.1500 
  5 CL      -0.1260     0.1870    -0.2350 Cl    1 <1>  -0.1770 
  6 C        0.7670     2.4330     0.9710 C.ar  1 <1>  -0.1500 
  7 C        1.8080     4.2730    -0.1920 C.ar  1 <1>  -0.1440 
  8 C        1.3640     3.6840     0.9860 C.ar  1 <1>  -0.1500 
  9 C        2.4670     5.6440    -0.1510 C.3   1 <1>   0.2140 
 10 S        4.0720     5.4640     0.6780 S.3   1 <1>  -0.4600 
 11 C        5.0590     4.4600    -0.4850 C.3   1 <1>   0.2380 
 12 C        6.1690     3.7180     0.2500 C.2   1 <1>   0.4850 
 13 N        7.4200     3.9910     0.1280 N.2   1 <1>  -0.2600 
 14 N        5.9400     2.6580     1.1000 N.pl3 1 <1>  -0.7640 
 15 N        8.0310     3.0760     0.9380 N.pl3 1 <1>  -0.3930 
 16 C        7.1420     2.2940     1.5080 C.cat 1 <1>   0.7360 
 17 C        4.6830     2.0500     1.5700 C.3   1 <1>   0.3540 
 18 S        7.4970     1.0880     2.5340 S.3   1 <1>  -0.9360 
 19 C        4.2030     1.0290     0.5440 C.3   1 <1>  -0.2400 
 20 H        1.9670     4.0360    -2.3270 H     1 <1>   0.1500 
 21 H        0.4210     1.9750     1.8810 H     1 <1>   0.1500 
 22 H        1.4840     4.2030     1.9250 H     1 <1>   0.1500 
 23 H        1.8860     6.3400     0.4280 H     1 <1>   0.0800 
 24 H        2.6470     6.0450    -1.1330 H     1 <1>   0.0800 
 25 H        5.4700     5.1340    -1.2140 H     1 <1>   0.0800 
 26 H        4.4020     3.7600    -0.9630 H     1 <1>   0.0800 
 27 H        9.0260     2.9630     1.1290 H     1 <1>   0.4500 
 28 H        3.9420     2.8140     1.7170 H     1 <1>   0.0800 
 29 H        4.8450     1.5620     2.5170 H     1 <1>   0.0800 
 30 H        4.0010     1.4960    -0.4010 H     1 <1>   0.0800 
 31 H        3.3020     0.5620     0.8970 H     1 <1>   0.0800 
 32 H        4.9500     0.2660     0.4170 H     1 <1>   0.0800 
@<TRIPOS>BOND
  1   1   2  1   
  2   2   3  ar  
  3   2   4  ar  
  4   3   5  1   
  5   3   6  ar  
  6   4   7  ar  
  7   4  20  1   
  8   6   8  ar  
  9   6  21  1   
 10   7   8  ar  
 11   7   9  1   
 12   8  22  1   
 13   9  10  1   
 14   9  23  1   
 15   9  24  1   
 16  10  11  1   
 17  11  12  1   
 18  11  25  1   
 19  11  26  1   
 20  12  13  2   
 21  12  14  1   
 22  13  15  1   
 23  14  16  ar  
 24  14  17  1   
 25  15  16  ar  
 26  15  27  1   
 27  16  18  1   
 28  17  19  1   
 29  17  28  1   
 30  17  29  1   
 31  19  30  1   
 32  19  31  1   
 33  19  32  1   
@<TRIPOS>SUBSTRUCTURE
  1 ****  17 GROUP 4 **** **** 0

# MOE 2024.06 (io_trps.svl 2023.06)
