@<TRIPOS>MOLECULE
NONAME
45 47 1 0 0 
SMALL
USER_CHARGES


@<TRIPOS>ATOM
  1 N        1.5880     0.5110    -1.2820 N.ar  1 <1>  -0.6200 
  2 C        1.7250     0.7340     0.0180 C.ar  1 <1>   0.4100 
  3 C        0.5020     1.0280    -1.8380 C.ar  1 <1>   0.1600 
  4 N        2.8520     0.2050     0.6070 N.pl3 1 <1>  -0.8380 
  5 C        0.8140     1.4560     0.7810 C.ar  1 <1>  -0.1500 
  6 C       -0.4600     1.7580    -1.1630 C.ar  1 <1>  -0.1500 
  7 C        4.1200     0.8750     0.1850 C.3   1 <1>   0.2090 
  8 C        2.9150    -1.2870     0.5620 C.3   1 <1>   0.2090 
  9 C       -0.3090     1.9860     0.1900 C.ar  1 <1>  -0.1500 
 10 C        5.3410     0.3140     0.9400 C.3   1 <1>   0.3430 
 11 C        4.1440    -1.8290     1.3180 C.3   1 <1>   0.3430 
 12 N        5.4260    -1.1900     0.8560 N.4   1 <1>  -0.9590 
 13 C        6.6150    -1.7220     1.5710 C.3   1 <1>   0.4860 
 14 C        7.8590    -1.1620     0.9100 C.ar  1 <1>  -0.1430 
 15 C        8.3100    -1.6210    -0.3250 C.ar  1 <1>  -0.1430 
 16 C        8.5540    -0.1520     1.5610 C.ar  1 <1>  -0.1500 
 17 C        9.4360    -1.0420    -0.8910 C.ar  1 <1>  -0.1500 
 18 C        7.6260    -2.7480    -1.0910 C.3   1 <1>  -0.0970 
 19 C        9.6770     0.4130     0.9870 C.ar  1 <1>  -0.1500 
 20 C       10.1220    -0.0290    -0.2450 C.ar  1 <1>  -0.1430 
 21 C       11.3540     0.5870    -0.8850 C.3   1 <1>  -0.0970 
 22 H        0.3700     0.8590    -2.8930 H     1 <1>   0.1500 
 23 H        1.0020     1.5890     1.8290 H     1 <1>   0.1500 
 24 H       -1.3150     2.1440    -1.6880 H     1 <1>   0.1500 
 25 H        4.0400     1.9320     0.3740 H     1 <1>   0.0800 
 26 H        4.2600     0.7440    -0.8750 H     1 <1>   0.0800 
 27 H        2.9480    -1.6160    -0.4630 H     1 <1>   0.0800 
 28 H        2.0180    -1.6890     1.0040 H     1 <1>   0.0800 
 29 H       -1.0340     2.5490     0.7520 H     1 <1>   0.1500 
 30 H        5.2670     0.6160     1.9710 H     1 <1>   0.0800 
 31 H        6.2350     0.7550     0.5290 H     1 <1>   0.0800 
 32 H        4.1940    -2.8970     1.1820 H     1 <1>   0.0800 
 33 H        4.0020    -1.6350     2.3680 H     1 <1>   0.0800 
 34 H        5.5650    -1.4100    -0.1380 H     1 <1>   0.4500 
 35 H        6.6350    -2.7980     1.5170 H     1 <1>   0.0800 
 36 H        6.5870    -1.4320     2.6090 H     1 <1>   0.0800 
 37 H        8.2350     0.2100     2.5240 H     1 <1>   0.1500 
 38 H        9.7930    -1.3820    -1.8490 H     1 <1>   0.1500 
 39 H        6.7710    -2.3740    -1.6250 H     1 <1>   0.0800 
 40 H        7.3240    -3.5400    -0.4310 H     1 <1>   0.0800 
 41 H        8.3040    -3.1750    -1.8110 H     1 <1>   0.0800 
 42 H       10.2070     1.1960     1.5020 H     1 <1>   0.1500 
 43 H       11.9170    -0.1630    -1.4110 H     1 <1>   0.0800 
 44 H       11.9910     1.0250    -0.1380 H     1 <1>   0.0800 
 45 H       11.0600     1.3520    -1.5810 H     1 <1>   0.0800 
@<TRIPOS>BOND
  1   1   2  ar  
  2   1   3  ar  
  3   2   4  1   
  4   2   5  ar  
  5   3   6  ar  
  6   3  22  1   
  7   4   7  1   
  8   4   8  1   
  9   5   9  ar  
 10   5  23  1   
 11   6   9  ar  
 12   6  24  1   
 13   7  10  1   
 14   7  25  1   
 15   7  26  1   
 16   8  11  1   
 17   8  27  1   
 18   8  28  1   
 19   9  29  1   
 20  10  12  1   
 21  10  30  1   
 22  10  31  1   
 23  11  12  1   
 24  11  32  1   
 25  11  33  1   
 26  12  13  1   
 27  12  34  1   
 28  13  14  1   
 29  13  35  1   
 30  13  36  1   
 31  14  15  ar  
 32  14  16  ar  
 33  15  17  ar  
 34  15  18  1   
 35  16  19  ar  
 36  16  37  1   
 37  17  20  ar  
 38  17  38  1   
 39  18  39  1   
 40  18  40  1   
 41  18  41  1   
 42  19  20  ar  
 43  19  42  1   
 44  20  21  1   
 45  21  43  1   
 46  21  44  1   
 47  21  45  1   
@<TRIPOS>SUBSTRUCTURE
  1 ****  10 GROUP 4 **** **** 0

# MOE 2024.06 (io_trps.svl 2023.06)
