@<TRIPOS>MOLECULE
NONAME
31 32 1 0 0 
SMALL
USER_CHARGES


@<TRIPOS>ATOM
  1 BR      -2.3120    -2.3500     2.8570 Br    1 <1>  -0.1110 
  2 C       -1.2350    -2.8350     1.3310 C.ar  1 <1>   0.1110 
  3 C       -1.7040    -2.5720     0.0480 C.ar  1 <1>   0.0830 
  4 C       -0.0200    -3.4480     1.5670 C.ar  1 <1>  -0.1500 
  5 O       -2.9120    -1.9660    -0.0860 O.3   1 <1>  -0.3630 
  6 C       -0.9120    -2.9420    -1.0370 C.ar  1 <1>  -0.1500 
  7 C        0.7430    -3.8060     0.4720 C.ar  1 <1>   0.1770 
  8 C       -3.6660    -2.1080    -1.2820 C.3   1 <1>   0.1810 
  9 C        0.3110    -3.5610    -0.8220 C.ar  1 <1>  -0.1500 
 10 CL       2.2840    -4.5850     0.7230 Cl    1 <1>  -0.1770 
 11 C       -5.0710    -1.5210    -1.1410 C.2   1 <1>   0.5690 
 12 O       -5.4150    -0.7330    -1.9920 O.2   1 <1>  -0.5700 
 13 N       -5.9210    -1.8880    -0.1230 N.am  1 <1>  -0.6600 
 14 C       -5.5990    -2.8570     0.9700 C.3   1 <1>   0.1400 
 15 C       -7.2580    -1.2410     0.0440 C.3   1 <1>   0.1400 
 16 C       -6.7830    -3.8040     1.2330 C.3   1 <1>   0.1200 
 17 C       -8.3390    -2.2900     0.3480 C.3   1 <1>   0.1200 
 18 O       -7.9650    -3.0850     1.4380 O.3   1 <1>  -0.5600 
 19 H        0.3230    -3.6420     2.5670 H     1 <1>   0.1500 
 20 H       -1.2240    -2.7510    -2.0480 H     1 <1>   0.1500 
 21 H       -3.7380    -3.1520    -1.5210 H     1 <1>   0.0800 
 22 H       -3.1500    -1.5880    -2.0670 H     1 <1>   0.0800 
 23 H        0.9340    -3.8510    -1.6500 H     1 <1>   0.1500 
 24 H       -5.3780    -2.3100     1.8700 H     1 <1>   0.0800 
 25 H       -4.7380    -3.4480     0.7210 H     1 <1>   0.0800 
 26 H       -7.5320    -0.7010    -0.8450 H     1 <1>   0.0800 
 27 H       -7.2090    -0.5380     0.8570 H     1 <1>   0.0800 
 28 H       -6.5980    -4.3890     2.1170 H     1 <1>   0.0800 
 29 H       -6.9260    -4.4710     0.4010 H     1 <1>   0.0800 
 30 H       -8.5010    -2.9240    -0.5050 H     1 <1>   0.0800 
 31 H       -9.2650    -1.8040     0.5990 H     1 <1>   0.0800 
@<TRIPOS>BOND
  1   1   2  1   
  2   2   3  ar  
  3   2   4  ar  
  4   3   5  1   
  5   3   6  ar  
  6   4   7  ar  
  7   4  19  1   
  8   5   8  1   
  9   6   9  ar  
 10   6  20  1   
 11   7   9  ar  
 12   7  10  1   
 13   8  11  1   
 14   8  21  1   
 15   8  22  1   
 16   9  23  1   
 17  11  12  2   
 18  11  13  am  
 19  13  14  1   
 20  13  15  1   
 21  14  16  1   
 22  14  24  1   
 23  14  25  1   
 24  15  17  1   
 25  15  26  1   
 26  15  27  1   
 27  16  18  1   
 28  16  28  1   
 29  16  29  1   
 30  17  18  1   
 31  17  30  1   
 32  17  31  1   
@<TRIPOS>SUBSTRUCTURE
  1 ****   5 GROUP 4 **** **** 0

# MOE 2024.06 (io_trps.svl 2023.06)
