@<TRIPOS>MOLECULE
NONAME
34 34 1 0 0 
SMALL
USER_CHARGES


@<TRIPOS>ATOM
  1 CL       0.4370     0.1980     1.1570 Cl    1 <1>  -0.1770 
  2 C       -1.0800     0.9500     0.6950 C.ar  1 <1>   0.1770 
  3 C       -1.1770     2.3300     0.5250 C.ar  1 <1>   0.0820 
  4 C       -2.1730     0.1310     0.5080 C.ar  1 <1>  -0.1500 
  5 O       -0.0940     3.1290     0.7010 O.3   1 <1>  -0.3630 
  6 C       -2.4040     2.8980     0.1810 C.ar  1 <1>  -0.1440 
  7 C       -3.3840     0.6930     0.1480 C.ar  1 <1>  -0.1500 
  8 C        0.9670     3.0140    -0.2180 C.3   1 <1>   0.1200 
  9 C       -3.5060     2.0660    -0.0170 C.ar  1 <1>  -0.1440 
 10 C       -2.5460     4.4120     0.0200 C.3   1 <1>  -0.0960 
 11 C        2.2650     2.9250     0.5940 C.3   1 <1>   0.3430 
 12 C       -4.8680     2.6230    -0.4140 C.3   1 <1>  -0.0960 
 13 N        3.4380     2.4550    -0.2200 N.4   1 <1>  -0.9590 
 14 C        3.3040     1.0080    -0.5900 C.3   1 <1>   0.2630 
 15 C        4.7060     2.6690     0.5450 C.3   1 <1>   0.2630 
 16 H       -2.0820    -0.9320     0.6430 H     1 <1>   0.1500 
 17 H       -4.2350     0.0510     0.0000 H     1 <1>   0.1500 
 18 H        0.9570     3.8910    -0.8400 H     1 <1>   0.0800 
 19 H        0.8110     2.1390    -0.8220 H     1 <1>   0.0800 
 20 H       -1.7110     4.9430     0.4380 H     1 <1>   0.0800 
 21 H       -3.4280     4.7610     0.5250 H     1 <1>   0.0800 
 22 H       -2.6220     4.6620    -1.0230 H     1 <1>   0.0800 
 23 H        2.1090     2.2430     1.4150 H     1 <1>   0.0800 
 24 H        2.4730     3.8990     1.0030 H     1 <1>   0.0800 
 25 H       -4.7750     3.2630    -1.2720 H     1 <1>   0.0800 
 26 H       -5.2860     3.1860     0.4010 H     1 <1>   0.0800 
 27 H       -5.5530     1.8320    -0.6630 H     1 <1>   0.0800 
 28 H        3.4860     3.0180    -1.0840 H     1 <1>   0.4500 
 29 H        3.2270     0.4000     0.2980 H     1 <1>   0.0800 
 30 H        4.1630     0.6840    -1.1550 H     1 <1>   0.0800 
 31 H        2.4220     0.8490    -1.1890 H     1 <1>   0.0800 
 32 H        4.6930     2.0980     1.4590 H     1 <1>   0.0800 
 33 H        4.8240     3.7120     0.7920 H     1 <1>   0.0800 
 34 H        5.5550     2.3590    -0.0430 H     1 <1>   0.0800 
@<TRIPOS>BOND
  1   1   2  1   
  2   2   3  ar  
  3   2   4  ar  
  4   3   5  1   
  5   3   6  ar  
  6   4   7  ar  
  7   4  16  1   
  8   5   8  1   
  9   6   9  ar  
 10   6  10  1   
 11   7   9  ar  
 12   7  17  1   
 13   8  11  1   
 14   8  18  1   
 15   8  19  1   
 16   9  12  1   
 17  10  20  1   
 18  10  21  1   
 19  10  22  1   
 20  11  13  1   
 21  11  23  1   
 22  11  24  1   
 23  12  25  1   
 24  12  26  1   
 25  12  27  1   
 26  13  14  1   
 27  13  15  1   
 28  13  28  1   
 29  14  29  1   
 30  14  30  1   
 31  14  31  1   
 32  15  32  1   
 33  15  33  1   
 34  15  34  1   
@<TRIPOS>SUBSTRUCTURE
  1 ****   3 GROUP 4 **** **** 0

# MOE 2024.06 (io_trps.svl 2023.06)
