@<TRIPOS>MOLECULE
NONAME
43 44 1 0 0 
SMALL
USER_CHARGES


@<TRIPOS>ATOM
  1 CL      -0.2230     0.2930    -2.4560 Cl    1 <1>  -0.1770 
  2 C       -0.3550     1.7160    -1.4530 C.ar  1 <1>   0.1770 
  3 C       -1.5630     2.3740    -1.3620 C.ar  1 <1>  -0.1500 
  4 C        0.7560     2.1570    -0.7630 C.ar  1 <1>  -0.1500 
  5 C       -1.6830     3.5080    -0.5640 C.ar  1 <1>   0.1170 
  6 C        0.6480     3.2830     0.0340 C.ar  1 <1>  -0.1500 
  7 N       -2.9050     4.1890    -0.4270 N.am  1 <1>  -0.5470 
  8 C       -0.5590     3.9590     0.1380 C.ar  1 <1>  -0.1430 
  9 C       -3.9960     4.2510    -1.2560 C.2   1 <1>   0.5690 
 10 C       -0.6210     5.1990     1.0230 C.3   1 <1>  -0.0960 
 11 O       -4.0290     3.7390    -2.3490 O.2   1 <1>  -0.5700 
 12 C       -5.2400     5.0010    -0.7600 C.3   1 <1>   0.1710 
 13 N       -6.3750     4.1200    -0.3560 N.3   1 <1>  -0.8100 
 14 C       -6.0320     3.1200     0.6850 C.3   1 <1>   0.1100 
 15 C       -7.6000     4.8720    -0.0040 C.3   1 <1>   0.1100 
 16 C       -7.2260     2.1890     1.0160 C.3   1 <1>   0.3430 
 17 C       -8.8020     3.9290     0.2620 C.3   1 <1>   0.3430 
 18 N       -8.4030     2.4850     0.1340 N.4   1 <1>  -0.9590 
 19 C       -9.5090     1.5120     0.2930 C.3   1 <1>   0.3430 
 20 C      -10.4740     1.6320    -0.8800 C.3   1 <1>  -0.2400 
 21 H       -2.4000     1.9920    -1.9160 H     1 <1>   0.1500 
 22 H        1.6870     1.6260    -0.8510 H     1 <1>   0.1500 
 23 H        1.5160     3.6260     0.5700 H     1 <1>   0.1500 
 24 H       -2.9450     4.7790     0.3990 H     1 <1>   0.3700 
 25 H       -0.9820     6.0400     0.4580 H     1 <1>   0.0800 
 26 H        0.3530     5.4500     1.4020 H     1 <1>   0.0800 
 27 H       -1.2720     5.0250     1.8610 H     1 <1>   0.0800 
 28 H       -5.5660     5.6350    -1.5660 H     1 <1>   0.0800 
 29 H       -4.9660     5.6350     0.0640 H     1 <1>   0.0800 
 30 H       -5.7090     3.6180     1.5840 H     1 <1>   0.0800 
 31 H       -5.2160     2.5080     0.3410 H     1 <1>   0.0800 
 32 H       -7.8570     5.5360    -0.8120 H     1 <1>   0.0800 
 33 H       -7.4210     5.4770     0.8690 H     1 <1>   0.0800 
 34 H       -7.5010     2.3170     2.0500 H     1 <1>   0.0800 
 35 H       -6.9150     1.1660     0.8830 H     1 <1>   0.0800 
 36 H       -9.5800     4.1590    -0.4460 H     1 <1>   0.0800 
 37 H       -9.1910     4.1190     1.2480 H     1 <1>   0.0800 
 38 H       -8.0110     2.4200    -0.8210 H     1 <1>   0.4500 
 39 H      -10.0290     1.6850     1.2220 H     1 <1>   0.0800 
 40 H       -9.1080     0.5100     0.3120 H     1 <1>   0.0800 
 41 H      -10.9790     2.5810    -0.8790 H     1 <1>   0.0800 
 42 H      -11.2240     0.8650    -0.7980 H     1 <1>   0.0800 
 43 H       -9.9590     1.4940    -1.8140 H     1 <1>   0.0800 
@<TRIPOS>BOND
  1   1   2  1   
  2   2   3  ar  
  3   2   4  ar  
  4   3   5  ar  
  5   3  21  1   
  6   4   6  ar  
  7   4  22  1   
  8   5   7  1   
  9   5   8  ar  
 10   6   8  ar  
 11   6  23  1   
 12   7   9  am  
 13   7  24  1   
 14   8  10  1   
 15   9  11  2   
 16   9  12  1   
 17  10  25  1   
 18  10  26  1   
 19  10  27  1   
 20  12  13  1   
 21  12  28  1   
 22  12  29  1   
 23  13  14  1   
 24  13  15  1   
 25  14  16  1   
 26  14  30  1   
 27  14  31  1   
 28  15  17  1   
 29  15  32  1   
 30  15  33  1   
 31  16  18  1   
 32  16  34  1   
 33  16  35  1   
 34  17  18  1   
 35  17  36  1   
 36  17  37  1   
 37  18  19  1   
 38  18  38  1   
 39  19  20  1   
 40  19  39  1   
 41  19  40  1   
 42  20  41  1   
 43  20  42  1   
 44  20  43  1   
@<TRIPOS>SUBSTRUCTURE
  1 ****   9 GROUP 4 **** **** 0

# MOE 2024.06 (io_trps.svl 2023.06)
