@<TRIPOS>MOLECULE
NONAME
48 49 1 0 0 
SMALL
USER_CHARGES


@<TRIPOS>ATOM
  1 O       -1.6110    -3.4260     0.1820 O.3   1 <1>  -0.3630 
  2 C       -2.8190    -2.8060     0.1730 C.ar  1 <1>   0.0830 
  3 C       -0.4150    -2.6980    -0.0220 C.3   1 <1>   0.1200 
  4 C       -2.9840    -1.4290     0.0390 C.ar  1 <1>  -0.1500 
  5 C       -3.9360    -3.6160     0.3060 C.ar  1 <1>  -0.1500 
  6 C        0.7760    -3.6630     0.0160 C.3   1 <1>   0.2000 
  7 C       -4.2550    -0.8780     0.0370 C.ar  1 <1>  -0.1500 
  8 C       -5.2040    -3.0640     0.3040 C.ar  1 <1>  -0.1500 
  9 O        0.7150    -4.3890     1.2000 O.3   1 <1>  -0.6800 
 10 C        2.1270    -2.9170    -0.1110 C.3   1 <1>   0.1100 
 11 C       -5.3740    -1.6960     0.1700 C.ar  1 <1>   0.0830 
 12 N        3.3300    -3.7180     0.2260 N.3   1 <1>  -0.8100 
 13 O       -6.6520    -1.2360     0.1780 O.3   1 <1>  -0.3620 
 14 C        4.5620    -2.9130     0.2220 C.3   1 <1>   0.1100 
 15 C        3.4730    -4.9600    -0.5560 C.3   1 <1>   0.1100 
 16 C       -6.9330     0.1400     0.0520 C.3   1 <1>   0.0400 
 17 C        5.7590    -3.7350     0.7410 C.3   1 <1>   0.3430 
 18 C        4.6580    -5.7980    -0.0380 C.3   1 <1>   0.3430 
 19 N        5.9430    -5.0150    -0.0350 N.4   1 <1>  -0.9590 
 20 C        7.0560    -5.8420     0.4940 C.3   1 <1>   0.3430 
 21 C        8.3900    -5.1870     0.1550 C.3   1 <1>  -0.2400 
 22 H       -0.3240    -1.9640     0.7590 H     1 <1>   0.0800 
 23 H       -0.4730    -2.2110    -0.9800 H     1 <1>   0.0800 
 24 H       -2.1430    -0.7710    -0.0630 H     1 <1>   0.1500 
 25 H       -3.8080    -4.6780     0.4100 H     1 <1>   0.1500 
 26 H        0.6740    -4.3590    -0.7980 H     1 <1>   0.0800 
 27 H       -4.3540     0.1860    -0.0670 H     1 <1>   0.1500 
 28 H       -6.0710    -3.6910     0.4070 H     1 <1>   0.1500 
 29 H       -0.2230    -4.6180     1.3730 H     1 <1>   0.4000 
 30 H        2.0930    -2.0680     0.5510 H     1 <1>   0.0800 
 31 H        2.2190    -2.5380    -1.1150 H     1 <1>   0.0800 
 32 H        4.4290    -2.0600     0.8660 H     1 <1>   0.0800 
 33 H        4.7670    -2.5520    -0.7710 H     1 <1>   0.0800 
 34 H        3.6060    -4.7310    -1.5990 H     1 <1>   0.0800 
 35 H        2.5810    -5.5540    -0.4540 H     1 <1>   0.0800 
 36 H       -8.0000     0.2670     0.0870 H     1 <1>   0.0800 
 37 H       -6.5550     0.4890    -0.8930 H     1 <1>   0.0800 
 38 H       -6.4760     0.6660     0.8710 H     1 <1>   0.0800 
 39 H        5.5830    -3.9650     1.7790 H     1 <1>   0.0800 
 40 H        6.6510    -3.1340     0.6800 H     1 <1>   0.0800 
 41 H        4.7630    -6.6770    -0.6520 H     1 <1>   0.0800 
 42 H        4.4250    -6.1170     0.9650 H     1 <1>   0.0800 
 43 H        6.1530    -4.7630    -1.0080 H     1 <1>   0.4500 
 44 H        7.0250    -6.8220     0.0430 H     1 <1>   0.0800 
 45 H        6.9580    -5.9590     1.5620 H     1 <1>   0.0800 
 46 H        8.4900    -5.0470    -0.9060 H     1 <1>   0.0800 
 47 H        9.1880    -5.8310     0.4800 H     1 <1>   0.0800 
 48 H        8.5070    -4.2460     0.6600 H     1 <1>   0.0800 
@<TRIPOS>BOND
  1   1   2  1   
  2   1   3  1   
  3   2   4  ar  
  4   2   5  ar  
  5   3   6  1   
  6   3  22  1   
  7   3  23  1   
  8   4   7  ar  
  9   4  24  1   
 10   5   8  ar  
 11   5  25  1   
 12   6   9  1   
 13   6  10  1   
 14   6  26  1   
 15   7  11  ar  
 16   7  27  1   
 17   8  11  ar  
 18   8  28  1   
 19   9  29  1   
 20  10  12  1   
 21  10  30  1   
 22  10  31  1   
 23  11  13  1   
 24  12  14  1   
 25  12  15  1   
 26  13  16  1   
 27  14  17  1   
 28  14  32  1   
 29  14  33  1   
 30  15  18  1   
 31  15  34  1   
 32  15  35  1   
 33  16  36  1   
 34  16  37  1   
 35  16  38  1   
 36  17  19  1   
 37  17  39  1   
 38  17  40  1   
 39  18  19  1   
 40  18  41  1   
 41  18  42  1   
 42  19  20  1   
 43  19  43  1   
 44  20  21  1   
 45  20  44  1   
 46  20  45  1   
 47  21  46  1   
 48  21  47  1   
 49  21  48  1   
@<TRIPOS>SUBSTRUCTURE
  1 ****   6 GROUP 4 **** **** 0

# MOE 2024.06 (io_trps.svl 2023.06)
