@<TRIPOS>MOLECULE
NONAME
39 41 1 0 0 
SMALL
USER_CHARGES


@<TRIPOS>ATOM
  1 CL      -0.8680     1.9650    -3.2640 Cl    1 <1>  -0.1770 
  2 C       -1.3640     2.4840    -1.6670 C.ar  1 <1>   0.1770 
  3 C       -0.4260     2.9790    -0.7670 C.ar  1 <1>   0.0830 
  4 C       -2.7020     2.3880    -1.3380 C.ar  1 <1>  -0.1500 
  5 O        0.8770     3.0450    -1.1600 O.3   1 <1>  -0.3630 
  6 C       -0.8670     3.3820     0.4910 C.ar  1 <1>  -0.1500 
  7 C       -3.1450     2.7910    -0.0840 C.ar  1 <1>   0.1170 
  8 C        1.8820     3.5380    -0.3010 C.3   1 <1>   0.0400 
  9 C       -2.2080     3.2860     0.8210 C.ar  1 <1>  -0.1500 
 10 N       -4.5140     2.6970     0.2610 N.am  1 <1>  -0.2370 
 11 C       -5.2660     3.6940     0.8200 C.2   1 <1>   0.5690 
 12 C       -5.2840     1.5770     0.1120 C.2   1 <1>   0.5690 
 13 O       -4.8380     4.7470     1.2320 O.2   1 <1>  -0.5700 
 14 C       -6.7420     3.2780     0.9460 C.3   1 <1>   0.2510 
 15 O       -4.9220     0.5190    -0.3330 O.2   1 <1>  -0.5700 
 16 C       -6.6920     1.7820     0.6060 C.3   1 <1>  -0.0990 
 17 N       -7.7010     3.9560     0.0240 N.3   1 <1>  -0.8100 
 18 C       -9.1070     3.6700     0.4010 C.3   1 <1>   0.1100 
 19 C       -7.5120     5.4280    -0.0100 C.3   1 <1>   0.1100 
 20 C      -10.0970     4.4030    -0.5210 C.3   1 <1>   0.1200 
 21 C       -8.5620     6.1180    -0.8990 C.3   1 <1>   0.1200 
 22 O       -9.8550     5.7780    -0.4910 O.3   1 <1>  -0.5600 
 23 H       -3.3930     1.9940    -2.0610 H     1 <1>   0.1500 
 24 H       -0.1850     3.7720     1.2230 H     1 <1>   0.1500 
 25 H        2.8190     3.4950    -0.8260 H     1 <1>   0.0800 
 26 H        1.9270     2.9180     0.5770 H     1 <1>   0.0800 
 27 H        1.6540     4.5570    -0.0440 H     1 <1>   0.0800 
 28 H       -2.5320     3.6060     1.7960 H     1 <1>   0.1500 
 29 H       -7.0490     3.4280     1.9670 H     1 <1>   0.0800 
 30 H       -6.8470     1.1830     1.4830 H     1 <1>   0.0800 
 31 H       -7.3840     1.5000    -0.1650 H     1 <1>   0.0800 
 32 H       -9.2900     3.9820     1.4150 H     1 <1>   0.0800 
 33 H       -9.3000     2.6140     0.3350 H     1 <1>   0.0800 
 34 H       -6.5400     5.6640    -0.4060 H     1 <1>   0.0800 
 35 H       -7.5740     5.8350     0.9860 H     1 <1>   0.0800 
 36 H      -11.1070     4.2410    -0.1900 H     1 <1>   0.0800 
 37 H      -10.0010     4.0560    -1.5350 H     1 <1>   0.0800 
 38 H       -8.4360     5.8260    -1.9270 H     1 <1>   0.0800 
 39 H       -8.4650     7.1870    -0.8280 H     1 <1>   0.0800 
@<TRIPOS>BOND
  1   1   2  1   
  2   2   3  ar  
  3   2   4  ar  
  4   3   5  1   
  5   3   6  ar  
  6   4   7  ar  
  7   4  23  1   
  8   5   8  1   
  9   6   9  ar  
 10   6  24  1   
 11   7   9  ar  
 12   7  10  1   
 13   8  25  1   
 14   8  26  1   
 15   8  27  1   
 16   9  28  1   
 17  10  11  am  
 18  10  12  am  
 19  11  13  2   
 20  11  14  1   
 21  12  15  2   
 22  12  16  1   
 23  14  16  1   
 24  14  17  1   
 25  14  29  1   
 26  16  30  1   
 27  16  31  1   
 28  17  18  1   
 29  17  19  1   
 30  18  20  1   
 31  18  32  1   
 32  18  33  1   
 33  19  21  1   
 34  19  34  1   
 35  19  35  1   
 36  20  22  1   
 37  20  36  1   
 38  20  37  1   
 39  21  22  1   
 40  21  38  1   
 41  21  39  1   
@<TRIPOS>SUBSTRUCTURE
  1 ****  10 GROUP 4 **** **** 0

# MOE 2024.06 (io_trps.svl 2023.06)
