@<TRIPOS>MOLECULE
NONAME
39 40 1 0 0 
SMALL
USER_CHARGES


@<TRIPOS>ATOM
  1 O       -0.4320     0.6500    -0.4890 O.3   1 <1>  -0.3620 
  2 C        0.0090     1.9280    -0.3810 C.ar  1 <1>   0.0830 
  3 C        0.0240    -0.3590     0.3840 C.3   1 <1>   0.2580 
  4 C       -0.8030     2.9350    -0.8980 C.ar  1 <1>  -0.1440 
  5 C        1.2160     2.2550     0.2290 C.ar  1 <1>  -0.1500 
  6 C       -1.0280    -1.4490     0.3670 C.2   1 <1>  -0.2880 
  7 C       -0.4070     4.2590    -0.7880 C.ar  1 <1>  -0.1500 
  8 C       -2.1170     2.5890    -1.5780 C.3   1 <1>   0.4870 
  9 C        1.6000     3.5790     0.3350 C.ar  1 <1>  -0.1500 
 10 C       -1.7820    -1.8150     1.4090 C.2   1 <1>  -0.3000 
 11 C        0.7890     4.5800    -0.1720 C.ar  1 <1>  -0.1500 
 12 N       -2.9630     1.8080    -0.6390 N.4   1 <1>  -0.9590 
 13 C       -4.1270     1.1740    -1.3100 C.3   1 <1>   0.3430 
 14 C       -3.3370     2.5850     0.5750 C.3   1 <1>   0.3430 
 15 C       -4.8170     0.2210    -0.3320 C.3   1 <1>  -0.1600 
 16 C       -4.0130     1.6540     1.5820 C.3   1 <1>  -0.1600 
 17 C       -5.2190     0.9290     0.9690 C.3   1 <1>  -0.1600 
 18 H        0.1250     0.0530     1.3740 H     1 <1>   0.0800 
 19 H        0.9740    -0.7210     0.0320 H     1 <1>   0.0800 
 20 H        1.8700     1.4980     0.6200 H     1 <1>   0.1500 
 21 H       -1.1080    -1.9190    -0.5990 H     1 <1>   0.1500 
 22 H       -1.0160     5.0560    -1.1820 H     1 <1>   0.1500 
 23 H       -1.9060     2.0000    -2.4550 H     1 <1>   0.0800 
 24 H       -2.6280     3.4880    -1.8810 H     1 <1>   0.0800 
 25 H        2.5340     3.8340     0.8080 H     1 <1>   0.1500 
 26 H       -2.5190    -2.6000     1.3700 H     1 <1>   0.1500 
 27 H       -1.7260    -1.3750     2.3910 H     1 <1>   0.1500 
 28 H        1.0970     5.6090    -0.0880 H     1 <1>   0.1500 
 29 H       -2.3340     1.0490    -0.3210 H     1 <1>   0.4500 
 30 H       -3.8010     0.6230    -2.1770 H     1 <1>   0.0800 
 31 H       -4.8250     1.9330    -1.6270 H     1 <1>   0.0800 
 32 H       -4.0120     3.3810     0.3070 H     1 <1>   0.0800 
 33 H       -2.4570     3.0190     1.0230 H     1 <1>   0.0800 
 34 H       -4.1550    -0.6000    -0.1130 H     1 <1>   0.0800 
 35 H       -5.6940    -0.1910    -0.8010 H     1 <1>   0.0800 
 36 H       -4.3360     2.2290     2.4320 H     1 <1>   0.0800 
 37 H       -3.2940     0.9350     1.9350 H     1 <1>   0.0800 
 38 H       -5.6090     0.2100     1.6710 H     1 <1>   0.0800 
 39 H       -6.0010     1.6420     0.7640 H     1 <1>   0.0800 
@<TRIPOS>BOND
  1   1   2  1   
  2   1   3  1   
  3   2   4  ar  
  4   2   5  ar  
  5   3   6  1   
  6   3  18  1   
  7   3  19  1   
  8   4   7  ar  
  9   4   8  1   
 10   5   9  ar  
 11   5  20  1   
 12   6  10  2   
 13   6  21  1   
 14   7  11  ar  
 15   7  22  1   
 16   8  12  1   
 17   8  23  1   
 18   8  24  1   
 19   9  11  ar  
 20   9  25  1   
 21  10  26  1   
 22  10  27  1   
 23  11  28  1   
 24  12  13  1   
 25  12  14  1   
 26  12  29  1   
 27  13  15  1   
 28  13  30  1   
 29  13  31  1   
 30  14  16  1   
 31  14  32  1   
 32  14  33  1   
 33  15  17  1   
 34  15  34  1   
 35  15  35  1   
 36  16  17  1   
 37  16  36  1   
 38  16  37  1   
 39  17  38  1   
 40  17  39  1   
@<TRIPOS>SUBSTRUCTURE
  1 ****  12 GROUP 4 **** **** 0

# MOE 2024.06 (io_trps.svl 2023.06)
