@<TRIPOS>MOLECULE
NONAME
34 35 1 0 0 
SMALL
USER_CHARGES


@<TRIPOS>ATOM
  1 BR       0.8340    -0.4660    -0.0810 Br    1 <1>  -0.1110 
  2 C       -0.7390    -1.5490     0.1360 C.ar  1 <1>   0.1110 
  3 C       -1.2050    -2.2750    -0.9420 C.ar  1 <1>  -0.1500 
  4 C       -1.3680    -1.5760     1.3650 C.ar  1 <1>  -0.1500 
  5 C       -2.3390    -3.0510    -0.7750 C.ar  1 <1>  -0.1500 
  6 C       -2.5010    -2.3590     1.5110 C.ar  1 <1>  -0.1500 
  7 C       -3.0040    -3.1080     0.4480 C.ar  1 <1>  -0.0090 
  8 S       -4.5030    -4.1170     0.6360 S.o2  1 <1>   1.4470 
  9 O       -4.9840    -4.0560     1.9990 O.2   1 <1>  -0.6500 
 10 O       -4.2800    -5.4070     0.0190 O.2   1 <1>  -0.6500 
 11 N       -5.6400    -3.3010    -0.3220 N.am  1 <1>  -0.8490 
 12 C       -6.0160    -2.0000     0.2570 C.3   1 <1>   0.1960 
 13 C       -6.8300    -4.1300    -0.5380 C.3   1 <1>   0.1960 
 14 C       -6.9170    -1.2210    -0.7120 C.3   1 <1>  -0.0190 
 15 C       -7.7880    -3.4430    -1.5180 C.3   1 <1>  -0.1600 
 16 C       -7.2700     0.1430    -0.1380 C.2   1 <1>   0.5690 
 17 C       -8.1800    -2.0380    -1.0390 C.3   1 <1>  -0.1600 
 18 O       -7.3280     0.3120     1.0530 O.2   1 <1>  -0.5700 
 19 N       -7.5250     1.1680    -0.9710 N.am  1 <1>  -0.8000 
 20 H       -0.6910    -2.2340    -1.8870 H     1 <1>   0.1500 
 21 H       -0.9800    -0.9980     2.1850 H     1 <1>   0.1500 
 22 H       -2.7200    -3.6260    -1.6040 H     1 <1>   0.1500 
 23 H       -3.0020    -2.3900     2.4650 H     1 <1>   0.1500 
 24 H       -5.1330    -1.4160     0.4510 H     1 <1>   0.0800 
 25 H       -6.5290    -2.1480     1.1950 H     1 <1>   0.0800 
 26 H       -7.3270    -4.3090     0.4030 H     1 <1>   0.0800 
 27 H       -6.5420    -5.0830    -0.9500 H     1 <1>   0.0800 
 28 H       -6.3570    -1.0620    -1.6160 H     1 <1>   0.0800 
 29 H       -8.6720    -4.0450    -1.6310 H     1 <1>   0.0800 
 30 H       -7.3090    -3.3810    -2.4800 H     1 <1>   0.0800 
 31 H       -8.7600    -1.5400    -1.7960 H     1 <1>   0.0800 
 32 H       -8.7880    -2.1200    -0.1530 H     1 <1>   0.0800 
 33 H       -7.7700     2.0780    -0.5760 H     1 <1>   0.3700 
 34 H       -7.5110     1.1020    -1.9880 H     1 <1>   0.3700 
@<TRIPOS>BOND
  1   1   2  1   
  2   2   3  ar  
  3   2   4  ar  
  4   3   5  ar  
  5   3  20  1   
  6   4   6  ar  
  7   4  21  1   
  8   5   7  ar  
  9   5  22  1   
 10   6   7  ar  
 11   6  23  1   
 12   7   8  1   
 13   8   9  2   
 14   8  10  2   
 15   8  11  am  
 16  11  12  1   
 17  11  13  1   
 18  12  14  1   
 19  12  24  1   
 20  12  25  1   
 21  13  15  1   
 22  13  26  1   
 23  13  27  1   
 24  14  16  1   
 25  14  17  1   
 26  14  28  1   
 27  15  17  1   
 28  15  29  1   
 29  15  30  1   
 30  16  18  2   
 31  16  19  am  
 32  17  31  1   
 33  17  32  1   
 34  19  33  1   
 35  19  34  1   
@<TRIPOS>SUBSTRUCTURE
  1 ****  12 GROUP 4 **** **** 0

# MOE 2024.06 (io_trps.svl 2023.06)
