@<TRIPOS>MOLECULE
NONAME
45 48 1 0 0 
SMALL
USER_CHARGES


@<TRIPOS>ATOM
  1 O        0.0480     0.5400     1.3950 O.2   1 <1>  -0.5700 
  2 C       -0.3530     1.6040     0.9830 C.2   1 <1>   0.5690 
  3 N        0.4270     2.6210     0.5050 N.am  1 <1>  -0.2370 
  4 C       -1.8350     2.0090     1.0140 C.3   1 <1>   0.2510 
  5 C        1.8150     2.5410     0.2410 C.ar  1 <1>   0.1170 
  6 C       -0.3410     3.7410     0.3340 C.2   1 <1>   0.5690 
  7 N       -2.6880     1.3570    -0.0160 N.3   1 <1>  -0.8100 
  8 C       -1.7750     3.5160     0.7380 C.3   1 <1>  -0.0990 
  9 C        2.6950     2.0200     1.1860 C.ar  1 <1>  -0.1500 
 10 C        2.3310     2.9840    -0.9730 C.ar  1 <1>  -0.1500 
 11 O        0.0380     4.8130    -0.0630 O.2   1 <1>  -0.5700 
 12 C       -2.5510    -0.1000    -0.0430 C.3   1 <1>   0.1100 
 13 C       -4.1180     1.6000     0.1730 C.3   1 <1>   0.1100 
 14 C        4.0520     1.9410     0.9260 C.ar  1 <1>  -0.1500 
 15 C        3.6860     2.9070    -1.2390 C.ar  1 <1>  -0.1500 
 16 C       -3.7860    -0.5970    -0.7840 C.3   1 <1>  -0.1600 
 17 C       -4.8030     0.5370    -0.6740 C.3   1 <1>  -0.1600 
 18 C        4.5510     2.3790    -0.2940 C.ar  1 <1>   0.0830 
 19 O        5.8750     2.3240    -0.5920 O.3   1 <1>  -0.1650 
 20 C        6.6470     1.2670    -0.2330 C.ar  1 <1>   0.0830 
 21 C        7.9650     1.5120     0.1190 C.ar  1 <1>  -0.1500 
 22 C        6.1610    -0.0360    -0.2260 C.ar  1 <1>  -0.1500 
 23 C        8.7930     0.4660     0.4880 C.ar  1 <1>  -0.1500 
 24 C        6.9890    -1.0810     0.1450 C.ar  1 <1>  -0.1500 
 25 C        8.3040    -0.8300     0.5030 C.ar  1 <1>  -0.1500 
 26 H       -2.2270     1.8120     1.9970 H     1 <1>   0.0800 
 27 H       -1.9800     4.0780     1.6290 H     1 <1>   0.0800 
 28 H       -2.4280     3.8270    -0.0560 H     1 <1>   0.0800 
 29 H        2.3190     1.6720     2.1320 H     1 <1>   0.1500 
 30 H        1.6690     3.3980    -1.7130 H     1 <1>   0.1500 
 31 H       -2.5490    -0.4900     0.9620 H     1 <1>   0.0800 
 32 H       -1.6450    -0.3970    -0.5440 H     1 <1>   0.0800 
 33 H       -4.3950     2.5910    -0.1430 H     1 <1>   0.0800 
 34 H       -4.3830     1.4610     1.2080 H     1 <1>   0.0800 
 35 H        4.7200     1.5440     1.6700 H     1 <1>   0.1500 
 36 H        4.0780     3.2560    -2.1780 H     1 <1>   0.1500 
 37 H       -4.1490    -1.5090    -0.3440 H     1 <1>   0.0800 
 38 H       -3.5410    -0.7790    -1.8150 H     1 <1>   0.0800 
 39 H       -5.0150     0.9380    -1.6490 H     1 <1>   0.0800 
 40 H       -5.7230     0.2150    -0.2190 H     1 <1>   0.0800 
 41 H        8.3370     2.5210     0.1030 H     1 <1>   0.1500 
 42 H        5.1440    -0.2360    -0.5130 H     1 <1>   0.1500 
 43 H        9.8150     0.6590     0.7620 H     1 <1>   0.1500 
 44 H        6.6130    -2.0890     0.1530 H     1 <1>   0.1500 
 45 H        8.9470    -1.6440     0.7900 H     1 <1>   0.1500 
@<TRIPOS>BOND
  1   1   2  2   
  2   2   3  am  
  3   2   4  1   
  4   3   5  1   
  5   3   6  am  
  6   4   7  1   
  7   4   8  1   
  8   4  26  1   
  9   5   9  ar  
 10   5  10  ar  
 11   6   8  1   
 12   6  11  2   
 13   7  12  1   
 14   7  13  1   
 15   8  27  1   
 16   8  28  1   
 17   9  14  ar  
 18   9  29  1   
 19  10  15  ar  
 20  10  30  1   
 21  12  16  1   
 22  12  31  1   
 23  12  32  1   
 24  13  17  1   
 25  13  33  1   
 26  13  34  1   
 27  14  18  ar  
 28  14  35  1   
 29  15  18  ar  
 30  15  36  1   
 31  16  17  1   
 32  16  37  1   
 33  16  38  1   
 34  17  39  1   
 35  17  40  1   
 36  18  19  1   
 37  19  20  1   
 38  20  21  ar  
 39  20  22  ar  
 40  21  23  ar  
 41  21  41  1   
 42  22  24  ar  
 43  22  42  1   
 44  23  25  ar  
 45  23  43  1   
 46  24  25  ar  
 47  24  44  1   
 48  25  45  1   
@<TRIPOS>SUBSTRUCTURE
  1 ****   5 GROUP 4 **** **** 0

# MOE 2024.06 (io_trps.svl 2023.06)
