@<TRIPOS>MOLECULE
NONAME
40 43 1 0 0 
SMALL
USER_CHARGES


@<TRIPOS>ATOM
  1 O        0.9970     1.0600     1.4710 O.co2 1 <1>  -0.9000 
  2 C        1.6740     0.4390     0.6440 C.2   1 <1>   0.9060 
  3 O        1.2250     0.1270    -0.4570 O.co2 1 <1>  -0.9000 
  4 C        3.1200     0.1590     1.0170 C.3   1 <1>  -0.1860 
  5 C        4.2010     1.4910     0.8550 C.3   1 <1>  -0.0190 
  6 C        3.8120    -1.1170     0.2130 C.3   1 <1>   0.0580 
  7 C        3.6950     2.8780     0.4090 C.2   1 <1>   0.5690 
  8 C        5.4730     0.9320    -0.0600 C.3   1 <1>   0.0580 
  9 C        5.2050    -1.5220    -0.5010 C.2   1 <1>  -0.2880 
 10 C        4.5540    -0.0150     0.1230 C.3   1 <1>  -0.1600 
 11 O        4.4880     3.6170    -0.1290 O.2   1 <1>  -0.5700 
 12 N        2.4210     3.2760     0.7010 N.am  1 <1>  -0.5470 
 13 C        6.0750    -0.4500    -0.6420 C.2   1 <1>  -0.2880 
 14 C        1.7210     4.4630     0.4510 C.ar  1 <1>   0.1170 
 15 C        2.3400     5.6920     0.2300 C.ar  1 <1>  -0.1500 
 16 C        0.3300     4.4030     0.4400 C.ar  1 <1>  -0.1500 
 17 C        1.5700     6.8170     0.0050 C.ar  1 <1>  -0.1430 
 18 C       -0.4370     5.5340     0.2150 C.ar  1 <1>  -0.1500 
 19 C        0.2000     6.7420    -0.0020 C.ar  1 <1>  -0.1430 
 20 C        2.0440     8.2240    -0.2550 C.3   1 <1>  -0.0170 
 21 C       -0.4220     8.0890    -0.2690 C.3   1 <1>  -0.0170 
 22 C        0.7600     9.0630    -0.1190 C.3   1 <1>  -0.1600 
 23 H        3.0700    -0.0990     2.0640 H     1 <1>   0.0800 
 24 H        4.5860     1.6910     1.8440 H     1 <1>   0.0800 
 25 H        3.0950    -1.3710    -0.5550 H     1 <1>   0.0800 
 26 H        5.4470     1.5420    -0.9530 H     1 <1>   0.0800 
 27 H        5.3410    -2.5470    -0.8020 H     1 <1>   0.1500 
 28 H        4.0560     0.2500    -0.8970 H     1 <1>   0.0800 
 29 H        5.1090    -0.3300     1.1600 H     1 <1>   0.0800 
 30 H        1.8080     2.5240     1.0680 H     1 <1>   0.3700 
 31 H        7.0570    -0.4330    -1.0820 H     1 <1>   0.1500 
 32 H        3.4110     5.7660     0.2370 H     1 <1>   0.1500 
 33 H       -0.1460     3.4510     0.6090 H     1 <1>   0.1500 
 34 H       -1.5100     5.4680     0.2090 H     1 <1>   0.1500 
 35 H        2.4370     8.2860    -1.2550 H     1 <1>   0.0800 
 36 H        2.7930     8.5250     0.4550 H     1 <1>   0.0800 
 37 H       -1.2070     8.3070     0.4340 H     1 <1>   0.0800 
 38 H       -0.8090     8.1100    -1.2720 H     1 <1>   0.0800 
 39 H        0.7210     9.8550    -0.8460 H     1 <1>   0.0800 
 40 H        0.7320     9.4900     0.8680 H     1 <1>   0.0800 
@<TRIPOS>BOND
  1   1   2  ar  
  2   2   3  ar  
  3   2   4  1   
  4   4   5  1   
  5   4   6  1   
  6   4  23  1   
  7   5   7  1   
  8   5   8  1   
  9   5  24  1   
 10   6   9  1   
 11   6  10  1   
 12   6  25  1   
 13   7  11  2   
 14   7  12  am  
 15   8  10  1   
 16   8  13  1   
 17   8  26  1   
 18   9  13  2   
 19   9  27  1   
 20  10  28  1   
 21  10  29  1   
 22  12  14  1   
 23  12  30  1   
 24  13  31  1   
 25  14  15  ar  
 26  14  16  ar  
 27  15  17  ar  
 28  15  32  1   
 29  16  18  ar  
 30  16  33  1   
 31  17  19  ar  
 32  17  20  1   
 33  18  19  ar  
 34  18  34  1   
 35  19  21  1   
 36  20  22  1   
 37  20  35  1   
 38  20  36  1   
 39  21  22  1   
 40  21  37  1   
 41  21  38  1   
 42  22  39  1   
 43  22  40  1   
@<TRIPOS>SUBSTRUCTURE
  1 ****  12 GROUP 4 **** **** 0

# MOE 2024.06 (io_trps.svl 2023.06)
