@<TRIPOS>MOLECULE
NONAME
42 42 1 0 0 
SMALL
USER_CHARGES


@<TRIPOS>ATOM
  1 O        1.3370    -2.2370    -1.7520 O.2   1 <1>  -0.5700 
  2 C        0.6420    -2.5490    -0.8130 C.2   1 <1>   0.5690 
  3 N        1.1370    -3.2610     0.2350 N.am  1 <1>  -0.7300 
  4 C       -0.8060    -2.0870    -0.7530 C.3   1 <1>   0.1810 
  5 C        2.4920    -3.8650     0.4420 C.3   1 <1>   0.1400 
  6 O       -1.0100    -1.3590     0.4500 O.3   1 <1>  -0.3620 
  7 C        3.6820    -3.0980    -0.1890 C.3   1 <1>   0.3430 
  8 C       -2.0980    -1.6700     1.1950 C.ar  1 <1>   0.0820 
  9 N        3.5330    -1.6040    -0.1710 N.4   1 <1>  -0.9590 
 10 C       -2.2620    -2.9150     1.8120 C.ar  1 <1>   0.0820 
 11 C       -3.0660    -0.6930     1.3530 C.ar  1 <1>  -0.1500 
 12 C        4.6390    -0.9050    -0.8740 C.3   1 <1>   0.3430 
 13 C        3.2660    -1.0470     1.1820 C.3   1 <1>   0.3430 
 14 O       -1.3320    -3.8900     1.7140 O.3   1 <1>  -0.5330 
 15 C       -3.4030    -3.1690     2.5580 C.ar  1 <1>  -0.1500 
 16 C       -4.2020    -0.9520     2.1020 C.ar  1 <1>  -0.1500 
 17 C        4.5490    -1.1640    -2.3740 C.3   1 <1>  -0.2400 
 18 C        2.5350     0.2840     1.0460 C.3   1 <1>  -0.2400 
 19 C       -4.3710    -2.1890     2.7000 C.ar  1 <1>  -0.1500 
 20 H        0.4420    -3.4740     0.9710 H     1 <1>   0.3700 
 21 H       -1.4660    -2.9340    -0.7860 H     1 <1>   0.0800 
 22 H       -1.0240    -1.4330    -1.5770 H     1 <1>   0.0800 
 23 H        2.4850    -4.8700     0.0550 H     1 <1>   0.0800 
 24 H        2.6660    -3.9400     1.5010 H     1 <1>   0.0800 
 25 H        3.7600    -3.4220    -1.2130 H     1 <1>   0.0800 
 26 H        4.5920    -3.3840     0.3110 H     1 <1>   0.0800 
 27 H        2.6710    -1.4530    -0.7350 H     1 <1>   0.4500 
 28 H       -2.9310     0.2680     0.8890 H     1 <1>   0.1500 
 29 H        5.5920    -1.2360    -0.4940 H     1 <1>   0.0800 
 30 H        4.5620     0.1570    -0.7070 H     1 <1>   0.0800 
 31 H        4.1890    -0.9170     1.7240 H     1 <1>   0.0800 
 32 H        2.6360    -1.7200     1.7390 H     1 <1>   0.0800 
 33 H       -1.6120    -4.6980     2.1880 H     1 <1>   0.4500 
 34 H       -3.5480    -4.1220     3.0340 H     1 <1>   0.1500 
 35 H       -4.9540    -0.1900     2.2190 H     1 <1>   0.1500 
 36 H        4.7310    -2.1960    -2.6100 H     1 <1>   0.0800 
 37 H        5.2950    -0.5770    -2.8790 H     1 <1>   0.0800 
 38 H        3.5850    -0.8730    -2.7520 H     1 <1>   0.0800 
 39 H        3.1430     1.0240     0.5600 H     1 <1>   0.0800 
 40 H        2.2890     0.6510     2.0260 H     1 <1>   0.0800 
 41 H        1.6150     0.1550     0.5030 H     1 <1>   0.0800 
 42 H       -5.2570    -2.3860     3.2800 H     1 <1>   0.1500 
@<TRIPOS>BOND
  1   1   2  2   
  2   2   3  am  
  3   2   4  1   
  4   3   5  1   
  5   3  20  1   
  6   4   6  1   
  7   4  21  1   
  8   4  22  1   
  9   5   7  1   
 10   5  23  1   
 11   5  24  1   
 12   6   8  1   
 13   7   9  1   
 14   7  25  1   
 15   7  26  1   
 16   8  10  ar  
 17   8  11  ar  
 18   9  12  1   
 19   9  13  1   
 20   9  27  1   
 21  10  14  1   
 22  10  15  ar  
 23  11  16  ar  
 24  11  28  1   
 25  12  17  1   
 26  12  29  1   
 27  12  30  1   
 28  13  18  1   
 29  13  31  1   
 30  13  32  1   
 31  14  33  1   
 32  15  19  ar  
 33  15  34  1   
 34  16  19  ar  
 35  16  35  1   
 36  17  36  1   
 37  17  37  1   
 38  17  38  1   
 39  18  39  1   
 40  18  40  1   
 41  18  41  1   
 42  19  42  1   
@<TRIPOS>SUBSTRUCTURE
  1 ****   6 GROUP 4 **** **** 0

# MOE 2024.06 (io_trps.svl 2023.06)
