@<TRIPOS>MOLECULE
ka-07378
29 29 1 0 0 
SMALL
USER_CHARGES


@<TRIPOS>ATOM
  1 O        1.1530     0.5580     2.1000 O.3   1 <1>  -0.5320 
  2 C        1.9280     1.0570     1.1250 C.ar  1 <1>   0.0830 
  3 C        1.5660     2.2430     0.5120 C.ar  1 <1>  -0.1500 
  4 C        3.0800     0.3870     0.7400 C.ar  1 <1>  -0.1500 
  5 C        2.3670     2.7560    -0.4910 C.ar  1 <1>   0.0830 
  6 C        3.8820     0.9030    -0.2670 C.ar  1 <1>  -0.1430 
  7 O        2.0190     3.9070    -1.0860 O.3   1 <1>  -0.5320 
  8 C        3.5210     2.0930    -0.8820 C.ar  1 <1>  -0.1500 
  9 C        5.1460     0.1730    -0.6910 C.3   1 <1>  -0.0170 
 10 C        6.3440     0.6510     0.1370 C.3   1 <1>  -0.1600 
 11 C        7.6350    -0.0710    -0.2700 C.3   1 <1>  -0.1600 
 12 C        8.8250     0.4160     0.5650 C.3   1 <1>  -0.1600 
 13 C       10.1140    -0.3040     0.1580 C.3   1 <1>  -0.2400 
 14 H        1.4950    -0.2750     2.4670 H     1 <1>   0.4500 
 15 H        0.6740     2.7590     0.8120 H     1 <1>   0.1500 
 16 H        3.3530    -0.5320     1.2240 H     1 <1>   0.1500 
 17 H        2.6470     4.1840    -1.7740 H     1 <1>   0.4500 
 18 H        4.1380     2.5010    -1.6610 H     1 <1>   0.1500 
 19 H        5.3320     0.3500    -1.7360 H     1 <1>   0.0800 
 20 H        5.0120    -0.8870    -0.5600 H     1 <1>   0.0800 
 21 H        6.1450     0.4720     1.1800 H     1 <1>   0.0800 
 22 H        6.4660     1.7120     0.0010 H     1 <1>   0.0800 
 23 H        7.8340     0.1100    -1.3130 H     1 <1>   0.0800 
 24 H        7.5130    -1.1320    -0.1320 H     1 <1>   0.0800 
 25 H        8.6330     0.2350     1.6090 H     1 <1>   0.0800 
 26 H        8.9540     1.4760     0.4280 H     1 <1>   0.0800 
 27 H       10.0160    -1.3650     0.3080 H     1 <1>   0.0800 
 28 H       10.9360     0.0500     0.7550 H     1 <1>   0.0800 
 29 H       10.3390    -0.1190    -0.8770 H     1 <1>   0.0800 
@<TRIPOS>BOND
  1   1   2  1   
  2   1  14  1   
  3   2   3  ar  
  4   2   4  ar  
  5   3   5  ar  
  6   3  15  1   
  7   4   6  ar  
  8   4  16  1   
  9   5   7  1   
 10   5   8  ar  
 11   6   8  ar  
 12   6   9  1   
 13   7  17  1   
 14   8  18  1   
 15   9  10  1   
 16   9  19  1   
 17   9  20  1   
 18  10  11  1   
 19  10  21  1   
 20  10  22  1   
 21  11  12  1   
 22  11  23  1   
 23  11  24  1   
 24  12  13  1   
 25  12  25  1   
 26  12  26  1   
 27  13  27  1   
 28  13  28  1   
 29  13  29  1   
@<TRIPOS>SUBSTRUCTURE
  1 ****   6 GROUP 4 **** **** 0

# MOE 2024.06 (io_trps.svl 2023.06)
