@<TRIPOS>MOLECULE
NONAME
49 50 1 0 0 
SMALL
USER_CHARGES


@<TRIPOS>ATOM
  1 S       -0.0440    -0.2460     1.6350 S.o2  1 <1>   1.4470 
  2 O       -0.4160     0.8410     2.5160 O.2   1 <1>  -0.6500 
  3 O        0.2150    -1.5540     2.1970 O.2   1 <1>  -0.6500 
  4 N        1.3620     0.2470     0.8240 N.am  1 <1>  -0.8490 
  5 C       -1.2610    -0.4100     0.2960 C.ar  1 <1>  -0.0090 
  6 C        2.5570     0.0310     1.6450 C.3   1 <1>   0.1960 
  7 C        1.2700     1.6340     0.3590 C.3   1 <1>   0.1960 
  8 C       -2.5370     0.1370     0.4140 C.ar  1 <1>  -0.1500 
  9 C       -0.9410    -1.0960    -0.8750 C.ar  1 <1>  -0.1500 
 10 C        3.8200     0.3380     0.8350 C.3   1 <1>  -0.1600 
 11 C        2.4840     1.9830    -0.5040 C.3   1 <1>  -0.1600 
 12 C       -3.4700     0.0140    -0.6030 C.ar  1 <1>  -0.1500 
 13 C       -1.8580    -1.2300    -1.9040 C.ar  1 <1>  -0.1500 
 14 C        3.7960     1.7670     0.2690 C.3   1 <1>  -0.0190 
 15 C       -3.1100    -0.6700    -1.7480 C.ar  1 <1>   0.1900 
 16 C        5.0220     2.0430    -0.6000 C.2   1 <1>   0.5690 
 17 F       -3.9810    -0.7900    -2.7120 F     1 <1>  -0.1900 
 18 O        5.1410     1.4740    -1.6580 O.2   1 <1>  -0.5700 
 19 N        5.9520     2.9250    -0.1490 N.am  1 <1>  -0.7300 
 20 C        7.1970     3.2830    -0.8610 C.3   1 <1>   0.1400 
 21 C        8.3870     3.0540     0.0730 C.3   1 <1>  -0.1600 
 22 C        9.7440     3.2960    -0.6120 C.3   1 <1>  -0.0800 
 23 C       10.8820     2.9080     0.3390 C.3   1 <1>  -0.2400 
 24 C        9.9200     4.7570    -1.0480 C.3   1 <1>  -0.2400 
 25 H        2.5990    -0.9970     1.9650 H     1 <1>   0.0800 
 26 H        2.5140     0.6540     2.5240 H     1 <1>   0.0800 
 27 H        1.2160     2.3040     1.2030 H     1 <1>   0.0800 
 28 H        0.3770     1.7630    -0.2290 H     1 <1>   0.0800 
 29 H       -2.8040     0.6660     1.3150 H     1 <1>   0.1500 
 30 H        0.0420    -1.5280    -0.9770 H     1 <1>   0.1500 
 31 H        3.8930    -0.3710     0.0280 H     1 <1>   0.0800 
 32 H        4.6850     0.2090     1.4610 H     1 <1>   0.0800 
 33 H        2.4160     3.0080    -0.8220 H     1 <1>   0.0800 
 34 H        2.4720     1.3660    -1.3860 H     1 <1>   0.0800 
 35 H       -4.4550     0.4360    -0.5140 H     1 <1>   0.1500 
 36 H       -1.6110    -1.7580    -2.8080 H     1 <1>   0.1500 
 37 H        3.8090     2.4530     1.0960 H     1 <1>   0.0800 
 38 H        5.8180     3.3880     0.7500 H     1 <1>   0.3700 
 39 H        7.1430     4.3150    -1.1620 H     1 <1>   0.0800 
 40 H        7.3030     2.6750    -1.7450 H     1 <1>   0.0800 
 41 H        8.3540     2.0330     0.4120 H     1 <1>   0.0800 
 42 H        8.3000     3.6990     0.9300 H     1 <1>   0.0800 
 43 H        9.8090     2.6660    -1.4850 H     1 <1>   0.0800 
 44 H       10.8590     3.5140     1.2270 H     1 <1>   0.0800 
 45 H       11.8340     3.0410    -0.1430 H     1 <1>   0.0800 
 46 H       10.7940     1.8740     0.6260 H     1 <1>   0.0800 
 47 H        9.8100     5.4210    -0.2080 H     1 <1>   0.0800 
 48 H        9.2000     5.0250    -1.8000 H     1 <1>   0.0800 
 49 H       10.9000     4.9030    -1.4690 H     1 <1>   0.0800 
@<TRIPOS>BOND
  1   1   2  2   
  2   1   3  2   
  3   1   4  am  
  4   1   5  1   
  5   4   6  1   
  6   4   7  1   
  7   5   8  ar  
  8   5   9  ar  
  9   6  10  1   
 10   6  25  1   
 11   6  26  1   
 12   7  11  1   
 13   7  27  1   
 14   7  28  1   
 15   8  12  ar  
 16   8  29  1   
 17   9  13  ar  
 18   9  30  1   
 19  10  14  1   
 20  10  31  1   
 21  10  32  1   
 22  11  14  1   
 23  11  33  1   
 24  11  34  1   
 25  12  15  ar  
 26  12  35  1   
 27  13  15  ar  
 28  13  36  1   
 29  14  16  1   
 30  14  37  1   
 31  15  17  1   
 32  16  18  2   
 33  16  19  am  
 34  19  20  1   
 35  19  38  1   
 36  20  21  1   
 37  20  39  1   
 38  20  40  1   
 39  21  22  1   
 40  21  41  1   
 41  21  42  1   
 42  22  23  1   
 43  22  24  1   
 44  22  43  1   
 45  23  44  1   
 46  23  45  1   
 47  23  46  1   
 48  24  47  1   
 49  24  48  1   
 50  24  49  1   
@<TRIPOS>SUBSTRUCTURE
  1 ****  11 GROUP 4 **** **** 0

# MOE 2024.06 (io_trps.svl 2023.06)
