@<TRIPOS>MOLECULE
NONAME
33 33 1 0 0 
SMALL
USER_CHARGES


@<TRIPOS>ATOM
  1 O       -1.0220     2.2580     2.1510 O.2   1 <1>  -0.5700 
  2 C       -0.5890     2.2870     1.0120 C.2   1 <1>   0.6900 
  3 N       -1.4600     2.3720    -0.0600 N.am  1 <1>  -0.4770 
  4 N        0.7760     2.2460     0.8130 N.am  1 <1>  -0.6600 
  5 C       -2.5780     1.5290    -0.2040 C.ar  1 <1>   0.1170 
  6 C       -1.1670     3.3110    -1.1740 C.3   1 <1>   0.1400 
  7 C        1.4000     1.5570    -0.3490 C.3   1 <1>   0.0600 
  8 C        1.7120     2.5420     1.9310 C.3   1 <1>   0.0600 
  9 C       -3.7700     1.7010     0.5110 C.ar  1 <1>  -0.1440 
 10 C       -2.4960     0.4800    -1.1150 C.ar  1 <1>  -0.1500 
 11 C       -2.2170     4.4190    -1.2430 C.3   1 <1>  -0.2400 
 12 C       -4.8320     0.8370     0.2950 C.ar  1 <1>  -0.1500 
 13 C       -3.9560     2.8070     1.5420 C.3   1 <1>  -0.0970 
 14 C       -3.5600    -0.3760    -1.3260 C.ar  1 <1>  -0.1500 
 15 C       -4.7330    -0.1970    -0.6190 C.ar  1 <1>  -0.1500 
 16 H       -1.1530     2.7660    -2.1020 H     1 <1>   0.0800 
 17 H       -0.2000     3.7610    -1.0320 H     1 <1>   0.0800 
 18 H        0.6480     1.0950    -0.9640 H     1 <1>   0.0800 
 19 H        2.0690     0.7900     0.0000 H     1 <1>   0.0800 
 20 H        1.9520     2.2680    -0.9380 H     1 <1>   0.0800 
 21 H        1.2340     3.1770     2.6570 H     1 <1>   0.0800 
 22 H        2.5860     3.0440     1.5570 H     1 <1>   0.0800 
 23 H        2.0010     1.6240     2.4130 H     1 <1>   0.0800 
 24 H       -1.5840     0.3330    -1.6620 H     1 <1>   0.1500 
 25 H       -3.1960     4.0020    -1.4030 H     1 <1>   0.0800 
 26 H       -1.9920     5.0820    -2.0580 H     1 <1>   0.0800 
 27 H       -2.2130     4.9880    -0.3310 H     1 <1>   0.0800 
 28 H       -5.7480     0.9630     0.8460 H     1 <1>   0.1500 
 29 H       -3.6880     2.4360     2.5140 H     1 <1>   0.0800 
 30 H       -4.9770     3.1380     1.5650 H     1 <1>   0.0800 
 31 H       -3.3340     3.6540     1.3230 H     1 <1>   0.0800 
 32 H       -3.4760    -1.1810    -2.0350 H     1 <1>   0.1500 
 33 H       -5.5660    -0.8600    -0.7750 H     1 <1>   0.1500 
@<TRIPOS>BOND
  1   1   2  2   
  2   2   3  am  
  3   2   4  am  
  4   3   5  1   
  5   3   6  1   
  6   4   7  1   
  7   4   8  1   
  8   5   9  ar  
  9   5  10  ar  
 10   6  11  1   
 11   6  16  1   
 12   6  17  1   
 13   7  18  1   
 14   7  19  1   
 15   7  20  1   
 16   8  21  1   
 17   8  22  1   
 18   8  23  1   
 19   9  12  ar  
 20   9  13  1   
 21  10  14  ar  
 22  10  24  1   
 23  11  25  1   
 24  11  26  1   
 25  11  27  1   
 26  12  15  ar  
 27  12  28  1   
 28  13  29  1   
 29  13  30  1   
 30  13  31  1   
 31  14  15  ar  
 32  14  32  1   
 33  15  33  1   
@<TRIPOS>SUBSTRUCTURE
  1 ****   3 GROUP 4 **** **** 0

# MOE 2024.06 (io_trps.svl 2023.06)
