@<TRIPOS>MOLECULE
NONAME
37 38 1 0 0 
SMALL
USER_CHARGES


@<TRIPOS>ATOM
  1 F       -0.9470    -0.3990     2.1380 F     1 <1>  -0.1900 
  2 C       -1.9060    -0.8860     1.4000 C.ar  1 <1>   0.1900 
  3 C       -2.6400    -1.9530     1.8780 C.ar  1 <1>  -0.1500 
  4 C       -2.1530    -0.3170     0.1670 C.ar  1 <1>  -0.1500 
  5 C       -3.6610    -2.4640     1.0940 C.ar  1 <1>  -0.1500 
  6 C       -3.1760    -0.8330    -0.6120 C.ar  1 <1>  -0.1500 
  7 C       -3.9390    -1.9010    -0.1480 C.ar  1 <1>  -0.1430 
  8 C       -5.0710    -2.4500    -0.9960 C.3   1 <1>   0.4870 
  9 N       -6.3660    -1.9560    -0.4230 N.4   1 <1>  -0.9590 
 10 C       -7.5270    -2.7300    -0.9980 C.3   1 <1>   0.3430 
 11 C       -6.4340    -0.4680    -0.5920 C.3   1 <1>   0.3430 
 12 C       -8.7470    -2.8600    -0.0380 C.3   1 <1>   0.3430 
 13 C       -7.8200     0.1390    -0.3600 C.3   1 <1>  -0.1600 
 14 N       -9.4660    -1.5810     0.3310 N.4   1 <1>  -0.9590 
 15 C       -8.6110    -0.4510     0.8060 C.3   1 <1>   0.3430 
 16 C      -10.5170    -1.8760     1.3650 C.3   1 <1>   0.2630 
 17 H       -2.4030    -2.3720     2.8420 H     1 <1>   0.1500 
 18 H       -1.5500     0.5090    -0.1710 H     1 <1>   0.1500 
 19 H       -4.2180    -3.3070     1.4680 H     1 <1>   0.1500 
 20 H       -3.3560    -0.3930    -1.5790 H     1 <1>   0.1500 
 21 H       -5.0330    -3.5270    -0.9720 H     1 <1>   0.0800 
 22 H       -4.9580    -2.1280    -2.0190 H     1 <1>   0.0800 
 23 H       -6.2700    -2.1500     0.5830 H     1 <1>   0.4500 
 24 H       -7.1970    -3.7320    -1.2230 H     1 <1>   0.0800 
 25 H       -7.8440    -2.2870    -1.9280 H     1 <1>   0.0800 
 26 H       -6.1110    -0.2000    -1.5870 H     1 <1>   0.0800 
 27 H       -5.7370    -0.0120     0.0960 H     1 <1>   0.0800 
 28 H       -8.4120    -3.3470     0.8630 H     1 <1>   0.0800 
 29 H       -9.4590    -3.5260    -0.5000 H     1 <1>   0.0800 
 30 H       -8.3970     0.1100    -1.2670 H     1 <1>   0.0800 
 31 H       -7.6610     1.1820    -0.1470 H     1 <1>   0.0800 
 32 H       -9.9820    -1.2410    -0.4980 H     1 <1>   0.4500 
 33 H       -9.2510     0.3230     1.2030 H     1 <1>   0.0800 
 34 H       -7.9530    -0.7690     1.6000 H     1 <1>   0.0800 
 35 H      -10.0630    -2.2230     2.2810 H     1 <1>   0.0800 
 36 H      -11.1960    -2.6350     1.0100 H     1 <1>   0.0800 
 37 H      -11.0900    -0.9880     1.5840 H     1 <1>   0.0800 
@<TRIPOS>BOND
  1   1   2  1   
  2   2   3  ar  
  3   2   4  ar  
  4   3   5  ar  
  5   3  17  1   
  6   4   6  ar  
  7   4  18  1   
  8   5   7  ar  
  9   5  19  1   
 10   6   7  ar  
 11   6  20  1   
 12   7   8  1   
 13   8   9  1   
 14   8  21  1   
 15   8  22  1   
 16   9  10  1   
 17   9  11  1   
 18   9  23  1   
 19  10  12  1   
 20  10  24  1   
 21  10  25  1   
 22  11  13  1   
 23  11  26  1   
 24  11  27  1   
 25  12  14  1   
 26  12  28  1   
 27  12  29  1   
 28  13  15  1   
 29  13  30  1   
 30  13  31  1   
 31  14  15  1   
 32  14  16  1   
 33  14  32  1   
 34  15  33  1   
 35  15  34  1   
 36  16  35  1   
 37  16  36  1   
 38  16  37  1   
@<TRIPOS>SUBSTRUCTURE
  1 ****   9 GROUP 4 **** **** 0

# MOE 2024.06 (io_trps.svl 2023.06)
