@<TRIPOS>MOLECULE
NONAME
35 35 1 0 0 
SMALL
USER_CHARGES


@<TRIPOS>ATOM
  1 S        0.1550     0.4770     0.7650 S.o2  1 <1>   1.3330 
  2 O        0.7490     1.0610     1.9420 O.2   1 <1>  -0.6500 
  3 O       -0.8250    -0.5770     0.8830 O.2   1 <1>  -0.6500 
  4 N        1.4550    -0.1160    -0.0960 N.am  1 <1>  -0.9140 
  5 C       -0.4800     1.7700    -0.3110 C.3   1 <1>  -0.0550 
  6 C        1.8650    -1.4170     0.3680 C.3   1 <1>   0.4190 
  7 C       -1.6850     2.5380     0.2610 C.3   1 <1>  -0.2400 
  8 C        3.3870    -1.3860     0.4570 C.ar  1 <1>  -0.1440 
  9 C        1.3470    -2.4910    -0.6010 C.3   1 <1>  -0.1600 
 10 C        4.0110    -1.5830     1.6800 C.ar  1 <1>  -0.1500 
 11 C        4.1720    -1.1510    -0.6640 C.ar  1 <1>  -0.1500 
 12 C        1.7650    -3.9140    -0.1970 C.3   1 <1>  -0.2400 
 13 C        5.3910    -1.5530     1.7790 C.ar  1 <1>  -0.1500 
 14 C        5.5520    -1.1210    -0.5650 C.ar  1 <1>  -0.1500 
 15 C        6.1700    -1.3240     0.6570 C.ar  1 <1>  -0.1430 
 16 C        7.6830    -1.2900     0.7680 C.3   1 <1>  -0.0970 
 17 H        2.2280     0.4760     0.2050 H     1 <1>   0.4200 
 18 H       -0.7690     1.3280    -1.2450 H     1 <1>   0.0800 
 19 H        0.3070     2.4710    -0.5140 H     1 <1>   0.0800 
 20 H        1.4690    -1.6120     1.3530 H     1 <1>   0.0800 
 21 H       -2.5000     1.8610     0.4480 H     1 <1>   0.0800 
 22 H       -2.0110     3.2910    -0.4340 H     1 <1>   0.0800 
 23 H       -1.4140     3.0140     1.1880 H     1 <1>   0.0800 
 24 H        1.7080    -2.2870    -1.5930 H     1 <1>   0.0800 
 25 H        0.2720    -2.4480    -0.6250 H     1 <1>   0.0800 
 26 H        3.4270    -1.7600     2.5670 H     1 <1>   0.1500 
 27 H        3.7100    -0.9880    -1.6230 H     1 <1>   0.1500 
 28 H        2.8370    -4.0140    -0.2110 H     1 <1>   0.0800 
 29 H        1.3490    -4.6280    -0.8860 H     1 <1>   0.0800 
 30 H        1.4080    -4.1440     0.7910 H     1 <1>   0.0800 
 31 H        5.8570    -1.7070     2.7370 H     1 <1>   0.1500 
 32 H        6.1430    -0.9380    -1.4450 H     1 <1>   0.1500 
 33 H        8.0170    -1.9500     1.5490 H     1 <1>   0.0800 
 34 H        8.0090    -0.2910     0.9950 H     1 <1>   0.0800 
 35 H        8.1360    -1.6020    -0.1560 H     1 <1>   0.0800 
@<TRIPOS>BOND
  1   1   2  2   
  2   1   3  2   
  3   1   4  am  
  4   1   5  1   
  5   4   6  1   
  6   4  17  1   
  7   5   7  1   
  8   5  18  1   
  9   5  19  1   
 10   6   8  1   
 11   6   9  1   
 12   6  20  1   
 13   7  21  1   
 14   7  22  1   
 15   7  23  1   
 16   8  10  ar  
 17   8  11  ar  
 18   9  12  1   
 19   9  24  1   
 20   9  25  1   
 21  10  13  ar  
 22  10  26  1   
 23  11  14  ar  
 24  11  27  1   
 25  12  28  1   
 26  12  29  1   
 27  12  30  1   
 28  13  15  ar  
 29  13  31  1   
 30  14  15  ar  
 31  14  32  1   
 32  15  16  1   
 33  16  33  1   
 34  16  34  1   
 35  16  35  1   
@<TRIPOS>SUBSTRUCTURE
  1 ****   6 GROUP 4 **** **** 0

# MOE 2024.06 (io_trps.svl 2023.06)
