@<TRIPOS>MOLECULE
NONAME
39 40 1 0 0 
SMALL
USER_CHARGES


@<TRIPOS>ATOM
  1 O       -0.1710     5.4650     1.0970 O.2   1 <1>  -0.5700 
  2 C       -0.3680     4.4880     0.4190 C.2   1 <1>   0.5690 
  3 N       -1.6120     4.0900     0.0780 N.am  1 <1>  -0.7300 
  4 C        0.8150     3.6820    -0.0650 C.3   1 <1>  -0.0990 
  5 C       -2.8460     4.7650     0.5120 C.3   1 <1>   0.2840 
  6 C        2.1070     4.4200     0.2900 C.3   1 <1>   0.3430 
  7 C       -4.0070     3.8540     0.1640 C.ar  1 <1>  -0.1440 
  8 N        3.3210     3.7110    -0.2200 N.4   1 <1>  -0.9590 
  9 C       -4.6360     3.9610    -1.0680 C.ar  1 <1>  -0.1500 
 10 C       -4.4430     2.8990     1.0710 C.ar  1 <1>  -0.1500 
 11 C        3.5820     2.4140     0.5030 C.3   1 <1>   0.3430 
 12 C        4.5250     4.6090    -0.1050 C.3   1 <1>   0.3430 
 13 C       -5.6880     3.1210    -1.3900 C.ar  1 <1>  -0.1500 
 14 C       -5.4950     2.0590     0.7490 C.ar  1 <1>  -0.1500 
 15 C        4.9180     1.7800     0.0680 C.3   1 <1>   0.1200 
 16 C        5.8190     3.8800    -0.5140 C.3   1 <1>   0.1200 
 17 C       -6.1170     2.1690    -0.4820 C.ar  1 <1>  -0.1500 
 18 O        5.9620     2.6980     0.2180 O.3   1 <1>  -0.5600 
 19 H       -1.7930     3.2490    -0.4740 H     1 <1>   0.3700 
 20 H        0.7350     3.5660    -1.1300 H     1 <1>   0.0800 
 21 H        0.7790     2.7220     0.4130 H     1 <1>   0.0800 
 22 H       -2.9410     5.7100     0.0050 H     1 <1>   0.0800 
 23 H       -2.8110     4.9480     1.5740 H     1 <1>   0.0800 
 24 H        2.1690     4.5350     1.3610 H     1 <1>   0.0800 
 25 H        2.0590     5.4090    -0.1370 H     1 <1>   0.0800 
 26 H        3.1910     3.5020    -1.2180 H     1 <1>   0.4500 
 27 H       -4.3100     4.6970    -1.7820 H     1 <1>   0.1500 
 28 H       -3.9660     2.8040     2.0310 H     1 <1>   0.1500 
 29 H        2.7830     1.7160     0.3150 H     1 <1>   0.0800 
 30 H        3.6240     2.5920     1.5650 H     1 <1>   0.0800 
 31 H        4.6340     4.9420     0.9150 H     1 <1>   0.0800 
 32 H        4.3960     5.4810    -0.7250 H     1 <1>   0.0800 
 33 H       -6.1730     3.2070    -2.3470 H     1 <1>   0.1500 
 34 H       -5.8310     1.3200     1.4560 H     1 <1>   0.1500 
 35 H        4.8830     1.4580    -0.9590 H     1 <1>   0.0800 
 36 H        5.1430     0.9280     0.6860 H     1 <1>   0.0800 
 37 H        6.6750     4.4990    -0.3030 H     1 <1>   0.0800 
 38 H        5.8200     3.6420    -1.5640 H     1 <1>   0.0800 
 39 H       -6.9360     1.5170    -0.7320 H     1 <1>   0.1500 
@<TRIPOS>BOND
  1   1   2  2   
  2   2   3  am  
  3   2   4  1   
  4   3   5  1   
  5   3  19  1   
  6   4   6  1   
  7   4  20  1   
  8   4  21  1   
  9   5   7  1   
 10   5  22  1   
 11   5  23  1   
 12   6   8  1   
 13   6  24  1   
 14   6  25  1   
 15   7   9  ar  
 16   7  10  ar  
 17   8  11  1   
 18   8  12  1   
 19   8  26  1   
 20   9  13  ar  
 21   9  27  1   
 22  10  14  ar  
 23  10  28  1   
 24  11  15  1   
 25  11  29  1   
 26  11  30  1   
 27  12  16  1   
 28  12  31  1   
 29  12  32  1   
 30  13  17  ar  
 31  13  33  1   
 32  14  17  ar  
 33  14  34  1   
 34  15  18  1   
 35  15  35  1   
 36  15  36  1   
 37  16  18  1   
 38  16  37  1   
 39  16  38  1   
 40  17  39  1   
@<TRIPOS>SUBSTRUCTURE
  1 ****   2 GROUP 4 **** **** 0

# MOE 2024.06 (io_trps.svl 2023.06)
