@<TRIPOS>MOLECULE
NONAME
40 41 1 0 0 
SMALL
USER_CHARGES


@<TRIPOS>ATOM
  1 CL      -1.3920    -1.2320    -3.5560 Cl    1 <1>  -0.1770 
  2 C       -2.4650    -1.5600    -2.2220 C.ar  1 <1>   0.1770 
  3 C       -3.7120    -2.1000    -2.4690 C.ar  1 <1>  -0.1500 
  4 C       -2.0560    -1.2760    -0.9340 C.ar  1 <1>  -0.1500 
  5 C       -4.5600    -2.3560    -1.4050 C.ar  1 <1>  -0.1500 
  6 C       -2.9150    -1.5370     0.1220 C.ar  1 <1>  -0.1500 
  7 C       -4.1800    -2.0770    -0.0940 C.ar  1 <1>  -0.0090 
  8 S       -5.3120    -2.4080     1.2870 S.o2  1 <1>   1.4470 
  9 O       -4.8120    -1.8160     2.5080 O.2   1 <1>  -0.6500 
 10 O       -5.6840    -3.8060     1.2680 O.2   1 <1>  -0.6500 
 11 N       -6.7010    -1.5380     0.8640 N.am  1 <1>  -0.8490 
 12 C       -7.8250    -1.9170     1.7650 C.3   1 <1>   0.2570 
 13 C       -6.4920    -0.0860     0.8760 C.3   1 <1>   0.1960 
 14 C       -9.2010    -1.3590     1.3770 C.2   1 <1>   0.5690 
 15 C       -7.0770     0.5100    -0.4000 C.3   1 <1>  -0.2400 
 16 O       -9.6840    -0.4960     2.0750 O.2   1 <1>  -0.5700 
 17 N       -9.8540    -1.8320     0.2680 N.am  1 <1>  -0.6600 
 18 C       -9.2860    -2.7790    -0.7160 C.3   1 <1>   0.1400 
 19 C      -11.1510    -1.2940    -0.1910 C.3   1 <1>   0.1400 
 20 C      -10.3920    -2.9760    -1.7470 C.3   1 <1>  -0.1600 
 21 C      -11.2420    -1.7110    -1.6540 C.3   1 <1>  -0.1600 
 22 H       -4.0100    -2.3160    -3.4800 H     1 <1>   0.1500 
 23 H       -1.0790    -0.8590    -0.7630 H     1 <1>   0.1500 
 24 H       -5.5350    -2.7780    -1.5890 H     1 <1>   0.1500 
 25 H       -2.5980    -1.3170     1.1290 H     1 <1>   0.1500 
 26 H       -7.6020    -1.5980     2.7690 H     1 <1>   0.0800 
 27 H       -7.9230    -2.9870     1.7890 H     1 <1>   0.0800 
 28 H       -5.4400     0.1490     0.9040 H     1 <1>   0.0800 
 29 H       -6.9450     0.3680     1.7440 H     1 <1>   0.0800 
 30 H       -6.6230     0.0600    -1.2640 H     1 <1>   0.0800 
 31 H       -6.8830     1.5670    -0.4240 H     1 <1>   0.0800 
 32 H       -8.1410     0.3660    -0.4400 H     1 <1>   0.0800 
 33 H       -9.0120    -3.7090    -0.2490 H     1 <1>   0.0800 
 34 H       -8.4200    -2.3320    -1.1760 H     1 <1>   0.0800 
 35 H      -11.1890    -0.2240    -0.0760 H     1 <1>   0.0800 
 36 H      -11.9400    -1.7480     0.3840 H     1 <1>   0.0800 
 37 H      -10.9810    -3.8320    -1.4670 H     1 <1>   0.0800 
 38 H       -9.9950    -3.1330    -2.7350 H     1 <1>   0.0800 
 39 H      -10.8120    -0.9360    -2.2640 H     1 <1>   0.0800 
 40 H      -12.2600    -1.8750    -1.9600 H     1 <1>   0.0800 
@<TRIPOS>BOND
  1   1   2  1   
  2   2   3  ar  
  3   2   4  ar  
  4   3   5  ar  
  5   3  22  1   
  6   4   6  ar  
  7   4  23  1   
  8   5   7  ar  
  9   5  24  1   
 10   6   7  ar  
 11   6  25  1   
 12   7   8  1   
 13   8   9  2   
 14   8  10  2   
 15   8  11  am  
 16  11  12  1   
 17  11  13  1   
 18  12  14  1   
 19  12  26  1   
 20  12  27  1   
 21  13  15  1   
 22  13  28  1   
 23  13  29  1   
 24  14  16  2   
 25  14  17  am  
 26  15  30  1   
 27  15  31  1   
 28  15  32  1   
 29  17  18  1   
 30  17  19  1   
 31  18  20  1   
 32  18  33  1   
 33  18  34  1   
 34  19  21  1   
 35  19  35  1   
 36  19  36  1   
 37  20  21  1   
 38  20  37  1   
 39  20  38  1   
 40  21  39  1   
 41  21  40  1   
@<TRIPOS>SUBSTRUCTURE
  1 ****  11 GROUP 4 **** **** 0

# MOE 2024.06 (io_trps.svl 2023.06)
