@<TRIPOS>MOLECULE
NONAME
47 48 1 0 0 
SMALL
USER_CHARGES


@<TRIPOS>ATOM
  1 O        0.1870     0.3620     0.1270 O.2   1 <1>  -0.5700 
  2 C       -0.8560    -0.1730     0.4100 C.2   1 <1>   0.5690 
  3 N       -1.9910     0.5060     0.7290 N.am  1 <1>  -0.5470 
  4 C       -0.9140    -1.6920     0.4170 C.3   1 <1>  -0.0990 
  5 C       -2.3360     1.8640     0.7470 C.ar  1 <1>   0.1170 
  6 C       -2.1860    -2.3010    -0.2140 C.3   1 <1>  -0.0800 
  7 C       -3.7080     2.1530     0.7410 C.ar  1 <1>   0.1000 
  8 C       -1.4130     2.8980     0.7810 C.ar  1 <1>  -0.1500 
  9 C       -2.1390    -3.8300    -0.1170 C.3   1 <1>  -0.2400 
 10 C       -2.3450    -1.8830    -1.6820 C.3   1 <1>  -0.2400 
 11 N       -4.6410     1.1010     0.6850 N.pl3 1 <1>  -0.8380 
 12 C       -4.1180     3.4790     0.7710 C.ar  1 <1>  -0.1500 
 13 C       -1.8370     4.2160     0.8110 C.ar  1 <1>  -0.1500 
 14 C       -5.2640     0.8790    -0.6530 C.3   1 <1>   0.2090 
 15 C       -5.6450     1.0260     1.7900 C.3   1 <1>   0.2090 
 16 C       -3.1900     4.5060     0.8070 C.ar  1 <1>  -0.1500 
 17 C       -5.9960    -0.4750    -0.7030 C.3   1 <1>   0.1400 
 18 C       -6.3710    -0.3290     1.7730 C.3   1 <1>   0.1400 
 19 N       -6.9710    -0.6120     0.4270 N.am  1 <1>  -0.6600 
 20 C       -8.2990    -0.9230     0.3000 C.2   1 <1>   0.5690 
 21 O       -9.0410    -0.9620     1.2500 O.2   1 <1>  -0.5700 
 22 C       -8.8910    -1.2340    -1.0550 C.3   1 <1>  -0.1790 
 23 H       -2.8390    -0.0520     0.8420 H     1 <1>   0.3700 
 24 H       -0.8320    -2.0130     1.4390 H     1 <1>   0.0800 
 25 H       -0.0480    -2.0600    -0.1050 H     1 <1>   0.0800 
 26 H       -3.0490    -1.9650     0.3360 H     1 <1>   0.0800 
 27 H       -0.3610     2.6770     0.7860 H     1 <1>   0.1500 
 28 H       -1.2960    -4.2200    -0.6610 H     1 <1>   0.0800 
 29 H       -3.0370    -4.2600    -0.5250 H     1 <1>   0.0800 
 30 H       -2.0560    -4.1400     0.9100 H     1 <1>   0.0800 
 31 H       -1.4890    -2.1930    -2.2560 H     1 <1>   0.0800 
 32 H       -2.4430    -0.8160    -1.7700 H     1 <1>   0.0800 
 33 H       -3.2220    -2.3370    -2.1080 H     1 <1>   0.0800 
 34 H       -5.1660     3.7100     0.7630 H     1 <1>   0.1500 
 35 H       -1.1120     5.0110     0.8370 H     1 <1>   0.1500 
 36 H       -4.4990     0.9020    -1.4100 H     1 <1>   0.0800 
 37 H       -5.9630     1.6710    -0.8600 H     1 <1>   0.0800 
 38 H       -6.3690     1.8150     1.6820 H     1 <1>   0.0800 
 39 H       -5.1460     1.1550     2.7350 H     1 <1>   0.0800 
 40 H       -3.5200     5.5300     0.8300 H     1 <1>   0.1500 
 41 H       -5.2700    -1.2650    -0.6340 H     1 <1>   0.0800 
 42 H       -6.4890    -0.5640    -1.6530 H     1 <1>   0.0800 
 43 H       -7.1300    -0.3260     2.5350 H     1 <1>   0.0800 
 44 H       -5.6690    -1.1060     2.0140 H     1 <1>   0.0800 
 45 H       -8.8500    -0.3630    -1.6790 H     1 <1>   0.0800 
 46 H       -9.9190    -1.5260    -0.9400 H     1 <1>   0.0800 
 47 H       -8.3550    -2.0430    -1.5130 H     1 <1>   0.0800 
@<TRIPOS>BOND
  1   1   2  2   
  2   2   3  am  
  3   2   4  1   
  4   3   5  1   
  5   3  23  1   
  6   4   6  1   
  7   4  24  1   
  8   4  25  1   
  9   5   7  ar  
 10   5   8  ar  
 11   6   9  1   
 12   6  10  1   
 13   6  26  1   
 14   7  11  1   
 15   7  12  ar  
 16   8  13  ar  
 17   8  27  1   
 18   9  28  1   
 19   9  29  1   
 20   9  30  1   
 21  10  31  1   
 22  10  32  1   
 23  10  33  1   
 24  11  14  1   
 25  11  15  1   
 26  12  16  ar  
 27  12  34  1   
 28  13  16  ar  
 29  13  35  1   
 30  14  17  1   
 31  14  36  1   
 32  14  37  1   
 33  15  18  1   
 34  15  38  1   
 35  15  39  1   
 36  16  40  1   
 37  17  19  1   
 38  17  41  1   
 39  17  42  1   
 40  18  19  1   
 41  18  43  1   
 42  18  44  1   
 43  19  20  am  
 44  20  21  2   
 45  20  22  1   
 46  22  45  1   
 47  22  46  1   
 48  22  47  1   
@<TRIPOS>SUBSTRUCTURE
  1 ****  11 GROUP 4 **** **** 0

# MOE 2024.06 (io_trps.svl 2023.06)
