@<TRIPOS>MOLECULE
NONAME
38 39 1 0 0 
SMALL
USER_CHARGES


@<TRIPOS>ATOM
  1 F       -1.4690     0.9560     1.4260 F     1 <1>  -0.1900 
  2 C       -0.9050     1.9590     0.8060 C.ar  1 <1>   0.1900 
  3 C       -1.5590     2.5620    -0.2580 C.ar  1 <1>  -0.1440 
  4 C        0.3440     2.3650     1.2480 C.ar  1 <1>  -0.1500 
  5 C       -0.8820     3.6020    -0.8780 C.ar  1 <1>   0.1900 
  6 C       -2.9340     2.0990    -0.7170 C.3   1 <1>   0.2540 
  7 C        0.9840     3.4130     0.6050 C.ar  1 <1>  -0.1500 
  8 F       -1.4330     4.2100    -1.8960 F     1 <1>  -0.1900 
  9 C        0.3680     4.0370    -0.4690 C.ar  1 <1>  -0.1500 
 10 N       -3.9920     2.6360     0.1550 N.3   1 <1>  -0.8100 
 11 C       -4.1390     4.1030     0.0110 C.3   1 <1>   0.1100 
 12 C       -5.2780     1.9590    -0.1110 C.3   1 <1>   0.1100 
 13 C       -5.2330     4.6650     0.9330 C.3   1 <1>   0.1400 
 14 C       -6.3930     2.4640     0.8200 C.3   1 <1>   0.1400 
 15 N       -6.5210     3.9460     0.7220 N.am  1 <1>  -0.6600 
 16 C       -7.6730     4.5950     0.3750 C.2   1 <1>   0.7800 
 17 O       -7.7360     5.8040     0.2540 O.2   1 <1>  -0.5700 
 18 O       -8.7620     3.8540     0.1590 O.3   1 <1>  -0.4300 
 19 C       -9.9840     4.4540    -0.2030 C.3   1 <1>   0.1200 
 20 C      -11.0200     3.3490    -0.3820 C.3   1 <1>  -0.2400 
 21 H        0.8040     1.8640     2.0810 H     1 <1>   0.1500 
 22 H       -2.9580     1.0230    -0.6790 H     1 <1>   0.0800 
 23 H       -3.1150     2.3930    -1.7360 H     1 <1>   0.0800 
 24 H        1.9550     3.7400     0.9380 H     1 <1>   0.1500 
 25 H        0.8470     4.8500    -0.9840 H     1 <1>   0.1500 
 26 H       -4.3790     4.3510    -1.0090 H     1 <1>   0.0800 
 27 H       -3.2110     4.5860     0.2620 H     1 <1>   0.0800 
 28 H       -5.1610     0.9000     0.0410 H     1 <1>   0.0800 
 29 H       -5.5750     2.1210    -1.1330 H     1 <1>   0.0800 
 30 H       -5.3520     5.7180     0.7440 H     1 <1>   0.0800 
 31 H       -4.9270     4.5440     1.9570 H     1 <1>   0.0800 
 32 H       -6.1520     2.1990     1.8340 H     1 <1>   0.0800 
 33 H       -7.3180     1.9810     0.5610 H     1 <1>   0.0800 
 34 H       -9.8370     5.0000    -1.1200 H     1 <1>   0.0800 
 35 H      -10.2740     5.1340     0.5810 H     1 <1>   0.0800 
 36 H      -10.7090     2.6730    -1.1590 H     1 <1>   0.0800 
 37 H      -11.9640     3.7800    -0.6600 H     1 <1>   0.0800 
 38 H      -11.1460     2.8080     0.5380 H     1 <1>   0.0800 
@<TRIPOS>BOND
  1   1   2  1   
  2   2   3  ar  
  3   2   4  ar  
  4   3   5  ar  
  5   3   6  1   
  6   4   7  ar  
  7   4  21  1   
  8   5   8  1   
  9   5   9  ar  
 10   6  10  1   
 11   6  22  1   
 12   6  23  1   
 13   7   9  ar  
 14   7  24  1   
 15   9  25  1   
 16  10  11  1   
 17  10  12  1   
 18  11  13  1   
 19  11  26  1   
 20  11  27  1   
 21  12  14  1   
 22  12  28  1   
 23  12  29  1   
 24  13  15  1   
 25  13  30  1   
 26  13  31  1   
 27  14  15  1   
 28  14  32  1   
 29  14  33  1   
 30  15  16  am  
 31  16  17  2   
 32  16  18  1   
 33  18  19  1   
 34  19  20  1   
 35  19  34  1   
 36  19  35  1   
 37  20  36  1   
 38  20  37  1   
 39  20  38  1   
@<TRIPOS>SUBSTRUCTURE
  1 ****  10 GROUP 4 **** **** 0

# MOE 2024.06 (io_trps.svl 2023.06)
