@<TRIPOS>MOLECULE
NONAME
44 45 1 0 0 
SMALL
USER_CHARGES


@<TRIPOS>ATOM
  1 O       -0.2990     0.6690    -0.4130 O.2   1 <1>  -0.5700 
  2 C       -0.3460     1.8700    -0.3190 C.2   1 <1>   0.5690 
  3 N       -1.5110     2.5620    -0.3250 N.am  1 <1>  -0.7300 
  4 C        0.9370     2.6460    -0.1810 C.3   1 <1>  -0.1790 
  5 C       -2.8510     1.9420    -0.4850 C.3   1 <1>   0.1400 
  6 C       -3.4170     1.5510     0.8860 C.3   1 <1>   0.1200 
  7 O       -4.6920     0.9440     0.7360 O.3   1 <1>  -0.3630 
  8 C       -4.8420    -0.3350     0.3460 C.ar  1 <1>   0.7030 
  9 N       -3.7720    -1.0110     0.0380 N.ar  1 <1>  -0.6200 
 10 N       -6.0670    -0.7650     0.3170 N.ar  1 <1>  -0.6200 
 11 C       -4.0080    -2.2380    -0.3410 C.ar  1 <1>   0.7200 
 12 C       -6.1790    -2.0150    -0.0650 C.ar  1 <1>   0.7200 
 13 N       -5.1850    -2.7990    -0.3970 N.ar  1 <1>  -0.6200 
 14 N       -2.9230    -3.0000    -0.6960 N.pl3 1 <1>  -0.8380 
 15 N       -7.4520    -2.5450    -0.1180 N.pl3 1 <1>  -0.8380 
 16 C       -1.5970    -2.3840    -1.0290 C.3   1 <1>   0.2090 
 17 C       -2.7810    -4.3890    -0.1760 C.3   1 <1>   0.2090 
 18 C       -7.7590    -3.7990    -0.8630 C.3   1 <1>   0.1290 
 19 C       -8.6240    -1.8600     0.4960 C.3   1 <1>   0.1290 
 20 C       -0.6280    -2.5230     0.1570 C.3   1 <1>   0.1200 
 21 C       -1.7470    -4.4260     0.9650 C.3   1 <1>   0.1200 
 22 O       -0.5250    -3.8640     0.5660 O.3   1 <1>  -0.5600 
 23 H       -1.4950     3.5780    -0.2300 H     1 <1>   0.3700 
 24 H        0.9430     3.1760     0.7520 H     1 <1>   0.0800 
 25 H        1.0300     3.3420    -0.9930 H     1 <1>   0.0800 
 26 H        1.7730     1.9710    -0.2040 H     1 <1>   0.0800 
 27 H       -2.7550     1.0680    -1.1060 H     1 <1>   0.0800 
 28 H       -3.5120     2.6390    -0.9690 H     1 <1>   0.0800 
 29 H       -3.5530     2.4270     1.4920 H     1 <1>   0.0800 
 30 H       -2.7610     0.8650     1.3940 H     1 <1>   0.0800 
 31 H       -1.7060    -1.3460    -1.2880 H     1 <1>   0.0800 
 32 H       -1.1800    -2.8860    -1.8840 H     1 <1>   0.0800 
 33 H       -2.4590    -5.0350    -0.9730 H     1 <1>   0.0800 
 34 H       -3.7240    -4.7590     0.1880 H     1 <1>   0.0800 
 35 H       -7.0230    -3.9790    -1.6280 H     1 <1>   0.0800 
 36 H       -8.7230    -3.7210    -1.3360 H     1 <1>   0.0800 
 37 H       -7.7640    -4.6310    -0.1810 H     1 <1>   0.0800 
 38 H       -8.3190    -1.2860     1.3550 H     1 <1>   0.0800 
 39 H       -9.3520    -2.5850     0.8160 H     1 <1>   0.0800 
 40 H       -9.0720    -1.1980    -0.2240 H     1 <1>   0.0800 
 41 H       -0.9700    -1.9290     0.9860 H     1 <1>   0.0800 
 42 H        0.3520    -2.1840    -0.1270 H     1 <1>   0.0800 
 43 H       -1.5590    -5.4420     1.2620 H     1 <1>   0.0800 
 44 H       -2.1130    -3.8790     1.8160 H     1 <1>   0.0800 
@<TRIPOS>BOND
  1   1   2  2   
  2   2   3  am  
  3   2   4  1   
  4   3   5  1   
  5   3  23  1   
  6   4  24  1   
  7   4  25  1   
  8   4  26  1   
  9   5   6  1   
 10   5  27  1   
 11   5  28  1   
 12   6   7  1   
 13   6  29  1   
 14   6  30  1   
 15   7   8  1   
 16   8   9  ar  
 17   8  10  ar  
 18   9  11  ar  
 19  10  12  ar  
 20  11  13  ar  
 21  11  14  1   
 22  12  13  ar  
 23  12  15  1   
 24  14  16  1   
 25  14  17  1   
 26  15  18  1   
 27  15  19  1   
 28  16  20  1   
 29  16  31  1   
 30  16  32  1   
 31  17  21  1   
 32  17  33  1   
 33  17  34  1   
 34  18  35  1   
 35  18  36  1   
 36  18  37  1   
 37  19  38  1   
 38  19  39  1   
 39  19  40  1   
 40  20  22  1   
 41  20  41  1   
 42  20  42  1   
 43  21  22  1   
 44  21  43  1   
 45  21  44  1   
@<TRIPOS>SUBSTRUCTURE
  1 ****   9 GROUP 4 **** **** 0

# MOE 2024.06 (io_trps.svl 2023.06)
