@<TRIPOS>MOLECULE
NONAME
48 50 1 0 0 
SMALL
USER_CHARGES


@<TRIPOS>ATOM
  1 O        0.4380     1.4570    -1.3290 O.2   1 <1>  -0.5700 
  2 C        0.0860     1.8580    -0.2430 C.2   1 <1>   0.5690 
  3 N        0.7620     1.4730     0.8790 N.am  1 <1>  -0.7300 
  4 C       -1.1230     2.8210    -0.1400 C.3   1 <1>   0.2040 
  5 C        1.9280     0.5460     0.8860 C.3   1 <1>   0.1400 
  6 C       -2.4170     1.9620    -0.1160 C.ar  1 <1>  -0.1440 
  7 C       -1.0470     3.6870     1.1480 C.3   1 <1>  -0.1600 
  8 C       -1.0560     3.8280    -1.3200 C.3   1 <1>  -0.1600 
  9 C        3.1840     1.1990     0.2910 C.3   1 <1>   0.2000 
 10 C       -2.6550     1.1230     0.9700 C.ar  1 <1>  -0.1500 
 11 C       -3.3590     1.9580    -1.1440 C.ar  1 <1>  -0.1500 
 12 C       -2.1040     4.7930     1.1430 C.3   1 <1>   0.1200 
 13 C       -2.0610     4.9810    -1.1870 C.3   1 <1>   0.1200 
 14 O        4.2890     0.4020     0.5650 O.3   1 <1>  -0.5600 
 15 C        3.5580     2.5530     0.8830 C.3   1 <1>  -0.1600 
 16 C       -3.7940     0.3440     1.0450 C.ar  1 <1>  -0.1500 
 17 C       -4.5020     1.1800    -1.0760 C.ar  1 <1>  -0.1500 
 18 O       -1.8790     5.6100     0.0400 O.3   1 <1>  -0.5600 
 19 C        5.4540     1.1480     0.4230 C.3   1 <1>   0.1200 
 20 C        5.0700     2.5950     0.7240 C.3   1 <1>  -0.1600 
 21 C       -4.7300     0.3680     0.0280 C.ar  1 <1>   0.0820 
 22 O       -5.8220    -0.4210     0.1780 O.3   1 <1>  -0.3620 
 23 C       -6.8100    -0.5020    -0.8250 C.3   1 <1>   0.0400 
 24 H        0.4880     1.8410     1.7890 H     1 <1>   0.3700 
 25 H        1.6850    -0.3290     0.3070 H     1 <1>   0.0800 
 26 H        2.1310     0.2440     1.8990 H     1 <1>   0.0800 
 27 H       -0.0800     4.1560     1.2130 H     1 <1>   0.0800 
 28 H       -1.1770     3.0960     2.0330 H     1 <1>   0.0800 
 29 H       -1.1940     3.3220    -2.2580 H     1 <1>   0.0800 
 30 H       -0.0720     4.2600    -1.3540 H     1 <1>   0.0800 
 31 H        3.0920     1.2670    -0.7810 H     1 <1>   0.0800 
 32 H       -1.9500     1.0520     1.7780 H     1 <1>   0.1500 
 33 H       -3.2270     2.5510    -2.0280 H     1 <1>   0.1500 
 34 H       -2.0190     5.4040     2.0240 H     1 <1>   0.0800 
 35 H       -3.1030     4.3930     1.0870 H     1 <1>   0.0800 
 36 H       -3.0810     4.6440    -1.2460 H     1 <1>   0.0800 
 37 H       -1.8940     5.7140    -1.9570 H     1 <1>   0.0800 
 38 H        3.2940     2.5800     1.9260 H     1 <1>   0.0800 
 39 H        3.0630     3.3570     0.3670 H     1 <1>   0.0800 
 40 H       -3.9640    -0.2950     1.8920 H     1 <1>   0.1500 
 41 H       -5.1980     1.2170    -1.8910 H     1 <1>   0.1500 
 42 H        5.7990     1.0380    -0.5910 H     1 <1>   0.0800 
 43 H        6.1910     0.7680     1.1090 H     1 <1>   0.0800 
 44 H        5.5510     2.9440     1.6210 H     1 <1>   0.0800 
 45 H        5.3590     3.2260    -0.0980 H     1 <1>   0.0800 
 46 H       -7.5640    -1.1930    -0.4960 H     1 <1>   0.0800 
 47 H       -6.3570    -0.8600    -1.7330 H     1 <1>   0.0800 
 48 H       -7.2430     0.4730    -0.9670 H     1 <1>   0.0800 
@<TRIPOS>BOND
  1   1   2  2   
  2   2   3  am  
  3   2   4  1   
  4   3   5  1   
  5   3  24  1   
  6   4   6  1   
  7   4   7  1   
  8   4   8  1   
  9   5   9  1   
 10   5  25  1   
 11   5  26  1   
 12   6  10  ar  
 13   6  11  ar  
 14   7  12  1   
 15   7  27  1   
 16   7  28  1   
 17   8  13  1   
 18   8  29  1   
 19   8  30  1   
 20   9  14  1   
 21   9  15  1   
 22   9  31  1   
 23  10  16  ar  
 24  10  32  1   
 25  11  17  ar  
 26  11  33  1   
 27  12  18  1   
 28  12  34  1   
 29  12  35  1   
 30  13  18  1   
 31  13  36  1   
 32  13  37  1   
 33  14  19  1   
 34  15  20  1   
 35  15  38  1   
 36  15  39  1   
 37  16  21  ar  
 38  16  40  1   
 39  17  21  ar  
 40  17  41  1   
 41  19  20  1   
 42  19  42  1   
 43  19  43  1   
 44  20  44  1   
 45  20  45  1   
 46  21  22  1   
 47  22  23  1   
 48  23  46  1   
 49  23  47  1   
 50  23  48  1   
@<TRIPOS>SUBSTRUCTURE
  1 ****   4 GROUP 4 **** **** 0

# MOE 2024.06 (io_trps.svl 2023.06)
