@<TRIPOS>MOLECULE
NONAME
40 41 1 0 0 
SMALL
USER_CHARGES


@<TRIPOS>ATOM
  1 BR       0.5090    -0.2460     1.6560 Br    1 <1>  -0.1110 
  2 C        2.2420    -0.8560     1.0800 C.ar  1 <1>   0.1110 
  3 C        3.1900    -1.1680     2.0350 C.ar  1 <1>  -0.1500 
  4 C        2.4910    -0.9670    -0.2750 C.ar  1 <1>  -0.1500 
  5 C        4.4330    -1.6050     1.6120 C.ar  1 <1>  -0.1500 
  6 C        3.7380    -1.4050    -0.6890 C.ar  1 <1>  -0.1500 
  7 C        4.7150    -1.7230     0.2570 C.ar  1 <1>   0.0830 
  8 O        5.9610    -2.1520    -0.0640 O.3   1 <1>  -0.3630 
  9 C        6.3580    -2.3120    -1.4190 C.3   1 <1>   0.1810 
 10 C        7.8050    -2.7940    -1.5300 C.2   1 <1>   0.5690 
 11 O        8.0240    -3.6860    -2.3150 O.2   1 <1>  -0.5700 
 12 N        8.8380    -2.2380    -0.8040 N.am  1 <1>  -0.6600 
 13 C       10.1790    -2.9050    -0.7620 C.3   1 <1>   0.1400 
 14 C        8.7150    -1.0220     0.0620 C.3   1 <1>   0.1400 
 15 C       11.3130    -1.8960    -1.0080 C.3   1 <1>   0.3430 
 16 C        9.8880    -0.0460    -0.1630 C.3   1 <1>   0.3430 
 17 N       11.2300    -0.7220    -0.0720 N.4   1 <1>  -0.9590 
 18 C       12.3510     0.2180    -0.2900 C.3   1 <1>   0.4810 
 19 C       12.4440     1.0900     0.9400 C.2   1 <1>  -0.2880 
 20 C       13.3590     0.9630     1.9070 C.2   1 <1>  -0.3000 
 21 H        2.9580    -1.0720     3.0810 H     1 <1>   0.1500 
 22 H        1.7240    -0.7160    -0.9860 H     1 <1>   0.1500 
 23 H        5.1890    -1.8610     2.3330 H     1 <1>   0.1500 
 24 H        3.9210    -1.4930    -1.7430 H     1 <1>   0.1500 
 25 H        6.2550    -1.3690    -1.9220 H     1 <1>   0.0800 
 26 H        5.7090    -3.0390    -1.8720 H     1 <1>   0.0800 
 27 H       10.2420    -3.6810    -1.5050 H     1 <1>   0.0800 
 28 H       10.3090    -3.3720     0.1990 H     1 <1>   0.0800 
 29 H        8.6860    -1.3270     1.0950 H     1 <1>   0.0800 
 30 H        7.8000    -0.4980    -0.1470 H     1 <1>   0.0800 
 31 H       11.2480    -1.5560    -2.0290 H     1 <1>   0.0800 
 32 H       12.2590    -2.3990    -0.8860 H     1 <1>   0.0800 
 33 H        9.8250     0.7450     0.5670 H     1 <1>   0.0800 
 34 H        9.7750     0.3990    -1.1380 H     1 <1>   0.0800 
 35 H       11.3400    -1.0670     0.8910 H     1 <1>   0.4500 
 36 H       12.1980     0.8130    -1.1760 H     1 <1>   0.0800 
 37 H       13.2720    -0.3330    -0.3970 H     1 <1>   0.0800 
 38 H       11.6900     1.8590     0.9730 H     1 <1>   0.1500 
 39 H       13.4090     1.6040     2.7730 H     1 <1>   0.1500 
 40 H       14.1420     0.2220     1.9280 H     1 <1>   0.1500 
@<TRIPOS>BOND
  1   1   2  1   
  2   2   3  ar  
  3   2   4  ar  
  4   3   5  ar  
  5   3  21  1   
  6   4   6  ar  
  7   4  22  1   
  8   5   7  ar  
  9   5  23  1   
 10   6   7  ar  
 11   6  24  1   
 12   7   8  1   
 13   8   9  1   
 14   9  10  1   
 15   9  25  1   
 16   9  26  1   
 17  10  11  2   
 18  10  12  am  
 19  12  13  1   
 20  12  14  1   
 21  13  15  1   
 22  13  27  1   
 23  13  28  1   
 24  14  16  1   
 25  14  29  1   
 26  14  30  1   
 27  15  17  1   
 28  15  31  1   
 29  15  32  1   
 30  16  17  1   
 31  16  33  1   
 32  16  34  1   
 33  17  18  1   
 34  17  35  1   
 35  18  19  1   
 36  18  36  1   
 37  18  37  1   
 38  19  20  2   
 39  19  38  1   
 40  20  39  1   
 41  20  40  1   
@<TRIPOS>SUBSTRUCTURE
  1 ****  14 GROUP 4 **** **** 0

# MOE 2024.06 (io_trps.svl 2023.06)
