@<TRIPOS>MOLECULE
NONAME
35 36 1 0 0 
SMALL
USER_CHARGES


@<TRIPOS>ATOM
  1 O       -8.2050     2.7860    -0.0250 O.3   1 <1>  -0.3630 
  2 C       -9.4050     2.1540    -0.0340 C.ar  1 <1>   0.0830 
  3 C       -7.0000     2.0660    -0.0010 C.3   1 <1>   0.1200 
  4 C      -10.5310     2.9640    -0.0560 C.ar  1 <1>  -0.1500 
  5 C       -9.5510     0.7640    -0.0220 C.ar  1 <1>  -0.1500 
  6 C       -5.8680     3.0950     0.0040 C.3   1 <1>   0.3430 
  7 C      -11.7850     2.3830    -0.0650 C.ar  1 <1>  -0.1440 
  8 C      -10.8150     0.1950    -0.0320 C.ar  1 <1>  -0.1500 
  9 N       -4.5230     2.4430     0.0300 N.4   1 <1>  -0.9060 
 10 C      -11.9240     1.0190    -0.0540 C.ar  1 <1>  -0.1430 
 11 C      -13.1260     3.0730    -0.0890 C.3   1 <1>  -0.0170 
 12 C       -3.4270     3.4360     0.0350 C.3   1 <1>   0.3430 
 13 C      -13.3780     0.6160    -0.0680 C.3   1 <1>  -0.0170 
 14 C      -14.1170     1.9360     0.2180 C.3   1 <1>  -0.1600 
 15 C       -2.1070     2.6820     0.0610 C.3   1 <1>  -0.2400 
 16 H       -6.9640     1.4500    -0.8820 H     1 <1>   0.0800 
 17 H       -6.9880     1.4690     0.8940 H     1 <1>   0.0800 
 18 H      -10.4260     4.0330    -0.0650 H     1 <1>   0.1500 
 19 H       -8.7050     0.1060    -0.0050 H     1 <1>   0.1500 
 20 H       -5.9810     3.7260     0.8710 H     1 <1>   0.0800 
 21 H       -5.9570     3.7070    -0.8790 H     1 <1>   0.0800 
 22 H      -10.9360    -0.8740    -0.0230 H     1 <1>   0.1500 
 23 H       -4.4120     1.8310    -0.7890 H     1 <1>   0.4500 
 24 H       -4.4350     1.8490     0.8640 H     1 <1>   0.4500 
 25 H      -13.3030     3.4770    -1.0700 H     1 <1>   0.0800 
 26 H      -13.1820     3.8560     0.6460 H     1 <1>   0.0800 
 27 H       -3.5020     4.0720     0.9030 H     1 <1>   0.0800 
 28 H       -3.4780     4.0540    -0.8490 H     1 <1>   0.0800 
 29 H      -13.5910    -0.1260     0.6810 H     1 <1>   0.0800 
 30 H      -13.6360     0.2400    -1.0420 H     1 <1>   0.0800 
 31 H      -15.0180     2.0240    -0.3620 H     1 <1>   0.0800 
 32 H      -14.3680     1.9710     1.2640 H     1 <1>   0.0800 
 33 H       -2.0220     2.0800     0.9490 H     1 <1>   0.0800 
 34 H       -1.2960     3.3900     0.0650 H     1 <1>   0.0800 
 35 H       -1.9970     2.0620    -0.8120 H     1 <1>   0.0800 
@<TRIPOS>BOND
  1   1   2  1   
  2   1   3  1   
  3   2   4  ar  
  4   2   5  ar  
  5   3   6  1   
  6   3  16  1   
  7   3  17  1   
  8   4   7  ar  
  9   4  18  1   
 10   5   8  ar  
 11   5  19  1   
 12   6   9  1   
 13   6  20  1   
 14   6  21  1   
 15   7  10  ar  
 16   7  11  1   
 17   8  10  ar  
 18   8  22  1   
 19   9  12  1   
 20   9  23  1   
 21   9  24  1   
 22  10  13  1   
 23  11  14  1   
 24  11  25  1   
 25  11  26  1   
 26  12  15  1   
 27  12  27  1   
 28  12  28  1   
 29  13  14  1   
 30  13  29  1   
 31  13  30  1   
 32  14  31  1   
 33  14  32  1   
 34  15  33  1   
 35  15  34  1   
 36  15  35  1   
@<TRIPOS>SUBSTRUCTURE
  1 ****   2 GROUP 4 **** **** 0

# MOE 2024.06 (io_trps.svl 2023.06)
