@<TRIPOS>MOLECULE
NONAME
51 53 1 0 0 
SMALL
USER_CHARGES


@<TRIPOS>ATOM
  1 F        1.1210    -0.2590    -0.2150 F     1 <1>  -0.1900 
  2 C        2.1740    -0.9980     0.0230 C.ar  1 <1>   0.1900 
  3 C        3.3670    -0.6760    -0.5940 C.ar  1 <1>  -0.1500 
  4 C        2.0540    -2.0720     0.8830 C.ar  1 <1>  -0.1500 
  5 C        4.4770    -1.4630    -0.3400 C.ar  1 <1>  -0.1500 
  6 C        3.1730    -2.8480     1.1280 C.ar  1 <1>  -0.1500 
  7 C        4.3930    -2.5570     0.5220 C.ar  1 <1>   0.1000 
  8 N        5.4950    -3.3690     0.7840 N.pl3 1 <1>  -0.8380 
  9 C        5.4830    -4.7750     0.2810 C.3   1 <1>   0.2090 
 10 C        6.8400    -2.7750     1.0610 C.3   1 <1>   0.2090 
 11 C        6.4770    -4.9650    -0.8850 C.3   1 <1>   0.3430 
 12 C        7.8190    -3.0100    -0.1090 C.3   1 <1>   0.3430 
 13 N        7.8510    -4.4490    -0.5580 N.4   1 <1>  -0.9590 
 14 C        8.8340    -4.6820    -1.6450 C.3   1 <1>   0.4860 
 15 C       10.2140    -4.3540    -1.1080 C.ar  1 <1>  -0.1430 
 16 C       10.7050    -5.0130     0.0150 C.ar  1 <1>   0.0830 
 17 C       10.9830    -3.3800    -1.7210 C.ar  1 <1>  -0.1500 
 18 O        9.9430    -5.9940     0.5600 O.3   1 <1>  -0.3630 
 19 C       11.9310    -4.6540     0.5720 C.ar  1 <1>  -0.1430 
 20 C       12.2220    -3.0500    -1.2060 C.ar  1 <1>  -0.1500 
 21 C       10.3780    -7.3230     0.3370 C.3   1 <1>   0.0400 
 22 C       12.7000    -3.6790    -0.0590 C.ar  1 <1>   0.0830 
 23 C       12.4460    -5.2880     1.8660 C.3   1 <1>  -0.0970 
 24 O       13.9090    -3.3760     0.4840 O.3   1 <1>  -0.3630 
 25 C       14.8080    -2.4790    -0.1300 C.3   1 <1>   0.0400 
 26 H        3.4160     0.1700    -1.2550 H     1 <1>   0.1500 
 27 H        1.1090    -2.2880     1.3480 H     1 <1>   0.1500 
 28 H        5.4070    -1.2240    -0.8170 H     1 <1>   0.1500 
 29 H        3.1100    -3.6830     1.8010 H     1 <1>   0.1500 
 30 H        4.4920    -5.0330    -0.0530 H     1 <1>   0.0800 
 31 H        5.7380    -5.4400     1.0880 H     1 <1>   0.0800 
 32 H        7.2400    -3.2190     1.9560 H     1 <1>   0.0800 
 33 H        6.7410    -1.7180     1.2440 H     1 <1>   0.0800 
 34 H        6.0890    -4.4380    -1.7410 H     1 <1>   0.0800 
 35 H        6.5260    -6.0120    -1.1340 H     1 <1>   0.0800 
 36 H        8.8050    -2.6990     0.1970 H     1 <1>   0.0800 
 37 H        7.5170    -2.3840    -0.9320 H     1 <1>   0.0800 
 38 H        8.2310    -4.9930     0.2370 H     1 <1>   0.4500 
 39 H        8.6070    -4.0630    -2.4970 H     1 <1>   0.0800 
 40 H        8.8130    -5.7160    -1.9490 H     1 <1>   0.0800 
 41 H       10.6340    -2.8670    -2.6020 H     1 <1>   0.1500 
 42 H       12.8010    -2.2970    -1.7070 H     1 <1>   0.1500 
 43 H       11.3560    -7.4600     0.7620 H     1 <1>   0.0800 
 44 H       10.4110    -7.5090    -0.7220 H     1 <1>   0.0800 
 45 H        9.6820    -7.9930     0.8090 H     1 <1>   0.0800 
 46 H       11.6550    -5.7500     2.4260 H     1 <1>   0.0800 
 47 H       12.8900    -4.5390     2.4970 H     1 <1>   0.0800 
 48 H       13.1940    -6.0250     1.6380 H     1 <1>   0.0800 
 49 H       15.7020    -2.4420     0.4680 H     1 <1>   0.0800 
 50 H       14.3570    -1.5030    -0.1690 H     1 <1>   0.0800 
 51 H       15.0440    -2.8380    -1.1150 H     1 <1>   0.0800 
@<TRIPOS>BOND
  1   1   2  1   
  2   2   3  ar  
  3   2   4  ar  
  4   3   5  ar  
  5   3  26  1   
  6   4   6  ar  
  7   4  27  1   
  8   5   7  ar  
  9   5  28  1   
 10   6   7  ar  
 11   6  29  1   
 12   7   8  1   
 13   8   9  1   
 14   8  10  1   
 15   9  11  1   
 16   9  30  1   
 17   9  31  1   
 18  10  12  1   
 19  10  32  1   
 20  10  33  1   
 21  11  13  1   
 22  11  34  1   
 23  11  35  1   
 24  12  13  1   
 25  12  36  1   
 26  12  37  1   
 27  13  14  1   
 28  13  38  1   
 29  14  15  1   
 30  14  39  1   
 31  14  40  1   
 32  15  16  ar  
 33  15  17  ar  
 34  16  18  1   
 35  16  19  ar  
 36  17  20  ar  
 37  17  41  1   
 38  18  21  1   
 39  19  22  ar  
 40  19  23  1   
 41  20  22  ar  
 42  20  42  1   
 43  21  43  1   
 44  21  44  1   
 45  21  45  1   
 46  22  24  1   
 47  23  46  1   
 48  23  47  1   
 49  23  48  1   
 50  24  25  1   
 51  25  49  1   
 52  25  50  1   
 53  25  51  1   
@<TRIPOS>SUBSTRUCTURE
  1 ****  12 GROUP 4 **** **** 0

# MOE 2024.06 (io_trps.svl 2023.06)
