@<TRIPOS>MOLECULE
NONAME
44 45 1 0 0 
SMALL
USER_CHARGES


@<TRIPOS>ATOM
  1 O        0.1300     0.9030    -1.1650 O.2   1 <1>  -0.5700 
  2 C       -0.0470     1.5850    -0.1830 C.2   1 <1>   0.5690 
  3 N       -1.2820     1.8010     0.3670 N.am  1 <1>  -0.5470 
  4 C        1.2000     2.2190     0.4560 C.3   1 <1>   0.4040 
  5 C       -2.5110     1.3200    -0.1100 C.ar  1 <1>   0.1170 
  6 N        2.4900     1.5500     0.0350 N.4   1 <1>  -0.9590 
  7 C       -3.4420     2.2230    -0.6290 C.ar  1 <1>  -0.1430 
  8 C       -2.8310    -0.0400    -0.0500 C.ar  1 <1>  -0.1430 
  9 C        2.6090     0.1740     0.5980 C.3   1 <1>   0.3430 
 10 C        3.6930     2.3880     0.2950 C.3   1 <1>   0.3430 
 11 C       -4.6660     1.7650    -1.0850 C.ar  1 <1>  -0.1500 
 12 C       -3.1430     3.7150    -0.7210 C.3   1 <1>  -0.0970 
 13 C       -4.0600    -0.4770    -0.5150 C.ar  1 <1>  -0.1500 
 14 C       -1.8710    -1.0780     0.5190 C.3   1 <1>  -0.0970 
 15 C        3.8280    -0.5240    -0.0040 C.3   1 <1>  -0.1600 
 16 C        4.9270     1.7190    -0.3120 C.3   1 <1>  -0.1600 
 17 C       -4.9760     0.4200    -1.0300 C.ar  1 <1>  -0.1500 
 18 C        5.1140     0.2880     0.2130 C.3   1 <1>  -0.0800 
 19 C        6.3010    -0.3890    -0.4780 C.3   1 <1>  -0.2400 
 20 H       -1.3840     2.4740     1.1250 H     1 <1>   0.3700 
 21 H        1.1040     2.1800     1.5270 H     1 <1>   0.0800 
 22 H        1.2240     3.2530     0.1570 H     1 <1>   0.0800 
 23 H        2.3990     1.4120    -0.9870 H     1 <1>   0.4500 
 24 H        1.7240    -0.3990     0.3660 H     1 <1>   0.0800 
 25 H        2.7150     0.2220     1.6700 H     1 <1>   0.0800 
 26 H        3.8360     2.5050     1.3570 H     1 <1>   0.0800 
 27 H        3.5670     3.3660    -0.1430 H     1 <1>   0.0800 
 28 H       -5.3910     2.4500    -1.4900 H     1 <1>   0.1500 
 29 H       -2.2480     3.8760    -1.2940 H     1 <1>   0.0800 
 30 H       -3.0180     4.1300     0.2630 H     1 <1>   0.0800 
 31 H       -3.9470     4.2390    -1.2060 H     1 <1>   0.0800 
 32 H       -4.3170    -1.5210    -0.4820 H     1 <1>   0.1500 
 33 H       -1.4340    -0.7250     1.4350 H     1 <1>   0.0800 
 34 H       -1.0940    -1.2820    -0.1940 H     1 <1>   0.0800 
 35 H       -2.3850    -1.9980     0.7310 H     1 <1>   0.0800 
 36 H        3.6590    -0.6820    -1.0550 H     1 <1>   0.0800 
 37 H        3.9350    -1.4920     0.4530 H     1 <1>   0.0800 
 38 H        5.7960     2.3050    -0.0680 H     1 <1>   0.0800 
 39 H        4.8350     1.7130    -1.3840 H     1 <1>   0.0800 
 40 H       -5.9290     0.0710    -1.3900 H     1 <1>   0.1500 
 41 H        5.3210     0.3310     1.2710 H     1 <1>   0.0800 
 42 H        6.1430    -0.4580    -1.5410 H     1 <1>   0.0800 
 43 H        6.4450    -1.3830    -0.0910 H     1 <1>   0.0800 
 44 H        7.2050     0.1690    -0.3050 H     1 <1>   0.0800 
@<TRIPOS>BOND
  1   1   2  2   
  2   2   3  am  
  3   2   4  1   
  4   3   5  1   
  5   3  20  1   
  6   4   6  1   
  7   4  21  1   
  8   4  22  1   
  9   5   7  ar  
 10   5   8  ar  
 11   6   9  1   
 12   6  10  1   
 13   6  23  1   
 14   7  11  ar  
 15   7  12  1   
 16   8  13  ar  
 17   8  14  1   
 18   9  15  1   
 19   9  24  1   
 20   9  25  1   
 21  10  16  1   
 22  10  26  1   
 23  10  27  1   
 24  11  17  ar  
 25  11  28  1   
 26  12  29  1   
 27  12  30  1   
 28  12  31  1   
 29  13  17  ar  
 30  13  32  1   
 31  14  33  1   
 32  14  34  1   
 33  14  35  1   
 34  15  18  1   
 35  15  36  1   
 36  15  37  1   
 37  16  18  1   
 38  16  38  1   
 39  16  39  1   
 40  17  40  1   
 41  18  19  1   
 42  18  41  1   
 43  19  42  1   
 44  19  43  1   
 45  19  44  1   
@<TRIPOS>SUBSTRUCTURE
  1 ****   2 GROUP 4 **** **** 0

# MOE 2024.06 (io_trps.svl 2023.06)
