@<TRIPOS>MOLECULE
NONAME
54 57 1 0 0 
SMALL
USER_CHARGES


@<TRIPOS>ATOM
  1 O       -2.6250    -2.9580     1.1890 O.2   1 <1>  -0.5700 
  2 C       -2.7400    -2.3380     0.1570 C.2   1 <1>   0.5690 
  3 N       -3.9110    -2.3230    -0.5360 N.am  1 <1>  -0.7300 
  4 C       -1.5400    -1.5530    -0.4030 C.3   1 <1>   0.1710 
  5 C       -5.1700    -2.9800    -0.0940 C.3   1 <1>   0.1400 
  6 N       -0.2020    -2.1920    -0.2190 N.3   1 <1>  -0.8100 
  7 C       -6.3510    -1.9880    -0.0190 C.3   1 <1>   0.0000 
  8 C       -0.1280    -3.5670    -0.7750 C.3   1 <1>   0.1100 
  9 C        0.9210    -1.3570    -0.6970 C.3   1 <1>   0.1100 
 10 C       -6.0690    -0.8610     1.0040 C.3   1 <1>  -0.1600 
 11 C       -7.6160    -2.7520     0.4390 C.3   1 <1>  -0.1600 
 12 C       -6.6450    -1.3460    -1.3980 C.3   1 <1>  -0.1600 
 13 C        1.2380    -4.2370    -0.4860 C.3   1 <1>   0.3430 
 14 C        2.2940    -2.0070    -0.3830 C.3   1 <1>   0.3430 
 15 C       -7.2700     0.0980     1.1020 C.3   1 <1>  -0.0800 
 16 C       -8.8260    -1.8050     0.5380 C.3   1 <1>  -0.0800 
 17 C       -7.8490    -0.3900    -1.3070 C.3   1 <1>  -0.0800 
 18 N        2.1220    -3.3260     0.3150 N.4   1 <1>  -0.9590 
 19 C       -8.5130    -0.6910     1.5530 C.3   1 <1>  -0.1600 
 20 C       -7.5380     0.7180    -0.2820 C.3   1 <1>  -0.1600 
 21 C       -9.0890    -1.1760    -0.8430 C.3   1 <1>  -0.1600 
 22 C        3.4020    -3.9570     0.7430 C.3   1 <1>   0.2630 
 23 H       -4.0080    -1.7610    -1.3820 H     1 <1>   0.3700 
 24 H       -1.5330    -0.5980     0.0910 H     1 <1>   0.0800 
 25 H       -1.7050    -1.3800    -1.4510 H     1 <1>   0.0800 
 26 H       -5.0230    -3.4290     0.8740 H     1 <1>   0.0800 
 27 H       -5.4080    -3.7700    -0.7860 H     1 <1>   0.0800 
 28 H       -0.2990    -3.5450    -1.8380 H     1 <1>   0.0800 
 29 H       -0.8990    -4.1780    -0.3360 H     1 <1>   0.0800 
 30 H        0.8780    -0.3930    -0.2190 H     1 <1>   0.0800 
 31 H        0.8360    -1.1990    -1.7590 H     1 <1>   0.0800 
 32 H       -5.1970    -0.3030     0.7130 H     1 <1>   0.0800 
 33 H       -5.8680    -1.2890     1.9710 H     1 <1>   0.0800 
 34 H       -7.4410    -3.2040     1.4000 H     1 <1>   0.0800 
 35 H       -7.8400    -3.5420    -0.2560 H     1 <1>   0.0800 
 36 H       -6.8530    -2.1140    -2.1230 H     1 <1>   0.0800 
 37 H       -5.7910    -0.7920    -1.7420 H     1 <1>   0.0800 
 38 H        1.7140    -4.4900    -1.4180 H     1 <1>   0.0800 
 39 H        1.0660    -5.1520     0.0570 H     1 <1>   0.0800 
 40 H        2.8610    -1.3360     0.2400 H     1 <1>   0.0800 
 41 H        2.8400    -2.1440    -1.3020 H     1 <1>   0.0800 
 42 H       -7.0560     0.8770     1.8150 H     1 <1>   0.0800 
 43 H       -9.6950    -2.3550     0.8580 H     1 <1>   0.0800 
 44 H       -8.0390     0.0510    -2.2710 H     1 <1>   0.0800 
 45 H        1.5320    -3.0920     1.1340 H     1 <1>   0.4500 
 46 H       -8.3390    -1.1210     2.5240 H     1 <1>   0.0800 
 47 H       -9.3560    -0.0270     1.6370 H     1 <1>   0.0800 
 48 H       -6.6790     1.2810    -0.6010 H     1 <1>   0.0800 
 49 H       -8.3690     1.3990    -0.2200 H     1 <1>   0.0800 
 50 H       -9.9370    -0.5170    -0.7860 H     1 <1>   0.0800 
 51 H       -9.3210    -1.9460    -1.5570 H     1 <1>   0.0800 
 52 H        4.0050    -4.2020    -0.1160 H     1 <1>   0.0800 
 53 H        3.2050    -4.8600     1.2970 H     1 <1>   0.0800 
 54 H        3.9570    -3.2820     1.3750 H     1 <1>   0.0800 
@<TRIPOS>BOND
  1   1   2  2   
  2   2   3  am  
  3   2   4  1   
  4   3   5  1   
  5   3  23  1   
  6   4   6  1   
  7   4  24  1   
  8   4  25  1   
  9   5   7  1   
 10   5  26  1   
 11   5  27  1   
 12   6   8  1   
 13   6   9  1   
 14   7  10  1   
 15   7  11  1   
 16   7  12  1   
 17   8  13  1   
 18   8  28  1   
 19   8  29  1   
 20   9  14  1   
 21   9  30  1   
 22   9  31  1   
 23  10  15  1   
 24  10  32  1   
 25  10  33  1   
 26  11  16  1   
 27  11  34  1   
 28  11  35  1   
 29  12  17  1   
 30  12  36  1   
 31  12  37  1   
 32  13  18  1   
 33  13  38  1   
 34  13  39  1   
 35  14  18  1   
 36  14  40  1   
 37  14  41  1   
 38  15  19  1   
 39  15  20  1   
 40  15  42  1   
 41  16  19  1   
 42  16  21  1   
 43  16  43  1   
 44  17  20  1   
 45  17  21  1   
 46  17  44  1   
 47  18  22  1   
 48  18  45  1   
 49  19  46  1   
 50  19  47  1   
 51  20  48  1   
 52  20  49  1   
 53  21  50  1   
 54  21  51  1   
 55  22  52  1   
 56  22  53  1   
 57  22  54  1   
@<TRIPOS>SUBSTRUCTURE
  1 ****   3 GROUP 4 **** **** 0

# MOE 2024.06 (io_trps.svl 2023.06)
