@<TRIPOS>MOLECULE
NONAME
30 31 1 0 0 
SMALL
USER_CHARGES


@<TRIPOS>ATOM
  1 F        0.2520    -0.9860    -0.5060 F     1 <1>  -0.3400 
  2 C        1.1780    -1.9350    -0.4360 C.3   1 <1>   1.1640 
  3 F        0.6420    -2.9300     0.2580 F     1 <1>  -0.3400 
  4 F        1.3400    -2.3890    -1.6720 F     1 <1>  -0.3400 
  5 C        2.4900    -1.4540     0.1730 C.ar  1 <1>  -0.1440 
  6 C        3.5550    -2.3380     0.2300 C.ar  1 <1>   0.1600 
  7 C        2.6700    -0.1730     0.6770 C.ar  1 <1>  -0.1500 
  8 N        4.7490    -2.0640     0.7280 N.ar  1 <1>  -0.6200 
  9 C        3.9060     0.1230     1.2010 C.ar  1 <1>  -0.1500 
 10 C        4.9060    -0.8420     1.2030 C.ar  1 <1>   0.4100 
 11 N        6.1430    -0.5830     1.7100 N.pl3 1 <1>  -0.8690 
 12 C        7.0190     0.3880     1.0140 C.3   1 <1>   0.2090 
 13 C        8.0100    -0.3480     0.0960 C.3   1 <1>   0.2000 
 14 O        8.7670    -1.2630     0.8240 O.3   1 <1>  -0.5600 
 15 C        9.0480     0.5500    -0.5620 C.3   1 <1>  -0.1600 
 16 C        9.9340    -1.5760     0.1350 C.3   1 <1>   0.1200 
 17 C       10.2120    -0.3990    -0.8000 C.3   1 <1>  -0.1600 
 18 H        3.4260    -3.3370    -0.1550 H     1 <1>   0.1500 
 19 H        1.8830     0.5650     0.6690 H     1 <1>   0.1500 
 20 H        4.1180     1.0890     1.6190 H     1 <1>   0.1500 
 21 H        6.6690    -1.4610     1.8150 H     1 <1>   0.4000 
 22 H        7.5640     0.9570     1.7460 H     1 <1>   0.0800 
 23 H        6.4270     1.0680     0.4280 H     1 <1>   0.0800 
 24 H        7.4690    -0.9000    -0.6550 H     1 <1>   0.0800 
 25 H        9.3420     1.3290     0.1200 H     1 <1>   0.0800 
 26 H        8.6790     0.9900    -1.4710 H     1 <1>   0.0800 
 27 H        9.7650    -2.4850    -0.4170 H     1 <1>   0.0800 
 28 H       10.7230    -1.7210     0.8520 H     1 <1>   0.0800 
 29 H       11.1560     0.0640    -0.5730 H     1 <1>   0.0800 
 30 H       10.2260    -0.7450    -1.8180 H     1 <1>   0.0800 
@<TRIPOS>BOND
  1   1   2  1   
  2   2   3  1   
  3   2   4  1   
  4   2   5  1   
  5   5   6  ar  
  6   5   7  ar  
  7   6   8  ar  
  8   6  18  1   
  9   7   9  ar  
 10   7  19  1   
 11   8  10  ar  
 12   9  10  ar  
 13   9  20  1   
 14  10  11  1   
 15  11  12  1   
 16  11  21  1   
 17  12  13  1   
 18  12  22  1   
 19  12  23  1   
 20  13  14  1   
 21  13  15  1   
 22  13  24  1   
 23  14  16  1   
 24  15  17  1   
 25  15  25  1   
 26  15  26  1   
 27  16  17  1   
 28  16  27  1   
 29  16  28  1   
 30  17  29  1   
 31  17  30  1   
@<TRIPOS>SUBSTRUCTURE
  1 ****  10 GROUP 4 **** **** 0

# MOE 2024.06 (io_trps.svl 2023.06)
