@<TRIPOS>MOLECULE
NONAME
44 45 1 0 0 
SMALL
USER_CHARGES


@<TRIPOS>ATOM
  1 S       -0.0940     0.1030    -0.3540 S.o2  1 <1>   1.4470 
  2 O        0.2320     1.0380     0.6980 O.2   1 <1>  -0.6500 
  3 O       -0.1550     0.5440    -1.7290 O.2   1 <1>  -0.6500 
  4 N       -1.6630    -0.3040     0.0640 N.am  1 <1>  -0.9140 
  5 C        0.8140    -1.4600    -0.2170 C.ar  1 <1>  -0.0090 
  6 C       -2.6100     0.6610    -0.4680 C.3   1 <1>   0.3760 
  7 C        2.1990    -1.4530    -0.0930 C.ar  1 <1>   0.0830 
  8 C        0.1630    -2.6880    -0.2600 C.ar  1 <1>  -0.1500 
  9 C       -3.9870     0.4300     0.1320 C.2   1 <1>  -0.0400 
 10 O        2.8130    -0.2420    -0.0920 O.3   1 <1>  -0.3630 
 11 C        2.9050    -2.6490     0.0150 C.ar  1 <1>  -0.1500 
 12 C        0.8620    -3.8860    -0.1560 C.ar  1 <1>   0.0830 
 13 O       -4.9330     1.3160    -0.1220 O.3   1 <1>  -0.2800 
 14 C       -4.4700    -0.5570     0.9200 C.2   1 <1>  -0.1500 
 15 C        4.2020    -0.1000     0.0870 C.3   1 <1>   0.1200 
 16 C        2.2440    -3.8630    -0.0120 C.ar  1 <1>  -0.1430 
 17 O        0.2530    -5.1030    -0.1890 O.3   1 <1>  -0.3630 
 18 C       -6.0290     0.9200     0.4930 C.2   1 <1>  -0.0100 
 19 C       -5.8120    -0.2340     1.1580 C.2   1 <1>  -0.1500 
 20 C        4.5210     1.3910     0.0730 C.3   1 <1>  -0.2400 
 21 C        3.0300    -5.1620     0.1090 C.3   1 <1>  -0.0970 
 22 C       -1.1270    -5.2360    -0.4380 C.3   1 <1>   0.1200 
 23 C       -1.4590    -6.7250    -0.4640 C.3   1 <1>  -0.2400 
 24 H       -1.6680    -0.1430     1.0690 H     1 <1>   0.4200 
 25 H       -2.6720     0.5690    -1.5390 H     1 <1>   0.0800 
 26 H       -2.2910     1.6640    -0.2290 H     1 <1>   0.0800 
 27 H       -0.9030    -2.6950    -0.3800 H     1 <1>   0.1500 
 28 H        3.9730    -2.6490     0.1180 H     1 <1>   0.1500 
 29 H       -3.9620    -1.4250     1.3010 H     1 <1>   0.1500 
 30 H        4.7050    -0.6050    -0.7190 H     1 <1>   0.0800 
 31 H        4.4710    -0.5380     1.0330 H     1 <1>   0.0800 
 32 H       -6.9190     1.5180     0.4040 H     1 <1>   0.1500 
 33 H       -6.5000    -0.8100     1.7510 H     1 <1>   0.1500 
 34 H        4.2340     1.8210    -0.8700 H     1 <1>   0.0800 
 35 H        5.5760     1.5410     0.2140 H     1 <1>   0.0800 
 36 H        3.9930     1.8880     0.8680 H     1 <1>   0.0800 
 37 H        4.0820    -4.9750     0.2240 H     1 <1>   0.0800 
 38 H        2.8810    -5.7600    -0.7720 H     1 <1>   0.0800 
 39 H        2.6850    -5.7170     0.9630 H     1 <1>   0.0800 
 40 H       -1.3490    -4.7800    -1.3880 H     1 <1>   0.0800 
 41 H       -1.6660    -4.7410     0.3520 H     1 <1>   0.0800 
 42 H       -0.9030    -7.2120    -1.2450 H     1 <1>   0.0800 
 43 H       -2.5080    -6.8610    -0.6520 H     1 <1>   0.0800 
 44 H       -1.2170    -7.1730     0.4830 H     1 <1>   0.0800 
@<TRIPOS>BOND
  1   1   2  2   
  2   1   3  2   
  3   1   4  am  
  4   1   5  1   
  5   4   6  1   
  6   4  24  1   
  7   5   7  ar  
  8   5   8  ar  
  9   6   9  1   
 10   6  25  1   
 11   6  26  1   
 12   7  10  1   
 13   7  11  ar  
 14   8  12  ar  
 15   8  27  1   
 16   9  13  1   
 17   9  14  2   
 18  10  15  1   
 19  11  16  ar  
 20  11  28  1   
 21  12  16  ar  
 22  12  17  1   
 23  13  18  1   
 24  14  19  1   
 25  14  29  1   
 26  15  20  1   
 27  15  30  1   
 28  15  31  1   
 29  16  21  1   
 30  17  22  1   
 31  18  19  2   
 32  18  32  1   
 33  19  33  1   
 34  20  34  1   
 35  20  35  1   
 36  20  36  1   
 37  21  37  1   
 38  21  38  1   
 39  21  39  1   
 40  22  23  1   
 41  22  40  1   
 42  22  41  1   
 43  23  42  1   
 44  23  43  1   
 45  23  44  1   
@<TRIPOS>SUBSTRUCTURE
  1 ****   5 GROUP 4 **** **** 0

# MOE 2024.06 (io_trps.svl 2023.06)
