@<TRIPOS>MOLECULE
NONAME
48 49 1 0 0 
SMALL
USER_CHARGES


@<TRIPOS>ATOM
  1 S       -0.4520     0.4480     1.4460 S.3   1 <1>  -0.1020 
  2 S       -1.6100    -0.9740     2.6270 S.3   1 <1>  -0.1020 
  3 C        1.0050    -0.5110     0.9640 C.ar  1 <1>   0.1020 
  4 C       -2.9630    -1.5160     1.5400 C.ar  1 <1>   0.1020 
  5 C        0.9200    -1.7360     0.3080 C.ar  1 <1>   0.0830 
  6 C        2.2400     0.0300     1.2710 C.ar  1 <1>  -0.1500 
  7 C       -3.8680    -2.4560     2.0250 C.ar  1 <1>   0.0830 
  8 C       -3.1130    -1.0160     0.2550 C.ar  1 <1>  -0.1500 
  9 O       -0.2660    -2.2690    -0.0430 O.3   1 <1>  -0.5330 
 10 C        2.0800    -2.4170    -0.0150 C.ar  1 <1>  -0.1500 
 11 C        3.4030    -0.6500     0.9440 C.ar  1 <1>  -0.1430 
 12 O       -3.7520    -2.9640     3.2700 O.3   1 <1>  -0.5320 
 13 C       -4.9140    -2.8820     1.2270 C.ar  1 <1>  -0.1500 
 14 C       -4.1590    -1.4460    -0.5480 C.ar  1 <1>  -0.1430 
 15 C        3.3260    -1.8830     0.2890 C.ar  1 <1>   0.1000 
 16 C        4.7480    -0.0430     1.3220 C.3   1 <1>  -0.0970 
 17 C       -5.0770    -2.3800    -0.0580 C.ar  1 <1>   0.1000 
 18 C       -4.2690    -0.8960    -1.9630 C.3   1 <1>  -0.0970 
 19 N        4.4660    -2.5950    -0.0680 N.pl3 1 <1>  -0.8690 
 20 N       -6.1540    -2.8270    -0.8170 N.pl3 1 <1>  -0.8690 
 21 C        5.1590    -2.1680    -1.2970 C.3   1 <1>   0.2090 
 22 C       -7.2700    -1.8850    -1.0170 C.3   1 <1>   0.2090 
 23 C        6.6440    -2.4550    -1.1290 C.3   1 <1>  -0.2400 
 24 C       -8.5240    -2.4910    -0.4020 C.3   1 <1>  -0.2400 
 25 H        2.2840     0.9790     1.7730 H     1 <1>   0.1500 
 26 H       -2.4170    -0.3000    -0.1320 H     1 <1>   0.1500 
 27 H       -0.1990    -3.1660    -0.4120 H     1 <1>   0.4500 
 28 H        2.0280    -3.3630    -0.5170 H     1 <1>   0.1500 
 29 H       -4.4490    -3.6060     3.4880 H     1 <1>   0.4500 
 30 H       -5.6170    -3.6030     1.5950 H     1 <1>   0.1500 
 31 H        5.3820    -0.7980     1.7510 H     1 <1>   0.0800 
 32 H        5.2280     0.3580     0.4490 H     1 <1>   0.0800 
 33 H        4.6270     0.7440     2.0430 H     1 <1>   0.0800 
 34 H       -4.5160    -1.6880    -2.6480 H     1 <1>   0.0800 
 35 H       -5.0380    -0.1470    -2.0060 H     1 <1>   0.0800 
 36 H       -3.3400    -0.4580    -2.2780 H     1 <1>   0.0800 
 37 H        4.3320    -3.6110    -0.0610 H     1 <1>   0.4000 
 38 H       -6.5120    -3.7380    -0.5170 H     1 <1>   0.4000 
 39 H        5.0020    -1.1140    -1.4620 H     1 <1>   0.0800 
 40 H        4.7660    -2.7090    -2.1410 H     1 <1>   0.0800 
 41 H       -7.4120    -1.7220    -2.0720 H     1 <1>   0.0800 
 42 H       -7.0470    -0.9390    -0.5490 H     1 <1>   0.0800 
 43 H        7.1760    -2.1420    -2.0080 H     1 <1>   0.0800 
 44 H        7.0280    -1.9140    -0.2830 H     1 <1>   0.0800 
 45 H        6.8070    -3.5070    -0.9830 H     1 <1>   0.0800 
 46 H       -9.3500    -1.8180    -0.5370 H     1 <1>   0.0800 
 47 H       -8.7630    -3.4240    -0.8810 H     1 <1>   0.0800 
 48 H       -8.3820    -2.6480     0.6520 H     1 <1>   0.0800 
@<TRIPOS>BOND
  1   1   2  1   
  2   1   3  1   
  3   2   4  1   
  4   3   5  ar  
  5   3   6  ar  
  6   4   7  ar  
  7   4   8  ar  
  8   5   9  1   
  9   5  10  ar  
 10   6  11  ar  
 11   6  25  1   
 12   7  12  1   
 13   7  13  ar  
 14   8  14  ar  
 15   8  26  1   
 16   9  27  1   
 17  10  15  ar  
 18  10  28  1   
 19  11  15  ar  
 20  11  16  1   
 21  12  29  1   
 22  13  17  ar  
 23  13  30  1   
 24  14  17  ar  
 25  14  18  1   
 26  15  19  1   
 27  16  31  1   
 28  16  32  1   
 29  16  33  1   
 30  17  20  1   
 31  18  34  1   
 32  18  35  1   
 33  18  36  1   
 34  19  21  1   
 35  19  37  1   
 36  20  22  1   
 37  20  38  1   
 38  21  23  1   
 39  21  39  1   
 40  21  40  1   
 41  22  24  1   
 42  22  41  1   
 43  22  42  1   
 44  23  43  1   
 45  23  44  1   
 46  23  45  1   
 47  24  46  1   
 48  24  47  1   
 49  24  48  1   
@<TRIPOS>SUBSTRUCTURE
  1 ****   9 GROUP 4 **** **** 0

# MOE 2024.06 (io_trps.svl 2023.06)
