@<TRIPOS>MOLECULE
NONAME
39 41 1 0 0 
SMALL
USER_CHARGES


@<TRIPOS>ATOM
  1 O        0.3350    -1.2190    -1.7170 O.3   1 <1>  -0.5600 
  2 C        0.1200    -1.1250    -0.3390 C.3   1 <1>   0.1200 
  3 C        1.5190    -0.6290    -2.1710 C.3   1 <1>   0.1200 
  4 C        1.2640    -1.8170     0.4260 C.3   1 <1>   0.3430 
  5 C        2.7360    -1.2920    -1.4980 C.3   1 <1>   0.3430 
  6 N        2.6050    -1.2880     0.0020 N.4   1 <1>  -0.9590 
  7 C        3.7330    -2.0030     0.6590 C.3   1 <1>   0.4860 
  8 C        5.0050    -1.2370     0.3580 C.ar  1 <1>  -0.1440 
  9 C        5.2320     0.0290     0.9560 C.ar  1 <1>   0.0000 
 10 C        5.9110    -1.7720    -0.5200 C.ar  1 <1>  -0.1500 
 11 C        6.3760     0.7660     0.5620 C.ar  1 <1>   0.0000 
 12 C        4.3750     0.6000     1.9300 C.ar  1 <1>  -0.1500 
 13 C        7.0600    -1.0640    -0.8730 C.ar  1 <1>  -0.1500 
 14 C        7.2910     0.1870    -0.3550 C.ar  1 <1>   0.0820 
 15 C        6.5650     2.0550     1.1070 C.ar  1 <1>  -0.1500 
 16 C        4.5960     1.8470     2.4420 C.ar  1 <1>  -0.1500 
 17 O        8.3830     0.9230    -0.6820 O.3   1 <1>  -0.3630 
 18 C        5.6990     2.5880     2.0190 C.ar  1 <1>  -0.1500 
 19 C        9.4200     0.4240    -1.4990 C.3   1 <1>   0.0400 
 20 H       -0.8180    -1.6070    -0.1220 H     1 <1>   0.0800 
 21 H        0.0410    -0.0860    -0.0700 H     1 <1>   0.0800 
 22 H        1.4850     0.4270    -1.9620 H     1 <1>   0.0800 
 23 H        1.5650    -0.7650    -3.2380 H     1 <1>   0.0800 
 24 H        1.2090    -2.8750     0.2280 H     1 <1>   0.0800 
 25 H        1.1240    -1.6680     1.4850 H     1 <1>   0.0800 
 26 H        3.6320    -0.7690    -1.7920 H     1 <1>   0.0800 
 27 H        2.8110    -2.3050    -1.8570 H     1 <1>   0.0800 
 28 H        2.6820    -0.3040     0.2920 H     1 <1>   0.4500 
 29 H        3.8080    -3.0100     0.2810 H     1 <1>   0.0800 
 30 H        3.5850    -2.0480     1.7250 H     1 <1>   0.0800 
 31 H        5.7660    -2.7430    -0.9650 H     1 <1>   0.1500 
 32 H        3.5330     0.0510     2.3020 H     1 <1>   0.1500 
 33 H        7.7430    -1.5270    -1.5610 H     1 <1>   0.1500 
 34 H        7.4210     2.6270     0.7920 H     1 <1>   0.1500 
 35 H        3.9390     2.2760     3.1800 H     1 <1>   0.1500 
 36 H        5.8620     3.5730     2.4240 H     1 <1>   0.1500 
 37 H       10.1800     1.1820    -1.5720 H     1 <1>   0.0800 
 38 H        9.0250     0.2100    -2.4760 H     1 <1>   0.0800 
 39 H        9.8300    -0.4600    -1.0440 H     1 <1>   0.0800 
@<TRIPOS>BOND
  1   1   2  1   
  2   1   3  1   
  3   2   4  1   
  4   2  20  1   
  5   2  21  1   
  6   3   5  1   
  7   3  22  1   
  8   3  23  1   
  9   4   6  1   
 10   4  24  1   
 11   4  25  1   
 12   5   6  1   
 13   5  26  1   
 14   5  27  1   
 15   6   7  1   
 16   6  28  1   
 17   7   8  1   
 18   7  29  1   
 19   7  30  1   
 20   8   9  ar  
 21   8  10  ar  
 22   9  11  ar  
 23   9  12  ar  
 24  10  13  ar  
 25  10  31  1   
 26  11  14  ar  
 27  11  15  ar  
 28  12  16  ar  
 29  12  32  1   
 30  13  14  ar  
 31  13  33  1   
 32  14  17  1   
 33  15  18  ar  
 34  15  34  1   
 35  16  18  ar  
 36  16  35  1   
 37  17  19  1   
 38  18  36  1   
 39  19  37  1   
 40  19  38  1   
 41  19  39  1   
@<TRIPOS>SUBSTRUCTURE
  1 ****   9 GROUP 4 **** **** 0

# MOE 2024.06 (io_trps.svl 2023.06)
