@<TRIPOS>MOLECULE
NONAME
40 41 1 0 0 
SMALL
USER_CHARGES


@<TRIPOS>ATOM
  1 S        0.1680     0.6900     1.2480 S.o2  1 <1>   1.4470 
  2 O       -0.0170     1.6320     2.3330 O.2   1 <1>  -0.6500 
  3 O       -0.3730    -0.6450     1.3750 O.2   1 <1>  -0.6500 
  4 N       -0.5520     1.3750    -0.1240 N.am  1 <1>  -0.8490 
  5 C        1.9210     0.5990     0.7910 C.ar  1 <1>  -0.0090 
  6 C       -2.0010     1.3110    -0.0900 C.3   1 <1>   0.1960 
  7 C       -0.2290     2.7740    -0.3450 C.3   1 <1>   0.1960 
  8 C        2.3150     0.0210    -0.4100 C.ar  1 <1>  -0.1500 
  9 C        2.9120     1.1030     1.6240 C.ar  1 <1>  -0.1500 
 10 C       -2.4540     2.2960    -1.1620 C.3   1 <1>  -0.1600 
 11 C       -1.2670     3.2400    -1.3590 C.3   1 <1>  -0.1600 
 12 C        3.6480    -0.0530    -0.7810 C.ar  1 <1>  -0.1430 
 13 C        4.2490     1.0380     1.2710 C.ar  1 <1>  -0.1500 
 14 C        4.6270     0.4600     0.0630 C.ar  1 <1>   0.0830 
 15 C        4.0280    -0.6950    -2.1080 C.3   1 <1>  -0.0970 
 16 O        5.9200     0.3690    -0.3400 O.3   1 <1>  -0.3630 
 17 C        6.9840     0.8330     0.4590 C.3   1 <1>   0.1200 
 18 C        8.2930     0.5620    -0.2840 C.3   1 <1>  -0.1600 
 19 C        9.5030     1.0410     0.5250 C.3   1 <1>  -0.2400 
 20 H       -2.3600     1.6290     0.8760 H     1 <1>   0.0800 
 21 H       -2.3460     0.3090    -0.2880 H     1 <1>   0.0800 
 22 H        0.7760     2.8880    -0.7160 H     1 <1>   0.0800 
 23 H       -0.3440     3.3360     0.5680 H     1 <1>   0.0800 
 24 H        1.5540    -0.3760    -1.0600 H     1 <1>   0.1500 
 25 H        2.6330     1.5520     2.5620 H     1 <1>   0.1500 
 26 H       -3.3390     2.8200    -0.8440 H     1 <1>   0.0800 
 27 H       -2.6670     1.7680    -2.0750 H     1 <1>   0.0800 
 28 H       -0.8690     3.1340    -2.3530 H     1 <1>   0.0800 
 29 H       -1.5320     4.2690    -1.1920 H     1 <1>   0.0800 
 30 H        4.9760     1.4420     1.9490 H     1 <1>   0.1500 
 31 H        3.1600    -1.0370    -2.6400 H     1 <1>   0.0800 
 32 H        4.6760    -1.5350    -1.9310 H     1 <1>   0.0800 
 33 H        4.5500     0.0180    -2.7210 H     1 <1>   0.0800 
 34 H        6.9610     0.3030     1.3950 H     1 <1>   0.0800 
 35 H        6.8510     1.8880     0.6210 H     1 <1>   0.0800 
 36 H        8.2740     1.0730    -1.2310 H     1 <1>   0.0800 
 37 H        8.3840    -0.4950    -0.4650 H     1 <1>   0.0800 
 38 H        9.4420     2.1010     0.7040 H     1 <1>   0.0800 
 39 H       10.4100     0.8390    -0.0180 H     1 <1>   0.0800 
 40 H        9.5510     0.5300     1.4710 H     1 <1>   0.0800 
@<TRIPOS>BOND
  1   1   2  2   
  2   1   3  2   
  3   1   4  am  
  4   1   5  1   
  5   4   6  1   
  6   4   7  1   
  7   5   8  ar  
  8   5   9  ar  
  9   6  10  1   
 10   6  20  1   
 11   6  21  1   
 12   7  11  1   
 13   7  22  1   
 14   7  23  1   
 15   8  12  ar  
 16   8  24  1   
 17   9  13  ar  
 18   9  25  1   
 19  10  11  1   
 20  10  26  1   
 21  10  27  1   
 22  11  28  1   
 23  11  29  1   
 24  12  14  ar  
 25  12  15  1   
 26  13  14  ar  
 27  13  30  1   
 28  14  16  1   
 29  15  31  1   
 30  15  32  1   
 31  15  33  1   
 32  16  17  1   
 33  17  18  1   
 34  17  34  1   
 35  17  35  1   
 36  18  19  1   
 37  18  36  1   
 38  18  37  1   
 39  19  38  1   
 40  19  39  1   
 41  19  40  1   
@<TRIPOS>SUBSTRUCTURE
  1 ****   5 GROUP 4 **** **** 0

# MOE 2024.06 (io_trps.svl 2023.06)
