@<TRIPOS>MOLECULE
NONAME
50 51 1 0 0 
SMALL
USER_CHARGES


@<TRIPOS>ATOM
  1 CL       0.5390     0.9730    -1.5700 Cl    1 <1>  -0.1770 
  2 C       -0.4160     2.0090    -0.5330 C.ar  1 <1>   0.1770 
  3 C        0.1900     2.9660     0.2740 C.ar  1 <1>   0.0830 
  4 C       -1.7880     1.8480    -0.5340 C.ar  1 <1>  -0.1500 
  5 O        1.5250     3.1520     0.2930 O.3   1 <1>  -0.3630 
  6 C       -0.6010     3.7480     1.0980 C.ar  1 <1>  -0.1500 
  7 C       -2.5940     2.6380     0.2800 C.ar  1 <1>  -0.0090 
  8 C        2.0750     3.8790    -0.7960 C.3   1 <1>   0.1810 
  9 C       -1.9760     3.5840     1.0930 C.ar  1 <1>  -0.1500 
 10 S       -4.3960     2.4570     0.2820 S.o2  1 <1>   1.4470 
 11 C        3.5670     4.1350    -0.6080 C.2   1 <1>   0.5690 
 12 O       -4.8780     2.4300     1.6440 O.2   1 <1>  -0.6500 
 13 O       -4.8000     1.4420    -0.6610 O.2   1 <1>  -0.6500 
 14 N       -4.9110     3.8780    -0.4420 N.am  1 <1>  -0.9140 
 15 O        4.3200     3.5840    -1.3800 O.2   1 <1>  -0.5700 
 16 N        4.0330     4.9930     0.3610 N.am  1 <1>  -0.6600 
 17 C       -6.1770     4.3680     0.0370 C.3   1 <1>   0.2760 
 18 C        5.4810     5.3040     0.4630 C.3   1 <1>   0.1400 
 19 C        3.1970     5.6670     1.3890 C.3   1 <1>   0.1400 
 20 C       -6.8880     5.0090    -1.1480 C.3   1 <1>  -0.2400 
 21 C       -5.9180     5.4060     1.1260 C.3   1 <1>  -0.2400 
 22 C        5.8670     6.4680    -0.4590 C.3   1 <1>  -0.1600 
 23 C        2.8890     7.1160     0.9960 C.3   1 <1>  -0.1600 
 24 C        4.8430     7.6130    -0.5890 C.3   1 <1>  -0.1600 
 25 C        4.1250     7.9940     0.7160 C.3   1 <1>  -0.1600 
 26 H       -2.2280     1.1000    -1.1720 H     1 <1>   0.1500 
 27 H       -0.1420     4.4790     1.7400 H     1 <1>   0.1500 
 28 H        1.5580     4.8160    -0.8780 H     1 <1>   0.0800 
 29 H        1.9250     3.3110    -1.6950 H     1 <1>   0.0800 
 30 H       -2.5870     4.2000     1.7340 H     1 <1>   0.1500 
 31 H       -5.0760     3.5800    -1.4000 H     1 <1>   0.4200 
 32 H       -6.7870     3.5630     0.4200 H     1 <1>   0.0800 
 33 H        6.0600     4.4340     0.2020 H     1 <1>   0.0800 
 34 H        5.7240     5.5570     1.4800 H     1 <1>   0.0800 
 35 H        3.7180     5.6530     2.3310 H     1 <1>   0.0800 
 36 H        2.2770     5.1330     1.5350 H     1 <1>   0.0800 
 37 H       -6.2970     5.8070    -1.5620 H     1 <1>   0.0800 
 38 H       -7.8300     5.4170    -0.8280 H     1 <1>   0.0800 
 39 H       -7.0860     4.2760    -1.9090 H     1 <1>   0.0800 
 40 H       -5.3030     6.2040     0.7500 H     1 <1>   0.0800 
 41 H       -5.4350     4.9550     1.9720 H     1 <1>   0.0800 
 42 H       -6.8510     5.8220     1.4620 H     1 <1>   0.0800 
 43 H        6.0550     6.0700    -1.4400 H     1 <1>   0.0800 
 44 H        6.7990     6.8700    -0.1030 H     1 <1>   0.0800 
 45 H        2.3370     7.5620     1.8040 H     1 <1>   0.0800 
 46 H        2.2420     7.1180     0.1370 H     1 <1>   0.0800 
 47 H        4.1100     7.3440    -1.3300 H     1 <1>   0.0800 
 48 H        5.3620     8.4780    -0.9660 H     1 <1>   0.0800 
 49 H        4.8090     7.9650     1.5460 H     1 <1>   0.0800 
 50 H        3.7840     9.0110     0.6190 H     1 <1>   0.0800 
@<TRIPOS>BOND
  1   1   2  1   
  2   2   3  ar  
  3   2   4  ar  
  4   3   5  1   
  5   3   6  ar  
  6   4   7  ar  
  7   4  26  1   
  8   5   8  1   
  9   6   9  ar  
 10   6  27  1   
 11   7   9  ar  
 12   7  10  1   
 13   8  11  1   
 14   8  28  1   
 15   8  29  1   
 16   9  30  1   
 17  10  12  2   
 18  10  13  2   
 19  10  14  am  
 20  11  15  2   
 21  11  16  am  
 22  14  17  1   
 23  14  31  1   
 24  16  18  1   
 25  16  19  1   
 26  17  20  1   
 27  17  21  1   
 28  17  32  1   
 29  18  22  1   
 30  18  33  1   
 31  18  34  1   
 32  19  23  1   
 33  19  35  1   
 34  19  36  1   
 35  20  37  1   
 36  20  38  1   
 37  20  39  1   
 38  21  40  1   
 39  21  41  1   
 40  21  42  1   
 41  22  24  1   
 42  22  43  1   
 43  22  44  1   
 44  23  25  1   
 45  23  45  1   
 46  23  46  1   
 47  24  25  1   
 48  24  47  1   
 49  24  48  1   
 50  25  49  1   
 51  25  50  1   
@<TRIPOS>SUBSTRUCTURE
  1 ****   3 GROUP 4 **** **** 0

# MOE 2024.06 (io_trps.svl 2023.06)
