@<TRIPOS>MOLECULE
NONAME
36 36 1 0 0 
SMALL
USER_CHARGES


@<TRIPOS>ATOM
  1 O        0.4750     0.8390     0.5730 O.co2 1 <1>  -0.9000 
  2 C       -0.0200     1.7500    -0.1170 C.2   1 <1>   0.9790 
  3 O        0.6090     2.1540    -1.1120 O.co2 1 <1>  -0.9000 
  4 C       -1.3130     2.3240     0.2280 C.ar  1 <1>  -0.1790 
  5 C       -2.0350     1.8890     1.3410 C.ar  1 <1>  -0.1500 
  6 C       -1.8900     3.3390    -0.5380 C.ar  1 <1>  -0.1500 
  7 C       -3.2690     2.4230     1.6590 C.ar  1 <1>  -0.1500 
  8 C       -3.1240     3.8720    -0.2210 C.ar  1 <1>  -0.1500 
  9 C       -3.8530     3.4150     0.8750 C.ar  1 <1>   0.0860 
 10 C       -5.1570     3.9590     1.1920 C.2   1 <1>   0.5440 
 11 O       -5.3370     4.4650     2.2860 O.2   1 <1>  -0.5700 
 12 N       -6.2050     3.9440     0.2900 N.am  1 <1>  -0.6600 
 13 C       -7.1840     5.0680     0.3330 C.3   1 <1>   0.2200 
 14 C       -6.5870     2.7310    -0.4990 C.3   1 <1>   0.2200 
 15 C       -8.4760     4.6400     1.0310 C.3   1 <1>  -0.2400 
 16 C       -7.4430     5.6160    -1.0710 C.3   1 <1>  -0.2400 
 17 C       -6.5870     1.4800     0.3800 C.3   1 <1>  -0.2400 
 18 C       -5.7010     2.5520    -1.7310 C.3   1 <1>  -0.2400 
 19 H       -1.6040     1.1160     1.9580 H     1 <1>   0.1500 
 20 H       -1.3460     3.7020    -1.3950 H     1 <1>   0.1500 
 21 H       -3.7960     2.0710     2.5280 H     1 <1>   0.1500 
 22 H       -3.5380     4.6530    -0.8310 H     1 <1>   0.1500 
 23 H       -6.7530     5.8700     0.9110 H     1 <1>   0.0800 
 24 H       -7.5930     2.8590    -0.8550 H     1 <1>   0.0800 
 25 H       -9.0110     3.9020     0.4630 H     1 <1>   0.0800 
 26 H       -9.1150     5.4940     1.1590 H     1 <1>   0.0800 
 27 H       -8.2460     4.2450     2.0040 H     1 <1>   0.0800 
 28 H       -7.9600     4.9030    -1.6850 H     1 <1>   0.0800 
 29 H       -6.5110     5.8810    -1.5350 H     1 <1>   0.0800 
 30 H       -8.0490     6.5010    -1.0040 H     1 <1>   0.0800 
 31 H       -5.5890     1.2050     0.6670 H     1 <1>   0.0800 
 32 H       -7.0140     0.6570    -0.1630 H     1 <1>   0.0800 
 33 H       -7.1780     1.6500     1.2620 H     1 <1>   0.0800 
 34 H       -4.7280     2.1870    -1.4610 H     1 <1>   0.0800 
 35 H       -6.1460     1.8290    -2.3900 H     1 <1>   0.0800 
 36 H       -5.6030     3.4810    -2.2620 H     1 <1>   0.0800 
@<TRIPOS>BOND
  1   1   2  ar  
  2   2   3  ar  
  3   2   4  1   
  4   4   5  ar  
  5   4   6  ar  
  6   5   7  ar  
  7   5  19  1   
  8   6   8  ar  
  9   6  20  1   
 10   7   9  ar  
 11   7  21  1   
 12   8   9  ar  
 13   8  22  1   
 14   9  10  1   
 15  10  11  2   
 16  10  12  am  
 17  12  13  1   
 18  12  14  1   
 19  13  15  1   
 20  13  16  1   
 21  13  23  1   
 22  14  17  1   
 23  14  18  1   
 24  14  24  1   
 25  15  25  1   
 26  15  26  1   
 27  15  27  1   
 28  16  28  1   
 29  16  29  1   
 30  16  30  1   
 31  17  31  1   
 32  17  32  1   
 33  17  33  1   
 34  18  34  1   
 35  18  35  1   
 36  18  36  1   
@<TRIPOS>SUBSTRUCTURE
  1 ****   9 GROUP 4 **** **** 0

# MOE 2024.06 (io_trps.svl 2023.06)
