@<TRIPOS>MOLECULE
NONAME
33 33 1 0 0 
SMALL
USER_CHARGES


@<TRIPOS>ATOM
  1 O       -0.8480     3.5090    -0.5460 O.2   1 <1>  -0.5700 
  2 C       -0.3800     2.6050     0.1010 C.2   1 <1>   0.5690 
  3 N       -1.0780     1.5000     0.4960 N.am  1 <1>  -0.5470 
  4 C        1.0790     2.6940     0.5130 C.3   1 <1>  -0.0990 
  5 C       -2.4010     1.0650     0.2940 C.ar  1 <1>   0.1170 
  6 C        2.0450     2.0400    -0.4920 C.3   1 <1>  -0.1600 
  7 C       -2.7260    -0.2400     0.6830 C.ar  1 <1>   0.0830 
  8 C       -3.3870     1.8690    -0.2640 C.ar  1 <1>  -0.1500 
  9 C        1.8760     0.5180    -0.5880 C.3   1 <1>  -0.2400 
 10 O       -1.7240    -0.9960     1.2320 O.3   1 <1>  -0.3630 
 11 C       -4.0210    -0.7180     0.5050 C.ar  1 <1>  -0.1500 
 12 C       -4.6800     1.3890    -0.4440 C.ar  1 <1>   0.0830 
 13 C       -1.9500    -2.3360     1.6110 C.3   1 <1>   0.0400 
 14 C       -4.9880     0.0960    -0.0560 C.ar  1 <1>  -0.1500 
 15 O       -5.6890     2.1180    -0.9880 O.3   1 <1>  -0.3630 
 16 C       -5.4590     3.4280    -1.4610 C.3   1 <1>   0.0400 
 17 H       -0.5240     0.7880     0.9740 H     1 <1>   0.3700 
 18 H        1.2050     2.2520     1.4840 H     1 <1>   0.0800 
 19 H        1.3300     3.7360     0.6010 H     1 <1>   0.0800 
 20 H        3.0560     2.2580    -0.1910 H     1 <1>   0.0800 
 21 H        1.8930     2.4780    -1.4650 H     1 <1>   0.0800 
 22 H       -3.1380     2.8680    -0.5530 H     1 <1>   0.1500 
 23 H        1.9890     0.0600     0.3790 H     1 <1>   0.0800 
 24 H        2.6240     0.1110    -1.2450 H     1 <1>   0.0800 
 25 H        0.9100     0.2630    -0.9880 H     1 <1>   0.0800 
 26 H       -4.3000    -1.7130     0.7930 H     1 <1>   0.1500 
 27 H       -1.0290    -2.7360     1.9970 H     1 <1>   0.0800 
 28 H       -2.2570    -2.8980     0.7460 H     1 <1>   0.0800 
 29 H       -2.7060    -2.3610     2.3760 H     1 <1>   0.0800 
 30 H       -5.9910    -0.2650    -0.1980 H     1 <1>   0.1500 
 31 H       -6.3800     3.8030    -1.8690 H     1 <1>   0.0800 
 32 H       -4.7050     3.3950    -2.2280 H     1 <1>   0.0800 
 33 H       -5.1440     4.0460    -0.6390 H     1 <1>   0.0800 
@<TRIPOS>BOND
  1   1   2  2   
  2   2   3  am  
  3   2   4  1   
  4   3   5  1   
  5   3  17  1   
  6   4   6  1   
  7   4  18  1   
  8   4  19  1   
  9   5   7  ar  
 10   5   8  ar  
 11   6   9  1   
 12   6  20  1   
 13   6  21  1   
 14   7  10  1   
 15   7  11  ar  
 16   8  12  ar  
 17   8  22  1   
 18   9  23  1   
 19   9  24  1   
 20   9  25  1   
 21  10  13  1   
 22  11  14  ar  
 23  11  26  1   
 24  12  14  ar  
 25  12  15  1   
 26  13  27  1   
 27  13  28  1   
 28  13  29  1   
 29  14  30  1   
 30  15  16  1   
 31  16  31  1   
 32  16  32  1   
 33  16  33  1   
@<TRIPOS>SUBSTRUCTURE
  1 ****   5 GROUP 4 **** **** 0

# MOE 2024.06 (io_trps.svl 2023.06)
