@<TRIPOS>MOLECULE
NONAME
38 39 1 0 0 
SMALL
USER_CHARGES


@<TRIPOS>ATOM
  1 CL       0.2680    -0.1090     0.3390 Cl    1 <1>  -0.1770 
  2 C        0.2940    -1.8570     0.2460 C.ar  1 <1>   0.1770 
  3 C        1.4850    -2.5010    -0.0820 C.ar  1 <1>   0.1170 
  4 C       -0.8740    -2.5520     0.5000 C.ar  1 <1>  -0.1500 
  5 N        2.6640    -1.7600    -0.3120 N.am  1 <1>  -0.5470 
  6 C        1.4410    -3.8940    -0.1740 C.ar  1 <1>   0.1770 
  7 C       -0.8800    -3.9360     0.4200 C.ar  1 <1>  -0.1500 
  8 C        3.8290    -1.8970     0.3900 C.2   1 <1>   0.5690 
  9 CL       2.8700    -4.7890    -0.6590 Cl    1 <1>  -0.1770 
 10 C        0.2830    -4.6070     0.0780 C.ar  1 <1>  -0.1500 
 11 O        3.9060    -2.5670     1.3930 O.2   1 <1>  -0.5700 
 12 C        5.1260    -1.2390    -0.1020 C.3   1 <1>   0.4040 
 13 N        6.3320    -2.1180     0.1370 N.4   1 <1>  -0.9590 
 14 C        7.6040    -1.3530     0.0570 C.3   1 <1>   0.3430 
 15 C        6.2800    -3.3480    -0.7080 C.3   1 <1>   0.3430 
 16 C        8.7920    -2.1540     0.5960 C.3   1 <1>  -0.1600 
 17 C        6.9240    -4.5120     0.0420 C.3   1 <1>  -0.1600 
 18 C        9.2170    -3.3060    -0.3260 C.3   1 <1>  -0.1600 
 19 C        8.4530    -4.6180    -0.0940 C.3   1 <1>  -0.1600 
 20 H       -1.7710    -2.0150     0.7580 H     1 <1>   0.1500 
 21 H        2.5500    -0.9610    -0.9400 H     1 <1>   0.3700 
 22 H       -1.7850    -4.4860     0.6200 H     1 <1>   0.1500 
 23 H        0.2910    -5.6810     0.0040 H     1 <1>   0.1500 
 24 H        5.2450    -0.3140     0.4350 H     1 <1>   0.0800 
 25 H        5.0380    -1.0160    -1.1510 H     1 <1>   0.0800 
 26 H        6.2160    -2.4570     1.1080 H     1 <1>   0.4500 
 27 H        7.5120    -0.4530     0.6440 H     1 <1>   0.0800 
 28 H        7.7990    -1.0660    -0.9640 H     1 <1>   0.0800 
 29 H        6.7660    -3.1910    -1.6570 H     1 <1>   0.0800 
 30 H        5.2500    -3.6110    -0.8950 H     1 <1>   0.0800 
 31 H        8.5990    -2.5060     1.5940 H     1 <1>   0.0800 
 32 H        9.6220    -1.4720     0.6620 H     1 <1>   0.0800 
 33 H        6.5010    -5.4260    -0.3400 H     1 <1>   0.0800 
 34 H        6.6480    -4.4670     1.0820 H     1 <1>   0.0800 
 35 H       10.2620    -3.5100    -0.1580 H     1 <1>   0.0800 
 36 H        9.1260    -3.0050    -1.3560 H     1 <1>   0.0800 
 37 H        8.6810    -5.2770    -0.9150 H     1 <1>   0.0800 
 38 H        8.8360    -5.0940     0.7940 H     1 <1>   0.0800 
@<TRIPOS>BOND
  1   1   2  1   
  2   2   3  ar  
  3   2   4  ar  
  4   3   5  1   
  5   3   6  ar  
  6   4   7  ar  
  7   4  20  1   
  8   5   8  am  
  9   5  21  1   
 10   6   9  1   
 11   6  10  ar  
 12   7  10  ar  
 13   7  22  1   
 14   8  11  2   
 15   8  12  1   
 16  10  23  1   
 17  12  13  1   
 18  12  24  1   
 19  12  25  1   
 20  13  14  1   
 21  13  15  1   
 22  13  26  1   
 23  14  16  1   
 24  14  27  1   
 25  14  28  1   
 26  15  17  1   
 27  15  29  1   
 28  15  30  1   
 29  16  18  1   
 30  16  31  1   
 31  16  32  1   
 32  17  19  1   
 33  17  33  1   
 34  17  34  1   
 35  18  19  1   
 36  18  35  1   
 37  18  36  1   
 38  19  37  1   
 39  19  38  1   
@<TRIPOS>SUBSTRUCTURE
  1 ****   8 GROUP 4 **** **** 0

# MOE 2024.06 (io_trps.svl 2023.06)
