@<TRIPOS>MOLECULE
NONAME
48 51 1 0 0 
SMALL
USER_CHARGES


@<TRIPOS>ATOM
  1 S       -0.1380     0.1030     0.1390 S.3   1 <1>  -0.0800 
  2 C        0.2280    -1.6090     0.3890 C.2   1 <1>  -0.0450 
  3 C       -1.7900    -0.0910     0.6790 C.2   1 <1>  -0.1100 
  4 C        1.5540    -2.0900     0.0870 C.2   1 <1>   0.7150 
  5 C       -0.8920    -2.2220     0.8590 C.2   1 <1>  -0.1500 
  6 C       -2.0240    -1.3710     1.0200 C.2   1 <1>  -0.1500 
  7 O        2.4490    -1.3310    -0.2320 O.2   1 <1>  -0.5700 
  8 N        1.7910    -3.4410     0.1500 N.am  1 <1>  -0.5470 
  9 C        2.9790    -4.1740    -0.0140 C.ar  1 <1>   0.1170 
 10 C        4.2280    -3.6500     0.2630 C.ar  1 <1>  -0.1500 
 11 C        2.8810    -5.5030    -0.4610 C.ar  1 <1>  -0.1500 
 12 C        5.3620    -4.4360     0.0880 C.ar  1 <1>   0.2270 
 13 C        3.9970    -6.2900    -0.6360 C.ar  1 <1>  -0.1500 
 14 N        6.6690    -4.1190     0.2930 N.2   1 <1>  -0.5650 
 15 C        5.2500    -5.7390    -0.3570 C.ar  1 <1>  -0.1520 
 16 C        7.3180    -5.1900    -0.0250 C.2   1 <1>   0.0060 
 17 N        6.5200    -6.2230    -0.4260 N.pl3 1 <1>   0.0480 
 18 C        8.8370    -5.2740     0.0480 C.3   1 <1>   0.5230 
 19 C        6.8670    -7.5960    -0.8510 C.3   1 <1>   0.0160 
 20 N        9.3560    -3.8870     0.1670 N.4   1 <1>  -0.9590 
 21 C        9.4210    -3.2030    -1.1540 C.3   1 <1>   0.3430 
 22 C       10.6030    -3.7760     0.9690 C.3   1 <1>   0.3430 
 23 C        9.7470    -1.7220    -0.9490 C.3   1 <1>  -0.1600 
 24 C       10.9400    -2.3010     1.1930 C.3   1 <1>  -0.1600 
 25 C       11.0290    -1.5260    -0.1280 C.3   1 <1>  -0.1600 
 26 H       -2.4180     0.7820     0.6830 H     1 <1>   0.1500 
 27 H       -0.9690    -3.2650     1.1100 H     1 <1>   0.1500 
 28 H       -2.9630    -1.7520     1.3850 H     1 <1>   0.1500 
 29 H        0.9540    -4.0000     0.2740 H     1 <1>   0.3700 
 30 H        4.3550    -2.6440     0.6140 H     1 <1>   0.1500 
 31 H        1.9090    -5.9090    -0.6750 H     1 <1>   0.1500 
 32 H        3.9100    -7.3050    -0.9810 H     1 <1>   0.1500 
 33 H        9.2370    -5.7520    -0.8300 H     1 <1>   0.0800 
 34 H        9.1090    -5.8480     0.9180 H     1 <1>   0.0800 
 35 H        6.5680    -7.7340    -1.8750 H     1 <1>   0.0800 
 36 H        6.3390    -8.3000    -0.2330 H     1 <1>   0.0800 
 37 H        7.9220    -7.7680    -0.7600 H     1 <1>   0.0800 
 38 H        8.5830    -3.4120     0.6710 H     1 <1>   0.4500 
 39 H        8.4720    -3.2910    -1.6590 H     1 <1>   0.0800 
 40 H       10.1820    -3.6570    -1.7670 H     1 <1>   0.0800 
 41 H       11.4160    -4.2540     0.4460 H     1 <1>   0.0800 
 42 H       10.4750    -4.2620     1.9230 H     1 <1>   0.0800 
 43 H        8.9170    -1.2460    -0.4540 H     1 <1>   0.0800 
 44 H        9.8600    -1.2510    -1.9090 H     1 <1>   0.0800 
 45 H       11.8800    -2.2290     1.7130 H     1 <1>   0.0800 
 46 H       10.1900    -1.8590     1.8260 H     1 <1>   0.0800 
 47 H       11.1740    -0.4770     0.0730 H     1 <1>   0.0800 
 48 H       11.8770    -1.8720    -0.6950 H     1 <1>   0.0800 
@<TRIPOS>BOND
  1   1   2  1   
  2   1   3  1   
  3   2   4  1   
  4   2   5  2   
  5   3   6  2   
  6   3  26  1   
  7   4   7  2   
  8   4   8  am  
  9   5   6  1   
 10   5  27  1   
 11   6  28  1   
 12   8   9  1   
 13   8  29  1   
 14   9  10  ar  
 15   9  11  ar  
 16  10  12  ar  
 17  10  30  1   
 18  11  13  ar  
 19  11  31  1   
 20  12  14  1   
 21  12  15  ar  
 22  13  15  ar  
 23  13  32  1   
 24  14  16  2   
 25  15  17  1   
 26  16  17  1   
 27  16  18  1   
 28  17  19  1   
 29  18  20  1   
 30  18  33  1   
 31  18  34  1   
 32  19  35  1   
 33  19  36  1   
 34  19  37  1   
 35  20  21  1   
 36  20  22  1   
 37  20  38  1   
 38  21  23  1   
 39  21  39  1   
 40  21  40  1   
 41  22  24  1   
 42  22  41  1   
 43  22  42  1   
 44  23  25  1   
 45  23  43  1   
 46  23  44  1   
 47  24  25  1   
 48  24  45  1   
 49  24  46  1   
 50  25  47  1   
 51  25  48  1   
@<TRIPOS>SUBSTRUCTURE
  1 ****  10 GROUP 4 **** **** 0

# MOE 2024.06 (io_trps.svl 2023.06)
