@<TRIPOS>MOLECULE
NONAME
52 54 1 0 0 
SMALL
USER_CHARGES


@<TRIPOS>ATOM
  1 S        0.0390    -0.1340    -0.2650 S.o2  1 <1>   1.4470 
  2 O       -0.1720    -1.5480    -0.5070 O.2   1 <1>  -0.6500 
  3 O       -0.0980     0.7660    -1.3930 O.2   1 <1>  -0.6500 
  4 N       -1.0210     0.3460     0.9780 N.am  1 <1>  -0.8490 
  5 C        1.6790     0.0420     0.4920 C.ar  1 <1>  -0.0090 
  6 C       -1.7340     1.6070     0.7570 C.3   1 <1>   0.1960 
  7 C       -1.8670    -0.7000     1.5590 C.3   1 <1>   0.1960 
  8 C        2.2190     1.2920     0.7920 C.ar  1 <1>   0.0820 
  9 C        2.4300    -1.0860     0.7990 C.ar  1 <1>  -0.1500 
 10 C       -2.9760     1.4040    -0.1220 C.3   1 <1>  -0.1600 
 11 C       -3.1040    -0.9650     0.6920 C.3   1 <1>  -0.1600 
 12 O        1.4840     2.3900     0.5060 O.3   1 <1>  -0.3620 
 13 C        3.4820     1.3830     1.3730 C.ar  1 <1>  -0.1500 
 14 C        3.7010    -1.0240     1.3660 C.ar  1 <1>   0.0860 
 15 C       -3.9030     0.3230     0.4510 C.3   1 <1>  -0.0800 
 16 C        1.9670     3.7040     0.6750 C.3   1 <1>   0.0400 
 17 C        4.2050     0.2410     1.6540 C.ar  1 <1>  -0.1500 
 18 C        4.4700    -2.2180     1.6630 C.2   1 <1>   0.5440 
 19 C       -5.0830     0.0630    -0.4910 C.3   1 <1>  -0.2400 
 20 O        5.0520    -2.2960     2.7280 O.2   1 <1>  -0.5700 
 21 N        4.5710    -3.2680     0.7730 N.am  1 <1>  -0.6600 
 22 C        5.1310    -4.5950     1.1740 C.3   1 <1>   0.1400 
 23 C        4.3670    -3.1450    -0.7030 C.3   1 <1>   0.1400 
 24 C        6.3480    -4.9550     0.3080 C.3   1 <1>   0.1200 
 25 C        5.6230    -3.6020    -1.4660 C.3   1 <1>   0.1200 
 26 O        6.0240    -4.8780    -1.0520 O.3   1 <1>  -0.5600 
 27 H       -1.0790     2.3330     0.3060 H     1 <1>   0.0800 
 28 H       -2.0410     1.9980     1.7120 H     1 <1>   0.0800 
 29 H       -2.1880    -0.3770     2.5350 H     1 <1>   0.0800 
 30 H       -1.3010    -1.6080     1.6910 H     1 <1>   0.0800 
 31 H        2.0170    -2.0600     0.5950 H     1 <1>   0.1500 
 32 H       -2.6670     1.1340    -1.1160 H     1 <1>   0.0800 
 33 H       -3.5080     2.3360    -0.1920 H     1 <1>   0.0800 
 34 H       -3.7260    -1.6900     1.1850 H     1 <1>   0.0800 
 35 H       -2.7960    -1.3900    -0.2470 H     1 <1>   0.0800 
 36 H        3.9170     2.3330     1.6190 H     1 <1>   0.1500 
 37 H       -4.2900     0.6680     1.3960 H     1 <1>   0.0800 
 38 H        2.8590     3.8270     0.0880 H     1 <1>   0.0800 
 39 H        2.1630     3.8730     1.7190 H     1 <1>   0.0800 
 40 H        1.2080     4.3840     0.3320 H     1 <1>   0.0800 
 41 H        5.1780     0.3180     2.1100 H     1 <1>   0.1500 
 42 H       -4.7340    -0.2840    -1.4480 H     1 <1>   0.0800 
 43 H       -5.6480     0.9660    -0.6400 H     1 <1>   0.0800 
 44 H       -5.7380    -0.6820    -0.0740 H     1 <1>   0.0800 
 45 H        4.3740    -5.3490     1.0480 H     1 <1>   0.0800 
 46 H        5.4200    -4.5920     2.2110 H     1 <1>   0.0800 
 47 H        4.1520    -2.1280    -0.9760 H     1 <1>   0.0800 
 48 H        3.5320    -3.7560    -0.9980 H     1 <1>   0.0800 
 49 H        6.6660    -5.9610     0.5150 H     1 <1>   0.0800 
 50 H        7.1650    -4.2840     0.5100 H     1 <1>   0.0800 
 51 H        6.4350    -2.9160    -1.3000 H     1 <1>   0.0800 
 52 H        5.4200    -3.6490    -2.5210 H     1 <1>   0.0800 
@<TRIPOS>BOND
  1   1   2  2   
  2   1   3  2   
  3   1   4  am  
  4   1   5  1   
  5   4   6  1   
  6   4   7  1   
  7   5   8  ar  
  8   5   9  ar  
  9   6  10  1   
 10   6  27  1   
 11   6  28  1   
 12   7  11  1   
 13   7  29  1   
 14   7  30  1   
 15   8  12  1   
 16   8  13  ar  
 17   9  14  ar  
 18   9  31  1   
 19  10  15  1   
 20  10  32  1   
 21  10  33  1   
 22  11  15  1   
 23  11  34  1   
 24  11  35  1   
 25  12  16  1   
 26  13  17  ar  
 27  13  36  1   
 28  14  17  ar  
 29  14  18  1   
 30  15  19  1   
 31  15  37  1   
 32  16  38  1   
 33  16  39  1   
 34  16  40  1   
 35  17  41  1   
 36  18  20  2   
 37  18  21  am  
 38  19  42  1   
 39  19  43  1   
 40  19  44  1   
 41  21  22  1   
 42  21  23  1   
 43  22  24  1   
 44  22  45  1   
 45  22  46  1   
 46  23  25  1   
 47  23  47  1   
 48  23  48  1   
 49  24  26  1   
 50  24  49  1   
 51  24  50  1   
 52  25  26  1   
 53  25  51  1   
 54  25  52  1   
@<TRIPOS>SUBSTRUCTURE
  1 ****   5 GROUP 4 **** **** 0

# MOE 2024.06 (io_trps.svl 2023.06)
