@<TRIPOS>MOLECULE
NONAME
39 40 1 0 0 
SMALL
USER_CHARGES


@<TRIPOS>ATOM
  1 CL       0.1760    -0.7230     0.0110 Cl    1 <1>  -0.1770 
  2 C       -1.5190    -1.1460    -0.0470 C.ar  1 <1>   0.1770 
  3 C       -1.9640    -2.3220     0.5280 C.ar  1 <1>   0.1600 
  4 C       -2.4110    -0.3030    -0.6710 C.ar  1 <1>  -0.1500 
  5 N       -3.2300    -2.7210     0.5310 N.ar  1 <1>  -0.6200 
  6 C       -3.7290    -0.7080    -0.6730 C.ar  1 <1>  -0.1500 
  7 C       -4.0950    -1.9120    -0.0640 C.ar  1 <1>   0.4270 
  8 N       -5.3800    -2.4050    -0.0130 N.am  1 <1>  -0.5470 
  9 C       -6.5910    -1.8920    -0.3830 C.2   1 <1>   0.5690 
 10 O       -6.7150    -0.7910    -0.8640 O.2   1 <1>  -0.5700 
 11 C       -7.8330    -2.7770    -0.1540 C.3   1 <1>   0.1710 
 12 N       -9.1450    -2.0680    -0.0660 N.3   1 <1>  -0.8100 
 13 C      -10.3040    -2.9880    -0.0300 C.3   1 <1>   0.1100 
 14 C       -9.2100    -1.0900     1.0490 C.3   1 <1>   0.1100 
 15 C      -11.6520    -2.2210    -0.0010 C.3   1 <1>   0.3430 
 16 C      -10.5330    -0.2840     1.0360 C.3   1 <1>   0.3430 
 17 N      -11.4370    -0.7380    -0.0760 N.4   1 <1>  -0.9590 
 18 C      -12.6960     0.0320    -0.2150 C.3   1 <1>   0.3430 
 19 C      -12.3840     1.4510    -0.6730 C.3   1 <1>  -0.2400 
 20 H       -1.2410    -2.9600     1.0070 H     1 <1>   0.1500 
 21 H       -2.0880     0.6160    -1.1270 H     1 <1>   0.1500 
 22 H       -4.4650    -0.0900    -1.1500 H     1 <1>   0.1500 
 23 H       -5.3730    -3.3290     0.4110 H     1 <1>   0.3700 
 24 H       -7.6840    -3.3470     0.7460 H     1 <1>   0.0800 
 25 H       -7.8750    -3.4690    -0.9770 H     1 <1>   0.0800 
 26 H      -10.2410    -3.6270     0.8340 H     1 <1>   0.0800 
 27 H      -10.2840    -3.6180    -0.9030 H     1 <1>   0.0800 
 28 H       -8.3940    -0.3920     0.9740 H     1 <1>   0.0800 
 29 H       -9.1130    -1.6000     1.9920 H     1 <1>   0.0800 
 30 H      -12.1820    -2.4700     0.9030 H     1 <1>   0.0800 
 31 H      -12.2540    -2.5470    -0.8340 H     1 <1>   0.0800 
 32 H      -10.2930     0.7590     0.9100 H     1 <1>   0.0800 
 33 H      -11.0270    -0.3950     1.9860 H     1 <1>   0.0800 
 34 H      -10.8520    -0.6160    -0.9200 H     1 <1>   0.4500 
 35 H      -13.2270     0.0520     0.7240 H     1 <1>   0.0800 
 36 H      -13.3270    -0.4400    -0.9510 H     1 <1>   0.0800 
 37 H      -11.8430     1.9980     0.0780 H     1 <1>   0.0800 
 38 H      -13.3070     1.9730    -0.8540 H     1 <1>   0.0800 
 39 H      -11.8230     1.4420    -1.5910 H     1 <1>   0.0800 
@<TRIPOS>BOND
  1   1   2  1   
  2   2   3  ar  
  3   2   4  ar  
  4   3   5  ar  
  5   3  20  1   
  6   4   6  ar  
  7   4  21  1   
  8   5   7  ar  
  9   6   7  ar  
 10   6  22  1   
 11   7   8  1   
 12   8   9  am  
 13   8  23  1   
 14   9  10  2   
 15   9  11  1   
 16  11  12  1   
 17  11  24  1   
 18  11  25  1   
 19  12  13  1   
 20  12  14  1   
 21  13  15  1   
 22  13  26  1   
 23  13  27  1   
 24  14  16  1   
 25  14  28  1   
 26  14  29  1   
 27  15  17  1   
 28  15  30  1   
 29  15  31  1   
 30  16  17  1   
 31  16  32  1   
 32  16  33  1   
 33  17  18  1   
 34  17  34  1   
 35  18  19  1   
 36  18  35  1   
 37  18  36  1   
 38  19  37  1   
 39  19  38  1   
 40  19  39  1   
@<TRIPOS>SUBSTRUCTURE
  1 ****   9 GROUP 4 **** **** 0

# MOE 2024.06 (io_trps.svl 2023.06)
