@<TRIPOS>MOLECULE
NONAME
31 31 1 0 0 
SMALL
USER_CHARGES


@<TRIPOS>ATOM
  1 O        0.3020     1.9540     2.2950 O.2   1 <1>  -0.5700 
  2 C       -0.5340     1.9180     1.4230 C.2   1 <1>   0.5690 
  3 N       -0.3710     1.1650     0.3040 N.am  1 <1>  -0.7300 
  4 C       -1.8140     2.7270     1.5790 C.3   1 <1>   0.1810 
  5 C        0.8190     0.3490    -0.0250 C.3   1 <1>   0.1400 
  6 O       -2.1160     3.4270     0.3780 O.3   1 <1>  -0.3620 
  7 C        1.7310     1.1230    -0.9790 C.3   1 <1>   0.1200 
  8 C       -3.3900     3.3540    -0.0780 C.ar  1 <1>   0.0820 
  9 O        2.8590     0.3620    -1.2550 O.3   1 <1>  -0.6800 
 10 C       -3.9220     2.1710    -0.6010 C.ar  1 <1>   0.0820 
 11 C       -4.1560     4.5060    -0.0280 C.ar  1 <1>  -0.1500 
 12 O       -3.1210     1.0670    -0.6600 O.3   1 <1>  -0.3630 
 13 C       -5.2410     2.1670    -1.0480 C.ar  1 <1>  -0.1500 
 14 C       -5.4650     4.4900    -0.4770 C.ar  1 <1>  -0.1500 
 15 C       -3.5960    -0.1630    -1.1610 C.3   1 <1>   0.0400 
 16 C       -6.0060     3.3210    -0.9840 C.ar  1 <1>  -0.1500 
 17 H       -1.1230     1.2090    -0.3970 H     1 <1>   0.3700 
 18 H       -1.6940     3.4530     2.3610 H     1 <1>   0.0800 
 19 H       -2.6260     2.0680     1.8270 H     1 <1>   0.0800 
 20 H        0.5010    -0.5700    -0.4850 H     1 <1>   0.0800 
 21 H        1.3530     0.1220     0.8820 H     1 <1>   0.0800 
 22 H        2.0480     2.0510    -0.5360 H     1 <1>   0.0800 
 23 H        1.2260     1.3150    -1.9090 H     1 <1>   0.0800 
 24 H        3.4250     0.2930    -0.4620 H     1 <1>   0.4000 
 25 H       -3.7250     5.4100     0.3630 H     1 <1>   0.1500 
 26 H       -5.6940     1.2830    -1.4530 H     1 <1>   0.1500 
 27 H       -6.0600     5.3860    -0.4340 H     1 <1>   0.1500 
 28 H       -2.7990    -0.8820    -1.0980 H     1 <1>   0.0800 
 29 H       -3.8890    -0.0320    -2.1880 H     1 <1>   0.0800 
 30 H       -4.4280    -0.4880    -0.5610 H     1 <1>   0.0800 
 31 H       -7.0240     3.3110    -1.3320 H     1 <1>   0.1500 
@<TRIPOS>BOND
  1   1   2  2   
  2   2   3  am  
  3   2   4  1   
  4   3   5  1   
  5   3  17  1   
  6   4   6  1   
  7   4  18  1   
  8   4  19  1   
  9   5   7  1   
 10   5  20  1   
 11   5  21  1   
 12   6   8  1   
 13   7   9  1   
 14   7  22  1   
 15   7  23  1   
 16   8  10  ar  
 17   8  11  ar  
 18   9  24  1   
 19  10  12  1   
 20  10  13  ar  
 21  11  14  ar  
 22  11  25  1   
 23  12  15  1   
 24  13  16  ar  
 25  13  26  1   
 26  14  16  ar  
 27  14  27  1   
 28  15  28  1   
 29  15  29  1   
 30  15  30  1   
 31  16  31  1   
@<TRIPOS>SUBSTRUCTURE
  1 ****   6 GROUP 4 **** **** 0

# MOE 2024.06 (io_trps.svl 2023.06)
