@<TRIPOS>MOLECULE
NONAME
45 47 1 0 0 
SMALL
USER_CHARGES


@<TRIPOS>ATOM
  1 BR       0.6330     0.1830     1.9710 Br    1 <1>  -0.1110 
  2 C        2.2350     0.7810     1.0830 C.ar  1 <1>   0.1110 
  3 C        3.2690     1.3160     1.8280 C.ar  1 <1>   0.1600 
  4 C        2.3280     0.6650    -0.2850 C.ar  1 <1>  -0.1500 
  5 N        4.4050     1.7520     1.2990 N.ar  1 <1>  -0.6200 
  6 C        3.5070     1.1160    -0.8370 C.ar  1 <1>  -0.1500 
  7 C        4.5100     1.6460    -0.0210 C.ar  1 <1>   0.4270 
  8 N        5.7190     2.1190    -0.4800 N.am  1 <1>  -0.5470 
  9 C        6.3080     2.1530    -1.7110 C.2   1 <1>   0.5690 
 10 O        5.7530     1.7840    -2.7170 O.2   1 <1>  -0.5700 
 11 C        7.7220     2.7430    -1.8200 C.3   1 <1>   0.1710 
 12 N        8.8420     1.8730    -1.3550 N.3   1 <1>  -0.8100 
 13 C       10.1390     2.4250    -1.8030 C.3   1 <1>   0.1100 
 14 C        8.8490     1.6390     0.1100 C.3   1 <1>   0.1100 
 15 C       11.3260     1.5340    -1.3990 C.3   1 <1>   0.1400 
 16 C       10.0150     0.7360     0.5470 C.3   1 <1>   0.1400 
 17 N       11.3180     1.2850     0.0730 N.am  1 <1>  -0.6600 
 18 C       12.3830     1.4800     0.9240 C.2   1 <1>   0.5690 
 19 O       12.2740     1.2340     2.1070 O.2   1 <1>  -0.5700 
 20 C       13.7320     2.0430     0.4000 C.3   1 <1>   0.2610 
 21 O       14.2980     1.2050    -0.5720 O.3   1 <1>  -0.5600 
 22 C       14.8520     2.1590     1.4370 C.3   1 <1>  -0.1600 
 23 C       15.0530     0.2100     0.0440 C.3   1 <1>   0.1200 
 24 C       15.5350     0.8020     1.3660 C.3   1 <1>  -0.1600 
 25 H        3.1540     1.3880     2.8950 H     1 <1>   0.1500 
 26 H        1.5300     0.2500    -0.8760 H     1 <1>   0.1500 
 27 H        3.6450     1.0540    -1.9000 H     1 <1>   0.1500 
 28 H        6.2830     2.4550     0.2930 H     1 <1>   0.3700 
 29 H        7.7480     3.6760    -1.2870 H     1 <1>   0.0800 
 30 H        7.8770     2.9660    -2.8610 H     1 <1>   0.0800 
 31 H       10.2820     3.4070    -1.3840 H     1 <1>   0.0800 
 32 H       10.1340     2.5170    -2.8750 H     1 <1>   0.0800 
 33 H        7.9380     1.1520     0.4040 H     1 <1>   0.0800 
 34 H        8.9220     2.5770     0.6330 H     1 <1>   0.0800 
 35 H       12.2380     2.0070    -1.7110 H     1 <1>   0.0800 
 36 H       11.2510     0.5920    -1.9140 H     1 <1>   0.0800 
 37 H        9.8750    -0.2460     0.1310 H     1 <1>   0.0800 
 38 H       10.0070     0.6440     1.6190 H     1 <1>   0.0800 
 39 H       13.5470     3.0000    -0.0510 H     1 <1>   0.0800 
 40 H       14.4910     2.3950     2.4220 H     1 <1>   0.0800 
 41 H       15.5330     2.9300     1.1240 H     1 <1>   0.0800 
 42 H       15.8680    -0.0560    -0.6070 H     1 <1>   0.0800 
 43 H       14.4160    -0.6420     0.2090 H     1 <1>   0.0800 
 44 H       15.2190     0.1710     2.1790 H     1 <1>   0.0800 
 45 H       16.6070     0.8940     1.3880 H     1 <1>   0.0800 
@<TRIPOS>BOND
  1   1   2  1   
  2   2   3  ar  
  3   2   4  ar  
  4   3   5  ar  
  5   3  25  1   
  6   4   6  ar  
  7   4  26  1   
  8   5   7  ar  
  9   6   7  ar  
 10   6  27  1   
 11   7   8  1   
 12   8   9  am  
 13   8  28  1   
 14   9  10  2   
 15   9  11  1   
 16  11  12  1   
 17  11  29  1   
 18  11  30  1   
 19  12  13  1   
 20  12  14  1   
 21  13  15  1   
 22  13  31  1   
 23  13  32  1   
 24  14  16  1   
 25  14  33  1   
 26  14  34  1   
 27  15  17  1   
 28  15  35  1   
 29  15  36  1   
 30  16  17  1   
 31  16  37  1   
 32  16  38  1   
 33  17  18  am  
 34  18  19  2   
 35  18  20  1   
 36  20  21  1   
 37  20  22  1   
 38  20  39  1   
 39  21  23  1   
 40  22  24  1   
 41  22  40  1   
 42  22  41  1   
 43  23  24  1   
 44  23  42  1   
 45  23  43  1   
 46  24  44  1   
 47  24  45  1   
@<TRIPOS>SUBSTRUCTURE
  1 ****  14 GROUP 4 **** **** 0

# MOE 2024.06 (io_trps.svl 2023.06)
