@<TRIPOS>MOLECULE
NONAME
39 39 1 0 0 
SMALL
USER_CHARGES


@<TRIPOS>ATOM
  1 CL      -1.1410     0.4710    -0.7820 Cl    1 <1>  -0.1770 
  2 C       -0.8730     2.0890    -0.1760 C.ar  1 <1>   0.1770 
  3 C       -1.8120     2.6600     0.6630 C.ar  1 <1>  -0.1440 
  4 C        0.2630     2.7690    -0.5680 C.ar  1 <1>  -0.1500 
  5 C       -1.5930     3.9510     1.1130 C.ar  1 <1>  -0.1500 
  6 C       -3.0470     1.8940     1.0740 C.3   1 <1>   0.4870 
  7 C        0.4840     4.0690    -0.1200 C.ar  1 <1>   0.0820 
  8 C       -0.4640     4.6630     0.7370 C.ar  1 <1>   0.0820 
  9 N       -3.9620     1.8820    -0.0920 N.4   1 <1>  -0.9060 
 10 O        1.5890     4.7640    -0.5130 O.3   1 <1>  -0.3620 
 11 O       -0.4130     5.9170     1.2700 O.3   1 <1>  -0.3620 
 12 C       -5.2540     1.1810     0.0630 C.3   1 <1>   0.5030 
 13 C        2.6010     4.2010    -1.3220 C.3   1 <1>   0.0400 
 14 C        0.7510     6.7140     1.2700 C.3   1 <1>   0.0400 
 15 C       -6.0270     1.2780    -1.2850 C.3   1 <1>   0.1200 
 16 C       -6.0440     1.8610     1.1880 C.3   1 <1>  -0.2400 
 17 C       -4.9740    -0.2860     0.4160 C.3   1 <1>  -0.2400 
 18 O       -7.2650     0.6450    -1.2120 O.3   1 <1>  -0.6800 
 19 H        0.9510     2.2660    -1.2200 H     1 <1>   0.1500 
 20 H       -2.2930     4.4380     1.7720 H     1 <1>   0.1500 
 21 H       -3.5130     2.3770     1.9180 H     1 <1>   0.0800 
 22 H       -2.7740     0.8890     1.3540 H     1 <1>   0.0800 
 23 H       -3.4460     1.4450    -0.8630 H     1 <1>   0.4500 
 24 H       -4.1340     2.8550    -0.3610 H     1 <1>   0.4500 
 25 H        3.3680     4.9420    -1.4590 H     1 <1>   0.0800 
 26 H        2.1810     3.9330    -2.2750 H     1 <1>   0.0800 
 27 H        3.0130     3.3420    -0.8230 H     1 <1>   0.0800 
 28 H        0.5710     7.5720     1.8930 H     1 <1>   0.0800 
 29 H        0.9560     7.0340     0.2640 H     1 <1>   0.0800 
 30 H        1.5710     6.1400     1.6650 H     1 <1>   0.0800 
 31 H       -5.4710     0.8010    -2.0740 H     1 <1>   0.0800 
 32 H       -6.2100     2.3070    -1.5430 H     1 <1>   0.0800 
 33 H       -6.2080     2.9020     0.9720 H     1 <1>   0.0800 
 34 H       -5.5590     1.7620     2.1420 H     1 <1>   0.0800 
 35 H       -7.0110     1.3960     1.2820 H     1 <1>   0.0800 
 36 H       -5.9030    -0.8270     0.4710 H     1 <1>   0.0800 
 37 H       -4.3700    -0.7570    -0.3390 H     1 <1>   0.0800 
 38 H       -4.4980    -0.3890     1.3730 H     1 <1>   0.0800 
 39 H       -7.7540     0.6910    -2.0610 H     1 <1>   0.4000 
@<TRIPOS>BOND
  1   1   2  1   
  2   2   3  ar  
  3   2   4  ar  
  4   3   5  ar  
  5   3   6  1   
  6   4   7  ar  
  7   4  19  1   
  8   5   8  ar  
  9   5  20  1   
 10   6   9  1   
 11   6  21  1   
 12   6  22  1   
 13   7   8  ar  
 14   7  10  1   
 15   8  11  1   
 16   9  12  1   
 17   9  23  1   
 18   9  24  1   
 19  10  13  1   
 20  11  14  1   
 21  12  15  1   
 22  12  16  1   
 23  12  17  1   
 24  13  25  1   
 25  13  26  1   
 26  13  27  1   
 27  14  28  1   
 28  14  29  1   
 29  14  30  1   
 30  15  18  1   
 31  15  31  1   
 32  15  32  1   
 33  16  33  1   
 34  16  34  1   
 35  16  35  1   
 36  17  36  1   
 37  17  37  1   
 38  17  38  1   
 39  18  39  1   
@<TRIPOS>SUBSTRUCTURE
  1 ****   3 GROUP 4 **** **** 0

# MOE 2024.06 (io_trps.svl 2023.06)
