@<TRIPOS>MOLECULE
NONAME
27 30 1 0 0 
SMALL
USER_CHARGES


@<TRIPOS>ATOM
  1 S        0.0300     0.2440    -0.3230 S.3   1 <1>  -0.0800 
  2 C        1.5890    -0.5470    -0.1950 C.2   1 <1>   0.1040 
  3 C       -0.7810    -1.3120    -0.1700 C.2   1 <1>  -0.1400 
  4 N        2.7910     0.1250    -0.2340 N.am  1 <1>  -0.4940 
  5 C        1.4730    -1.8950    -0.0510 C.2   1 <1>  -0.0010 
  6 C        0.1000    -2.3200    -0.0490 C.2   1 <1>  -0.1810 
  7 C       -2.2920    -1.3960    -0.1870 C.3   1 <1>   0.0200 
  8 C        3.9660    -0.5800    -0.1200 C.2   1 <1>   0.6390 
  9 C        2.6870    -2.6550     0.0740 C.2   1 <1>   0.1870 
 10 C       -0.3540    -3.7650     0.0840 C.3   1 <1>   0.0210 
 11 C       -2.7210    -2.7940     0.2970 C.3   1 <1>  -0.1600 
 12 O        5.0130     0.0410    -0.1590 O.2   1 <1>  -0.5700 
 13 N        3.8850    -2.0020     0.0380 N.pl3 1 <1>   0.5610 
 14 N        2.8560    -3.9300     0.2290 N.2   1 <1>  -0.5650 
 15 C       -1.8410    -3.9120    -0.3010 C.3   1 <1>  -0.1600 
 16 N        4.8550    -2.9330     0.1770 N.2   1 <1>  -0.7070 
 17 C        4.1880    -4.0300     0.2840 C.2   1 <1>   0.3660 
 18 H        2.8500     1.1390    -0.3440 H     1 <1>   0.3700 
 19 H       -2.6380    -1.2290    -1.1920 H     1 <1>   0.0800 
 20 H       -2.7130    -0.6420     0.4530 H     1 <1>   0.0800 
 21 H       -0.2040    -4.0810     1.1010 H     1 <1>   0.0800 
 22 H        0.2400    -4.3960    -0.5530 H     1 <1>   0.0800 
 23 H       -3.7520    -2.9610     0.0390 H     1 <1>   0.0800 
 24 H       -2.6390    -2.8290     1.3700 H     1 <1>   0.0800 
 25 H       -2.1980    -4.8730     0.0260 H     1 <1>   0.0800 
 26 H       -1.9240    -3.8800    -1.3740 H     1 <1>   0.0800 
 27 H        4.6590    -4.9930     0.4110 H     1 <1>   0.1500 
@<TRIPOS>BOND
  1   1   2  1   
  2   1   3  1   
  3   2   4  1   
  4   2   5  2   
  5   3   6  2   
  6   3   7  1   
  7   4   8  am  
  8   4  18  1   
  9   5   6  1   
 10   5   9  1   
 11   6  10  1   
 12   7  11  1   
 13   7  19  1   
 14   7  20  1   
 15   8  12  2   
 16   8  13  1   
 17   9  13  1   
 18   9  14  2   
 19  10  15  1   
 20  10  21  1   
 21  10  22  1   
 22  11  15  1   
 23  11  23  1   
 24  11  24  1   
 25  13  16  1   
 26  14  17  1   
 27  15  25  1   
 28  15  26  1   
 29  16  17  2   
 30  17  27  1   
@<TRIPOS>SUBSTRUCTURE
  1 ****   5 GROUP 4 **** **** 0

# MOE 2024.06 (io_trps.svl 2023.06)
