@<TRIPOS>MOLECULE
NONAME
47 50 1 0 0 
SMALL
USER_CHARGES


@<TRIPOS>ATOM
  1 S        0.0470    -0.3070    -0.0230 S.3   1 <1>  -0.0800 
  2 C        1.4950     0.6740    -0.1580 C.2   1 <1>  -0.0450 
  3 C       -0.9580     1.1200     0.1170 C.2   1 <1>  -0.1400 
  4 C        2.8210     0.2170    -0.3160 C.2   1 <1>   0.7150 
  5 C        1.1830     1.9890    -0.0960 C.2   1 <1>   0.1250 
  6 C       -0.2270     2.2690     0.0600 C.2   1 <1>  -0.0860 
  7 C       -2.4440     0.8460     0.2810 C.3   1 <1>  -0.0600 
  8 O        3.1140    -0.9720    -0.3620 O.2   1 <1>  -0.5700 
  9 N        3.7890     1.2000    -0.4180 N.am  1 <1>  -0.4200 
 10 N        2.1860     2.9230    -0.1870 N.2   1 <1>  -0.5750 
 11 C       -0.7400     3.6270     0.1330 C.2   1 <1>   0.7160 
 12 C        3.4040     2.5300    -0.3370 C.2   1 <1>   0.4490 
 13 C        5.2160     0.8060    -0.6090 C.3   1 <1>   0.1400 
 14 O       -1.8850     3.8950    -0.1770 O.2   1 <1>  -0.5700 
 15 N        0.0630     4.6380     0.5490 N.am  1 <1>  -0.7300 
 16 C        4.4630     3.6220    -0.4170 C.3   1 <1>  -0.0990 
 17 C        6.0530     1.1290     0.6340 C.3   1 <1>  -0.1600 
 18 C       -0.1810     6.0690     0.3410 C.3   1 <1>   0.2840 
 19 C        5.4100     3.6260     0.7930 C.3   1 <1>  -0.1600 
 20 C        6.5340     2.5870     0.6940 C.3   1 <1>  -0.1600 
 21 C        1.1440     6.7000    -0.0490 C.ar  1 <1>  -0.1430 
 22 C        1.6410     6.5300    -1.3330 C.ar  1 <1>  -0.1500 
 23 C        1.8760     7.4360     0.8700 C.ar  1 <1>  -0.1500 
 24 C        2.8510     7.0950    -1.6970 C.ar  1 <1>  -0.1500 
 25 C        3.0870     8.0010     0.5080 C.ar  1 <1>  -0.1500 
 26 C        3.5750     7.8310    -0.7760 C.ar  1 <1>  -0.1500 
 27 H       -2.8280     0.3840    -0.6100 H     1 <1>   0.0800 
 28 H       -2.9920     1.7520     0.4610 H     1 <1>   0.0800 
 29 H       -2.6030     0.1840     1.1120 H     1 <1>   0.0800 
 30 H        5.6180     1.3040    -1.4740 H     1 <1>   0.0800 
 31 H        5.2860    -0.2510    -0.8010 H     1 <1>   0.0800 
 32 H        1.0600     4.3970     0.5940 H     1 <1>   0.3700 
 33 H        3.9590     4.5740    -0.4420 H     1 <1>   0.0800 
 34 H        5.0130     3.5430    -1.3360 H     1 <1>   0.0800 
 35 H        6.9270     0.5020     0.6120 H     1 <1>   0.0800 
 36 H        5.5030     0.8730     1.5240 H     1 <1>   0.0800 
 37 H       -0.5590     6.5030     1.2500 H     1 <1>   0.0800 
 38 H       -0.9080     6.2150    -0.4400 H     1 <1>   0.0800 
 39 H        4.8430     3.4720     1.6960 H     1 <1>   0.0800 
 40 H        5.8630     4.6000     0.8640 H     1 <1>   0.0800 
 41 H        7.1380     2.7990    -0.1720 H     1 <1>   0.0800 
 42 H        7.1710     2.6970     1.5560 H     1 <1>   0.0800 
 43 H        1.0840     5.9530    -2.0520 H     1 <1>   0.1500 
 44 H        1.5080     7.5720     1.8720 H     1 <1>   0.1500 
 45 H        3.2270     6.9600    -2.6960 H     1 <1>   0.1500 
 46 H        3.6490     8.5740     1.2250 H     1 <1>   0.1500 
 47 H        4.5150     8.2730    -1.0580 H     1 <1>   0.1500 
@<TRIPOS>BOND
  1   1   2  1   
  2   1   3  1   
  3   2   4  1   
  4   2   5  2   
  5   3   6  2   
  6   3   7  1   
  7   4   8  2   
  8   4   9  am  
  9   5   6  1   
 10   5  10  1   
 11   6  11  1   
 12   7  27  1   
 13   7  28  1   
 14   7  29  1   
 15   9  12  1   
 16   9  13  1   
 17  10  12  2   
 18  11  14  2   
 19  11  15  am  
 20  12  16  1   
 21  13  17  1   
 22  13  30  1   
 23  13  31  1   
 24  15  18  1   
 25  15  32  1   
 26  16  19  1   
 27  16  33  1   
 28  16  34  1   
 29  17  20  1   
 30  17  35  1   
 31  17  36  1   
 32  18  21  1   
 33  18  37  1   
 34  18  38  1   
 35  19  20  1   
 36  19  39  1   
 37  19  40  1   
 38  20  41  1   
 39  20  42  1   
 40  21  22  ar  
 41  21  23  ar  
 42  22  24  ar  
 43  22  43  1   
 44  23  25  ar  
 45  23  44  1   
 46  24  26  ar  
 47  24  45  1   
 48  25  26  ar  
 49  25  46  1   
 50  26  47  1   
@<TRIPOS>SUBSTRUCTURE
  1 ****  10 GROUP 4 **** **** 0

# MOE 2024.06 (io_trps.svl 2023.06)
