@<TRIPOS>MOLECULE
NONAME
46 47 1 0 0 
SMALL
USER_CHARGES


@<TRIPOS>ATOM
  1 S       -1.5260     0.4450    -0.1170 S.o2  1 <1>   1.4470 
  2 O       -2.1710     0.8570     1.1100 O.2   1 <1>  -0.6500 
  3 O       -2.2190    -0.4350    -1.0340 O.2   1 <1>  -0.6500 
  4 N       -1.1310     1.8450    -0.9850 N.am  1 <1>  -0.8490 
  5 C        0.0970    -0.2790     0.2560 C.ar  1 <1>  -0.0090 
  6 C       -2.2960     2.3590    -1.7660 C.3   1 <1>   0.2570 
  7 C       -0.5180     2.8650    -0.1260 C.3   1 <1>   0.1960 
  8 C        1.0140    -0.5340    -0.7570 C.ar  1 <1>  -0.1500 
  9 C        0.4640    -0.5960     1.5600 C.ar  1 <1>  -0.1500 
 10 C       -3.4650     2.9880    -0.9760 C.2   1 <1>   0.5690 
 11 C        0.1640     3.9460    -0.9630 C.3   1 <1>  -0.2400 
 12 C        2.2550    -1.0820    -0.4830 C.ar  1 <1>  -0.1500 
 13 C        1.7030    -1.1440     1.8440 C.ar  1 <1>  -0.1500 
 14 O       -3.3040     4.1340    -0.6160 O.2   1 <1>  -0.5700 
 15 N       -4.6520     2.3320    -0.7200 N.am  1 <1>  -0.6600 
 16 C        2.6010    -1.3870     0.8210 C.ar  1 <1>  -0.1500 
 17 C       -5.0760     1.0100    -1.2720 C.3   1 <1>   0.1400 
 18 C       -5.6780     2.9500     0.1700 C.3   1 <1>   0.1400 
 19 C       -5.4310     0.0440    -0.1360 C.3   1 <1>  -0.1600 
 20 C       -6.0040     2.0000     1.3260 C.3   1 <1>  -0.1600 
 21 C       -6.4830     0.6350     0.8130 C.3   1 <1>  -0.0800 
 22 C       -6.7510    -0.3180     1.9820 C.3   1 <1>  -0.2400 
 23 H       -2.6610     1.5790    -2.4050 H     1 <1>   0.0800 
 24 H       -1.9390     3.1190    -2.4360 H     1 <1>   0.0800 
 25 H        0.2380     2.4030     0.4880 H     1 <1>   0.0800 
 26 H       -1.2470     3.3010     0.5380 H     1 <1>   0.0800 
 27 H        0.7490    -0.2980    -1.7740 H     1 <1>   0.1500 
 28 H       -0.2290    -0.4110     2.3640 H     1 <1>   0.1500 
 29 H       -0.5620     4.5630    -1.4590 H     1 <1>   0.0800 
 30 H        0.8230     3.5000    -1.6850 H     1 <1>   0.0800 
 31 H        0.7430     4.5810    -0.3170 H     1 <1>   0.0800 
 32 H        2.9500    -1.2700    -1.2830 H     1 <1>   0.1500 
 33 H        1.9670    -1.3810     2.8600 H     1 <1>   0.1500 
 34 H        3.5660    -1.8140     1.0380 H     1 <1>   0.1500 
 35 H       -4.3160     0.5680    -1.8850 H     1 <1>   0.0800 
 36 H       -5.9430     1.1610    -1.8910 H     1 <1>   0.0800 
 37 H       -6.5660     3.1510    -0.4030 H     1 <1>   0.0800 
 38 H       -5.3260     3.8840     0.5740 H     1 <1>   0.0800 
 39 H       -4.5380    -0.1900     0.4140 H     1 <1>   0.0800 
 40 H       -5.7980    -0.8740    -0.5600 H     1 <1>   0.0800 
 41 H       -6.7640     2.4460     1.9430 H     1 <1>   0.0800 
 42 H       -5.1190     1.8790     1.9280 H     1 <1>   0.0800 
 43 H       -7.4010     0.7750     0.2660 H     1 <1>   0.0800 
 44 H       -5.8510    -0.4790     2.5500 H     1 <1>   0.0800 
 45 H       -7.1010    -1.2680     1.6170 H     1 <1>   0.0800 
 46 H       -7.5010     0.0920     2.6350 H     1 <1>   0.0800 
@<TRIPOS>BOND
  1   1   2  2   
  2   1   3  2   
  3   1   4  am  
  4   1   5  1   
  5   4   6  1   
  6   4   7  1   
  7   5   8  ar  
  8   5   9  ar  
  9   6  10  1   
 10   6  23  1   
 11   6  24  1   
 12   7  11  1   
 13   7  25  1   
 14   7  26  1   
 15   8  12  ar  
 16   8  27  1   
 17   9  13  ar  
 18   9  28  1   
 19  10  14  2   
 20  10  15  am  
 21  11  29  1   
 22  11  30  1   
 23  11  31  1   
 24  12  16  ar  
 25  12  32  1   
 26  13  16  ar  
 27  13  33  1   
 28  15  17  1   
 29  15  18  1   
 30  16  34  1   
 31  17  19  1   
 32  17  35  1   
 33  17  36  1   
 34  18  20  1   
 35  18  37  1   
 36  18  38  1   
 37  19  21  1   
 38  19  39  1   
 39  19  40  1   
 40  20  21  1   
 41  20  41  1   
 42  20  42  1   
 43  21  22  1   
 44  21  43  1   
 45  22  44  1   
 46  22  45  1   
 47  22  46  1   
@<TRIPOS>SUBSTRUCTURE
  1 ****   1 GROUP 4 **** **** 0

# MOE 2024.06 (io_trps.svl 2023.06)
