@<TRIPOS>MOLECULE
NONAME
29 31 1 0 0 
SMALL
USER_CHARGES


@<TRIPOS>ATOM
  1 S       -9.2760     2.8650    -0.8140 S.3   1 <1>  -0.0800 
  2 C       -7.7330     3.7160    -0.7340 C.ar  1 <1>   0.2970 
  3 C       -8.6120     1.4680     0.0390 C.2   1 <1>  -0.1400 
  4 N       -7.5450     4.9240    -1.2210 N.ar  1 <1>  -0.5670 
  5 C       -6.7950     2.9400    -0.1020 C.ar  1 <1>   0.0000 
  6 C       -7.3170     1.6720     0.3380 C.2   1 <1>  -0.1500 
  7 C       -9.5550     0.3120     0.3000 C.3   1 <1>  -0.0600 
  8 C       -6.3100     5.3510    -1.0340 C.ar  1 <1>   0.4700 
  9 C       -5.5270     3.5120     0.0060 C.ar  1 <1>   0.4100 
 10 N       -5.2900     4.7290    -0.4550 N.ar  1 <1>  -0.6200 
 11 N       -4.4730     2.8290     0.5730 N.pl3 1 <1>  -0.8380 
 12 C       -3.9510     1.6080    -0.1070 C.3   1 <1>   0.2090 
 13 C       -3.4130     3.5610     1.3310 C.3   1 <1>   0.2090 
 14 C       -2.6610     1.9220    -0.8880 C.3   1 <1>   0.1200 
 15 C       -2.1540     3.7610     0.4670 C.3   1 <1>   0.1200 
 16 O       -1.7120     2.5420    -0.0650 O.3   1 <1>  -0.5600 
 17 H       -6.6780     0.9870     0.8660 H     1 <1>   0.1500 
 18 H       -9.9250    -0.0760    -0.6320 H     1 <1>   0.0800 
 19 H      -10.3870     0.6460     0.8930 H     1 <1>   0.0800 
 20 H       -9.0450    -0.4730     0.8270 H     1 <1>   0.0800 
 21 H       -6.0990     6.3400    -1.4060 H     1 <1>   0.1500 
 22 H       -4.6880     1.2200    -0.7880 H     1 <1>   0.0800 
 23 H       -3.7450     0.8510     0.6300 H     1 <1>   0.0800 
 24 H       -3.1530     2.9960     2.2090 H     1 <1>   0.0800 
 25 H       -3.7840     4.5180     1.6550 H     1 <1>   0.0800 
 26 H       -2.8770     2.5760    -1.7160 H     1 <1>   0.0800 
 27 H       -2.2260     1.0150    -1.2670 H     1 <1>   0.0800 
 28 H       -1.3580     4.1710     1.0610 H     1 <1>   0.0800 
 29 H       -2.3660     4.4360    -0.3440 H     1 <1>   0.0800 
@<TRIPOS>BOND
  1   1   2  1   
  2   1   3  1   
  3   2   4  ar  
  4   2   5  ar  
  5   3   6  2   
  6   3   7  1   
  7   4   8  ar  
  8   5   6  1   
  9   5   9  ar  
 10   6  17  1   
 11   7  18  1   
 12   7  19  1   
 13   7  20  1   
 14   8  10  ar  
 15   8  21  1   
 16   9  10  ar  
 17   9  11  1   
 18  11  12  1   
 19  11  13  1   
 20  12  14  1   
 21  12  22  1   
 22  12  23  1   
 23  13  15  1   
 24  13  24  1   
 25  13  25  1   
 26  14  16  1   
 27  14  26  1   
 28  14  27  1   
 29  15  16  1   
 30  15  28  1   
 31  15  29  1   
@<TRIPOS>SUBSTRUCTURE
  1 ****   9 GROUP 4 **** **** 0

# MOE 2024.06 (io_trps.svl 2023.06)
