@<TRIPOS>MOLECULE
NONAME
37 38 1 0 0 
SMALL
USER_CHARGES


@<TRIPOS>ATOM
  1 S        0.3410     0.5080    -1.0970 S.o2  1 <1>   1.2040 
  2 O        1.0340     1.4470    -1.9530 O.2   1 <1>  -0.6500 
  3 O        0.2370    -0.8640    -1.5480 O.2   1 <1>  -0.6500 
  4 C       -1.3130     1.1860    -0.6480 C.ar  1 <1>   0.3010 
  5 C        1.1800     0.4890     0.4980 C.3   1 <1>  -0.0550 
  6 N       -2.3440     0.3390    -0.5620 N.ar  1 <1>  -0.6200 
  7 C       -1.4660     2.5490    -0.3790 C.ar  1 <1>   0.0730 
  8 C        2.6910     0.1900     0.4530 C.3   1 <1>  -0.1600 
  9 C       -3.5380     0.8200    -0.2690 C.ar  1 <1>   0.1660 
 10 C       -0.3670     3.4680    -0.3610 C.1   1 <1>   0.4840 
 11 C       -2.7240     3.0410    -0.0760 C.ar  1 <1>  -0.1500 
 12 C        3.0050    -1.2640     0.0760 C.3   1 <1>  -0.1600 
 13 C       -3.7820     2.1630    -0.0220 C.ar  1 <1>  -0.1440 
 14 C       -4.6540    -0.2150    -0.2030 C.3   1 <1>  -0.0160 
 15 N        0.5020     4.1950    -0.2520 N.1   1 <1>  -0.5570 
 16 C        4.5090    -1.5380     0.1630 C.3   1 <1>  -0.2400 
 17 C       -5.1750     2.6950     0.2990 C.3   1 <1>  -0.0170 
 18 C       -6.0610     0.3980    -0.2100 C.3   1 <1>  -0.1600 
 19 C       -6.1340     1.5880     0.7500 C.3   1 <1>  -0.1600 
 20 H        0.7040    -0.2280     1.1400 H     1 <1>   0.0800 
 21 H        1.0670     1.4510     0.9590 H     1 <1>   0.0800 
 22 H        3.1060     0.3930     1.4250 H     1 <1>   0.0800 
 23 H        3.1660     0.8570    -0.2490 H     1 <1>   0.0800 
 24 H       -2.8710     4.0910     0.1200 H     1 <1>   0.1500 
 25 H        2.6770    -1.4660    -0.9290 H     1 <1>   0.0800 
 26 H        2.4840    -1.9360     0.7370 H     1 <1>   0.0800 
 27 H       -4.5200    -0.7860     0.6980 H     1 <1>   0.0800 
 28 H       -4.5600    -0.8920    -1.0340 H     1 <1>   0.0800 
 29 H        5.0470    -0.8920    -0.5080 H     1 <1>   0.0800 
 30 H        4.7110    -2.5580    -0.1120 H     1 <1>   0.0800 
 31 H        4.8670    -1.3770     1.1640 H     1 <1>   0.0800 
 32 H       -5.5710     3.1640    -0.5860 H     1 <1>   0.0800 
 33 H       -5.1150     3.4440     1.0690 H     1 <1>   0.0800 
 34 H       -6.7800    -0.3510     0.0740 H     1 <1>   0.0800 
 35 H       -6.3010     0.7270    -1.2070 H     1 <1>   0.0800 
 36 H       -7.1390     1.9730     0.7810 H     1 <1>   0.0800 
 37 H       -5.8710     1.2660     1.7430 H     1 <1>   0.0800 
@<TRIPOS>BOND
  1   1   2  2   
  2   1   3  2   
  3   1   4  1   
  4   1   5  1   
  5   4   6  ar  
  6   4   7  ar  
  7   5   8  1   
  8   5  20  1   
  9   5  21  1   
 10   6   9  ar  
 11   7  10  1   
 12   7  11  ar  
 13   8  12  1   
 14   8  22  1   
 15   8  23  1   
 16   9  13  ar  
 17   9  14  1   
 18  10  15  3   
 19  11  13  ar  
 20  11  24  1   
 21  12  16  1   
 22  12  25  1   
 23  12  26  1   
 24  13  17  1   
 25  14  18  1   
 26  14  27  1   
 27  14  28  1   
 28  16  29  1   
 29  16  30  1   
 30  16  31  1   
 31  17  19  1   
 32  17  32  1   
 33  17  33  1   
 34  18  19  1   
 35  18  34  1   
 36  18  35  1   
 37  19  36  1   
 38  19  37  1   
@<TRIPOS>SUBSTRUCTURE
  1 ****   4 GROUP 4 **** **** 0

# MOE 2024.06 (io_trps.svl 2023.06)
