@<TRIPOS>MOLECULE
NONAME
46 48 1 0 0 
SMALL
USER_CHARGES


@<TRIPOS>ATOM
  1 O        0.2330    -1.0520     3.1870 O.2   1 <1>  -0.5700 
  2 C       -0.2650    -1.3560     2.1300 C.2   1 <1>   0.5690 
  3 N        0.4110    -1.4480     0.9460 N.am  1 <1>  -0.5470 
  4 C       -1.7620    -1.6650     2.0760 C.3   1 <1>   0.1710 
  5 C        1.7520    -1.2610     0.5790 C.ar  1 <1>   0.1170 
  6 N       -2.3700    -1.4660     0.7250 N.3   1 <1>  -0.8100 
  7 C        2.0830    -1.3320    -0.7700 C.ar  1 <1>  -0.1500 
  8 C        2.7680    -1.0100     1.4950 C.ar  1 <1>  -0.1500 
  9 C       -2.5300    -0.0190     0.4300 C.3   1 <1>   0.1100 
 10 C       -3.6940    -2.1230     0.6460 C.3   1 <1>   0.1100 
 11 C        3.3870    -1.1590    -1.2030 C.ar  1 <1>  -0.1440 
 12 C        4.0730    -0.8330     1.0730 C.ar  1 <1>  -0.1500 
 13 C       -3.1390     0.2320    -0.9630 C.3   1 <1>   0.2090 
 14 C       -4.3700    -1.9340    -0.7280 C.3   1 <1>   0.2090 
 15 C        4.3830    -0.9070    -0.2740 C.ar  1 <1>  -0.1500 
 16 C        3.7300    -1.2400    -2.6790 C.3   1 <1>  -0.0970 
 17 N       -4.4290    -0.4980    -1.1350 N.pl3 1 <1>  -0.8380 
 18 C       -5.6140     0.2310    -1.0440 C.ar  1 <1>   0.1000 
 19 C       -6.4910     0.0960     0.0280 C.ar  1 <1>  -0.1500 
 20 C       -5.9380     1.1320    -2.0510 C.ar  1 <1>  -0.1500 
 21 C       -7.6550     0.8410     0.0920 C.ar  1 <1>  -0.1500 
 22 C       -7.0990     1.8810    -1.9930 C.ar  1 <1>  -0.1500 
 23 C       -7.9610     1.7360    -0.9190 C.ar  1 <1>  -0.1500 
 24 H       -0.2360    -1.6570     0.1800 H     1 <1>   0.3700 
 25 H       -2.2700    -1.0560     2.8040 H     1 <1>   0.0800 
 26 H       -1.8770    -2.6930     2.3690 H     1 <1>   0.0800 
 27 H        1.3080    -1.5260    -1.4880 H     1 <1>   0.1500 
 28 H        2.5490    -0.9510     2.5440 H     1 <1>   0.1500 
 29 H       -1.5730     0.4720     0.4760 H     1 <1>   0.0800 
 30 H       -3.1700     0.4370     1.1660 H     1 <1>   0.0800 
 31 H       -4.3410    -1.7260     1.4080 H     1 <1>   0.0800 
 32 H       -3.5790    -3.1780     0.8260 H     1 <1>   0.0800 
 33 H        4.8480    -0.6390     1.7940 H     1 <1>   0.1500 
 34 H       -2.4470    -0.0940    -1.7190 H     1 <1>   0.0800 
 35 H       -3.3000     1.2880    -1.0930 H     1 <1>   0.0800 
 36 H       -5.3650    -2.3430    -0.7040 H     1 <1>   0.0800 
 37 H       -3.8120    -2.4790    -1.4700 H     1 <1>   0.0800 
 38 H        5.4010    -0.7670    -0.5930 H     1 <1>   0.1500 
 39 H        2.9940    -1.8170    -3.2090 H     1 <1>   0.0800 
 40 H        4.6880    -1.7070    -2.8150 H     1 <1>   0.0800 
 41 H        3.7630    -0.2500    -3.0990 H     1 <1>   0.0800 
 42 H       -6.2590    -0.5880     0.8190 H     1 <1>   0.1500 
 43 H       -5.2690     1.2350    -2.8850 H     1 <1>   0.1500 
 44 H       -8.3240     0.7270     0.9270 H     1 <1>   0.1500 
 45 H       -7.3330     2.5730    -2.7820 H     1 <1>   0.1500 
 46 H       -8.8660     2.3170    -0.8710 H     1 <1>   0.1500 
@<TRIPOS>BOND
  1   1   2  2   
  2   2   3  am  
  3   2   4  1   
  4   3   5  1   
  5   3  24  1   
  6   4   6  1   
  7   4  25  1   
  8   4  26  1   
  9   5   7  ar  
 10   5   8  ar  
 11   6   9  1   
 12   6  10  1   
 13   7  11  ar  
 14   7  27  1   
 15   8  12  ar  
 16   8  28  1   
 17   9  13  1   
 18   9  29  1   
 19   9  30  1   
 20  10  14  1   
 21  10  31  1   
 22  10  32  1   
 23  11  15  ar  
 24  11  16  1   
 25  12  15  ar  
 26  12  33  1   
 27  13  17  1   
 28  13  34  1   
 29  13  35  1   
 30  14  17  1   
 31  14  36  1   
 32  14  37  1   
 33  15  38  1   
 34  16  39  1   
 35  16  40  1   
 36  16  41  1   
 37  17  18  1   
 38  18  19  ar  
 39  18  20  ar  
 40  19  21  ar  
 41  19  42  1   
 42  20  22  ar  
 43  20  43  1   
 44  21  23  ar  
 45  21  44  1   
 46  22  23  ar  
 47  22  45  1   
 48  23  46  1   
@<TRIPOS>SUBSTRUCTURE
  1 ****   9 GROUP 4 **** **** 0

# MOE 2024.06 (io_trps.svl 2023.06)
