@<TRIPOS>MOLECULE
NONAME
49 51 1 0 0 
SMALL
USER_CHARGES


@<TRIPOS>ATOM
  1 S        0.8200     2.0020    -1.2880 S.3   1 <1>  -0.0800 
  2 C        2.4540     1.5800    -0.7990 C.2   1 <1>   0.1040 
  3 C        0.7050     0.5670    -2.3000 C.2   1 <1>  -0.1100 
  4 N        3.1710     2.4000     0.0630 N.am  1 <1>  -0.4940 
  5 C        2.8400     0.4130    -1.3730 C.2   1 <1>   0.0190 
  6 C        1.8420    -0.1520    -2.2340 C.2   1 <1>  -0.1500 
  7 C        2.8340     2.9380     1.2690 C.2   1 <1>   0.5690 
  8 C        4.1070    -0.1890    -1.0930 C.1   1 <1>   0.5380 
  9 O        1.7070     3.0910     1.6650 O.2   1 <1>  -0.5700 
 10 C        4.0310     3.2460     2.1710 C.3   1 <1>   0.1710 
 11 N        5.1280    -0.5640    -0.7400 N.1   1 <1>  -0.5570 
 12 N        5.1370     2.2500     1.9610 N.3   1 <1>  -0.8100 
 13 C        6.4620     2.7260     2.4140 C.3   1 <1>   0.1100 
 14 C        4.8170     0.9370     2.5900 C.3   1 <1>   0.1100 
 15 C        7.5870     1.7230     2.0460 C.3   1 <1>   0.3430 
 16 C        5.9490    -0.1110     2.4250 C.3   1 <1>   0.3430 
 17 N        7.0410     0.4100     1.5480 N.4   1 <1>  -0.9590 
 18 C        8.0760    -0.5980     1.2070 C.3   1 <1>   0.4860 
 19 C        9.0760     0.0360     0.2590 C.ar  1 <1>  -0.1440 
 20 C        8.6920     0.3730    -1.0300 C.ar  1 <1>  -0.1500 
 21 C       10.3730     0.3030     0.6740 C.ar  1 <1>  -0.1500 
 22 C        9.5790     0.9890    -1.8960 C.ar  1 <1>   0.0820 
 23 C       11.2680     0.9120    -0.1890 C.ar  1 <1>  -0.1500 
 24 O        9.1070     1.2950    -3.1280 O.3   1 <1>  -0.3620 
 25 C       10.8760     1.2590    -1.4700 C.ar  1 <1>  -0.1500 
 26 C        9.9510     1.8310    -4.1240 C.3   1 <1>   0.0400 
 27 H       -0.2150     0.4200    -2.8400 H     1 <1>   0.1500 
 28 H        4.1900     2.3200     0.0040 H     1 <1>   0.3700 
 29 H        2.0190    -1.0740    -2.7620 H     1 <1>   0.1500 
 30 H        3.7130     3.2490     3.2000 H     1 <1>   0.0800 
 31 H        4.3760     4.2340     1.9240 H     1 <1>   0.0800 
 32 H        6.4500     2.8740     3.4810 H     1 <1>   0.0800 
 33 H        6.6840     3.6760     1.9580 H     1 <1>   0.0800 
 34 H        3.9180     0.5380     2.1520 H     1 <1>   0.0800 
 35 H        4.6230     1.0730     3.6410 H     1 <1>   0.0800 
 36 H        8.2110     1.5620     2.9100 H     1 <1>   0.0800 
 37 H        8.2050     2.1660     1.2820 H     1 <1>   0.0800 
 38 H        5.5320    -1.0090     1.9990 H     1 <1>   0.0800 
 39 H        6.3450    -0.3590     3.3960 H     1 <1>   0.0800 
 40 H        6.5660     0.6350     0.6590 H     1 <1>   0.4500 
 41 H        7.6190    -1.4480     0.7260 H     1 <1>   0.0800 
 42 H        8.5790    -0.9340     2.0980 H     1 <1>   0.0800 
 43 H        7.7010     0.1650    -1.3920 H     1 <1>   0.1500 
 44 H       10.7040     0.0420     1.6650 H     1 <1>   0.1500 
 45 H       12.2750     1.1170     0.1340 H     1 <1>   0.1500 
 46 H       11.5890     1.7330    -2.1180 H     1 <1>   0.1500 
 47 H        9.3730     1.9540    -5.0220 H     1 <1>   0.0800 
 48 H       10.7600     1.1440    -4.3020 H     1 <1>   0.0800 
 49 H       10.3210     2.7850    -3.7950 H     1 <1>   0.0800 
@<TRIPOS>BOND
  1   1   2  1   
  2   1   3  1   
  3   2   4  1   
  4   2   5  2   
  5   3   6  2   
  6   3  27  1   
  7   4   7  am  
  8   4  28  1   
  9   5   6  1   
 10   5   8  1   
 11   6  29  1   
 12   7   9  2   
 13   7  10  1   
 14   8  11  3   
 15  10  12  1   
 16  10  30  1   
 17  10  31  1   
 18  12  13  1   
 19  12  14  1   
 20  13  15  1   
 21  13  32  1   
 22  13  33  1   
 23  14  16  1   
 24  14  34  1   
 25  14  35  1   
 26  15  17  1   
 27  15  36  1   
 28  15  37  1   
 29  16  17  1   
 30  16  38  1   
 31  16  39  1   
 32  17  18  1   
 33  17  40  1   
 34  18  19  1   
 35  18  41  1   
 36  18  42  1   
 37  19  20  ar  
 38  19  21  ar  
 39  20  22  ar  
 40  20  43  1   
 41  21  23  ar  
 42  21  44  1   
 43  22  24  1   
 44  22  25  ar  
 45  23  25  ar  
 46  23  45  1   
 47  24  26  1   
 48  25  46  1   
 49  26  47  1   
 50  26  48  1   
 51  26  49  1   
@<TRIPOS>SUBSTRUCTURE
  1 ****  11 GROUP 4 **** **** 0

# MOE 2024.06 (io_trps.svl 2023.06)
