@<TRIPOS>MOLECULE
NONAME
32 32 1 0 0 
SMALL
USER_CHARGES


@<TRIPOS>ATOM
  1 BR       1.8150     1.4230     2.5230 Br    1 <1>  -0.1110 
  2 C        0.9970     2.4540     1.1100 C.ar  1 <1>   0.1110 
  3 C        1.6870     2.6570    -0.0780 C.ar  1 <1>   0.0830 
  4 C       -0.2640     2.9710     1.3350 C.ar  1 <1>  -0.1500 
  5 O        2.9250     2.1160    -0.2130 O.3   1 <1>  -0.3630 
  6 C        1.0670     3.4110    -1.0710 C.ar  1 <1>  -0.1500 
  7 C       -0.8690     3.7250     0.3410 C.ar  1 <1>  -0.1430 
  8 C        3.8260     2.5980    -1.2000 C.3   1 <1>   0.1810 
  9 C       -0.1980     3.9380    -0.8560 C.ar  1 <1>  -0.1500 
 10 C       -2.2570     4.3060     0.5590 C.3   1 <1>  -0.0160 
 11 C        5.2260     2.0070    -1.0330 C.2   1 <1>   0.5690 
 12 C       -3.3300     3.3200     0.0920 C.3   1 <1>  -0.2400 
 13 O        5.7130     1.4850    -2.0110 O.2   1 <1>  -0.5700 
 14 N        5.9180     2.0940     0.1570 N.am  1 <1>  -0.6600 
 15 C        7.2510     1.4520     0.3310 C.3   1 <1>   0.0600 
 16 C        5.3780     2.7210     1.3960 C.3   1 <1>   0.0600 
 17 H       -0.7590     2.7850     2.2710 H     1 <1>   0.1500 
 18 H        1.5450     3.5930    -2.0140 H     1 <1>   0.1500 
 19 H        3.8810     3.6670    -1.1200 H     1 <1>   0.0800 
 20 H        3.4420     2.3230    -2.1640 H     1 <1>   0.0800 
 21 H       -0.6660     4.5160    -1.6330 H     1 <1>   0.1500 
 22 H       -2.3550     5.2300     0.0160 H     1 <1>   0.0800 
 23 H       -2.4000     4.5260     1.6030 H     1 <1>   0.0800 
 24 H       -3.2080     3.1060    -0.9550 H     1 <1>   0.0800 
 25 H       -4.3090     3.7360     0.2480 H     1 <1>   0.0800 
 26 H       -3.2540     2.3990     0.6430 H     1 <1>   0.0800 
 27 H        7.5640     0.9600    -0.5740 H     1 <1>   0.0800 
 28 H        7.2000     0.7190     1.1170 H     1 <1>   0.0800 
 29 H        7.9830     2.1980     0.5860 H     1 <1>   0.0800 
 30 H        6.1760     3.1740     1.9580 H     1 <1>   0.0800 
 31 H        4.9030     1.9680     2.0020 H     1 <1>   0.0800 
 32 H        4.6570     3.4830     1.1610 H     1 <1>   0.0800 
@<TRIPOS>BOND
  1   1   2  1   
  2   2   3  ar  
  3   2   4  ar  
  4   3   5  1   
  5   3   6  ar  
  6   4   7  ar  
  7   4  17  1   
  8   5   8  1   
  9   6   9  ar  
 10   6  18  1   
 11   7   9  ar  
 12   7  10  1   
 13   8  11  1   
 14   8  19  1   
 15   8  20  1   
 16   9  21  1   
 17  10  12  1   
 18  10  22  1   
 19  10  23  1   
 20  11  13  2   
 21  11  14  am  
 22  12  24  1   
 23  12  25  1   
 24  12  26  1   
 25  14  15  1   
 26  14  16  1   
 27  15  27  1   
 28  15  28  1   
 29  15  29  1   
 30  16  30  1   
 31  16  31  1   
 32  16  32  1   
@<TRIPOS>SUBSTRUCTURE
  1 ****   3 GROUP 4 **** **** 0

# MOE 2024.06 (io_trps.svl 2023.06)
