@<TRIPOS>MOLECULE
NONAME
37 37 1 0 0 
SMALL
USER_CHARGES


@<TRIPOS>ATOM
  1 CL      -0.3350     0.4270     0.7800 Cl    1 <1>  -0.1770 
  2 C       -1.6840    -0.6010     0.3550 C.ar  1 <1>   0.1770 
  3 C       -1.4750    -1.9000    -0.0800 C.ar  1 <1>   0.1770 
  4 C       -2.9670    -0.0970     0.4590 C.ar  1 <1>  -0.1500 
  5 CL       0.1430    -2.5510    -0.2170 Cl    1 <1>  -0.1770 
  6 C       -2.5490    -2.7070    -0.4140 C.ar  1 <1>  -0.1500 
  7 C       -4.0500    -0.8980     0.1270 C.ar  1 <1>   0.0830 
  8 C       -3.8380    -2.2060    -0.3110 C.ar  1 <1>  -0.1500 
  9 O       -5.2770    -0.3360     0.2540 O.3   1 <1>  -0.3630 
 10 C       -6.4520    -1.0470    -0.0520 C.3   1 <1>   0.1200 
 11 C       -7.6360    -0.1120     0.2050 C.3   1 <1>  -0.1600 
 12 C       -8.9810    -0.7900    -0.0980 C.3   1 <1>  -0.1600 
 13 C      -10.1390     0.1720     0.1680 C.3   1 <1>   0.3430 
 14 N      -11.4190    -0.5120    -0.1370 N.4   1 <1>  -0.9060 
 15 C      -12.6100     0.3130     0.1130 C.3   1 <1>   0.4230 
 16 C      -13.8190    -0.6120     0.0790 C.3   1 <1>  -0.2400 
 17 C      -12.7190     1.3860    -0.9670 C.3   1 <1>  -0.2400 
 18 H       -3.1250     0.9100     0.7970 H     1 <1>   0.1500 
 19 H       -2.3720    -3.7130    -0.7500 H     1 <1>   0.1500 
 20 H       -4.6570    -2.8480    -0.5750 H     1 <1>   0.1500 
 21 H       -6.4980    -1.9150     0.5840 H     1 <1>   0.0800 
 22 H       -6.4090    -1.3420    -1.0870 H     1 <1>   0.0800 
 23 H       -7.5210     0.7610    -0.4150 H     1 <1>   0.0800 
 24 H       -7.6080     0.1950     1.2370 H     1 <1>   0.0800 
 25 H       -9.0810    -1.6610     0.5260 H     1 <1>   0.0800 
 26 H       -8.9920    -1.0940    -1.1310 H     1 <1>   0.0800 
 27 H      -10.0280     1.0480    -0.4510 H     1 <1>   0.0800 
 28 H      -10.1220     0.4820     1.2020 H     1 <1>   0.0800 
 29 H      -11.4920    -1.3630     0.4310 H     1 <1>   0.4500 
 30 H      -11.4320    -0.8080    -1.1190 H     1 <1>   0.4500 
 31 H      -12.5440     0.7770     1.0860 H     1 <1>   0.0800 
 32 H      -13.9190    -1.0920    -0.8790 H     1 <1>   0.0800 
 33 H      -14.7130    -0.0410     0.2580 H     1 <1>   0.0800 
 34 H      -13.7510    -1.3580     0.8510 H     1 <1>   0.0800 
 35 H      -12.7650     0.9500    -1.9490 H     1 <1>   0.0800 
 36 H      -11.8960     2.0760    -0.9170 H     1 <1>   0.0800 
 37 H      -13.6200     1.9540    -0.8160 H     1 <1>   0.0800 
@<TRIPOS>BOND
  1   1   2  1   
  2   2   3  ar  
  3   2   4  ar  
  4   3   5  1   
  5   3   6  ar  
  6   4   7  ar  
  7   4  18  1   
  8   6   8  ar  
  9   6  19  1   
 10   7   8  ar  
 11   7   9  1   
 12   8  20  1   
 13   9  10  1   
 14  10  11  1   
 15  10  21  1   
 16  10  22  1   
 17  11  12  1   
 18  11  23  1   
 19  11  24  1   
 20  12  13  1   
 21  12  25  1   
 22  12  26  1   
 23  13  14  1   
 24  13  27  1   
 25  13  28  1   
 26  14  15  1   
 27  14  29  1   
 28  14  30  1   
 29  15  16  1   
 30  15  17  1   
 31  15  31  1   
 32  16  32  1   
 33  16  33  1   
 34  16  34  1   
 35  17  35  1   
 36  17  36  1   
 37  17  37  1   
@<TRIPOS>SUBSTRUCTURE
  1 ****  10 GROUP 4 **** **** 0

# MOE 2024.06 (io_trps.svl 2023.06)
