@<TRIPOS>MOLECULE
NONAME
34 35 1 0 0 
SMALL
USER_CHARGES


@<TRIPOS>ATOM
  1 F       -0.4730     0.9690    -0.7240 F     1 <1>  -0.3400 
  2 C       -1.7300     1.3860    -0.6240 C.3   1 <1>   1.1640 
  3 F       -1.7070     2.4510     0.1690 F     1 <1>  -0.3400 
  4 F       -2.0750     1.8200    -1.8290 F     1 <1>  -0.3400 
  5 C       -2.6560     0.2650    -0.1240 C.ar  1 <1>  -0.1440 
  6 C       -2.6640    -0.9640    -0.7770 C.ar  1 <1>  -0.1500 
  7 C       -3.4970     0.4410     0.9700 C.ar  1 <1>  -0.1500 
  8 C       -3.4810    -1.9990    -0.3490 C.ar  1 <1>  -0.1440 
  9 C       -4.3220    -0.5840     1.3960 C.ar  1 <1>  -0.1500 
 10 C       -4.3160    -1.7990     0.7380 C.ar  1 <1>  -0.1500 
 11 C       -3.4590    -3.3450    -1.0560 C.3   1 <1>  -0.0160 
 12 C       -2.7360    -4.4020    -0.2020 C.3   1 <1>  -0.0800 
 13 C       -1.3620    -3.8870     0.2570 C.3   1 <1>   0.3430 
 14 C       -2.6030    -5.7280    -0.9710 C.3   1 <1>  -0.1600 
 15 N       -0.6500    -4.9340     1.0460 N.4   1 <1>  -0.9060 
 16 C       -1.7950    -6.7530    -0.1610 C.3   1 <1>  -0.1600 
 17 C       -0.4410    -6.1930     0.2810 C.3   1 <1>   0.3430 
 18 H       -2.0250    -1.1060    -1.6340 H     1 <1>   0.1500 
 19 H       -3.5230     1.3800     1.5000 H     1 <1>   0.1500 
 20 H       -4.9750    -0.4310     2.2390 H     1 <1>   0.1500 
 21 H       -4.9720    -2.5830     1.0770 H     1 <1>   0.1500 
 22 H       -2.9740    -3.2440    -2.0120 H     1 <1>   0.0800 
 23 H       -4.4720    -3.6610    -1.2460 H     1 <1>   0.0800 
 24 H       -3.3360    -4.5720     0.6760 H     1 <1>   0.0800 
 25 H       -1.4950    -3.0000     0.8590 H     1 <1>   0.0800 
 26 H       -0.7760    -3.6200    -0.6070 H     1 <1>   0.0800 
 27 H       -2.1100    -5.5560    -1.9140 H     1 <1>   0.0800 
 28 H       -3.5810    -6.1290    -1.1840 H     1 <1>   0.0800 
 29 H       -1.2050    -5.1430     1.8850 H     1 <1>   0.4500 
 30 H        0.2540    -4.5660     1.3680 H     1 <1>   0.4500 
 31 H       -1.6310    -7.6300    -0.7640 H     1 <1>   0.0800 
 32 H       -2.3560    -7.0630     0.7040 H     1 <1>   0.0800 
 33 H        0.0700    -6.9200     0.8930 H     1 <1>   0.0800 
 34 H        0.1660    -5.9950    -0.5880 H     1 <1>   0.0800 
@<TRIPOS>BOND
  1   1   2  1   
  2   2   3  1   
  3   2   4  1   
  4   2   5  1   
  5   5   6  ar  
  6   5   7  ar  
  7   6   8  ar  
  8   6  18  1   
  9   7   9  ar  
 10   7  19  1   
 11   8  10  ar  
 12   8  11  1   
 13   9  10  ar  
 14   9  20  1   
 15  10  21  1   
 16  11  12  1   
 17  11  22  1   
 18  11  23  1   
 19  12  13  1   
 20  12  14  1   
 21  12  24  1   
 22  13  15  1   
 23  13  25  1   
 24  13  26  1   
 25  14  16  1   
 26  14  27  1   
 27  14  28  1   
 28  15  17  1   
 29  15  29  1   
 30  15  30  1   
 31  16  17  1   
 32  16  31  1   
 33  16  32  1   
 34  17  33  1   
 35  17  34  1   
@<TRIPOS>SUBSTRUCTURE
  1 ****   8 GROUP 4 **** **** 0

# MOE 2024.06 (io_trps.svl 2023.06)
