@<TRIPOS>MOLECULE
NONAME
50 53 1 0 0 
SMALL
USER_CHARGES


@<TRIPOS>ATOM
  1 F        1.4160     0.0940     0.0410 F     1 <1>  -0.1900 
  2 C        2.3820     0.9740     0.0860 C.ar  1 <1>   0.1900 
  3 C        2.1230     2.2220     0.6180 C.ar  1 <1>  -0.1500 
  4 C        3.6270     0.6240    -0.3980 C.ar  1 <1>  -0.1500 
  5 C        3.1510     3.1490     0.6630 C.ar  1 <1>  -0.1500 
  6 C        4.6450     1.5620    -0.3470 C.ar  1 <1>  -0.1500 
  7 C        4.4230     2.8330     0.1830 C.ar  1 <1>   0.1170 
  8 N        5.4710     3.7810     0.2310 N.am  1 <1>  -0.2370 
  9 C        6.7390     3.5300     0.6800 C.2   1 <1>   0.5690 
 10 C        5.3720     5.0960    -0.1340 C.2   1 <1>   0.5690 
 11 O        7.0970     2.5140     1.2270 O.2   1 <1>  -0.5700 
 12 C        7.6580     4.7480     0.4750 C.3   1 <1>   0.2510 
 13 O        4.3880     5.6490    -0.5530 O.2   1 <1>  -0.5700 
 14 C        6.6620     5.8440     0.0720 C.3   1 <1>  -0.0990 
 15 N        8.6990     4.6200    -0.5870 N.3   1 <1>  -0.8100 
 16 C        9.6610     5.7580    -0.5280 C.3   1 <1>   0.1100 
 17 C        9.4540     3.3370    -0.4820 C.3   1 <1>   0.1100 
 18 C       10.7610     5.6580    -1.6000 C.3   1 <1>   0.2090 
 19 C       10.5800     3.2080    -1.5270 C.3   1 <1>   0.2090 
 20 N       11.5030     4.3760    -1.4390 N.pl3 1 <1>  -0.8380 
 21 C       12.6870     4.2980    -0.7350 C.ar  1 <1>   0.7200 
 22 N       13.2790     3.1060    -0.6820 N.ar  1 <1>  -0.6200 
 23 N       13.1320     5.4150    -0.1590 N.ar  1 <1>  -0.6200 
 24 C       14.4010     3.0370    -0.0130 C.ar  1 <1>   0.1670 
 25 C       14.2560     5.3240     0.5050 C.ar  1 <1>   0.1670 
 26 C       14.9400     4.1370     0.6080 C.ar  1 <1>  -0.1500 
 27 C       15.0800     1.6860     0.0460 C.3   1 <1>  -0.0970 
 28 C       14.7730     6.5890     1.1560 C.3   1 <1>  -0.0970 
 29 H        1.1410     2.4600     0.9840 H     1 <1>   0.1500 
 30 H        3.7920    -0.3580    -0.8030 H     1 <1>   0.1500 
 31 H        2.9610     4.1270     1.0700 H     1 <1>   0.1500 
 32 H        5.6210     1.3020    -0.7170 H     1 <1>   0.1500 
 33 H        8.1250     4.9810     1.4160 H     1 <1>   0.0800 
 34 H        6.5330     6.5560     0.8660 H     1 <1>   0.0800 
 35 H        6.9300     6.3460    -0.8380 H     1 <1>   0.0800 
 36 H       10.1380     5.7850     0.4380 H     1 <1>   0.0800 
 37 H        9.1440     6.6890    -0.6690 H     1 <1>   0.0800 
 38 H        8.7860     2.5070    -0.6290 H     1 <1>   0.0800 
 39 H        9.8870     3.2450     0.5000 H     1 <1>   0.0800 
 40 H       11.4250     6.5010    -1.5270 H     1 <1>   0.0800 
 41 H       10.3100     5.6860    -2.5760 H     1 <1>   0.0800 
 42 H       10.1490     3.1730    -2.5110 H     1 <1>   0.0800 
 43 H       11.1030     2.2810    -1.3720 H     1 <1>   0.0800 
 44 H       15.8610     4.0710     1.1540 H     1 <1>   0.1500 
 45 H       15.3030     1.3540    -0.9520 H     1 <1>   0.0800 
 46 H       14.4220     0.9740     0.5090 H     1 <1>   0.0800 
 47 H       15.9930     1.7360     0.6090 H     1 <1>   0.0800 
 48 H       14.9290     7.3410     0.4030 H     1 <1>   0.0800 
 49 H       15.7000     6.4100     1.6670 H     1 <1>   0.0800 
 50 H       14.0490     6.9510     1.8620 H     1 <1>   0.0800 
@<TRIPOS>BOND
  1   1   2  1   
  2   2   3  ar  
  3   2   4  ar  
  4   3   5  ar  
  5   3  29  1   
  6   4   6  ar  
  7   4  30  1   
  8   5   7  ar  
  9   5  31  1   
 10   6   7  ar  
 11   6  32  1   
 12   7   8  1   
 13   8   9  am  
 14   8  10  am  
 15   9  11  2   
 16   9  12  1   
 17  10  13  2   
 18  10  14  1   
 19  12  14  1   
 20  12  15  1   
 21  12  33  1   
 22  14  34  1   
 23  14  35  1   
 24  15  16  1   
 25  15  17  1   
 26  16  18  1   
 27  16  36  1   
 28  16  37  1   
 29  17  19  1   
 30  17  38  1   
 31  17  39  1   
 32  18  20  1   
 33  18  40  1   
 34  18  41  1   
 35  19  20  1   
 36  19  42  1   
 37  19  43  1   
 38  20  21  1   
 39  21  22  ar  
 40  21  23  ar  
 41  22  24  ar  
 42  23  25  ar  
 43  24  26  ar  
 44  24  27  1   
 45  25  26  ar  
 46  25  28  1   
 47  26  44  1   
 48  27  45  1   
 49  27  46  1   
 50  27  47  1   
 51  28  48  1   
 52  28  49  1   
 53  28  50  1   
@<TRIPOS>SUBSTRUCTURE
  1 ****  15 GROUP 4 **** **** 0

# MOE 2024.06 (io_trps.svl 2023.06)
