@<TRIPOS>MOLECULE
NONAME
41 42 1 0 0 
SMALL
USER_CHARGES


@<TRIPOS>ATOM
  1 O        1.0560    -0.1600    -1.2710 O.3   1 <1>  -0.3630 
  2 C        0.6080    -1.3720    -0.8510 C.ar  1 <1>   0.0830 
  3 C        1.9860     0.6110    -0.5420 C.3   1 <1>   0.1200 
  4 C        0.9170    -1.9380     0.3830 C.ar  1 <1>  -0.1500 
  5 C       -0.2080    -2.0680    -1.7280 C.ar  1 <1>  -0.1500 
  6 C        3.3960     0.0510    -0.7600 C.3   1 <1>  -0.1600 
  7 C        0.4150    -3.1830     0.7210 C.ar  1 <1>  -0.1500 
  8 C       -0.7090    -3.3120    -1.3860 C.ar  1 <1>  -0.1500 
  9 C        4.4480     0.8820    -0.0120 C.3   1 <1>  -0.1600 
 10 C       -0.3990    -3.8780    -0.1600 C.ar  1 <1>  -0.1430 
 11 C        5.8540     0.3120    -0.2380 C.3   1 <1>  -0.1600 
 12 C       -0.9480    -5.2440     0.2160 C.3   1 <1>  -0.0170 
 13 C        6.9160     1.1380     0.4990 C.3   1 <1>   0.0960 
 14 C       -2.2920    -5.1040     0.9350 C.3   1 <1>  -0.2400 
 15 N        8.2580     0.5700     0.2690 N.pl3 1 <1>   0.0480 
 16 C        9.1360     0.8880    -0.7080 C.2   1 <1>   0.0360 
 17 C        8.8770    -0.3860     0.9860 C.2   1 <1>  -0.3020 
 18 N       10.2420     0.2170    -0.6620 N.2   1 <1>  -0.5650 
 19 C       10.0800    -0.5860     0.4060 C.2   1 <1>   0.0770 
 20 H        1.7010     0.6240     0.4950 H     1 <1>   0.0800 
 21 H        1.9270     1.6150    -0.9230 H     1 <1>   0.0800 
 22 H        1.5420    -1.4310     1.0900 H     1 <1>   0.1500 
 23 H       -0.4480    -1.6290    -2.6780 H     1 <1>   0.1500 
 24 H        3.6120     0.0640    -1.8150 H     1 <1>   0.0800 
 25 H        3.4380    -0.9680    -0.4180 H     1 <1>   0.0800 
 26 H        0.6580    -3.6110     1.6780 H     1 <1>   0.1500 
 27 H       -1.3430    -3.8360    -2.0790 H     1 <1>   0.1500 
 28 H        4.2220     0.8770     1.0410 H     1 <1>   0.0800 
 29 H        4.4110     1.9000    -0.3610 H     1 <1>   0.0800 
 30 H        6.0740     0.3130    -1.2930 H     1 <1>   0.0800 
 31 H        5.8890    -0.7050     0.1150 H     1 <1>   0.0800 
 32 H       -0.2480    -5.7530     0.8550 H     1 <1>   0.0800 
 33 H       -1.0730    -5.8410    -0.6700 H     1 <1>   0.0800 
 34 H        6.7200     1.1380     1.5560 H     1 <1>   0.0800 
 35 H        6.9070     2.1540     0.1480 H     1 <1>   0.0800 
 36 H       -2.1740    -4.5220     1.8310 H     1 <1>   0.0800 
 37 H       -2.6760    -6.0730     1.1970 H     1 <1>   0.0800 
 38 H       -3.0030    -4.6100     0.2960 H     1 <1>   0.0800 
 39 H        8.9170     1.6340    -1.4510 H     1 <1>   0.1500 
 40 H        8.4420    -0.8600     1.8460 H     1 <1>   0.1500 
 41 H       10.8510    -1.2780     0.7040 H     1 <1>   0.1500 
@<TRIPOS>BOND
  1   1   2  1   
  2   1   3  1   
  3   2   4  ar  
  4   2   5  ar  
  5   3   6  1   
  6   3  20  1   
  7   3  21  1   
  8   4   7  ar  
  9   4  22  1   
 10   5   8  ar  
 11   5  23  1   
 12   6   9  1   
 13   6  24  1   
 14   6  25  1   
 15   7  10  ar  
 16   7  26  1   
 17   8  10  ar  
 18   8  27  1   
 19   9  11  1   
 20   9  28  1   
 21   9  29  1   
 22  10  12  1   
 23  11  13  1   
 24  11  30  1   
 25  11  31  1   
 26  12  14  1   
 27  12  32  1   
 28  12  33  1   
 29  13  15  1   
 30  13  34  1   
 31  13  35  1   
 32  14  36  1   
 33  14  37  1   
 34  14  38  1   
 35  15  16  1   
 36  15  17  1   
 37  16  18  2   
 38  16  39  1   
 39  17  19  2   
 40  17  40  1   
 41  18  19  1   
 42  19  41  1   
@<TRIPOS>SUBSTRUCTURE
  1 ****   6 GROUP 4 **** **** 0

# MOE 2024.06 (io_trps.svl 2023.06)
