@<TRIPOS>MOLECULE
NONAME
51 52 1 0 0 
SMALL
USER_CHARGES


@<TRIPOS>ATOM
  1 S       -0.1520    -1.0610    -1.4360 S.o2  1 <1>   1.3330 
  2 O        1.2400    -0.9170    -1.7920 O.2   1 <1>  -0.6500 
  3 O       -0.6850    -2.3790    -1.2020 O.2   1 <1>  -0.6500 
  4 N       -0.3700    -0.2130     0.0550 N.am  1 <1>  -0.6930 
  5 C       -1.2050    -0.2200    -2.6020 C.3   1 <1>  -0.1350 
  6 C       -0.8150     1.1120     0.1550 C.ar  1 <1>   0.1990 
  7 C        0.2670    -0.8380     1.2550 C.3   1 <1>   0.2570 
  8 C       -0.1900     2.1940    -0.4840 C.ar  1 <1>   0.0820 
  9 C       -1.9330     1.3700     0.9350 C.ar  1 <1>  -0.1500 
 10 C        1.6610    -0.2970     1.5910 C.2   1 <1>   0.5690 
 11 O        0.9050     1.9740    -1.2610 O.3   1 <1>  -0.3630 
 12 C       -0.6900     3.4800    -0.3400 C.ar  1 <1>  -0.1500 
 13 C       -2.4310     2.6510     1.0890 C.ar  1 <1>   0.0820 
 14 O        1.9110    -0.0680     2.7510 O.2   1 <1>  -0.5700 
 15 N        2.5600    -0.1140     0.5740 N.am  1 <1>  -0.5470 
 16 C        2.0500     2.7670    -1.0240 C.3   1 <1>   0.0400 
 17 C       -1.8060     3.7140     0.4460 C.ar  1 <1>  -0.1500 
 18 O       -3.5290     2.7850     1.8770 O.3   1 <1>  -0.3630 
 19 C        3.8790     0.3570     0.5370 C.ar  1 <1>   0.1170 
 20 C       -4.0860     4.0530     2.1430 C.3   1 <1>   0.0400 
 21 C        4.5130     0.9740     1.6100 C.ar  1 <1>  -0.1500 
 22 C        4.5840     0.2210    -0.6520 C.ar  1 <1>  -0.1500 
 23 C        5.8110     1.4390     1.4950 C.ar  1 <1>  -0.1500 
 24 C        5.8810     0.6860    -0.7710 C.ar  1 <1>  -0.1500 
 25 C        6.5050     1.2990     0.3030 C.ar  1 <1>  -0.1430 
 26 C        7.9310     1.8100     0.1780 C.3   1 <1>  -0.0170 
 27 C        7.9410     3.2650    -0.2950 C.3   1 <1>  -0.2400 
 28 H       -1.1950    -0.7370    -3.5400 H     1 <1>   0.0800 
 29 H       -0.8630     0.7830    -2.7650 H     1 <1>   0.0800 
 30 H       -2.2120    -0.1900    -2.2360 H     1 <1>   0.0800 
 31 H        0.3450    -1.9010     1.1110 H     1 <1>   0.0800 
 32 H       -0.3660    -0.6770     2.1080 H     1 <1>   0.0800 
 33 H       -2.4310     0.5590     1.4340 H     1 <1>   0.1500 
 34 H       -0.2200     4.3050    -0.8430 H     1 <1>   0.1500 
 35 H        2.1810    -0.3330    -0.3580 H     1 <1>   0.3700 
 36 H        2.2600     2.7740     0.0320 H     1 <1>   0.0800 
 37 H        1.8770     3.7640    -1.3850 H     1 <1>   0.0800 
 38 H        2.8760     2.3290    -1.5550 H     1 <1>   0.0800 
 39 H       -2.1700     4.7190     0.5410 H     1 <1>   0.1500 
 40 H       -4.9260     3.9180     2.8010 H     1 <1>   0.0800 
 41 H       -4.4150     4.4920     1.2170 H     1 <1>   0.0800 
 42 H       -3.3440     4.6680     2.6210 H     1 <1>   0.0800 
 43 H        3.9980     1.0990     2.5440 H     1 <1>   0.1500 
 44 H        4.1100    -0.2540    -1.4940 H     1 <1>   0.1500 
 45 H        6.2790     1.9130     2.3390 H     1 <1>   0.1500 
 46 H        6.4040     0.5680    -1.7040 H     1 <1>   0.1500 
 47 H        8.4760     1.1990    -0.5190 H     1 <1>   0.0800 
 48 H        8.4260     1.7370     1.1310 H     1 <1>   0.0800 
 49 H        7.4670     3.3450    -1.2570 H     1 <1>   0.0800 
 50 H        8.9520     3.6220    -0.3760 H     1 <1>   0.0800 
 51 H        7.4080     3.8860     0.4040 H     1 <1>   0.0800 
@<TRIPOS>BOND
  1   1   2  2   
  2   1   3  2   
  3   1   4  am  
  4   1   5  1   
  5   4   6  1   
  6   4   7  1   
  7   5  28  1   
  8   5  29  1   
  9   5  30  1   
 10   6   8  ar  
 11   6   9  ar  
 12   7  10  1   
 13   7  31  1   
 14   7  32  1   
 15   8  11  1   
 16   8  12  ar  
 17   9  13  ar  
 18   9  33  1   
 19  10  14  2   
 20  10  15  am  
 21  11  16  1   
 22  12  17  ar  
 23  12  34  1   
 24  13  17  ar  
 25  13  18  1   
 26  15  19  1   
 27  15  35  1   
 28  16  36  1   
 29  16  37  1   
 30  16  38  1   
 31  17  39  1   
 32  18  20  1   
 33  19  21  ar  
 34  19  22  ar  
 35  20  40  1   
 36  20  41  1   
 37  20  42  1   
 38  21  23  ar  
 39  21  43  1   
 40  22  24  ar  
 41  22  44  1   
 42  23  25  ar  
 43  23  45  1   
 44  24  25  ar  
 45  24  46  1   
 46  25  26  1   
 47  26  27  1   
 48  26  47  1   
 49  26  48  1   
 50  27  49  1   
 51  27  50  1   
 52  27  51  1   
@<TRIPOS>SUBSTRUCTURE
  1 ****  15 GROUP 4 **** **** 0

# MOE 2024.06 (io_trps.svl 2023.06)
