@<TRIPOS>MOLECULE
NONAME
48 50 1 0 0 
SMALL
USER_CHARGES


@<TRIPOS>ATOM
  1 O       -0.8260    -0.0810    -2.5240 O.2   1 <1>  -0.5700 
  2 C       -1.3020    -0.5360    -1.5100 C.2   1 <1>   0.5690 
  3 N       -0.7320    -1.6080    -0.8930 N.am  1 <1>  -0.7300 
  4 C       -2.5720     0.1150    -0.9170 C.3   1 <1>   0.0610 
  5 C        0.4880    -2.3080    -1.3430 C.3   1 <1>   0.1400 
  6 C       -3.0560    -0.5810     0.3840 C.3   1 <1>  -0.1600 
  7 C       -2.2930     1.6020    -0.5890 C.3   1 <1>  -0.1600 
  8 C       -3.7230     0.0510    -1.9500 C.3   1 <1>  -0.1600 
  9 C        1.4720    -2.3910    -0.1770 C.3   1 <1>  -0.1600 
 10 C       -4.3230     0.0950     0.9450 C.3   1 <1>   0.0000 
 11 C       -3.5510     2.3010    -0.0390 C.3   1 <1>   0.0000 
 12 C       -4.9970     0.7340    -1.4140 C.3   1 <1>   0.0000 
 13 C        2.7600    -3.1140    -0.5860 C.3   1 <1>  -0.2400 
 14 C       -4.0070     1.5740     1.2420 C.3   1 <1>  -0.1600 
 15 C       -5.4360     0.0250    -0.1180 C.3   1 <1>  -0.1600 
 16 C       -4.7750    -0.6140     2.2280 C.3   1 <1>  -0.2400 
 17 C       -4.6730     2.2060    -1.0920 C.3   1 <1>  -0.1600 
 18 C       -3.2430     3.7720     0.2720 C.3   1 <1>  -0.2400 
 19 C       -6.1150     0.6570    -2.4620 C.3   1 <1>  -0.2400 
 20 H       -1.1640    -1.9740    -0.0450 H     1 <1>   0.3700 
 21 H        0.9360    -1.7750    -2.1660 H     1 <1>   0.0800 
 22 H        0.2250    -3.2960    -1.6820 H     1 <1>   0.0800 
 23 H       -2.2770    -0.5390     1.1250 H     1 <1>   0.0800 
 24 H       -3.2710    -1.6150     0.1810 H     1 <1>   0.0800 
 25 H       -1.9630     2.1070    -1.4810 H     1 <1>   0.0800 
 26 H       -1.4950     1.6650     0.1290 H     1 <1>   0.0800 
 27 H       -3.9310    -0.9770    -2.1900 H     1 <1>   0.0800 
 28 H       -3.4120     0.5360    -2.8600 H     1 <1>   0.0800 
 29 H        1.0180    -2.9200     0.6420 H     1 <1>   0.0800 
 30 H        1.7170    -1.3940     0.1480 H     1 <1>   0.0800 
 31 H        2.5450    -4.1190    -0.9030 H     1 <1>   0.0800 
 32 H        3.4390    -3.1560     0.2480 H     1 <1>   0.0800 
 33 H        3.2440    -2.5910    -1.3930 H     1 <1>   0.0800 
 34 H       -4.8830     2.0580     1.6380 H     1 <1>   0.0800 
 35 H       -3.2350     1.6390     1.9880 H     1 <1>   0.0800 
 36 H       -6.3290     0.4900     0.2620 H     1 <1>   0.0800 
 37 H       -5.6710    -1.0040    -0.3310 H     1 <1>   0.0800 
 38 H       -4.0030    -0.5680     2.9760 H     1 <1>   0.0800 
 39 H       -4.9980    -1.6470     2.0300 H     1 <1>   0.0800 
 40 H       -5.6590    -0.1460     2.6240 H     1 <1>   0.0800 
 41 H       -4.3680     2.7140    -1.9910 H     1 <1>   0.0800 
 42 H       -5.5570     2.6980    -0.7240 H     1 <1>   0.0800 
 43 H       -2.4600     3.8450     1.0050 H     1 <1>   0.0800 
 44 H       -4.1170     4.2670     0.6550 H     1 <1>   0.0800 
 45 H       -2.9240     4.2840    -0.6190 H     1 <1>   0.0800 
 46 H       -6.3460    -0.3680    -2.6920 H     1 <1>   0.0800 
 47 H       -5.8140     1.1500    -3.3690 H     1 <1>   0.0800 
 48 H       -7.0070     1.1330    -2.0960 H     1 <1>   0.0800 
@<TRIPOS>BOND
  1   1   2  2   
  2   2   3  am  
  3   2   4  1   
  4   3   5  1   
  5   3  20  1   
  6   4   6  1   
  7   4   7  1   
  8   4   8  1   
  9   5   9  1   
 10   5  21  1   
 11   5  22  1   
 12   6  10  1   
 13   6  23  1   
 14   6  24  1   
 15   7  11  1   
 16   7  25  1   
 17   7  26  1   
 18   8  12  1   
 19   8  27  1   
 20   8  28  1   
 21   9  13  1   
 22   9  29  1   
 23   9  30  1   
 24  10  14  1   
 25  10  15  1   
 26  10  16  1   
 27  11  14  1   
 28  11  17  1   
 29  11  18  1   
 30  12  15  1   
 31  12  17  1   
 32  12  19  1   
 33  13  31  1   
 34  13  32  1   
 35  13  33  1   
 36  14  34  1   
 37  14  35  1   
 38  15  36  1   
 39  15  37  1   
 40  16  38  1   
 41  16  39  1   
 42  16  40  1   
 43  17  41  1   
 44  17  42  1   
 45  18  43  1   
 46  18  44  1   
 47  18  45  1   
 48  19  46  1   
 49  19  47  1   
 50  19  48  1   
@<TRIPOS>SUBSTRUCTURE
  1 ****   4 GROUP 4 **** **** 0

# MOE 2024.06 (io_trps.svl 2023.06)
