@<TRIPOS>MOLECULE
NONAME
50 52 1 0 0 
SMALL
USER_CHARGES


@<TRIPOS>ATOM
  1 F        0.6440    -0.1840    -0.1540 F     1 <1>  -0.1900 
  2 C        1.7920    -0.8020    -0.1640 C.ar  1 <1>   0.1900 
  3 C        2.4080    -1.0870     1.0400 C.ar  1 <1>  -0.1500 
  4 C        2.3530    -1.1520    -1.3760 C.ar  1 <1>  -0.1500 
  5 C        3.6280    -1.7400     1.0200 C.ar  1 <1>  -0.1500 
  6 C        3.5730    -1.8050    -1.3770 C.ar  1 <1>  -0.1500 
  7 C        4.2380    -2.1050    -0.1850 C.ar  1 <1>   0.0860 
  8 C        5.5200    -2.7830    -0.2060 C.2   1 <1>   0.5440 
  9 O        5.5970    -3.8710    -0.7460 O.2   1 <1>  -0.5700 
 10 N        6.6530    -2.2320     0.3630 N.am  1 <1>  -0.6600 
 11 C        7.9220    -3.0040     0.4730 C.3   1 <1>   0.1400 
 12 C        6.7690    -0.7970     0.7460 C.3   1 <1>   0.1400 
 13 C        9.0020    -2.3460    -0.3910 C.3   1 <1>  -0.1600 
 14 C        7.8460    -0.1230    -0.1080 C.3   1 <1>  -0.1600 
 15 C        9.1960    -0.8640    -0.0230 C.3   1 <1>  -0.0190 
 16 C       10.2790    -0.2240    -0.8930 C.2   1 <1>   0.5690 
 17 O        9.9810     0.4070    -1.8780 O.2   1 <1>  -0.5700 
 18 N       11.5730    -0.3880    -0.5300 N.am  1 <1>  -0.7300 
 19 C       12.7180     0.1080    -1.3070 C.3   1 <1>   0.2840 
 20 C       13.9580    -0.6160    -0.8170 C.ar  1 <1>  -0.1430 
 21 C       14.7640    -0.0500     0.1590 C.ar  1 <1>  -0.1500 
 22 C       14.2890    -1.8580    -1.3360 C.ar  1 <1>  -0.1500 
 23 C       15.8920    -0.7140     0.6120 C.ar  1 <1>  -0.1500 
 24 C       15.4150    -2.5240    -0.8850 C.ar  1 <1>  -0.1500 
 25 C       16.2230    -1.9600     0.0880 C.ar  1 <1>   0.0830 
 26 O       17.3070    -2.6790     0.4740 O.3   1 <1>  -0.3630 
 27 C       18.2100    -2.1850     1.4390 C.3   1 <1>   0.0400 
 28 H        1.9380    -0.8050     1.9650 H     1 <1>   0.1500 
 29 H        1.8430    -0.9200    -2.2940 H     1 <1>   0.1500 
 30 H        4.1230    -1.9800     1.9450 H     1 <1>   0.1500 
 31 H        4.0290    -2.0960    -2.3090 H     1 <1>   0.1500 
 32 H        7.7800    -4.0240     0.1580 H     1 <1>   0.0800 
 33 H        8.2330    -3.0190     1.5030 H     1 <1>   0.0800 
 34 H        7.0330    -0.7330     1.7880 H     1 <1>   0.0800 
 35 H        5.8380    -0.2790     0.6030 H     1 <1>   0.0800 
 36 H        8.7150    -2.4300    -1.4260 H     1 <1>   0.0800 
 37 H        9.9270    -2.8800    -0.2650 H     1 <1>   0.0800 
 38 H        7.9730     0.8950     0.2140 H     1 <1>   0.0800 
 39 H        7.5080    -0.1000    -1.1300 H     1 <1>   0.0800 
 40 H        9.5320    -0.8120     0.9970 H     1 <1>   0.0800 
 41 H       11.8330    -0.9580     0.2750 H     1 <1>   0.3700 
 42 H       12.8160     1.1710    -1.1630 H     1 <1>   0.0800 
 43 H       12.5570    -0.0810    -2.3550 H     1 <1>   0.0800 
 44 H       14.5160     0.9130     0.5720 H     1 <1>   0.1500 
 45 H       13.6710    -2.3120    -2.0920 H     1 <1>   0.1500 
 46 H       16.4960    -0.2490     1.3670 H     1 <1>   0.1500 
 47 H       15.6760    -3.4870    -1.2860 H     1 <1>   0.1500 
 48 H       18.9860    -2.9160     1.5730 H     1 <1>   0.0800 
 49 H       17.6840    -2.0360     2.3650 H     1 <1>   0.0800 
 50 H       18.6340    -1.2640     1.0810 H     1 <1>   0.0800 
@<TRIPOS>BOND
  1   1   2  1   
  2   2   3  ar  
  3   2   4  ar  
  4   3   5  ar  
  5   3  28  1   
  6   4   6  ar  
  7   4  29  1   
  8   5   7  ar  
  9   5  30  1   
 10   6   7  ar  
 11   6  31  1   
 12   7   8  1   
 13   8   9  2   
 14   8  10  am  
 15  10  11  1   
 16  10  12  1   
 17  11  13  1   
 18  11  32  1   
 19  11  33  1   
 20  12  14  1   
 21  12  34  1   
 22  12  35  1   
 23  13  15  1   
 24  13  36  1   
 25  13  37  1   
 26  14  15  1   
 27  14  38  1   
 28  14  39  1   
 29  15  16  1   
 30  15  40  1   
 31  16  17  2   
 32  16  18  am  
 33  18  19  1   
 34  18  41  1   
 35  19  20  1   
 36  19  42  1   
 37  19  43  1   
 38  20  21  ar  
 39  20  22  ar  
 40  21  23  ar  
 41  21  44  1   
 42  22  24  ar  
 43  22  45  1   
 44  23  25  ar  
 45  23  46  1   
 46  24  25  ar  
 47  24  47  1   
 48  25  26  1   
 49  26  27  1   
 50  27  48  1   
 51  27  49  1   
 52  27  50  1   
@<TRIPOS>SUBSTRUCTURE
  1 ****  15 GROUP 4 **** **** 0

# MOE 2024.06 (io_trps.svl 2023.06)
