@<TRIPOS>MOLECULE
NONAME
41 44 1 0 0 
SMALL
USER_CHARGES


@<TRIPOS>ATOM
  1 O       -4.4190     2.6570    -2.7620 O.co2 1 <1>  -0.9000 
  2 C       -3.7560     1.6040    -2.6190 C.2   1 <1>   1.0330 
  3 O       -2.6710     1.5320    -3.2350 O.co2 1 <1>  -0.9000 
  4 C       -4.2610     0.5210    -1.7500 C.2   1 <1>   0.0560 
  5 N       -3.7450    -0.6780    -1.4730 N.2   1 <1>  -0.7070 
  6 C       -5.4620     0.6440    -1.0420 C.2   1 <1>  -0.1810 
  7 N       -4.6000    -1.3020    -0.6230 N.pl3 1 <1>   0.5930 
  8 C       -5.6370    -0.4810    -0.3570 C.2   1 <1>  -0.3320 
  9 C       -6.6420     1.5500    -0.7510 C.3   1 <1>   0.1010 
 10 C       -4.3880    -2.6110    -0.1130 C.ar  1 <1>  -0.0230 
 11 C       -6.9300    -0.3620     0.4260 C.3   1 <1>   0.1800 
 12 C       -6.8990     1.1660     0.7280 C.3   1 <1>   0.0000 
 13 C       -7.8210     0.8610    -1.4770 C.3   1 <1>  -0.1600 
 14 C       -3.2400    -2.9040     0.6160 C.ar  1 <1>  -0.1500 
 15 C       -5.3190    -3.6220    -0.3290 C.ar  1 <1>  -0.1500 
 16 C       -8.0230    -0.4520    -0.6630 C.3   1 <1>  -0.1600 
 17 C       -7.0830    -1.3110     1.6160 C.3   1 <1>  -0.2400 
 18 C       -5.7490     1.6080     1.6750 C.3   1 <1>  -0.2400 
 19 C       -8.1960     1.7640     1.3360 C.3   1 <1>  -0.2400 
 20 C       -3.0360    -4.1710     1.1340 C.ar  1 <1>  -0.1500 
 21 C       -5.1170    -4.8900     0.1880 C.ar  1 <1>  -0.1500 
 22 C       -3.9770    -5.1640     0.9220 C.ar  1 <1>  -0.1500 
 23 H       -6.4780     2.5910    -0.9680 H     1 <1>   0.0800 
 24 H       -7.5590     0.6560    -2.5010 H     1 <1>   0.0800 
 25 H       -8.7000     1.4790    -1.4600 H     1 <1>   0.0800 
 26 H       -2.5080    -2.1280     0.7680 H     1 <1>   0.1500 
 27 H       -6.2020    -3.4090    -0.9060 H     1 <1>   0.1500 
 28 H       -9.0060    -0.4950    -0.2300 H     1 <1>   0.0800 
 29 H       -7.8750    -1.3180    -1.2830 H     1 <1>   0.0800 
 30 H       -6.2320    -1.2240     2.2670 H     1 <1>   0.0800 
 31 H       -7.1510    -2.3270     1.2750 H     1 <1>   0.0800 
 32 H       -7.9720    -1.0750     2.1690 H     1 <1>   0.0800 
 33 H       -4.7870     1.2350     1.3710 H     1 <1>   0.0800 
 34 H       -5.9320     1.2610     2.6750 H     1 <1>   0.0800 
 35 H       -5.6830     2.6810     1.6920 H     1 <1>   0.0800 
 36 H       -9.0840     1.5220     0.7860 H     1 <1>   0.0800 
 37 H       -8.1170     2.8360     1.3680 H     1 <1>   0.0800 
 38 H       -8.3290     1.4080     2.3410 H     1 <1>   0.0800 
 39 H       -2.1440    -4.3820     1.6970 H     1 <1>   0.1500 
 40 H       -5.8460    -5.6630     0.0160 H     1 <1>   0.1500 
 41 H       -3.8180    -6.1500     1.3250 H     1 <1>   0.1500 
@<TRIPOS>BOND
  1   1   2  ar  
  2   2   3  ar  
  3   2   4  1   
  4   4   5  2   
  5   4   6  1   
  6   5   7  1   
  7   6   8  2   
  8   6   9  1   
  9   7   8  1   
 10   7  10  1   
 11   8  11  1   
 12   9  12  1   
 13   9  13  1   
 14   9  23  1   
 15  10  14  ar  
 16  10  15  ar  
 17  11  12  1   
 18  11  16  1   
 19  11  17  1   
 20  12  18  1   
 21  12  19  1   
 22  13  16  1   
 23  13  24  1   
 24  13  25  1   
 25  14  20  ar  
 26  14  26  1   
 27  15  21  ar  
 28  15  27  1   
 29  16  28  1   
 30  16  29  1   
 31  17  30  1   
 32  17  31  1   
 33  17  32  1   
 34  18  33  1   
 35  18  34  1   
 36  18  35  1   
 37  19  36  1   
 38  19  37  1   
 39  19  38  1   
 40  20  22  ar  
 41  20  39  1   
 42  21  22  ar  
 43  21  40  1   
 44  22  41  1   
@<TRIPOS>SUBSTRUCTURE
  1 ****   8 GROUP 4 **** **** 0

# MOE 2024.06 (io_trps.svl 2023.06)
