@<TRIPOS>MOLECULE
NONAME
49 50 1 0 0 
SMALL
USER_CHARGES


@<TRIPOS>ATOM
  1 O       -0.6380     5.3450     1.7690 O.2   1 <1>  -0.5700 
  2 C       -0.3220     4.4880     0.9750 C.2   1 <1>   0.5690 
  3 N        0.9180     4.4520     0.3550 N.am  1 <1>  -0.6600 
  4 C       -1.3780     3.4080     0.7330 C.3   1 <1>   0.1810 
  5 C        2.0470     5.3870     0.7320 C.3   1 <1>   0.3000 
  6 C        1.1090     3.5600    -0.8410 C.3   1 <1>   0.2840 
  7 O       -2.0650     3.6110    -0.4950 O.3   1 <1>  -0.3630 
  8 C        3.3830     5.0450     0.0440 C.3   1 <1>  -0.2400 
  9 C        2.3180     5.3090     2.2430 C.3   1 <1>  -0.2400 
 10 C        1.6730     6.8150     0.3220 C.3   1 <1>  -0.2400 
 11 C        1.8820     2.2790    -0.5250 C.ar  1 <1>  -0.1440 
 12 C       -2.9370     2.6430    -0.8670 C.ar  1 <1>   0.0820 
 13 C        2.5860     1.6590    -1.5480 C.ar  1 <1>  -0.1500 
 14 C        1.8980     1.7080     0.7410 C.ar  1 <1>  -0.1500 
 15 C       -2.5130     1.3640    -1.2470 C.ar  1 <1>   0.0820 
 16 C       -4.2830     2.9640    -0.8740 C.ar  1 <1>  -0.1500 
 17 C        3.2920     0.4920    -1.3120 C.ar  1 <1>  -0.1500 
 18 C        2.6030     0.5400     0.9790 C.ar  1 <1>  -0.1500 
 19 O       -1.1760     1.0960    -1.2570 O.3   1 <1>  -0.3620 
 20 C       -3.4680     0.4180    -1.6110 C.ar  1 <1>  -0.1500 
 21 C       -5.2230     2.0160    -1.2380 C.ar  1 <1>  -0.1500 
 22 C        3.3010    -0.0690    -0.0480 C.ar  1 <1>  -0.1500 
 23 C       -0.6820    -0.2140    -1.4220 C.3   1 <1>   0.0400 
 24 C       -4.8150     0.7450    -1.6030 C.ar  1 <1>  -0.1500 
 25 H       -2.1070     3.4380     1.5220 H     1 <1>   0.0800 
 26 H       -0.9140     2.4420     0.7300 H     1 <1>   0.0800 
 27 H        1.6070     4.1070    -1.6190 H     1 <1>   0.0800 
 28 H        0.1660     3.2820    -1.2670 H     1 <1>   0.0800 
 29 H        3.6960     4.0450     0.2840 H     1 <1>   0.0800 
 30 H        4.1540     5.7100     0.3900 H     1 <1>   0.0800 
 31 H        3.3300     5.1660    -1.0210 H     1 <1>   0.0800 
 32 H        2.4940     4.2900     2.5350 H     1 <1>   0.0800 
 33 H        1.5030     5.7030     2.8180 H     1 <1>   0.0800 
 34 H        3.1860     5.8880     2.4990 H     1 <1>   0.0800 
 35 H        2.4820     7.4900     0.5350 H     1 <1>   0.0800 
 36 H        1.4610     6.8560    -0.7310 H     1 <1>   0.0800 
 37 H        0.8120     7.1610     0.8620 H     1 <1>   0.0800 
 38 H        2.5860     2.0810    -2.5370 H     1 <1>   0.1500 
 39 H        1.3660     2.1680     1.5540 H     1 <1>   0.1500 
 40 H       -4.5880     3.9560    -0.5920 H     1 <1>   0.1500 
 41 H        3.8360     0.0210    -2.1130 H     1 <1>   0.1500 
 42 H        2.6090     0.1090     1.9640 H     1 <1>   0.1500 
 43 H       -3.1860    -0.5730    -1.9080 H     1 <1>   0.1500 
 44 H       -6.2690     2.2680    -1.2380 H     1 <1>   0.1500 
 45 H        3.8510    -0.9750     0.1370 H     1 <1>   0.1500 
 46 H        0.3850    -0.1880    -1.2900 H     1 <1>   0.0800 
 47 H       -0.9170    -0.5540    -2.4150 H     1 <1>   0.0800 
 48 H       -1.1240    -0.8520    -0.6780 H     1 <1>   0.0800 
 49 H       -5.5470     0.0080    -1.8850 H     1 <1>   0.1500 
@<TRIPOS>BOND
  1   1   2  2   
  2   2   3  am  
  3   2   4  1   
  4   3   5  1   
  5   3   6  1   
  6   4   7  1   
  7   4  25  1   
  8   4  26  1   
  9   5   8  1   
 10   5   9  1   
 11   5  10  1   
 12   6  11  1   
 13   6  27  1   
 14   6  28  1   
 15   7  12  1   
 16   8  29  1   
 17   8  30  1   
 18   8  31  1   
 19   9  32  1   
 20   9  33  1   
 21   9  34  1   
 22  10  35  1   
 23  10  36  1   
 24  10  37  1   
 25  11  13  ar  
 26  11  14  ar  
 27  12  15  ar  
 28  12  16  ar  
 29  13  17  ar  
 30  13  38  1   
 31  14  18  ar  
 32  14  39  1   
 33  15  19  1   
 34  15  20  ar  
 35  16  21  ar  
 36  16  40  1   
 37  17  22  ar  
 38  17  41  1   
 39  18  22  ar  
 40  18  42  1   
 41  19  23  1   
 42  20  24  ar  
 43  20  43  1   
 44  21  24  ar  
 45  21  44  1   
 46  22  45  1   
 47  23  46  1   
 48  23  47  1   
 49  23  48  1   
 50  24  49  1   
@<TRIPOS>SUBSTRUCTURE
  1 ****   6 GROUP 4 **** **** 0

# MOE 2024.06 (io_trps.svl 2023.06)
