@<TRIPOS>MOLECULE
NONAME
41 42 1 0 0 
SMALL
USER_CHARGES


@<TRIPOS>ATOM
  1 CL       3.1790    -3.2360    -3.4930 Cl    1 <1>  -0.1770 
  2 C        3.2160    -2.5320    -1.8970 C.ar  1 <1>   0.1770 
  3 C        4.4110    -2.0540    -1.3990 C.ar  1 <1>  -0.1500 
  4 C        2.0480    -2.4660    -1.1610 C.ar  1 <1>  -0.1500 
  5 C        4.4610    -1.4900    -0.1300 C.ar  1 <1>   0.1170 
  6 C        2.0870    -1.9080     0.1060 C.ar  1 <1>  -0.1500 
  7 N        5.6960    -1.0240     0.3480 N.am  1 <1>  -0.5470 
  8 C        3.2830    -1.4280     0.6130 C.ar  1 <1>  -0.1500 
  9 C        6.0100    -0.1360     1.3430 C.2   1 <1>   0.5690 
 10 O        5.1840     0.4480     1.9990 O.2   1 <1>  -0.5700 
 11 C        7.4770     0.1310     1.6430 C.3   1 <1>   0.1310 
 12 S        8.5580    -0.2570     0.1780 S.3   1 <1>  -0.2860 
 13 C       10.2070     0.0260     0.8300 C.2   1 <1>   0.2430 
 14 N       10.4370     0.3470     2.0520 N.2   1 <1>  -0.3380 
 15 N       11.3080    -0.0770     0.0870 N.pl3 1 <1>   0.0480 
 16 N       11.7630     0.4730     2.1480 N.2   1 <1>  -0.3380 
 17 C       12.2620     0.2250     0.9810 C.2   1 <1>   0.0060 
 18 C       11.4130    -0.4260    -1.3450 C.3   1 <1>   0.0160 
 19 C       13.7540     0.2740     0.6790 C.3   1 <1>   0.0200 
 20 C       14.1510     1.4710    -0.2080 C.3   1 <1>  -0.0800 
 21 C       15.6500     1.4210    -0.5300 C.3   1 <1>  -0.2400 
 22 C       13.8130     2.8090     0.4640 C.3   1 <1>  -0.2400 
 23 H        5.2950    -2.1220    -2.0030 H     1 <1>   0.1500 
 24 H        1.1300    -2.8440    -1.5730 H     1 <1>   0.1500 
 25 H        1.1890    -1.8460     0.6970 H     1 <1>   0.1500 
 26 H        6.5090    -1.3530    -0.1740 H     1 <1>   0.3700 
 27 H        3.2930    -1.0030     1.6000 H     1 <1>   0.1500 
 28 H        7.8090    -0.4830     2.4590 H     1 <1>   0.0800 
 29 H        7.6290     1.1670     1.8850 H     1 <1>   0.0800 
 30 H       11.2130     0.4490    -1.9360 H     1 <1>   0.0800 
 31 H       10.6950    -1.1900    -1.5820 H     1 <1>   0.0800 
 32 H       12.3990    -0.7900    -1.5620 H     1 <1>   0.0800 
 33 H       14.0440    -0.6470     0.2050 H     1 <1>   0.0800 
 34 H       14.2880     0.3340     1.6120 H     1 <1>   0.0800 
 35 H       13.6090     1.4150    -1.1360 H     1 <1>   0.0800 
 36 H       16.2340     1.4870     0.3720 H     1 <1>   0.0800 
 37 H       15.9210     2.2400    -1.1720 H     1 <1>   0.0800 
 38 H       15.8970     0.5030    -1.0330 H     1 <1>   0.0800 
 39 H       14.3230     2.8990     1.4080 H     1 <1>   0.0800 
 40 H       12.7550     2.8890     0.6440 H     1 <1>   0.0800 
 41 H       14.1080     3.6310    -0.1640 H     1 <1>   0.0800 
@<TRIPOS>BOND
  1   1   2  1   
  2   2   3  ar  
  3   2   4  ar  
  4   3   5  ar  
  5   3  23  1   
  6   4   6  ar  
  7   4  24  1   
  8   5   7  1   
  9   5   8  ar  
 10   6   8  ar  
 11   6  25  1   
 12   7   9  am  
 13   7  26  1   
 14   8  27  1   
 15   9  10  2   
 16   9  11  1   
 17  11  12  1   
 18  11  28  1   
 19  11  29  1   
 20  12  13  1   
 21  13  14  2   
 22  13  15  1   
 23  14  16  1   
 24  15  17  1   
 25  15  18  1   
 26  16  17  2   
 27  17  19  1   
 28  18  30  1   
 29  18  31  1   
 30  18  32  1   
 31  19  20  1   
 32  19  33  1   
 33  19  34  1   
 34  20  21  1   
 35  20  22  1   
 36  20  35  1   
 37  21  36  1   
 38  21  37  1   
 39  21  38  1   
 40  22  39  1   
 41  22  40  1   
 42  22  41  1   
@<TRIPOS>SUBSTRUCTURE
  1 ****  12 GROUP 4 **** **** 0

# MOE 2024.06 (io_trps.svl 2023.06)
