@<TRIPOS>MOLECULE
NONAME
40 42 1 0 0 
SMALL
USER_CHARGES


@<TRIPOS>ATOM
  1 CL      -1.7520    -2.5230     0.8890 Cl    1 <1>  -0.1770 
  2 C       -0.2660    -2.6730    -0.0130 C.ar  1 <1>   0.1770 
  3 C       -0.3020    -2.5460    -1.3880 C.ar  1 <1>  -0.1500 
  4 C        0.9160    -2.9180     0.6600 C.ar  1 <1>  -0.1500 
  5 C        0.8850    -2.6710    -2.0810 C.ar  1 <1>   0.1770 
  6 C        2.1120    -3.0410    -0.0450 C.ar  1 <1>   0.1170 
  7 CL       0.8770    -2.5170    -3.8180 Cl    1 <1>  -0.1770 
  8 C        2.0800    -2.9160    -1.4300 C.ar  1 <1>  -0.1500 
  9 N        3.3440    -3.2890     0.5730 N.am  1 <1>  -0.5470 
 10 C        3.7610    -3.2640     1.8740 C.2   1 <1>   0.5690 
 11 O        3.0520    -2.9930     2.8120 O.2   1 <1>  -0.5700 
 12 C        5.2340    -3.6020     2.1140 C.3   1 <1>   0.1710 
 13 N        6.0880    -3.4210     0.8990 N.3   1 <1>  -0.8100 
 14 C        6.3630    -1.9890     0.6690 C.3   1 <1>   0.1100 
 15 C        7.3460    -4.1730     1.0410 C.3   1 <1>   0.1100 
 16 C        7.1170    -1.8150    -0.6490 C.3   1 <1>  -0.1600 
 17 C        8.1460    -4.0880    -0.2590 C.3   1 <1>  -0.1600 
 18 C        8.4070    -2.6350    -0.6290 C.3   1 <1>   0.5600 
 19 O        9.3120    -2.0890     0.2750 O.3   1 <1>  -0.5600 
 20 O        9.0400    -2.5830    -1.8620 O.3   1 <1>  -0.5600 
 21 C       10.1740    -1.2400    -0.3950 C.3   1 <1>   0.1200 
 22 C        9.9340    -1.5310    -1.8640 C.3   1 <1>   0.1200 
 23 H       -1.2260    -2.3550    -1.9010 H     1 <1>   0.1500 
 24 H        0.8930    -3.0120     1.7290 H     1 <1>   0.1500 
 25 H        2.9820    -3.0070    -2.0050 H     1 <1>   0.1500 
 26 H        4.1430    -3.4730    -0.0460 H     1 <1>   0.3700 
 27 H        5.2680    -4.6300     2.4260 H     1 <1>   0.0800 
 28 H        5.6060    -2.9990     2.9240 H     1 <1>   0.0800 
 29 H        6.9530    -1.5920     1.4800 H     1 <1>   0.0800 
 30 H        5.4400    -1.4360     0.6220 H     1 <1>   0.0800 
 31 H        7.1310    -5.2080     1.2500 H     1 <1>   0.0800 
 32 H        7.9280    -3.7730     1.8550 H     1 <1>   0.0800 
 33 H        7.3370    -0.7770    -0.8080 H     1 <1>   0.0800 
 34 H        6.4930    -2.1600    -1.4520 H     1 <1>   0.0800 
 35 H        7.5840    -4.5590    -1.0430 H     1 <1>   0.0800 
 36 H        9.0820    -4.6030    -0.1510 H     1 <1>   0.0800 
 37 H       11.1830    -1.4670    -0.1010 H     1 <1>   0.0800 
 38 H        9.9330    -0.2220    -0.1450 H     1 <1>   0.0800 
 39 H        9.4850    -0.6910    -2.3640 H     1 <1>   0.0800 
 40 H       10.8330    -1.8320    -2.3720 H     1 <1>   0.0800 
@<TRIPOS>BOND
  1   1   2  1   
  2   2   3  ar  
  3   2   4  ar  
  4   3   5  ar  
  5   3  23  1   
  6   4   6  ar  
  7   4  24  1   
  8   5   7  1   
  9   5   8  ar  
 10   6   8  ar  
 11   6   9  1   
 12   8  25  1   
 13   9  10  am  
 14   9  26  1   
 15  10  11  2   
 16  10  12  1   
 17  12  13  1   
 18  12  27  1   
 19  12  28  1   
 20  13  14  1   
 21  13  15  1   
 22  14  16  1   
 23  14  29  1   
 24  14  30  1   
 25  15  17  1   
 26  15  31  1   
 27  15  32  1   
 28  16  18  1   
 29  16  33  1   
 30  16  34  1   
 31  17  18  1   
 32  17  35  1   
 33  17  36  1   
 34  18  19  1   
 35  18  20  1   
 36  19  21  1   
 37  20  22  1   
 38  21  22  1   
 39  21  37  1   
 40  21  38  1   
 41  22  39  1   
 42  22  40  1   
@<TRIPOS>SUBSTRUCTURE
  1 ****   9 GROUP 4 **** **** 0

# MOE 2024.06 (io_trps.svl 2023.06)
