@<TRIPOS>MOLECULE
NONAME
47 49 1 0 0 
SMALL
USER_CHARGES


@<TRIPOS>ATOM
  1 BR      -2.2980     1.2790     2.4740 Br    1 <1>  -0.1110 
  2 C       -1.1040     2.2870     1.3430 C.ar  1 <1>   0.1110 
  3 C       -1.3170     2.3160    -0.0280 C.ar  1 <1>  -0.1440 
  4 C       -0.0650     2.9640     1.9500 C.ar  1 <1>  -0.1500 
  5 C       -0.4350     3.0530    -0.8080 C.ar  1 <1>  -0.1500 
  6 C       -2.4740     1.5700    -0.6600 C.3   1 <1>   0.4870 
  7 C        0.7990     3.6990     1.1570 C.ar  1 <1>  -0.1500 
  8 C        0.6130     3.7410    -0.2150 C.ar  1 <1>  -0.1500 
  9 N       -3.7540     2.2350    -0.2610 N.4   1 <1>  -0.9590 
 10 C       -4.9280     1.4240    -0.6680 C.3   1 <1>   0.3430 
 11 C       -3.8200     3.6370    -0.7530 C.3   1 <1>   0.3430 
 12 C       -6.2090     2.0660    -0.1320 C.3   1 <1>  -0.1600 
 13 C       -5.0830     4.3130    -0.2180 C.3   1 <1>  -0.1600 
 14 C       -6.3610     3.5330    -0.5740 C.3   1 <1>   0.4230 
 15 N       -7.5610     4.1600     0.0790 N.4   1 <1>  -0.9590 
 16 C       -8.8440     3.4270    -0.2020 C.3   1 <1>   0.3430 
 17 C       -7.7420     5.6120    -0.2740 C.3   1 <1>   0.3430 
 18 C       -9.9770     3.9910     0.6570 C.3   1 <1>  -0.1600 
 19 C       -8.8470     6.2330     0.5820 C.3   1 <1>  -0.1600 
 20 C      -10.1760     5.4900     0.4190 C.3   1 <1>  -0.1600 
 21 H        0.0710     2.9190     3.0170 H     1 <1>   0.1500 
 22 H       -0.5420     3.1010    -1.8790 H     1 <1>   0.1500 
 23 H       -2.4610     0.5480    -0.3160 H     1 <1>   0.0800 
 24 H       -2.3680     1.5680    -1.7330 H     1 <1>   0.0800 
 25 H        1.6200     4.2350     1.6070 H     1 <1>   0.1500 
 26 H        1.2960     4.3110    -0.8240 H     1 <1>   0.1500 
 27 H       -3.7060     2.2600     0.7700 H     1 <1>   0.4500 
 28 H       -4.8380     0.4220    -0.2760 H     1 <1>   0.0800 
 29 H       -4.9730     1.3590    -1.7440 H     1 <1>   0.0800 
 30 H       -3.8250     3.6470    -1.8320 H     1 <1>   0.0800 
 31 H       -2.9520     4.1870    -0.4200 H     1 <1>   0.0800 
 32 H       -6.2070     1.9960     0.9420 H     1 <1>   0.0800 
 33 H       -7.0260     1.4770    -0.5060 H     1 <1>   0.0800 
 34 H       -5.1100     5.2950    -0.6540 H     1 <1>   0.0800 
 35 H       -4.9910     4.4200     0.8480 H     1 <1>   0.0800 
 36 H       -6.4920     3.5590    -1.6450 H     1 <1>   0.0800 
 37 H       -7.4360     4.1320     1.1000 H     1 <1>   0.4500 
 38 H       -8.7420     2.3790     0.0260 H     1 <1>   0.0800 
 39 H       -9.1030     3.5240    -1.2440 H     1 <1>   0.0800 
 40 H       -8.0020     5.7070    -1.3170 H     1 <1>   0.0800 
 41 H       -6.8340     6.1630    -0.0990 H     1 <1>   0.0800 
 42 H       -9.7680     3.8070     1.6970 H     1 <1>   0.0800 
 43 H      -10.8910     3.4730     0.4190 H     1 <1>   0.0800 
 44 H       -8.9800     7.2610     0.2920 H     1 <1>   0.0800 
 45 H       -8.5470     6.2300     1.6160 H     1 <1>   0.0800 
 46 H      -10.9020     5.8800     1.1140 H     1 <1>   0.0800 
 47 H      -10.5590     5.6500    -0.5760 H     1 <1>   0.0800 
@<TRIPOS>BOND
  1   1   2  1   
  2   2   3  ar  
  3   2   4  ar  
  4   3   5  ar  
  5   3   6  1   
  6   4   7  ar  
  7   4  21  1   
  8   5   8  ar  
  9   5  22  1   
 10   6   9  1   
 11   6  23  1   
 12   6  24  1   
 13   7   8  ar  
 14   7  25  1   
 15   8  26  1   
 16   9  10  1   
 17   9  11  1   
 18   9  27  1   
 19  10  12  1   
 20  10  28  1   
 21  10  29  1   
 22  11  13  1   
 23  11  30  1   
 24  11  31  1   
 25  12  14  1   
 26  12  32  1   
 27  12  33  1   
 28  13  14  1   
 29  13  34  1   
 30  13  35  1   
 31  14  15  1   
 32  14  36  1   
 33  15  16  1   
 34  15  17  1   
 35  15  37  1   
 36  16  18  1   
 37  16  38  1   
 38  16  39  1   
 39  17  19  1   
 40  17  40  1   
 41  17  41  1   
 42  18  20  1   
 43  18  42  1   
 44  18  43  1   
 45  19  20  1   
 46  19  44  1   
 47  19  45  1   
 48  20  46  1   
 49  20  47  1   
@<TRIPOS>SUBSTRUCTURE
  1 ****  11 GROUP 4 **** **** 0

# MOE 2024.06 (io_trps.svl 2023.06)
