@<TRIPOS>MOLECULE
NONAME
43 44 1 0 0 
SMALL
USER_CHARGES


@<TRIPOS>ATOM
  1 O       -0.2150     1.1900     2.1950 O.2   1 <1>  -0.5700 
  2 C       -0.0650     2.2100     1.5450 C.2   1 <1>   0.5440 
  3 N       -1.1650     2.9980     1.2620 N.am  1 <1>  -0.6600 
  4 C        1.2690     2.5800     1.1320 C.ar  1 <1>   0.0860 
  5 C       -1.0390     4.3950     0.7680 C.3   1 <1>   0.1400 
  6 C       -2.5330     2.5690     1.6620 C.3   1 <1>   0.1400 
  7 C        1.7730     2.2520    -0.1290 C.ar  1 <1>   0.0830 
  8 C        2.1010     3.2780     2.0080 C.ar  1 <1>  -0.1500 
  9 C       -1.0830     4.4830    -0.7610 C.3   1 <1>  -0.1600 
 10 C       -3.0750     1.4740     0.7370 C.3   1 <1>  -0.1600 
 11 O        0.9910     1.5770    -1.0020 O.3   1 <1>  -0.3620 
 12 C        3.0630     2.6280    -0.5100 C.ar  1 <1>   0.0830 
 13 C        3.3780     3.6530     1.6420 C.ar  1 <1>  -0.1500 
 14 C       -2.4250     4.0930    -1.4000 C.3   1 <1>  -0.1600 
 15 C       -3.6550     1.9640    -0.6000 C.3   1 <1>  -0.1600 
 16 C        1.0140     0.1720    -0.9060 C.3   1 <1>   0.0400 
 17 O        3.4890     2.2790    -1.7580 O.3   1 <1>  -0.3630 
 18 C        3.8610     3.3320     0.3850 C.ar  1 <1>  -0.1500 
 19 C       -2.6270     2.5750    -1.5660 C.3   1 <1>  -0.1600 
 20 C        4.7410     2.6930    -2.2570 C.3   1 <1>   0.0400 
 21 H       -0.1080     4.8100     1.1110 H     1 <1>   0.0800 
 22 H       -1.8250     5.0000     1.1850 H     1 <1>   0.0800 
 23 H       -3.2080     3.4060     1.6720 H     1 <1>   0.0800 
 24 H       -2.4830     2.1790     2.6650 H     1 <1>   0.0800 
 25 H        1.7280     3.5210     2.9890 H     1 <1>   0.1500 
 26 H       -0.2830     3.9050    -1.1870 H     1 <1>   0.0800 
 27 H       -0.8870     5.5090    -1.0190 H     1 <1>   0.0800 
 28 H       -3.8670     0.9750     1.2660 H     1 <1>   0.0800 
 29 H       -2.3090     0.7390     0.5600 H     1 <1>   0.0800 
 30 H        4.0010     4.1920     2.3350 H     1 <1>   0.1500 
 31 H       -2.4390     4.5240    -2.3870 H     1 <1>   0.0800 
 32 H       -3.2390     4.5390    -0.8570 H     1 <1>   0.0800 
 33 H       -4.4620     2.6530    -0.4230 H     1 <1>   0.0800 
 34 H       -4.0830     1.1050    -1.0870 H     1 <1>   0.0800 
 35 H        0.3570    -0.2260    -1.6570 H     1 <1>   0.0800 
 36 H        0.6750    -0.1200     0.0720 H     1 <1>   0.0800 
 37 H        2.0200    -0.1690    -1.0750 H     1 <1>   0.0800 
 38 H        4.8580     3.6350     0.1290 H     1 <1>   0.1500 
 39 H       -1.6900     2.0490    -1.4940 H     1 <1>   0.0800 
 40 H       -2.9940     2.4100    -2.5640 H     1 <1>   0.0800 
 41 H        4.8340     2.3310    -3.2650 H     1 <1>   0.0800 
 42 H        5.5180     2.2720    -1.6440 H     1 <1>   0.0800 
 43 H        4.7820     3.7680    -2.2500 H     1 <1>   0.0800 
@<TRIPOS>BOND
  1   1   2  2   
  2   2   3  am  
  3   2   4  1   
  4   3   5  1   
  5   3   6  1   
  6   4   7  ar  
  7   4   8  ar  
  8   5   9  1   
  9   5  21  1   
 10   5  22  1   
 11   6  10  1   
 12   6  23  1   
 13   6  24  1   
 14   7  11  1   
 15   7  12  ar  
 16   8  13  ar  
 17   8  25  1   
 18   9  14  1   
 19   9  26  1   
 20   9  27  1   
 21  10  15  1   
 22  10  28  1   
 23  10  29  1   
 24  11  16  1   
 25  12  17  1   
 26  12  18  ar  
 27  13  18  ar  
 28  13  30  1   
 29  14  19  1   
 30  14  31  1   
 31  14  32  1   
 32  15  19  1   
 33  15  33  1   
 34  15  34  1   
 35  16  35  1   
 36  16  36  1   
 37  16  37  1   
 38  17  20  1   
 39  18  38  1   
 40  19  39  1   
 41  19  40  1   
 42  20  41  1   
 43  20  42  1   
 44  20  43  1   
@<TRIPOS>SUBSTRUCTURE
  1 ****   4 GROUP 4 **** **** 0

# MOE 2024.06 (io_trps.svl 2023.06)
