@<TRIPOS>MOLECULE
NONAME
51 52 1 0 0 
SMALL
USER_CHARGES


@<TRIPOS>ATOM
  1 S       -0.1240    -0.1580     0.3510 S.o2  1 <1>   1.4470 
  2 O       -0.4000    -0.6960     1.6640 O.2   1 <1>  -0.6500 
  3 O       -0.3060    -0.9780    -0.8240 O.2   1 <1>  -0.6500 
  4 N       -1.1700     1.1250     0.0880 N.am  1 <1>  -0.9140 
  5 C        1.5050     0.6370     0.3340 C.ar  1 <1>  -0.0090 
  6 C       -2.5270     0.8600     0.4980 C.3   1 <1>   0.2760 
  7 C        1.8090     1.6590     1.2260 C.ar  1 <1>  -0.1500 
  8 C        2.4930     0.2530    -0.5640 C.ar  1 <1>  -0.1500 
  9 C       -3.4540     1.4380    -0.5810 C.3   1 <1>  -0.1600 
 10 C       -2.7390     1.5210     1.8600 C.3   1 <1>  -0.2400 
 11 C        3.0490     2.2720     1.2210 C.ar  1 <1>  -0.1500 
 12 C        3.7340     0.8650    -0.5730 C.ar  1 <1>  -0.1500 
 13 C       -4.9400     1.1260    -0.3400 C.3   1 <1>  -0.1600 
 14 C        4.0360     1.8850     0.3230 C.ar  1 <1>   0.1170 
 15 C       -5.8010     1.6220    -1.5050 C.3   1 <1>  -0.2400 
 16 N        5.2710     2.5470     0.3580 N.am  1 <1>  -0.5470 
 17 C        6.5110     2.2180    -0.1190 C.2   1 <1>   0.6900 
 18 O        6.6980     1.1780    -0.7210 O.2   1 <1>  -0.5700 
 19 N        7.5520     3.0890     0.0910 N.am  1 <1>  -0.6600 
 20 C        7.5120     4.2060     1.0840 C.3   1 <1>   0.1400 
 21 C        8.8450     2.8640    -0.6240 C.3   1 <1>   0.1400 
 22 C        8.9080     4.4790     1.6540 C.3   1 <1>  -0.1600 
 23 C        9.6080     4.1830    -0.7900 C.3   1 <1>  -0.1600 
 24 C        9.9240     4.8510     0.5600 C.3   1 <1>  -0.1600 
 25 H       -1.1950     1.1750    -0.9270 H     1 <1>   0.4200 
 26 H       -2.7020    -0.2040     0.5720 H     1 <1>   0.0800 
 27 H        1.0590     1.9740     1.9330 H     1 <1>   0.1500 
 28 H        2.2920    -0.5370    -1.2690 H     1 <1>   0.1500 
 29 H       -3.1770     1.0150    -1.5310 H     1 <1>   0.0800 
 30 H       -3.3210     2.5050    -0.6330 H     1 <1>   0.0800 
 31 H       -2.6240     2.5870     1.7840 H     1 <1>   0.0800 
 32 H       -2.0320     1.1420     2.5750 H     1 <1>   0.0800 
 33 H       -3.7220     1.3060     2.2330 H     1 <1>   0.0800 
 34 H        3.2510     3.0570     1.9270 H     1 <1>   0.1500 
 35 H        4.4670     0.5420    -1.2890 H     1 <1>   0.1500 
 36 H       -5.2780     1.6010     0.5640 H     1 <1>   0.0800 
 37 H       -5.0740     0.0630    -0.2300 H     1 <1>   0.0800 
 38 H       -5.6970     2.6860    -1.6240 H     1 <1>   0.0800 
 39 H       -6.8360     1.4000    -1.3170 H     1 <1>   0.0800 
 40 H       -5.5100     1.1400    -2.4220 H     1 <1>   0.0800 
 41 H        5.2690     3.4410     0.8310 H     1 <1>   0.3700 
 42 H        6.8520     3.9530     1.8960 H     1 <1>   0.0800 
 43 H        7.1420     5.0930     0.5980 H     1 <1>   0.0800 
 44 H        8.6530     2.4380    -1.5950 H     1 <1>   0.0800 
 45 H        9.4380     2.1620    -0.0630 H     1 <1>   0.0800 
 46 H        9.2400     3.5930     2.1660 H     1 <1>   0.0800 
 47 H        8.8570     5.2700     2.3800 H     1 <1>   0.0800 
 48 H        9.0050     4.8430    -1.3890 H     1 <1>   0.0800 
 49 H       10.5220     4.0050    -1.3280 H     1 <1>   0.0800 
 50 H       10.9060     4.5550     0.8880 H     1 <1>   0.0800 
 51 H        9.9360     5.9180     0.4210 H     1 <1>   0.0800 
@<TRIPOS>BOND
  1   1   2  2   
  2   1   3  2   
  3   1   4  am  
  4   1   5  1   
  5   4   6  1   
  6   4  25  1   
  7   5   7  ar  
  8   5   8  ar  
  9   6   9  1   
 10   6  10  1   
 11   6  26  1   
 12   7  11  ar  
 13   7  27  1   
 14   8  12  ar  
 15   8  28  1   
 16   9  13  1   
 17   9  29  1   
 18   9  30  1   
 19  10  31  1   
 20  10  32  1   
 21  10  33  1   
 22  11  14  ar  
 23  11  34  1   
 24  12  14  ar  
 25  12  35  1   
 26  13  15  1   
 27  13  36  1   
 28  13  37  1   
 29  14  16  1   
 30  15  38  1   
 31  15  39  1   
 32  15  40  1   
 33  16  17  am  
 34  16  41  1   
 35  17  18  2   
 36  17  19  am  
 37  19  20  1   
 38  19  21  1   
 39  20  22  1   
 40  20  42  1   
 41  20  43  1   
 42  21  23  1   
 43  21  44  1   
 44  21  45  1   
 45  22  24  1   
 46  22  46  1   
 47  22  47  1   
 48  23  24  1   
 49  23  48  1   
 50  23  49  1   
 51  24  50  1   
 52  24  51  1   
@<TRIPOS>SUBSTRUCTURE
  1 ****  11 GROUP 4 **** **** 0

# MOE 2024.06 (io_trps.svl 2023.06)
