@<TRIPOS>MOLECULE
NONAME
62 66 1 0 0 
SMALL
USER_CHARGES


@<TRIPOS>ATOM
  1 O       -1.0780    -0.9590     0.5110 O.2   1 <1>  -0.5700 
  2 C       -0.2000    -1.7840     0.4290 C.2   1 <1>   0.5690 
  3 N       -0.2850    -2.8480     1.2810 N.am  1 <1>  -0.5470 
  4 C        0.9290    -1.5900    -0.6260 C.3   1 <1>   0.0610 
  5 C        0.5370    -3.9550     1.5050 C.ar  1 <1>   0.1170 
  6 C        2.3470    -1.8090    -0.0390 C.3   1 <1>  -0.1600 
  7 C        0.7340    -2.5660    -1.8130 C.3   1 <1>  -0.1600 
  8 C        0.8960    -0.1460    -1.2010 C.3   1 <1>  -0.1600 
  9 C        0.4170    -5.1000     0.7290 C.ar  1 <1>  -0.1500 
 10 C        1.4950    -3.9180     2.5090 C.ar  1 <1>  -0.1500 
 11 C        3.4680    -1.6250    -1.0920 C.3   1 <1>   0.0610 
 12 C        1.8220    -2.3690    -2.8850 C.3   1 <1>  -0.0800 
 13 C        1.9790     0.0660    -2.2710 C.3   1 <1>  -0.0800 
 14 C        1.2640    -6.1770     0.9230 C.ar  1 <1>  -0.1500 
 15 C        2.3450    -4.9910     2.7060 C.ar  1 <1>  -0.1500 
 16 C        4.8550    -1.9050    -0.4650 C.2   1 <1>   0.5690 
 17 C        3.2070    -2.6110    -2.2570 C.3   1 <1>  -0.1600 
 18 C        3.3620    -0.1820    -1.6470 C.3   1 <1>  -0.1600 
 19 C        1.7540    -0.9300    -3.4210 C.3   1 <1>  -0.1600 
 20 C        2.2420    -6.1220     1.9130 C.ar  1 <1>   0.0830 
 21 O        5.7530    -1.1130    -0.6260 O.2   1 <1>  -0.5700 
 22 N        5.0070    -3.0680     0.2470 N.am  1 <1>  -0.5470 
 23 O        3.1260    -7.1230     2.1600 O.3   1 <1>  -0.3630 
 24 C        6.0840    -3.6200     0.9630 C.ar  1 <1>   0.1170 
 25 C        3.0500    -8.3510     1.4710 C.3   1 <1>   0.0400 
 26 C        5.9280    -4.8980     1.4870 C.ar  1 <1>  -0.1500 
 27 C        7.2900    -2.9610     1.1860 C.ar  1 <1>  -0.1500 
 28 C        6.9410    -5.5000     2.2110 C.ar  1 <1>  -0.1500 
 29 C        8.3080    -3.5590     1.9080 C.ar  1 <1>  -0.1500 
 30 C        8.1370    -4.8380     2.4270 C.ar  1 <1>   0.0830 
 31 O        9.0820    -5.4990     3.1470 O.3   1 <1>  -0.3620 
 32 C       10.3360    -4.9090     3.4090 C.3   1 <1>   0.0400 
 33 H       -1.0970    -2.7710     1.8950 H     1 <1>   0.3700 
 34 H        2.4200    -2.8060     0.3350 H     1 <1>   0.0800 
 35 H        2.5060    -1.1340     0.7840 H     1 <1>   0.0800 
 36 H       -0.2360    -2.4060    -2.2520 H     1 <1>   0.0800 
 37 H        0.7670    -3.5810    -1.4670 H     1 <1>   0.0800 
 38 H        1.0340     0.5640    -0.4040 H     1 <1>   0.0800 
 39 H       -0.0690     0.0500    -1.6380 H     1 <1>   0.0800 
 40 H       -0.3440    -5.1440    -0.0300 H     1 <1>   0.1500 
 41 H        1.5820    -3.0430     3.1300 H     1 <1>   0.1500 
 42 H        1.6640    -3.0620    -3.6940 H     1 <1>   0.0800 
 43 H        1.9260     1.0740    -2.6480 H     1 <1>   0.0800 
 44 H        1.1480    -7.0440     0.3010 H     1 <1>   0.1500 
 45 H        3.0950    -4.9590     3.4770 H     1 <1>   0.1500 
 46 H        3.2660    -3.6260    -1.9070 H     1 <1>   0.0800 
 47 H        3.9690    -2.4860    -3.0080 H     1 <1>   0.0800 
 48 H        4.1240    -0.0220    -2.3920 H     1 <1>   0.0800 
 49 H        3.5350     0.5260    -0.8550 H     1 <1>   0.0800 
 50 H        2.5030    -0.7850    -4.1800 H     1 <1>   0.0800 
 51 H        0.7930    -0.7530    -3.8730 H     1 <1>   0.0800 
 52 H        4.1700    -3.6460     0.2740 H     1 <1>   0.3700 
 53 H        3.8220    -8.9960     1.8520 H     1 <1>   0.0800 
 54 H        3.2060    -8.1750     0.4220 H     1 <1>   0.0800 
 55 H        2.0860    -8.7930     1.6500 H     1 <1>   0.0800 
 56 H        5.0110    -5.4340     1.3310 H     1 <1>   0.1500 
 57 H        7.4460    -1.9720     0.7990 H     1 <1>   0.1500 
 58 H        6.8090    -6.4880     2.6140 H     1 <1>   0.1500 
 59 H        9.2200    -3.0130     2.0530 H     1 <1>   0.1500 
 60 H       10.9190    -5.6050     3.9840 H     1 <1>   0.0800 
 61 H       10.1860    -4.0050     3.9720 H     1 <1>   0.0800 
 62 H       10.8280    -4.7050     2.4740 H     1 <1>   0.0800 
@<TRIPOS>BOND
  1   1   2  2   
  2   2   3  am  
  3   2   4  1   
  4   3   5  1   
  5   3  33  1   
  6   4   6  1   
  7   4   7  1   
  8   4   8  1   
  9   5   9  ar  
 10   5  10  ar  
 11   6  11  1   
 12   6  34  1   
 13   6  35  1   
 14   7  12  1   
 15   7  36  1   
 16   7  37  1   
 17   8  13  1   
 18   8  38  1   
 19   8  39  1   
 20   9  14  ar  
 21   9  40  1   
 22  10  15  ar  
 23  10  41  1   
 24  11  16  1   
 25  11  17  1   
 26  11  18  1   
 27  12  17  1   
 28  12  19  1   
 29  12  42  1   
 30  13  18  1   
 31  13  19  1   
 32  13  43  1   
 33  14  20  ar  
 34  14  44  1   
 35  15  20  ar  
 36  15  45  1   
 37  16  21  2   
 38  16  22  am  
 39  17  46  1   
 40  17  47  1   
 41  18  48  1   
 42  18  49  1   
 43  19  50  1   
 44  19  51  1   
 45  20  23  1   
 46  22  24  1   
 47  22  52  1   
 48  23  25  1   
 49  24  26  ar  
 50  24  27  ar  
 51  25  53  1   
 52  25  54  1   
 53  25  55  1   
 54  26  28  ar  
 55  26  56  1   
 56  27  29  ar  
 57  27  57  1   
 58  28  30  ar  
 59  28  58  1   
 60  29  30  ar  
 61  29  59  1   
 62  30  31  1   
 63  31  32  1   
 64  32  60  1   
 65  32  61  1   
 66  32  62  1   
@<TRIPOS>SUBSTRUCTURE
  1 ****  22 GROUP 4 **** **** 0

# MOE 2024.06 (io_trps.svl 2023.06)
