@<TRIPOS>MOLECULE
NONAME
47 49 1 0 0 
SMALL
USER_CHARGES


@<TRIPOS>ATOM
  1 O       -1.1850     0.1680    -0.6530 O.3   1 <1>  -0.1650 
  2 C       -1.8780     0.8180     0.3150 C.ar  1 <1>   0.0830 
  3 C       -1.2480    -1.1810    -0.7920 C.ar  1 <1>   0.0830 
  4 C       -3.1790     0.4640     0.6470 C.ar  1 <1>  -0.1500 
  5 C       -1.2630     1.8740     0.9670 C.ar  1 <1>  -0.1500 
  6 C       -1.1960    -1.7100    -2.0720 C.ar  1 <1>  -0.1500 
  7 C       -1.3450    -2.0310     0.3040 C.ar  1 <1>  -0.1500 
  8 C       -3.8630     1.1530     1.6370 C.ar  1 <1>  -0.1430 
  9 C       -1.9390     2.5630     1.9570 C.ar  1 <1>  -0.1500 
 10 C       -1.2540    -3.0800    -2.2610 C.ar  1 <1>  -0.1500 
 11 C       -1.4030    -3.4010     0.1130 C.ar  1 <1>  -0.1500 
 12 C       -3.2340     2.2020     2.2930 C.ar  1 <1>  -0.1500 
 13 C       -5.2920     0.7640     1.9870 C.3   1 <1>   0.2530 
 14 C       -1.3600    -3.9250    -1.1680 C.ar  1 <1>  -0.1500 
 15 N       -6.1750     0.9050     0.8110 N.3   1 <1>  -0.8100 
 16 C       -6.2020     2.2880     0.2880 C.3   1 <1>   0.1100 
 17 C       -7.5320     0.3990     1.0830 C.3   1 <1>   0.1100 
 18 C       -7.0750     2.3880    -0.9770 C.3   1 <1>   0.3430 
 19 C       -8.4210     0.4830    -0.1750 C.3   1 <1>   0.3430 
 20 N       -8.4720     1.8810    -0.7370 N.4   1 <1>  -0.9590 
 21 C       -9.2760     1.9630    -1.9820 C.3   1 <1>   0.3430 
 22 C      -10.7560     1.8040    -1.6500 C.3   1 <1>  -0.2400 
 23 H       -3.6620    -0.3450     0.1270 H     1 <1>   0.1500 
 24 H       -0.2590     2.1490     0.6980 H     1 <1>   0.1500 
 25 H       -1.1100    -1.0470    -2.9140 H     1 <1>   0.1500 
 26 H       -1.3670    -1.6280     1.3010 H     1 <1>   0.1500 
 27 H       -1.4580     3.3790     2.4680 H     1 <1>   0.1500 
 28 H       -1.2150    -3.4880    -3.2550 H     1 <1>   0.1500 
 29 H       -1.4790    -4.0600     0.9610 H     1 <1>   0.1500 
 30 H       -3.7450     2.7460     3.0680 H     1 <1>   0.1500 
 31 H       -5.6550     1.3750     2.7960 H     1 <1>   0.0800 
 32 H       -5.2930    -0.2620     2.3150 H     1 <1>   0.0800 
 33 H       -1.4050    -4.9900    -1.3150 H     1 <1>   0.1500 
 34 H       -5.2030     2.5960     0.0250 H     1 <1>   0.0800 
 35 H       -6.5670     2.9640     1.0420 H     1 <1>   0.0800 
 36 H       -7.9820     0.9590     1.8850 H     1 <1>   0.0800 
 37 H       -7.4700    -0.6310     1.3920 H     1 <1>   0.0800 
 38 H       -6.6060     1.8060    -1.7540 H     1 <1>   0.0800 
 39 H       -7.1060     3.4140    -1.3040 H     1 <1>   0.0800 
 40 H       -9.4140     0.1500     0.0760 H     1 <1>   0.0800 
 41 H       -8.0220    -0.1900    -0.9150 H     1 <1>   0.0800 
 42 H       -8.9020     2.4880    -0.0300 H     1 <1>   0.4500 
 43 H       -8.9660     1.1990    -2.6770 H     1 <1>   0.0800 
 44 H       -9.1260     2.9240    -2.4480 H     1 <1>   0.0800 
 45 H      -10.9720     0.8220    -1.2690 H     1 <1>   0.0800 
 46 H      -11.3320     1.9370    -2.5490 H     1 <1>   0.0800 
 47 H      -11.0730     2.5480    -0.9420 H     1 <1>   0.0800 
@<TRIPOS>BOND
  1   1   2  1   
  2   1   3  1   
  3   2   4  ar  
  4   2   5  ar  
  5   3   6  ar  
  6   3   7  ar  
  7   4   8  ar  
  8   4  23  1   
  9   5   9  ar  
 10   5  24  1   
 11   6  10  ar  
 12   6  25  1   
 13   7  11  ar  
 14   7  26  1   
 15   8  12  ar  
 16   8  13  1   
 17   9  12  ar  
 18   9  27  1   
 19  10  14  ar  
 20  10  28  1   
 21  11  14  ar  
 22  11  29  1   
 23  12  30  1   
 24  13  15  1   
 25  13  31  1   
 26  13  32  1   
 27  14  33  1   
 28  15  16  1   
 29  15  17  1   
 30  16  18  1   
 31  16  34  1   
 32  16  35  1   
 33  17  19  1   
 34  17  36  1   
 35  17  37  1   
 36  18  20  1   
 37  18  38  1   
 38  18  39  1   
 39  19  20  1   
 40  19  40  1   
 41  19  41  1   
 42  20  21  1   
 43  20  42  1   
 44  21  22  1   
 45  21  43  1   
 46  21  44  1   
 47  22  45  1   
 48  22  46  1   
 49  22  47  1   
@<TRIPOS>SUBSTRUCTURE
  1 ****   4 GROUP 4 **** **** 0

# MOE 2024.06 (io_trps.svl 2023.06)
