@<TRIPOS>MOLECULE
NONAME
40 41 1 0 0 
SMALL
USER_CHARGES


@<TRIPOS>ATOM
  1 S       -0.2360    -0.2340    -0.0040 S.o2  1 <1>   1.5760 
  2 O       -0.4890     0.5350     1.1970 O.2   1 <1>  -0.6500 
  3 O       -0.6040     0.3160    -1.2910 O.2   1 <1>  -0.6500 
  4 N        1.3850    -0.6890    -0.0250 N.am  1 <1>  -0.8490 
  5 N       -0.9950    -1.7390     0.1460 N.am  1 <1>  -0.8490 
  6 C        2.2910     0.2410    -0.6740 C.3   1 <1>   0.1960 
  7 C        1.8710    -1.2460     1.2420 C.3   1 <1>   0.1960 
  8 C       -2.4470    -1.6080     0.1260 C.3   1 <1>   0.1160 
  9 C       -0.5520    -2.6980    -0.8820 C.3   1 <1>   0.1160 
 10 C        3.6050    -0.4650    -1.0500 C.3   1 <1>  -0.1600 
 11 C        3.3960    -1.4450     1.2340 C.3   1 <1>  -0.1600 
 12 C        3.9360    -1.7260    -0.1930 C.3   1 <1>   0.0370 
 13 C        5.4790    -1.8990    -0.1400 C.ar  1 <1>  -0.1440 
 14 C        3.2190    -2.9960    -0.7620 C.2   1 <1>   0.9060 
 15 C        6.2870    -0.9390     0.4640 C.ar  1 <1>  -0.1500 
 16 C        6.1050    -3.0110    -0.6970 C.ar  1 <1>  -0.1500 
 17 O        2.8680    -3.9060     0.0090 O.co2 1 <1>  -0.9000 
 18 O        3.0350    -3.1250    -1.9840 O.co2 1 <1>  -0.9000 
 19 C        7.6630    -1.0830     0.5170 C.ar  1 <1>  -0.1500 
 20 C        7.4810    -3.1600    -0.6470 C.ar  1 <1>  -0.1500 
 21 C        8.2630    -2.1970    -0.0390 C.ar  1 <1>  -0.1500 
 22 H        2.4860     1.0630    -0.0060 H     1 <1>   0.0800 
 23 H        1.8430     0.6330    -1.5720 H     1 <1>   0.0800 
 24 H        1.3960    -2.2020     1.3930 H     1 <1>   0.0800 
 25 H        1.5990    -0.6060     2.0630 H     1 <1>   0.0800 
 26 H       -2.7620    -0.9400     0.9100 H     1 <1>   0.0800 
 27 H       -2.9060    -2.5680     0.2890 H     1 <1>   0.0800 
 28 H       -2.7750    -1.2130    -0.8220 H     1 <1>   0.0800 
 29 H        0.4950    -2.9240    -0.7660 H     1 <1>   0.0800 
 30 H       -0.7040    -2.2970    -1.8690 H     1 <1>   0.0800 
 31 H       -1.0900    -3.6240    -0.7870 H     1 <1>   0.0800 
 32 H        4.3910     0.2610    -0.9720 H     1 <1>   0.0800 
 33 H        3.5650    -0.7420    -2.0880 H     1 <1>   0.0800 
 34 H        3.6450    -2.2660     1.8830 H     1 <1>   0.0800 
 35 H        3.8460    -0.5630     1.6450 H     1 <1>   0.0800 
 36 H        5.8500    -0.0600     0.8980 H     1 <1>   0.1500 
 37 H        5.5310    -3.7820    -1.1820 H     1 <1>   0.1500 
 38 H        8.2650    -0.3290     0.9900 H     1 <1>   0.1500 
 39 H        7.9340    -4.0310    -1.0840 H     1 <1>   0.1500 
 40 H        9.3310    -2.3150     0.0000 H     1 <1>   0.1500 
@<TRIPOS>BOND
  1   1   2  2   
  2   1   3  2   
  3   1   4  am  
  4   1   5  am  
  5   4   6  1   
  6   4   7  1   
  7   5   8  1   
  8   5   9  1   
  9   6  10  1   
 10   6  22  1   
 11   6  23  1   
 12   7  11  1   
 13   7  24  1   
 14   7  25  1   
 15   8  26  1   
 16   8  27  1   
 17   8  28  1   
 18   9  29  1   
 19   9  30  1   
 20   9  31  1   
 21  10  12  1   
 22  10  32  1   
 23  10  33  1   
 24  11  12  1   
 25  11  34  1   
 26  11  35  1   
 27  12  13  1   
 28  12  14  1   
 29  13  15  ar  
 30  13  16  ar  
 31  14  17  ar  
 32  14  18  ar  
 33  15  19  ar  
 34  15  36  1   
 35  16  20  ar  
 36  16  37  1   
 37  19  21  ar  
 38  19  38  1   
 39  20  21  ar  
 40  20  39  1   
 41  21  40  1   
@<TRIPOS>SUBSTRUCTURE
  1 ****  12 GROUP 4 **** **** 0

# MOE 2024.06 (io_trps.svl 2023.06)
