@<TRIPOS>MOLECULE
NONAME
35 35 1 0 0 
SMALL
USER_CHARGES


@<TRIPOS>ATOM
  1 CL       0.0870     0.9140     1.8410 Cl    1 <1>  -0.1770 
  2 C        0.7810     1.9600     0.6240 C.ar  1 <1>   0.1770 
  3 C       -0.0350     2.7680    -0.1540 C.ar  1 <1>   0.0830 
  4 C        2.1550     1.9650     0.4660 C.ar  1 <1>  -0.1500 
  5 O       -1.3790     2.7440     0.0420 O.3   1 <1>  -0.2320 
  6 C        0.5460     3.5730    -1.1250 C.ar  1 <1>  -0.1500 
  7 C        2.7360     2.7920    -0.4880 C.ar  1 <1>  -0.1440 
  8 C       -2.1430     3.8360     0.1950 C.2   1 <1>   0.7800 
  9 C        1.9220     3.5840    -1.2890 C.ar  1 <1>  -0.1500 
 10 C        4.2440     2.8400    -0.6510 C.3   1 <1>   0.4870 
 11 O       -1.6240     4.9370     0.2270 O.2   1 <1>  -0.5700 
 12 N       -3.5030     3.6580     0.3160 N.am  1 <1>  -0.6600 
 13 N        4.8250     3.6290     0.4760 N.4   1 <1>  -0.9590 
 14 C       -4.1600     2.3210     0.3410 C.3   1 <1>   0.0600 
 15 C       -4.4340     4.8100     0.4680 C.3   1 <1>   0.0600 
 16 C        4.3500     5.0510     0.4610 C.3   1 <1>   0.2630 
 17 C        6.3180     3.5600     0.4810 C.3   1 <1>   0.2630 
 18 H        2.7440     1.3210     1.0940 H     1 <1>   0.1500 
 19 H       -0.0770     4.1940    -1.7470 H     1 <1>   0.1500 
 20 H        2.3420     4.2220    -2.0490 H     1 <1>   0.1500 
 21 H        4.4980     3.2940    -1.5950 H     1 <1>   0.0800 
 22 H        4.6340     1.8350    -0.6390 H     1 <1>   0.0800 
 23 H        4.4660     3.1990     1.3410 H     1 <1>   0.4500 
 24 H       -3.4370     1.5250     0.2990 H     1 <1>   0.0800 
 25 H       -4.8220     2.2280    -0.5030 H     1 <1>   0.0800 
 26 H       -4.7300     2.2150     1.2480 H     1 <1>   0.0800 
 27 H       -3.9030     5.7450     0.4110 H     1 <1>   0.0800 
 28 H       -4.9270     4.7540     1.4230 H     1 <1>   0.0800 
 29 H       -5.1710     4.7870    -0.3140 H     1 <1>   0.0800 
 30 H        4.6580     5.5430    -0.4470 H     1 <1>   0.0800 
 31 H        4.7550     5.5910     1.3010 H     1 <1>   0.0800 
 32 H        3.2730     5.0880     0.5230 H     1 <1>   0.0800 
 33 H        6.7180     4.0010    -0.4180 H     1 <1>   0.0800 
 34 H        6.6470     2.5350     0.5390 H     1 <1>   0.0800 
 35 H        6.7130     4.0940     1.3300 H     1 <1>   0.0800 
@<TRIPOS>BOND
  1   1   2  1   
  2   2   3  ar  
  3   2   4  ar  
  4   3   5  1   
  5   3   6  ar  
  6   4   7  ar  
  7   4  18  1   
  8   5   8  1   
  9   6   9  ar  
 10   6  19  1   
 11   7   9  ar  
 12   7  10  1   
 13   8  11  2   
 14   8  12  am  
 15   9  20  1   
 16  10  13  1   
 17  10  21  1   
 18  10  22  1   
 19  12  14  1   
 20  12  15  1   
 21  13  16  1   
 22  13  17  1   
 23  13  23  1   
 24  14  24  1   
 25  14  25  1   
 26  14  26  1   
 27  15  27  1   
 28  15  28  1   
 29  15  29  1   
 30  16  30  1   
 31  16  31  1   
 32  16  32  1   
 33  17  33  1   
 34  17  34  1   
 35  17  35  1   
@<TRIPOS>SUBSTRUCTURE
  1 ****   3 GROUP 4 **** **** 0

# MOE 2024.06 (io_trps.svl 2023.06)
