@<TRIPOS>MOLECULE
NONAME
32 32 1 0 0 
SMALL
USER_CHARGES


@<TRIPOS>ATOM
  1 CL       0.1650     0.2690     0.0560 Cl    1 <1>  -0.1770 
  2 C       -1.4460     0.9580     0.0170 C.ar  1 <1>   0.1770 
  3 C       -2.5620     0.1360    -0.0810 C.ar  1 <1>   0.0830 
  4 C       -1.5640     2.3330     0.0840 C.ar  1 <1>  -0.1500 
  5 O       -2.3670    -1.2130    -0.1420 O.3   1 <1>  -0.3630 
  6 C       -3.8220     0.7250    -0.1110 C.ar  1 <1>  -0.1500 
  7 C       -2.8270     2.9130     0.0580 C.ar  1 <1>   0.0830 
  8 C       -3.4590    -2.1070    -0.1300 C.3   1 <1>   0.0400 
  9 C       -3.9690     2.1060    -0.0330 C.ar  1 <1>   0.1170 
 10 O       -3.0200     4.2680     0.1160 O.3   1 <1>  -0.3630 
 11 N       -5.2250     2.7400    -0.0550 N.am  1 <1>  -0.5470 
 12 C       -1.9310     5.1490     0.2970 C.3   1 <1>   0.0400 
 13 C       -6.5080     2.3090     0.1220 C.2   1 <1>   0.6900 
 14 O       -6.7480     1.1520     0.4130 O.2   1 <1>  -0.5700 
 15 N       -7.5310     3.2190    -0.0140 N.am  1 <1>  -0.6600 
 16 C       -8.9230     2.8790     0.3940 C.3   1 <1>   0.0600 
 17 C       -7.3820     4.5530    -0.6590 C.3   1 <1>   0.0600 
 18 H       -0.6650     2.9120     0.1550 H     1 <1>   0.1500 
 19 H       -4.7000     0.1190    -0.1990 H     1 <1>   0.1500 
 20 H       -3.0710    -3.1090    -0.1320 H     1 <1>   0.0800 
 21 H       -4.0550    -1.9440    -1.0110 H     1 <1>   0.0800 
 22 H       -4.0390    -1.9400     0.7610 H     1 <1>   0.0800 
 23 H       -5.1480     3.7530    -0.0730 H     1 <1>   0.3700 
 24 H       -2.3160     6.1510     0.3480 H     1 <1>   0.0800 
 25 H       -1.2640     5.0580    -0.5420 H     1 <1>   0.0800 
 26 H       -1.4300     4.9040     1.2170 H     1 <1>   0.0800 
 27 H       -8.9330     2.0040     1.0220 H     1 <1>   0.0800 
 28 H       -9.5190     2.6840    -0.4800 H     1 <1>   0.0800 
 29 H       -9.3530     3.6970     0.9450 H     1 <1>   0.0800 
 30 H       -6.5350     4.5650    -1.3230 H     1 <1>   0.0800 
 31 H       -7.2530     5.3080     0.0970 H     1 <1>   0.0800 
 32 H       -8.2610     4.7810    -1.2360 H     1 <1>   0.0800 
@<TRIPOS>BOND
  1   1   2  1   
  2   2   3  ar  
  3   2   4  ar  
  4   3   5  1   
  5   3   6  ar  
  6   4   7  ar  
  7   4  18  1   
  8   5   8  1   
  9   6   9  ar  
 10   6  19  1   
 11   7   9  ar  
 12   7  10  1   
 13   8  20  1   
 14   8  21  1   
 15   8  22  1   
 16   9  11  1   
 17  10  12  1   
 18  11  13  am  
 19  11  23  1   
 20  12  24  1   
 21  12  25  1   
 22  12  26  1   
 23  13  14  2   
 24  13  15  am  
 25  15  16  1   
 26  15  17  1   
 27  16  27  1   
 28  16  28  1   
 29  16  29  1   
 30  17  30  1   
 31  17  31  1   
 32  17  32  1   
@<TRIPOS>SUBSTRUCTURE
  1 ****   9 GROUP 4 **** **** 0

# MOE 2024.06 (io_trps.svl 2023.06)
