@<TRIPOS>MOLECULE
NONAME
43 44 1 0 0 
SMALL
USER_CHARGES


@<TRIPOS>ATOM
  1 S       -0.0170     0.3990    -0.6480 S.o2  1 <1>   1.4470 
  2 O       -0.4550     0.7150    -1.9920 O.2   1 <1>  -0.6500 
  3 O       -0.4520    -0.8370    -0.0330 O.2   1 <1>  -0.6500 
  4 N       -0.5280     1.6810     0.3420 N.am  1 <1>  -0.8490 
  5 C        1.7900     0.5020    -0.5360 C.ar  1 <1>  -0.0090 
  6 C       -0.2950     2.9840    -0.2820 C.3   1 <1>   0.1960 
  7 C       -1.9160     1.5170     0.7830 C.3   1 <1>   0.1960 
  8 C        2.4270     0.5120     0.6990 C.ar  1 <1>  -0.1500 
  9 C        2.5870     0.5740    -1.6720 C.ar  1 <1>  -0.1500 
 10 C       -0.1900     4.0620     0.7950 C.3   1 <1>  -0.2400 
 11 C       -1.9110     1.0110     2.2210 C.3   1 <1>  -0.2400 
 12 C        3.8040     0.5970     0.7970 C.ar  1 <1>  -0.1500 
 13 C        3.9650     0.6590    -1.5790 C.ar  1 <1>  -0.1500 
 14 C        4.5970     0.6770    -0.3400 C.ar  1 <1>   0.1170 
 15 N        5.9860     0.7550    -0.1860 N.am  1 <1>  -0.5470 
 16 C        6.9910     1.1990    -1.0100 C.2   1 <1>   0.7150 
 17 O        6.7420     1.6530    -2.1110 O.2   1 <1>  -0.5700 
 18 C        8.3480     1.1240    -0.5280 C.2   1 <1>   0.0550 
 19 O        8.6100     0.6450     0.6880 O.3   1 <1>  -0.2800 
 20 C        9.5260     1.4760    -1.1140 C.2   1 <1>  -0.1500 
 21 C        9.9080     0.6820     0.8870 C.2   1 <1>  -0.0400 
 22 C       10.5350     1.1890    -0.1950 C.2   1 <1>  -0.1500 
 23 C       10.4610     0.1870     2.2050 C.3   1 <1>  -0.0600 
 24 H       -1.0810     3.2120    -0.9850 H     1 <1>   0.0800 
 25 H        0.6360     2.9670    -0.8250 H     1 <1>   0.0800 
 26 H       -2.4440     0.8260     0.1460 H     1 <1>   0.0800 
 27 H       -2.4460     2.4540     0.7510 H     1 <1>   0.0800 
 28 H        1.8290     0.4530     1.5940 H     1 <1>   0.1500 
 29 H        2.1240     0.5630    -2.6450 H     1 <1>   0.1500 
 30 H       -1.1160     4.1780     1.3260 H     1 <1>   0.0800 
 31 H        0.0540     5.0030     0.3360 H     1 <1>   0.0800 
 32 H        0.5910     3.8100     1.4900 H     1 <1>   0.0800 
 33 H       -1.4310     0.0500     2.2800 H     1 <1>   0.0800 
 34 H       -2.9210     0.9060     2.5720 H     1 <1>   0.0800 
 35 H       -1.3960     1.7070     2.8580 H     1 <1>   0.0800 
 36 H        4.2640     0.6050     1.7690 H     1 <1>   0.1500 
 37 H        4.5460     0.7070    -2.4820 H     1 <1>   0.1500 
 38 H        6.3480     0.4670     0.7230 H     1 <1>   0.3700 
 39 H        9.6640     1.8950    -2.0950 H     1 <1>   0.1500 
 40 H       11.5880     1.3500    -0.3490 H     1 <1>   0.1500 
 41 H       10.0500     0.7650     3.0130 H     1 <1>   0.0800 
 42 H       11.5320     0.2800     2.2180 H     1 <1>   0.0800 
 43 H       10.1980    -0.8460     2.3450 H     1 <1>   0.0800 
@<TRIPOS>BOND
  1   1   2  2   
  2   1   3  2   
  3   1   4  am  
  4   1   5  1   
  5   4   6  1   
  6   4   7  1   
  7   5   8  ar  
  8   5   9  ar  
  9   6  10  1   
 10   6  24  1   
 11   6  25  1   
 12   7  11  1   
 13   7  26  1   
 14   7  27  1   
 15   8  12  ar  
 16   8  28  1   
 17   9  13  ar  
 18   9  29  1   
 19  10  30  1   
 20  10  31  1   
 21  10  32  1   
 22  11  33  1   
 23  11  34  1   
 24  11  35  1   
 25  12  14  ar  
 26  12  36  1   
 27  13  14  ar  
 28  13  37  1   
 29  14  15  1   
 30  15  16  am  
 31  15  38  1   
 32  16  17  2   
 33  16  18  1   
 34  18  19  1   
 35  18  20  2   
 36  19  21  1   
 37  20  22  1   
 38  20  39  1   
 39  21  22  2   
 40  21  23  1   
 41  22  40  1   
 42  23  41  1   
 43  23  42  1   
 44  23  43  1   
@<TRIPOS>SUBSTRUCTURE
  1 ****  14 GROUP 4 **** **** 0

# MOE 2024.06 (io_trps.svl 2023.06)
