@<TRIPOS>MOLECULE
NONAME
42 42 1 0 0 
SMALL
USER_CHARGES


@<TRIPOS>ATOM
  1 CL      -0.0360    -1.9110     1.5930 Cl    1 <1>  -0.1770 
  2 C       -1.6910    -1.9990     1.0400 C.ar  1 <1>   0.1770 
  3 C       -2.5550    -0.9550     1.3090 C.ar  1 <1>  -0.1500 
  4 C       -2.1140    -3.1130     0.3400 C.ar  1 <1>  -0.1500 
  5 C       -3.8650    -1.0300     0.8670 C.ar  1 <1>  -0.1500 
  6 C       -3.4260    -3.1790    -0.0970 C.ar  1 <1>  -0.1500 
  7 C       -4.3190    -2.1430     0.1610 C.ar  1 <1>   0.1170 
  8 N       -5.6330    -2.2560    -0.3160 N.am  1 <1>  -0.5470 
  9 C       -6.7920    -1.6890     0.1190 C.2   1 <1>   0.6900 
 10 O       -6.8530    -0.9930     1.1100 O.2   1 <1>  -0.5700 
 11 N       -7.9080    -1.9230    -0.6010 N.am  1 <1>  -0.7300 
 12 C       -9.2580    -1.3180    -0.2530 C.3   1 <1>   0.2810 
 13 P      -10.3970    -2.3170     0.7140 P.3   1 <1>   1.2420 
 14 C       -9.9770    -0.9150    -1.5360 C.2   1 <1>   0.5690 
 15 O       -9.8840    -2.9370     1.9350 O.2   1 <1>  -0.7000 
 16 O      -11.6280    -1.3320     1.0300 O.3   1 <1>  -0.5510 
 17 O      -11.0620    -3.3790    -0.2960 O.3   1 <1>  -0.5510 
 18 O       -9.6530    -1.4300    -2.5800 O.2   1 <1>  -0.5700 
 19 N      -10.9500     0.0230    -1.5410 N.am  1 <1>  -0.8000 
 20 C      -12.7170    -1.8260     1.7220 C.3   1 <1>   0.1200 
 21 C      -10.3870    -4.5120    -0.7180 C.3   1 <1>   0.1200 
 22 C      -13.7250    -0.6920     1.8720 C.3   1 <1>  -0.2400 
 23 C      -10.6750    -5.6540     0.2540 C.3   1 <1>  -0.2400 
 24 H       -2.2050    -0.0970     1.8550 H     1 <1>   0.1500 
 25 H       -1.4230    -3.9130     0.1440 H     1 <1>   0.1500 
 26 H       -4.5350    -0.2140     1.0730 H     1 <1>   0.1500 
 27 H       -3.7570    -4.0460    -0.6390 H     1 <1>   0.1500 
 28 H       -5.7740    -2.9670    -1.0250 H     1 <1>   0.3700 
 29 H       -7.8320    -2.1540    -1.5960 H     1 <1>   0.3700 
 30 H       -9.0680    -0.4080     0.2830 H     1 <1>   0.0800 
 31 H      -11.4150     0.2550    -2.4210 H     1 <1>   0.3700 
 32 H      -11.3900     0.3940    -0.6940 H     1 <1>   0.3700 
 33 H      -12.3830    -2.1760     2.6860 H     1 <1>   0.0800 
 34 H      -13.1410    -2.6460     1.1650 H     1 <1>   0.0800 
 35 H       -9.3330    -4.3050    -0.7850 H     1 <1>   0.0800 
 36 H      -10.7590    -4.7620    -1.6970 H     1 <1>   0.0800 
 37 H      -13.2880     0.1230     2.4200 H     1 <1>   0.0800 
 38 H      -14.5850    -1.0440     2.4130 H     1 <1>   0.0800 
 39 H      -14.0470    -0.3500     0.9050 H     1 <1>   0.0800 
 40 H      -10.2780    -5.4340     1.2290 H     1 <1>   0.0800 
 41 H      -10.2110    -6.5560    -0.1010 H     1 <1>   0.0800 
 42 H      -11.7340    -5.8200     0.3270 H     1 <1>   0.0800 
@<TRIPOS>BOND
  1   1   2  1   
  2   2   3  ar  
  3   2   4  ar  
  4   3   5  ar  
  5   3  24  1   
  6   4   6  ar  
  7   4  25  1   
  8   5   7  ar  
  9   5  26  1   
 10   6   7  ar  
 11   6  27  1   
 12   7   8  1   
 13   8   9  am  
 14   8  28  1   
 15   9  10  2   
 16   9  11  am  
 17  11  12  1   
 18  11  29  1   
 19  12  13  1   
 20  12  14  1   
 21  12  30  1   
 22  13  15  2   
 23  13  16  1   
 24  13  17  1   
 25  14  18  2   
 26  14  19  am  
 27  16  20  1   
 28  17  21  1   
 29  19  31  1   
 30  19  32  1   
 31  20  22  1   
 32  20  33  1   
 33  20  34  1   
 34  21  23  1   
 35  21  35  1   
 36  21  36  1   
 37  22  37  1   
 38  22  38  1   
 39  22  39  1   
 40  23  40  1   
 41  23  41  1   
 42  23  42  1   
@<TRIPOS>SUBSTRUCTURE
  1 ****  11 GROUP 4 **** **** 0

# MOE 2024.06 (io_trps.svl 2023.06)
