@<TRIPOS>MOLECULE
NONAME
35 36 1 0 0 
SMALL
USER_CHARGES


@<TRIPOS>ATOM
  1 F        0.7920    -0.4280    -0.4900 F     1 <1>  -0.1900 
  2 C        1.0650    -1.6960    -0.3060 C.ar  1 <1>   0.1900 
  3 C        2.1920    -2.0470     0.4370 C.ar  1 <1>   0.1000 
  4 C        0.2070    -2.6310    -0.8520 C.ar  1 <1>  -0.1500 
  5 N        3.0510    -1.0750     0.9850 N.pl3 1 <1>  -0.6000 
  6 C        2.4150    -3.4050     0.6450 C.ar  1 <1>  -0.1500 
  7 C        0.4640    -3.9760    -0.6440 C.ar  1 <1>  -0.1500 
  8 C        4.4150    -1.0590     1.0930 C.2   1 <1>  -0.0500 
  9 C        1.5650    -4.3580     0.1070 C.ar  1 <1>  -0.1500 
 10 C        5.3820    -1.7730     0.4130 C.2   1 <1>   0.0290 
 11 C        6.7310    -1.7470     0.8930 C.2   1 <1>   0.4950 
 12 C        5.1550    -2.5320    -0.7830 C.2   1 <1>   0.4950 
 13 O        7.1220    -0.9860     1.7460 O.2   1 <1>  -0.5700 
 14 C        7.7610    -2.7260     0.3550 C.3   1 <1>  -0.0990 
 15 O        4.3230    -2.2590    -1.6130 O.2   1 <1>  -0.5700 
 16 C        6.0350    -3.7220    -1.1400 C.3   1 <1>  -0.0990 
 17 C        7.1200    -4.0460    -0.1000 C.3   1 <1>   0.0000 
 18 C        6.5130    -4.8000     1.0990 C.3   1 <1>  -0.2400 
 19 C        8.1910    -4.9460    -0.7350 C.3   1 <1>  -0.2400 
 20 H       -0.6430    -2.3100    -1.4270 H     1 <1>   0.1500 
 21 H        2.5380    -0.2600     1.3440 H     1 <1>   0.4000 
 22 H        3.2580    -3.7120     1.2350 H     1 <1>   0.1500 
 23 H       -0.1890    -4.7210    -1.0630 H     1 <1>   0.1500 
 24 H        4.7710    -0.3710     1.8440 H     1 <1>   0.1500 
 25 H        1.7600    -5.4030     0.2730 H     1 <1>   0.1500 
 26 H        8.2710    -2.2550    -0.4660 H     1 <1>   0.0800 
 27 H        8.4900    -2.9210     1.1220 H     1 <1>   0.0800 
 28 H        5.4060    -4.5790    -1.3010 H     1 <1>   0.0800 
 29 H        6.5000    -3.4900    -2.0820 H     1 <1>   0.0800 
 30 H        7.2720    -5.0110     1.8330 H     1 <1>   0.0800 
 31 H        6.0930    -5.7380     0.7800 H     1 <1>   0.0800 
 32 H        5.7350    -4.2370     1.5820 H     1 <1>   0.0800 
 33 H        8.6570    -4.4570    -1.5730 H     1 <1>   0.0800 
 34 H        7.7550    -5.8660    -1.0840 H     1 <1>   0.0800 
 35 H        8.9580    -5.1870    -0.0190 H     1 <1>   0.0800 
@<TRIPOS>BOND
  1   1   2  1   
  2   2   3  ar  
  3   2   4  ar  
  4   3   5  1   
  5   3   6  ar  
  6   4   7  ar  
  7   4  20  1   
  8   5   8  1   
  9   5  21  1   
 10   6   9  ar  
 11   6  22  1   
 12   7   9  ar  
 13   7  23  1   
 14   8  10  2   
 15   8  24  1   
 16   9  25  1   
 17  10  11  1   
 18  10  12  1   
 19  11  13  2   
 20  11  14  1   
 21  12  15  2   
 22  12  16  1   
 23  14  17  1   
 24  14  26  1   
 25  14  27  1   
 26  16  17  1   
 27  16  28  1   
 28  16  29  1   
 29  17  18  1   
 30  17  19  1   
 31  18  30  1   
 32  18  31  1   
 33  18  32  1   
 34  19  33  1   
 35  19  34  1   
 36  19  35  1   
@<TRIPOS>SUBSTRUCTURE
  1 ****  12 GROUP 4 **** **** 0

# MOE 2024.06 (io_trps.svl 2023.06)
