@<TRIPOS>MOLECULE
NONAME
36 37 1 0 0 
SMALL
USER_CHARGES


@<TRIPOS>ATOM
  1 O       -0.6360    -0.2770     0.4230 O.2   1 <1>  -0.5700 
  2 C       -1.1480    -1.3310     0.1370 C.2   1 <1>   0.6300 
  3 N       -2.4090    -1.3790    -0.4070 N.am  1 <1>  -0.6600 
  4 C       -0.3730    -2.6130     0.4270 C.3   1 <1>  -0.1000 
  5 C       -3.2510    -2.6090    -0.4970 C.3   1 <1>   0.1400 
  6 C       -3.1000    -0.1260    -0.8400 C.3   1 <1>   0.1400 
  7 C        1.0380    -2.7700    -0.0540 C.3   1 <1>  -0.1950 
  8 C       -0.0390    -3.6000    -0.6670 C.3   1 <1>  -0.2000 
  9 C       -4.5820    -2.4080     0.2580 C.3   1 <1>   0.3430 
 10 C       -4.4120     0.0610    -0.0610 C.3   1 <1>   0.3430 
 11 C        2.1040    -3.4150     0.8340 C.3   1 <1>  -0.1450 
 12 N       -5.3020    -1.1540    -0.1610 N.4   1 <1>  -0.9590 
 13 C       -6.5620    -0.9790     0.5940 C.3   1 <1>   0.4810 
 14 C       -7.4180    -0.0150    -0.1920 C.2   1 <1>  -0.2880 
 15 C       -8.4730    -0.3550    -0.9410 C.2   1 <1>  -0.3000 
 16 H       -0.5860    -2.9880     1.4100 H     1 <1>   0.1000 
 17 H       -2.7390    -3.4550    -0.0740 H     1 <1>   0.0800 
 18 H       -3.4450    -2.8300    -1.5320 H     1 <1>   0.0800 
 19 H       -3.3050    -0.1800    -1.8950 H     1 <1>   0.0800 
 20 H       -2.4720     0.7340    -0.6800 H     1 <1>   0.0800 
 21 H        1.4380    -1.9620    -0.6460 H     1 <1>   0.1000 
 22 H       -0.3140    -3.3820    -1.6850 H     1 <1>   0.1000 
 23 H       -0.0670    -4.6530    -0.4470 H     1 <1>   0.1000 
 24 H       -4.3650    -2.3620     1.3130 H     1 <1>   0.0800 
 25 H       -5.2120    -3.2670     0.0890 H     1 <1>   0.0800 
 26 H       -4.9250     0.9270    -0.4450 H     1 <1>   0.0800 
 27 H       -4.1670     0.2510     0.9720 H     1 <1>   0.0800 
 28 H        1.6870    -4.2150     1.4180 H     1 <1>   0.0800 
 29 H        2.5160    -2.6790     1.5010 H     1 <1>   0.0800 
 30 H        2.8970    -3.8090     0.2240 H     1 <1>   0.0800 
 31 H       -5.5820    -1.2500    -1.1460 H     1 <1>   0.4500 
 32 H       -6.3750    -0.6090     1.5900 H     1 <1>   0.0800 
 33 H       -7.0770    -1.9240     0.6670 H     1 <1>   0.0800 
 34 H       -7.1040     1.0110    -0.0900 H     1 <1>   0.1500 
 35 H       -9.0730     0.3550    -1.4880 H     1 <1>   0.1500 
 36 H       -8.8420    -1.3590    -1.0760 H     1 <1>   0.1500 
@<TRIPOS>BOND
  1   1   2  2   
  2   2   3  am  
  3   2   4  1   
  4   3   5  1   
  5   3   6  1   
  6   4   7  1   
  7   4   8  1   
  8   4  16  1   
  9   5   9  1   
 10   5  17  1   
 11   5  18  1   
 12   6  10  1   
 13   6  19  1   
 14   6  20  1   
 15   7   8  1   
 16   7  11  1   
 17   7  21  1   
 18   8  22  1   
 19   8  23  1   
 20   9  12  1   
 21   9  24  1   
 22   9  25  1   
 23  10  12  1   
 24  10  26  1   
 25  10  27  1   
 26  11  28  1   
 27  11  29  1   
 28  11  30  1   
 29  12  13  1   
 30  12  31  1   
 31  13  14  1   
 32  13  32  1   
 33  13  33  1   
 34  14  15  2   
 35  14  34  1   
 36  15  35  1   
 37  15  36  1   
@<TRIPOS>SUBSTRUCTURE
  1 ****   3 GROUP 4 **** **** 0

# MOE 2024.06 (io_trps.svl 2023.06)
