@<TRIPOS>MOLECULE
NONAME
58 61 1 0 0 
SMALL
USER_CHARGES


@<TRIPOS>ATOM
  1 O       -0.3830    -0.6070    -0.1600 O.3   1 <1>  -0.3630 
  2 C       -1.4180    -1.0690     0.5820 C.ar  1 <1>   0.0830 
  3 C        0.8070    -0.2550     0.5180 C.3   1 <1>   0.2640 
  4 C       -1.3160    -2.1400     1.4750 C.ar  1 <1>   0.0830 
  5 C       -2.6310    -0.4220     0.4250 C.ar  1 <1>  -0.1500 
  6 C        1.5780     0.7380    -0.3370 C.ar  1 <1>  -0.1440 
  7 O       -0.1700    -2.8390     1.6460 O.3   1 <1>  -0.3630 
  8 C       -2.4190    -2.5160     2.2220 C.ar  1 <1>  -0.1500 
  9 C       -3.7440    -0.8170     1.1560 C.ar  1 <1>  -0.1440 
 10 C        1.7390     2.0520     0.0790 C.ar  1 <1>  -0.1500 
 11 C        2.1310     0.3360    -1.5430 C.ar  1 <1>  -0.1500 
 12 C        0.1750    -3.7280     0.6060 C.3   1 <1>   0.0400 
 13 C       -3.6280    -1.8600     2.0650 C.ar  1 <1>  -0.1500 
 14 C       -5.0700    -0.1100     0.9560 C.3   1 <1>   0.4860 
 15 C        2.4470     2.9500    -0.7010 C.ar  1 <1>  -0.1500 
 16 C        2.8400     1.2330    -2.3240 C.ar  1 <1>  -0.1500 
 17 N       -5.6120    -0.4750    -0.3900 N.4   1 <1>  -0.9590 
 18 C        2.9980     2.5410    -1.9020 C.ar  1 <1>  -0.1500 
 19 C       -6.8210     0.3190    -0.8040 C.3   1 <1>   0.5660 
 20 C       -5.7720    -1.9660    -0.4990 C.3   1 <1>   0.3430 
 21 C       -6.7940     1.7260    -0.2180 C.ar  1 <1>  -0.1430 
 22 C       -8.1080    -0.4600    -0.5030 C.3   1 <1>  -0.1600 
 23 C       -6.7670    -2.3360    -1.5990 C.3   1 <1>  -0.1600 
 24 C       -6.0970     2.7070    -0.9090 C.ar  1 <1>   0.1600 
 25 C       -7.4160     2.0740     0.9710 C.ar  1 <1>  -0.1500 
 26 C       -8.1690    -1.7710    -1.3080 C.3   1 <1>  -0.1600 
 27 N       -5.9550     3.9570    -0.5110 N.ar  1 <1>  -0.6200 
 28 C       -7.2850     3.3810     1.3900 C.ar  1 <1>  -0.1500 
 29 C       -6.5540     4.2710     0.6250 C.ar  1 <1>   0.1600 
 30 H        1.3930    -1.1420     0.6740 H     1 <1>   0.0800 
 31 H        0.5490     0.1760     1.4700 H     1 <1>   0.0800 
 32 H       -2.6750     0.3990    -0.2690 H     1 <1>   0.1500 
 33 H       -2.3210    -3.3260     2.9250 H     1 <1>   0.1500 
 34 H        1.3140     2.3830     1.0100 H     1 <1>   0.1500 
 35 H        2.0080    -0.6790    -1.8790 H     1 <1>   0.1500 
 36 H       -0.6070    -4.4600     0.5010 H     1 <1>   0.0800 
 37 H        1.0980    -4.2120     0.8690 H     1 <1>   0.0800 
 38 H        0.2960    -3.1760    -0.3090 H     1 <1>   0.0800 
 39 H       -4.4680    -2.1760     2.6610 H     1 <1>   0.1500 
 40 H       -4.9060     0.9530     1.0240 H     1 <1>   0.0800 
 41 H       -5.7650    -0.3970     1.7280 H     1 <1>   0.0800 
 42 H        2.5690     3.9680    -0.3730 H     1 <1>   0.1500 
 43 H        3.2660     0.9130    -3.2580 H     1 <1>   0.1500 
 44 H       -4.8660    -0.2190    -1.0450 H     1 <1>   0.4500 
 45 H        3.5490     3.2390    -2.5080 H     1 <1>   0.1500 
 46 H       -6.7880     0.4290    -1.8760 H     1 <1>   0.0800 
 47 H       -6.1400    -2.3580     0.4360 H     1 <1>   0.0800 
 48 H       -4.8150    -2.4240    -0.6950 H     1 <1>   0.0800 
 49 H       -8.9640     0.1460    -0.7510 H     1 <1>   0.0800 
 50 H       -8.1600    -0.6800     0.5480 H     1 <1>   0.0800 
 51 H       -6.8280    -3.4090    -1.6790 H     1 <1>   0.0800 
 52 H       -6.4030    -1.9700    -2.5430 H     1 <1>   0.0800 
 53 H       -5.6180     2.4620    -1.8430 H     1 <1>   0.1500 
 54 H       -7.9860     1.3800     1.5650 H     1 <1>   0.1500 
 55 H       -8.6780    -1.6050    -2.2450 H     1 <1>   0.0800 
 56 H       -8.7490    -2.4920    -0.7550 H     1 <1>   0.0800 
 57 H       -7.7480     3.7160     2.3030 H     1 <1>   0.1500 
 58 H       -6.4580     5.2910     0.9620 H     1 <1>   0.1500 
@<TRIPOS>BOND
  1   1   2  1   
  2   1   3  1   
  3   2   4  ar  
  4   2   5  ar  
  5   3   6  1   
  6   3  30  1   
  7   3  31  1   
  8   4   7  1   
  9   4   8  ar  
 10   5   9  ar  
 11   5  32  1   
 12   6  10  ar  
 13   6  11  ar  
 14   7  12  1   
 15   8  13  ar  
 16   8  33  1   
 17   9  13  ar  
 18   9  14  1   
 19  10  15  ar  
 20  10  34  1   
 21  11  16  ar  
 22  11  35  1   
 23  12  36  1   
 24  12  37  1   
 25  12  38  1   
 26  13  39  1   
 27  14  17  1   
 28  14  40  1   
 29  14  41  1   
 30  15  18  ar  
 31  15  42  1   
 32  16  18  ar  
 33  16  43  1   
 34  17  19  1   
 35  17  20  1   
 36  17  44  1   
 37  18  45  1   
 38  19  21  1   
 39  19  22  1   
 40  19  46  1   
 41  20  23  1   
 42  20  47  1   
 43  20  48  1   
 44  21  24  ar  
 45  21  25  ar  
 46  22  26  1   
 47  22  49  1   
 48  22  50  1   
 49  23  26  1   
 50  23  51  1   
 51  23  52  1   
 52  24  27  ar  
 53  24  53  1   
 54  25  28  ar  
 55  25  54  1   
 56  26  55  1   
 57  26  56  1   
 58  27  29  ar  
 59  28  29  ar  
 60  28  57  1   
 61  29  58  1   
@<TRIPOS>SUBSTRUCTURE
  1 ****   5 GROUP 4 **** **** 0

# MOE 2024.06 (io_trps.svl 2023.06)
