@<TRIPOS>MOLECULE
NONAME
33 34 1 0 0 
SMALL
USER_CHARGES


@<TRIPOS>ATOM
  1 BR      -1.2580    -0.7100     1.9570 Br    1 <1>  -0.1110 
  2 C       -1.6680     1.1060     1.4630 C.ar  1 <1>   0.1110 
  3 C       -0.6860     1.8630     0.8480 C.ar  1 <1>  -0.1500 
  4 C       -2.9340     1.6000     1.7390 C.ar  1 <1>  -0.1500 
  5 C       -1.0080     3.1640     0.5030 C.ar  1 <1>  -0.1440 
  6 C       -3.2370     2.9060     1.3870 C.ar  1 <1>  -0.1500 
  7 C       -2.2650     3.6830     0.7680 C.ar  1 <1>   0.1170 
  8 C       -0.1510     4.2220    -0.1690 C.3   1 <1>   0.4250 
  9 N       -2.3450     5.0030     0.3280 N.am  1 <1>  -0.4770 
 10 N        1.0410     4.4750     0.6810 N.am  1 <1>  -0.7300 
 11 C       -1.1600     5.3810    -0.2400 C.2   1 <1>   0.5690 
 12 C       -3.5350     5.8760     0.4350 C.3   1 <1>   0.1400 
 13 C        2.1860     5.0990     0.3440 C.2   1 <1>   0.5690 
 14 O       -0.9370     6.4530    -0.7580 O.2   1 <1>  -0.5700 
 15 C       -4.5110     5.5700    -0.7050 C.3   1 <1>  -0.1600 
 16 O        3.0510     5.2440     1.1670 O.2   1 <1>  -0.5700 
 17 C        2.4090     5.6140    -1.0570 C.3   1 <1>  -0.1790 
 18 C       -5.7670     6.4430    -0.6140 C.3   1 <1>  -0.2400 
 19 H        0.2880     1.4470     0.6520 H     1 <1>   0.1500 
 20 H       -3.6630     0.9720     2.2200 H     1 <1>   0.1500 
 21 H       -4.2110     3.3130     1.5900 H     1 <1>   0.1500 
 22 H        0.1350     3.9170    -1.1590 H     1 <1>   0.0800 
 23 H        0.9360     4.2220     1.6640 H     1 <1>   0.3700 
 24 H       -3.2250     6.9060     0.3820 H     1 <1>   0.0800 
 25 H       -4.0090     5.7170     1.3880 H     1 <1>   0.0800 
 26 H       -4.7980     4.5340    -0.6690 H     1 <1>   0.0800 
 27 H       -4.0210     5.7570    -1.6460 H     1 <1>   0.0800 
 28 H        1.6900     6.3780    -1.2840 H     1 <1>   0.0800 
 29 H        2.3260     4.8120    -1.7650 H     1 <1>   0.0800 
 30 H        3.3930     6.0390    -1.1300 H     1 <1>   0.0800 
 31 H       -6.2870     6.2640     0.3120 H     1 <1>   0.0800 
 32 H       -6.4330     6.2150    -1.4280 H     1 <1>   0.0800 
 33 H       -5.5060     7.4850    -0.6700 H     1 <1>   0.0800 
@<TRIPOS>BOND
  1   1   2  1   
  2   2   3  ar  
  3   2   4  ar  
  4   3   5  ar  
  5   3  19  1   
  6   4   6  ar  
  7   4  20  1   
  8   5   7  ar  
  9   5   8  1   
 10   6   7  ar  
 11   6  21  1   
 12   7   9  1   
 13   8  10  1   
 14   8  11  1   
 15   8  22  1   
 16   9  11  am  
 17   9  12  1   
 18  10  13  am  
 19  10  23  1   
 20  11  14  2   
 21  12  15  1   
 22  12  24  1   
 23  12  25  1   
 24  13  16  2   
 25  13  17  1   
 26  15  18  1   
 27  15  26  1   
 28  15  27  1   
 29  17  28  1   
 30  17  29  1   
 31  17  30  1   
 32  18  31  1   
 33  18  32  1   
 34  18  33  1   
@<TRIPOS>SUBSTRUCTURE
  1 ****   5 GROUP 4 **** **** 0

# MOE 2024.06 (io_trps.svl 2023.06)
