@<TRIPOS>MOLECULE
NONAME
40 41 1 0 0 
SMALL
USER_CHARGES


@<TRIPOS>ATOM
  1 BR      -2.1930     0.5780     3.5140 Br    1 <1>  -0.1110 
  2 C       -2.6480     1.0930     1.7190 C.ar  1 <1>   0.1110 
  3 C       -3.7810     0.5510     1.1430 C.ar  1 <1>  -0.1500 
  4 C       -1.8360     1.9900     1.0540 C.ar  1 <1>  -0.1500 
  5 C       -4.1200     0.9260    -0.1500 C.ar  1 <1>  -0.1440 
  6 C       -2.1730     2.3530    -0.2380 C.ar  1 <1>  -0.1500 
  7 C       -3.3070     1.8230    -0.8360 C.ar  1 <1>  -0.1500 
  8 C       -5.3690     0.3680    -0.8050 C.3   1 <1>   0.4870 
  9 N       -6.5580     1.0190    -0.1880 N.4   1 <1>  -0.9590 
 10 C       -7.8200     0.3300    -0.6060 C.3   1 <1>   0.3430 
 11 C       -6.5900     2.4840    -0.4790 C.3   1 <1>   0.3430 
 12 C       -9.0470     0.9380     0.0840 C.3   1 <1>  -0.0190 
 13 C       -7.7780     3.1270     0.2410 C.3   1 <1>  -0.1600 
 14 C      -10.2900     0.2420    -0.4410 C.2   1 <1>   0.6590 
 15 C       -9.1090     2.4610    -0.1410 C.3   1 <1>  -0.1600 
 16 O      -10.2380    -0.4870    -1.3970 O.2   1 <1>  -0.5700 
 17 O      -11.4110     0.4840     0.2170 O.3   1 <1>  -0.4300 
 18 C      -12.6360    -0.0960    -0.1700 C.3   1 <1>   0.1200 
 19 C      -13.7150     0.3960     0.7880 C.3   1 <1>  -0.2400 
 20 H       -4.3670    -0.1500     1.7110 H     1 <1>   0.1500 
 21 H       -0.9600     2.3900     1.5350 H     1 <1>   0.1500 
 22 H       -1.5480     3.0460    -0.7780 H     1 <1>   0.1500 
 23 H       -3.5410     2.1200    -1.8450 H     1 <1>   0.1500 
 24 H       -5.4040    -0.6980    -0.6460 H     1 <1>   0.0800 
 25 H       -5.3470     0.5540    -1.8660 H     1 <1>   0.0800 
 26 H       -6.4460     0.9220     0.8290 H     1 <1>   0.4500 
 27 H       -7.7680    -0.7210    -0.3680 H     1 <1>   0.0800 
 28 H       -7.9450     0.4180    -1.6740 H     1 <1>   0.0800 
 29 H       -6.6840     2.6460    -1.5410 H     1 <1>   0.0800 
 30 H       -5.6760     2.9510    -0.1440 H     1 <1>   0.0800 
 31 H       -8.9880     0.7330     1.1370 H     1 <1>   0.0800 
 32 H       -7.8180     4.1720    -0.0170 H     1 <1>   0.0800 
 33 H       -7.6270     3.0670     1.3050 H     1 <1>   0.0800 
 34 H       -9.9090     2.8850     0.4440 H     1 <1>   0.0800 
 35 H       -9.3240     2.6630    -1.1780 H     1 <1>   0.0800 
 36 H      -12.5390    -1.1680    -0.1250 H     1 <1>   0.0800 
 37 H      -12.8530     0.2050    -1.1820 H     1 <1>   0.0800 
 38 H      -13.4850     0.0970     1.7950 H     1 <1>   0.0800 
 39 H      -14.6630    -0.0310     0.5150 H     1 <1>   0.0800 
 40 H      -13.7980     1.4670     0.7400 H     1 <1>   0.0800 
@<TRIPOS>BOND
  1   1   2  1   
  2   2   3  ar  
  3   2   4  ar  
  4   3   5  ar  
  5   3  20  1   
  6   4   6  ar  
  7   4  21  1   
  8   5   7  ar  
  9   5   8  1   
 10   6   7  ar  
 11   6  22  1   
 12   7  23  1   
 13   8   9  1   
 14   8  24  1   
 15   8  25  1   
 16   9  10  1   
 17   9  11  1   
 18   9  26  1   
 19  10  12  1   
 20  10  27  1   
 21  10  28  1   
 22  11  13  1   
 23  11  29  1   
 24  11  30  1   
 25  12  14  1   
 26  12  15  1   
 27  12  31  1   
 28  13  15  1   
 29  13  32  1   
 30  13  33  1   
 31  14  16  2   
 32  14  17  1   
 33  15  34  1   
 34  15  35  1   
 35  17  18  1   
 36  18  19  1   
 37  18  36  1   
 38  18  37  1   
 39  19  38  1   
 40  19  39  1   
 41  19  40  1   
@<TRIPOS>SUBSTRUCTURE
  1 ****   9 GROUP 4 **** **** 0

# MOE 2024.06 (io_trps.svl 2023.06)
