@<TRIPOS>MOLECULE
NONAME
44 47 1 0 0 
SMALL
USER_CHARGES


@<TRIPOS>ATOM
  1 O       -4.0450    -2.7860     1.0850 O.2   1 <1>  -0.5700 
  2 C       -3.2850    -2.3720     0.2450 C.2   1 <1>   0.5690 
  3 N       -2.5060    -3.2040    -0.5190 N.am  1 <1>  -0.5470 
  4 C       -3.2130    -0.8470     0.0370 C.3   1 <1>   0.4040 
  5 C       -2.4190    -4.5980    -0.4320 C.ar  1 <1>   0.1170 
  6 N       -4.5390    -0.1710    -0.2620 N.4   1 <1>  -0.9590 
  7 C       -3.5230    -5.4690    -0.6410 C.ar  1 <1>   0.0000 
  8 C       -1.2170    -5.1900    -0.1510 C.ar  1 <1>  -0.1440 
  9 C       -4.4340     1.2840    -0.5190 C.3   1 <1>   0.3430 
 10 C       -5.5230    -0.3170     0.8460 C.3   1 <1>   0.3430 
 11 C       -3.3000    -6.8640    -0.5130 C.ar  1 <1>   0.3100 
 12 C       -4.8230    -5.0390    -0.9880 C.ar  1 <1>  -0.1500 
 13 C       -1.1190    -6.5680    -0.0580 C.ar  1 <1>   0.1670 
 14 C        0.1250    -4.5430     0.1200 C.3   1 <1>  -0.0170 
 15 C       -5.8500     1.8040    -0.3140 C.3   1 <1>  -0.1600 
 16 C       -6.5400     0.7880     0.6020 C.3   1 <1>  -0.1600 
 17 N       -2.0910    -7.4060    -0.2210 N.ar  1 <1>  -0.6200 
 18 C       -4.3760    -7.7440    -0.7090 C.ar  1 <1>  -0.1500 
 19 C       -5.8500    -5.9250    -1.1780 C.ar  1 <1>  -0.1500 
 20 C        0.2880    -6.9940     0.2700 C.3   1 <1>  -0.0170 
 21 C        1.1180    -5.7150     0.0740 C.3   1 <1>  -0.1600 
 22 C       -5.6270    -7.2950    -1.0350 C.ar  1 <1>  -0.1500 
 23 H       -1.7840    -2.7890    -1.1090 H     1 <1>   0.3700 
 24 H       -2.5290    -0.6500    -0.7690 H     1 <1>   0.0800 
 25 H       -2.7970    -0.4190     0.9320 H     1 <1>   0.0800 
 26 H       -4.9700    -0.6130    -1.0860 H     1 <1>   0.4500 
 27 H       -4.0720     1.4950    -1.5130 H     1 <1>   0.0800 
 28 H       -3.7780     1.7390     0.2070 H     1 <1>   0.0800 
 29 H       -5.0350    -0.1580     1.7950 H     1 <1>   0.0800 
 30 H       -5.9820    -1.2950     0.8490 H     1 <1>   0.0800 
 31 H       -5.0130    -3.9920    -1.1040 H     1 <1>   0.1500 
 32 H        0.1160    -4.1020     1.1020 H     1 <1>   0.0800 
 33 H        0.3720    -3.7980    -0.6150 H     1 <1>   0.0800 
 34 H       -6.3580     1.8590    -1.2620 H     1 <1>   0.0800 
 35 H       -5.8330     2.7890     0.1210 H     1 <1>   0.0800 
 36 H       -6.8380     1.2310     1.5370 H     1 <1>   0.0800 
 37 H       -7.4160     0.3820     0.1250 H     1 <1>   0.0800 
 38 H       -4.1800    -8.7940    -0.5960 H     1 <1>   0.1500 
 39 H       -6.8380    -5.5830    -1.4380 H     1 <1>   0.1500 
 40 H        0.6140    -7.7860    -0.3810 H     1 <1>   0.0800 
 41 H        0.3240    -7.3260     1.2930 H     1 <1>   0.0800 
 42 H        1.8880    -5.6210     0.8200 H     1 <1>   0.0800 
 43 H        1.5770    -5.7480    -0.9000 H     1 <1>   0.0800 
 44 H       -6.4410    -7.9830    -1.1820 H     1 <1>   0.1500 
@<TRIPOS>BOND
  1   1   2  2   
  2   2   3  am  
  3   2   4  1   
  4   3   5  1   
  5   3  23  1   
  6   4   6  1   
  7   4  24  1   
  8   4  25  1   
  9   5   7  ar  
 10   5   8  ar  
 11   6   9  1   
 12   6  10  1   
 13   6  26  1   
 14   7  11  ar  
 15   7  12  ar  
 16   8  13  ar  
 17   8  14  1   
 18   9  15  1   
 19   9  27  1   
 20   9  28  1   
 21  10  16  1   
 22  10  29  1   
 23  10  30  1   
 24  11  17  ar  
 25  11  18  ar  
 26  12  19  ar  
 27  12  31  1   
 28  13  17  ar  
 29  13  20  1   
 30  14  21  1   
 31  14  32  1   
 32  14  33  1   
 33  15  16  1   
 34  15  34  1   
 35  15  35  1   
 36  16  36  1   
 37  16  37  1   
 38  18  22  ar  
 39  18  38  1   
 40  19  22  ar  
 41  19  39  1   
 42  20  21  1   
 43  20  40  1   
 44  20  41  1   
 45  21  42  1   
 46  21  43  1   
 47  22  44  1   
@<TRIPOS>SUBSTRUCTURE
  1 ****   3 GROUP 4 **** **** 0

# MOE 2024.06 (io_trps.svl 2023.06)
