@<TRIPOS>MOLECULE
NONAME
38 40 1 0 0 
SMALL
USER_CHARGES


@<TRIPOS>ATOM
  1 S       -0.1450     0.4570    -0.8300 S.3   1 <1>  -0.0800 
  2 C       -1.7230     1.0060    -0.2510 C.2   1 <1>  -0.0450 
  3 C        0.6380     1.9430    -0.3440 C.2   1 <1>  -0.1100 
  4 C       -2.8610     0.1320    -0.3950 C.2   1 <1>   0.5690 
  5 C       -1.5760     2.2520     0.2740 C.2   1 <1>  -0.1500 
  6 C       -0.2530     2.7790     0.2190 C.2   1 <1>  -0.1500 
  7 O       -2.7060    -1.0560    -0.6030 O.2   1 <1>  -0.5700 
  8 C       -4.2030     0.6590    -0.2740 C.ar  1 <1>   0.0860 
  9 C       -5.1840    -0.0320     0.4370 C.ar  1 <1>  -0.1500 
 10 C       -4.5830     1.8680    -0.8640 C.ar  1 <1>  -0.1500 
 11 C       -6.4660     0.4630     0.5720 C.ar  1 <1>  -0.1500 
 12 C       -5.8650     2.3650    -0.7290 C.ar  1 <1>  -0.1500 
 13 C       -6.8300     1.6770    -0.0030 C.ar  1 <1>   0.1170 
 14 N       -8.1140     2.2200     0.0990 N.am  1 <1>  -0.5470 
 15 C       -9.1270     1.9910     0.9930 C.2   1 <1>   0.5690 
 16 O       -9.0320     1.2380     1.9300 O.2   1 <1>  -0.5700 
 17 C      -10.4390     2.7460     0.7910 C.3   1 <1>  -0.0190 
 18 C      -11.1230     2.4890    -0.5650 C.3   1 <1>  -0.1600 
 19 C      -10.3060     4.2710     0.9020 C.3   1 <1>  -0.1600 
 20 C      -11.6340     3.8460    -1.0660 C.3   1 <1>  -0.1600 
 21 C      -11.4910     4.8100     0.1100 C.3   1 <1>  -0.1600 
 22 H        1.6930     2.0340    -0.5310 H     1 <1>   0.1500 
 23 H       -2.3690     2.8310     0.7140 H     1 <1>   0.1500 
 24 H       -0.0250     3.7580     0.6050 H     1 <1>   0.1500 
 25 H       -4.9310    -0.9770     0.8890 H     1 <1>   0.1500 
 26 H       -3.8630     2.4220    -1.4410 H     1 <1>   0.1500 
 27 H       -7.1900    -0.1060     1.1280 H     1 <1>   0.1500 
 28 H       -6.1200     3.3000    -1.1930 H     1 <1>   0.1500 
 29 H       -8.3380     2.9310    -0.5940 H     1 <1>   0.3700 
 30 H      -11.1200     2.4280     1.5620 H     1 <1>   0.0800 
 31 H      -11.9450     1.8070    -0.4280 H     1 <1>   0.0800 
 32 H      -10.4480     2.0610    -1.2850 H     1 <1>   0.0800 
 33 H       -9.3930     4.6090     0.4450 H     1 <1>   0.0800 
 34 H      -10.3260     4.5980     1.9280 H     1 <1>   0.0800 
 35 H      -12.6540     3.7880    -1.4070 H     1 <1>   0.0800 
 36 H      -11.0150     4.1830    -1.8800 H     1 <1>   0.0800 
 37 H      -11.3370     5.8250    -0.2140 H     1 <1>   0.0800 
 38 H      -12.3790     4.7650     0.7190 H     1 <1>   0.0800 
@<TRIPOS>BOND
  1   1   2  1   
  2   1   3  1   
  3   2   4  1   
  4   2   5  2   
  5   3   6  2   
  6   3  22  1   
  7   4   7  2   
  8   4   8  1   
  9   5   6  1   
 10   5  23  1   
 11   6  24  1   
 12   8   9  ar  
 13   8  10  ar  
 14   9  11  ar  
 15   9  25  1   
 16  10  12  ar  
 17  10  26  1   
 18  11  13  ar  
 19  11  27  1   
 20  12  13  ar  
 21  12  28  1   
 22  13  14  1   
 23  14  15  am  
 24  14  29  1   
 25  15  16  2   
 26  15  17  1   
 27  17  18  1   
 28  17  19  1   
 29  17  30  1   
 30  18  20  1   
 31  18  31  1   
 32  18  32  1   
 33  19  21  1   
 34  19  33  1   
 35  19  34  1   
 36  20  21  1   
 37  20  35  1   
 38  20  36  1   
 39  21  37  1   
 40  21  38  1   
@<TRIPOS>SUBSTRUCTURE
  1 ****  12 GROUP 4 **** **** 0

# MOE 2024.06 (io_trps.svl 2023.06)
