@<TRIPOS>MOLECULE
NONAME
42 43 1 0 0 
SMALL
USER_CHARGES


@<TRIPOS>ATOM
  1 O        5.2340     4.0580     1.3800 O.2   1 <1>  -0.5700 
  2 C        4.5410     4.0830     0.3910 C.2   1 <1>   0.4230 
  3 C        3.1430     3.6860     0.4190 C.ar  1 <1>   0.0860 
  4 C        5.2160     4.5250    -0.9180 C.3   1 <1>  -0.0190 
  5 C        2.3600     3.5020    -0.7270 C.ar  1 <1>  -0.1500 
  6 C        2.5140     3.4590     1.6470 C.ar  1 <1>  -0.1500 
  7 C        6.7560     4.5870    -0.8030 C.3   1 <1>   0.3430 
  8 C        4.7030     5.9110    -1.3570 C.3   1 <1>  -0.2400 
  9 C        1.0340     3.1160    -0.6480 C.ar  1 <1>  -0.1500 
 10 C        1.1900     3.0730     1.7340 C.ar  1 <1>  -0.1500 
 11 N        7.3560     3.3660    -0.1840 N.4   1 <1>  -0.9590 
 12 C        0.4450     2.9000     0.5830 C.ar  1 <1>  -0.1500 
 13 C        8.7450     3.6420     0.2670 C.3   1 <1>   0.3430 
 14 C        7.2160     2.1380    -1.0140 C.3   1 <1>   0.3430 
 15 C        9.2570     2.5670     1.2290 C.3   1 <1>  -0.1600 
 16 C        7.0360     0.9270    -0.1000 C.3   1 <1>  -0.1600 
 17 C        9.5550     1.2260     0.5450 C.3   1 <1>  -0.1600 
 18 C        8.3400     0.2950     0.4180 C.3   1 <1>  -0.1600 
 19 H        4.9760     3.8190    -1.6890 H     1 <1>   0.0800 
 20 H        2.7670     3.6560    -1.7080 H     1 <1>   0.1500 
 21 H        3.0730     3.5890     2.5590 H     1 <1>   0.1500 
 22 H        7.0000     5.4360    -0.1850 H     1 <1>   0.0800 
 23 H        7.1870     4.7550    -1.7770 H     1 <1>   0.0800 
 24 H        4.9330     6.6530    -0.6110 H     1 <1>   0.0800 
 25 H        3.6360     5.9040    -1.4960 H     1 <1>   0.0800 
 26 H        5.1560     6.2090    -2.2880 H     1 <1>   0.0800 
 27 H        0.4520     2.9810    -1.5450 H     1 <1>   0.1500 
 28 H        0.7370     2.9070     2.6960 H     1 <1>   0.1500 
 29 H        6.7970     3.2260     0.6830 H     1 <1>   0.4500 
 30 H       -0.5870     2.5990     0.6470 H     1 <1>   0.1500 
 31 H        8.7650     4.5890     0.7820 H     1 <1>   0.0800 
 32 H        9.4030     3.7110    -0.5830 H     1 <1>   0.0800 
 33 H        8.0720     2.0060    -1.6570 H     1 <1>   0.0800 
 34 H        6.3400     2.2200    -1.6350 H     1 <1>   0.0800 
 35 H        8.5800     2.4400     2.0560 H     1 <1>   0.0800 
 36 H       10.1830     2.9330     1.6390 H     1 <1>   0.0800 
 37 H        6.5070     0.1690    -0.6510 H     1 <1>   0.0800 
 38 H        6.4060     1.1950     0.7310 H     1 <1>   0.0800 
 39 H       10.3000     0.7050     1.1250 H     1 <1>   0.0800 
 40 H        9.9900     1.3980    -0.4260 H     1 <1>   0.0800 
 41 H        8.6170    -0.5130    -0.2390 H     1 <1>   0.0800 
 42 H        8.1400    -0.1490     1.3790 H     1 <1>   0.0800 
@<TRIPOS>BOND
  1   1   2  2   
  2   2   3  1   
  3   2   4  1   
  4   3   5  ar  
  5   3   6  ar  
  6   4   7  1   
  7   4   8  1   
  8   4  19  1   
  9   5   9  ar  
 10   5  20  1   
 11   6  10  ar  
 12   6  21  1   
 13   7  11  1   
 14   7  22  1   
 15   7  23  1   
 16   8  24  1   
 17   8  25  1   
 18   8  26  1   
 19   9  12  ar  
 20   9  27  1   
 21  10  12  ar  
 22  10  28  1   
 23  11  13  1   
 24  11  14  1   
 25  11  29  1   
 26  12  30  1   
 27  13  15  1   
 28  13  31  1   
 29  13  32  1   
 30  14  16  1   
 31  14  33  1   
 32  14  34  1   
 33  15  17  1   
 34  15  35  1   
 35  15  36  1   
 36  16  18  1   
 37  16  37  1   
 38  16  38  1   
 39  17  18  1   
 40  17  39  1   
 41  17  40  1   
 42  18  41  1   
 43  18  42  1   
@<TRIPOS>SUBSTRUCTURE
  1 ****   2 GROUP 4 **** **** 0

# MOE 2024.06 (io_trps.svl 2023.06)
