@<TRIPOS>MOLECULE
NONAME
45 46 1 0 0 
SMALL
USER_CHARGES


@<TRIPOS>ATOM
  1 O       -2.6550    -0.0920     0.9690 O.3   1 <1>  -0.5600 
  2 C       -2.8460     0.6100    -0.2240 C.3   1 <1>   0.1200 
  3 C       -3.7040     0.0060     1.8870 C.3   1 <1>   0.1200 
  4 C       -4.1090     0.1010    -0.9450 C.3   1 <1>   0.3430 
  5 C       -5.0090    -0.5290     1.2650 C.3   1 <1>   0.3430 
  6 N       -5.3180     0.1470    -0.0470 N.4   1 <1>  -0.9590 
  7 C       -6.5010    -0.4460    -0.7300 C.3   1 <1>   0.3430 
  8 C       -7.7910    -0.0970     0.0180 C.3   1 <1>  -0.1600 
  9 C       -9.0110    -0.6290    -0.7480 C.3   1 <1>  -0.1600 
 10 C      -10.3240    -0.2950    -0.0370 C.3   1 <1>   0.1200 
 11 O      -11.3690    -0.8270    -0.8110 O.3   1 <1>  -0.3630 
 12 C      -12.6720    -0.7010    -0.4400 C.ar  1 <1>   0.0820 
 13 C      -13.6340    -1.2720    -1.2680 C.ar  1 <1>  -0.1430 
 14 C      -13.0690    -0.0320     0.7170 C.ar  1 <1>  -0.1500 
 15 C      -14.9740    -1.1700    -0.9300 C.ar  1 <1>  -0.1500 
 16 C      -13.2310    -2.0070    -2.5380 C.3   1 <1>  -0.0970 
 17 C      -14.4090     0.0680     1.0490 C.ar  1 <1>  -0.1430 
 18 C      -15.3590    -0.5050     0.2210 C.ar  1 <1>  -0.1500 
 19 C      -14.8360     0.7960     2.3110 C.3   1 <1>  -0.0970 
 20 H       -1.9780     0.4500    -0.8400 H     1 <1>   0.0800 
 21 H       -2.9180     1.6610    -0.0020 H     1 <1>   0.0800 
 22 H       -3.8070     1.0340     2.1890 H     1 <1>   0.0800 
 23 H       -3.4380    -0.5790     2.7500 H     1 <1>   0.0800 
 24 H       -3.9290    -0.9130    -1.2620 H     1 <1>   0.0800 
 25 H       -4.2800     0.6980    -1.8260 H     1 <1>   0.0800 
 26 H       -5.8180    -0.3770     1.9600 H     1 <1>   0.0800 
 27 H       -4.8990    -1.5900     1.1110 H     1 <1>   0.0800 
 28 H       -5.5180     1.1370     0.1480 H     1 <1>   0.4500 
 29 H       -6.3940    -1.5170    -0.7960 H     1 <1>   0.0800 
 30 H       -6.5710    -0.0560    -1.7330 H     1 <1>   0.0800 
 31 H       -7.8780     0.9710     0.1130 H     1 <1>   0.0800 
 32 H       -7.7840    -0.5380     0.9990 H     1 <1>   0.0800 
 33 H       -8.9410    -1.6990    -0.8470 H     1 <1>   0.0800 
 34 H       -9.0400    -0.1950    -1.7340 H     1 <1>   0.0800 
 35 H      -10.4670     0.7700     0.0350 H     1 <1>   0.0800 
 36 H      -10.3630    -0.7480     0.9390 H     1 <1>   0.0800 
 37 H      -12.3490     0.4150     1.3720 H     1 <1>   0.1500 
 38 H      -15.7270    -1.6080    -1.5600 H     1 <1>   0.1500 
 39 H      -12.6970    -1.3400    -3.1890 H     1 <1>   0.0800 
 40 H      -14.0920    -2.3820    -3.0610 H     1 <1>   0.0800 
 41 H      -12.5920    -2.8350    -2.2900 H     1 <1>   0.0800 
 42 H      -16.4040    -0.4370     0.4670 H     1 <1>   0.1500 
 43 H      -14.1660     1.6100     2.5210 H     1 <1>   0.0800 
 44 H      -14.8280     0.1150     3.1430 H     1 <1>   0.0800 
 45 H      -15.8280     1.1960     2.1980 H     1 <1>   0.0800 
@<TRIPOS>BOND
  1   1   2  1   
  2   1   3  1   
  3   2   4  1   
  4   2  20  1   
  5   2  21  1   
  6   3   5  1   
  7   3  22  1   
  8   3  23  1   
  9   4   6  1   
 10   4  24  1   
 11   4  25  1   
 12   5   6  1   
 13   5  26  1   
 14   5  27  1   
 15   6   7  1   
 16   6  28  1   
 17   7   8  1   
 18   7  29  1   
 19   7  30  1   
 20   8   9  1   
 21   8  31  1   
 22   8  32  1   
 23   9  10  1   
 24   9  33  1   
 25   9  34  1   
 26  10  11  1   
 27  10  35  1   
 28  10  36  1   
 29  11  12  1   
 30  12  13  ar  
 31  12  14  ar  
 32  13  15  ar  
 33  13  16  1   
 34  14  17  ar  
 35  14  37  1   
 36  15  18  ar  
 37  15  38  1   
 38  16  39  1   
 39  16  40  1   
 40  16  41  1   
 41  17  18  ar  
 42  17  19  1   
 43  18  42  1   
 44  19  43  1   
 45  19  44  1   
 46  19  45  1   
@<TRIPOS>SUBSTRUCTURE
  1 ****  10 GROUP 4 **** **** 0

# MOE 2024.06 (io_trps.svl 2023.06)
