@<TRIPOS>MOLECULE
NONAME
45 47 1 0 0 
SMALL
USER_CHARGES


@<TRIPOS>ATOM
  1 S       -1.0110    -1.0410     0.9300 S.o2  1 <1>   1.3330 
  2 O       -2.0100    -2.0080     0.5540 O.2   1 <1>  -0.6500 
  3 O        0.0430    -1.3760     1.8520 O.2   1 <1>  -0.6500 
  4 N       -1.8140     0.2760     1.6760 N.am  1 <1>  -0.7570 
  5 C       -0.3070    -0.2800    -0.5150 C.3   1 <1>  -0.1350 
  6 C       -3.0420     0.7810     1.2670 C.ar  1 <1>   0.1990 
  7 C       -4.1830     0.0050     1.2850 C.ar  1 <1>  -0.1500 
  8 C       -3.1170     2.1140     0.8350 C.ar  1 <1>  -0.1500 
  9 C       -5.3890     0.5530     0.8620 C.ar  1 <1>   0.2270 
 10 C       -4.3080     2.6650     0.4160 C.ar  1 <1>  -0.1500 
 11 N       -6.6150    -0.0300     0.7870 N.2   1 <1>  -0.5650 
 12 C       -5.4520     1.8630     0.4310 C.ar  1 <1>  -0.1520 
 13 C       -7.3870     0.8970     0.3210 C.2   1 <1>   0.0060 
 14 N       -6.7520     2.0820     0.0870 N.pl3 1 <1>   0.0480 
 15 C       -8.8720     0.6640     0.0660 C.3   1 <1>   0.5230 
 16 C       -7.2760     3.3690    -0.4180 C.3   1 <1>   0.0160 
 17 N       -9.0980    -0.8050     0.0800 N.4   1 <1>  -0.9590 
 18 C       -8.7600    -1.4340    -1.2260 C.3   1 <1>   0.3430 
 19 C      -10.4240    -1.2060     0.6190 C.3   1 <1>   0.3430 
 20 C       -8.7920    -2.9560    -1.0830 C.3   1 <1>  -0.1600 
 21 C      -10.4750    -2.7270     0.7780 C.3   1 <1>  -0.1600 
 22 C      -10.1360    -3.4520    -0.5310 C.3   1 <1>  -0.1600 
 23 H       -1.6680     0.2060     2.6800 H     1 <1>   0.4200 
 24 H        0.2620    -1.0010    -1.0690 H     1 <1>   0.0800 
 25 H        0.3400     0.5260    -0.2320 H     1 <1>   0.0800 
 26 H       -1.0850     0.1030    -1.1460 H     1 <1>   0.0800 
 27 H       -4.1610    -1.0170     1.6120 H     1 <1>   0.1500 
 28 H       -2.2180     2.7030     0.8390 H     1 <1>   0.1500 
 29 H       -4.3580     3.6880     0.0850 H     1 <1>   0.1500 
 30 H       -9.1680     1.0820    -0.8810 H     1 <1>   0.0800 
 31 H       -9.4360     1.1340     0.8540 H     1 <1>   0.0800 
 32 H       -6.8120     3.5940    -1.3620 H     1 <1>   0.0800 
 33 H       -7.0380     4.1470     0.2850 H     1 <1>   0.0800 
 34 H       -8.3410     3.3230    -0.5460 H     1 <1>   0.0800 
 35 H       -8.3550    -1.1290     0.7300 H     1 <1>   0.4500 
 36 H       -7.7720    -1.1270    -1.5360 H     1 <1>   0.0800 
 37 H       -9.4690    -1.1270    -1.9770 H     1 <1>   0.0800 
 38 H      -11.2030    -0.8900    -0.0560 H     1 <1>   0.0800 
 39 H      -10.5900    -0.7410     1.5780 H     1 <1>   0.0800 
 40 H       -7.9910    -3.2660    -0.4330 H     1 <1>   0.0800 
 41 H       -8.6130    -3.4040    -2.0460 H     1 <1>   0.0800 
 42 H      -11.4610    -3.0140     1.1000 H     1 <1>   0.0800 
 43 H       -9.7860    -3.0250     1.5490 H     1 <1>   0.0800 
 44 H      -10.0880    -4.5140    -0.3580 H     1 <1>   0.0800 
 45 H      -10.9120    -3.2720    -1.2570 H     1 <1>   0.0800 
@<TRIPOS>BOND
  1   1   2  2   
  2   1   3  2   
  3   1   4  am  
  4   1   5  1   
  5   4   6  1   
  6   4  23  1   
  7   5  24  1   
  8   5  25  1   
  9   5  26  1   
 10   6   7  ar  
 11   6   8  ar  
 12   7   9  ar  
 13   7  27  1   
 14   8  10  ar  
 15   8  28  1   
 16   9  11  1   
 17   9  12  ar  
 18  10  12  ar  
 19  10  29  1   
 20  11  13  2   
 21  12  14  1   
 22  13  14  1   
 23  13  15  1   
 24  14  16  1   
 25  15  17  1   
 26  15  30  1   
 27  15  31  1   
 28  16  32  1   
 29  16  33  1   
 30  16  34  1   
 31  17  18  1   
 32  17  19  1   
 33  17  35  1   
 34  18  20  1   
 35  18  36  1   
 36  18  37  1   
 37  19  21  1   
 38  19  38  1   
 39  19  39  1   
 40  20  22  1   
 41  20  40  1   
 42  20  41  1   
 43  21  22  1   
 44  21  42  1   
 45  21  43  1   
 46  22  44  1   
 47  22  45  1   
@<TRIPOS>SUBSTRUCTURE
  1 ****   9 GROUP 4 **** **** 0

# MOE 2024.06 (io_trps.svl 2023.06)
