@<TRIPOS>MOLECULE
NONAME
47 49 1 0 0 
SMALL
USER_CHARGES


@<TRIPOS>ATOM
  1 O       -0.1470    -0.5150    -0.0990 O.2   1 <1>  -0.5700 
  2 C        0.2420    -1.6500     0.0260 C.2   1 <1>   0.5690 
  3 N        1.5340    -1.9780     0.3310 N.am  1 <1>  -0.5470 
  4 C       -0.7380    -2.8110    -0.1540 C.3   1 <1>  -0.0190 
  5 C        2.6950    -1.2120     0.5620 C.ar  1 <1>   0.1170 
  6 C       -1.9790    -2.4300    -0.9880 C.3   1 <1>  -0.1600 
  7 C       -1.1780    -3.3800     1.2080 C.3   1 <1>  -0.1600 
  8 C        3.8610    -1.8750     0.9550 C.ar  1 <1>   0.0820 
  9 C        2.7490     0.1700     0.4090 C.ar  1 <1>  -0.1500 
 10 C       -2.9480    -3.6060    -1.1320 C.3   1 <1>   0.1400 
 11 C       -2.1580    -4.5460     1.0460 C.3   1 <1>   0.1400 
 12 O        3.8250    -3.2270     1.1180 O.3   1 <1>  -0.1650 
 13 C        5.0360    -1.1760     1.1940 C.ar  1 <1>  -0.1500 
 14 C        3.9220     0.8680     0.6410 C.ar  1 <1>  -0.1500 
 15 N       -3.3180    -4.1110     0.2190 N.am  1 <1>  -0.6600 
 16 C        4.7460    -4.0300     0.5280 C.ar  1 <1>   0.0820 
 17 C        5.0670     0.1970     1.0340 C.ar  1 <1>  -0.1500 
 18 C       -4.5950    -4.1670     0.7180 C.2   1 <1>   0.5690 
 19 C        5.3530    -3.7020    -0.6800 C.ar  1 <1>  -0.1500 
 20 C        5.0670    -5.2230     1.1590 C.ar  1 <1>  -0.1500 
 21 O       -4.8410    -4.6120     1.8130 O.2   1 <1>  -0.5700 
 22 C       -5.7650    -3.6640    -0.0970 C.3   1 <1>  -0.1790 
 23 C        6.2820    -4.5600    -1.2420 C.ar  1 <1>  -0.1500 
 24 C        5.9960    -6.0800     0.5940 C.ar  1 <1>  -0.1500 
 25 C        6.6040    -5.7480    -0.6050 C.ar  1 <1>  -0.1500 
 26 H        1.7080    -2.9770     0.4440 H     1 <1>   0.3700 
 27 H       -0.2180    -3.5870    -0.6890 H     1 <1>   0.0800 
 28 H       -1.6700    -2.1000    -1.9640 H     1 <1>   0.0800 
 29 H       -2.4980    -1.6120    -0.5180 H     1 <1>   0.0800 
 30 H       -1.6550    -2.6060     1.7860 H     1 <1>   0.0800 
 31 H       -0.3220    -3.7190     1.7630 H     1 <1>   0.0800 
 32 H        1.8770     0.7180     0.1040 H     1 <1>   0.1500 
 33 H       -2.4760    -4.4020    -1.6840 H     1 <1>   0.0800 
 34 H       -3.8130    -3.2890    -1.6850 H     1 <1>   0.0800 
 35 H       -2.4840    -4.8760     2.0180 H     1 <1>   0.0800 
 36 H       -1.6730    -5.3750     0.5600 H     1 <1>   0.0800 
 37 H        5.9210    -1.7020     1.5050 H     1 <1>   0.1500 
 38 H        3.9410     1.9370     0.5160 H     1 <1>   0.1500 
 39 H        5.9770     0.7430     1.2170 H     1 <1>   0.1500 
 40 H        5.1040    -2.7860    -1.1850 H     1 <1>   0.1500 
 41 H        4.5930    -5.4750     2.0900 H     1 <1>   0.1500 
 42 H       -5.6240    -2.6270    -0.3350 H     1 <1>   0.0800 
 43 H       -6.6710    -3.7660     0.4710 H     1 <1>   0.0800 
 44 H       -5.8570    -4.2410    -0.9970 H     1 <1>   0.0800 
 45 H        6.7540    -4.3060    -2.1750 H     1 <1>   0.1500 
 46 H        6.2470    -7.0030     1.0860 H     1 <1>   0.1500 
 47 H        7.3270    -6.4140    -1.0430 H     1 <1>   0.1500 
@<TRIPOS>BOND
  1   1   2  2   
  2   2   3  am  
  3   2   4  1   
  4   3   5  1   
  5   3  26  1   
  6   4   6  1   
  7   4   7  1   
  8   4  27  1   
  9   5   8  ar  
 10   5   9  ar  
 11   6  10  1   
 12   6  28  1   
 13   6  29  1   
 14   7  11  1   
 15   7  30  1   
 16   7  31  1   
 17   8  12  1   
 18   8  13  ar  
 19   9  14  ar  
 20   9  32  1   
 21  10  15  1   
 22  10  33  1   
 23  10  34  1   
 24  11  15  1   
 25  11  35  1   
 26  11  36  1   
 27  12  16  1   
 28  13  17  ar  
 29  13  37  1   
 30  14  17  ar  
 31  14  38  1   
 32  15  18  am  
 33  16  19  ar  
 34  16  20  ar  
 35  17  39  1   
 36  18  21  2   
 37  18  22  1   
 38  19  23  ar  
 39  19  40  1   
 40  20  24  ar  
 41  20  41  1   
 42  22  42  1   
 43  22  43  1   
 44  22  44  1   
 45  23  25  ar  
 46  23  45  1   
 47  24  25  ar  
 48  24  46  1   
 49  25  47  1   
@<TRIPOS>SUBSTRUCTURE
  1 ****   3 GROUP 4 **** **** 0

# MOE 2024.06 (io_trps.svl 2023.06)
