@<TRIPOS>MOLECULE
NONAME
37 38 1 0 0 
SMALL
USER_CHARGES


@<TRIPOS>ATOM
  1 O        0.1220     0.0150    -1.4010 O.2   1 <1>  -0.5700 
  2 C        0.5310     0.8050    -0.5740 C.2   1 <1>   0.6900 
  3 N        1.7850     0.7280    -0.0440 N.am  1 <1>  -0.5470 
  4 N       -0.2500     1.8240    -0.1490 N.am  1 <1>  -0.7300 
  5 C        2.8450    -0.1800    -0.1930 C.ar  1 <1>   0.1170 
  6 C       -1.6220     2.0980    -0.6070 C.3   1 <1>   0.2200 
  7 C        4.1610     0.2060     0.1420 C.ar  1 <1>   0.0860 
  8 C        2.6120    -1.4730    -0.6590 C.ar  1 <1>  -0.1500 
  9 C       -1.6970     3.5410    -1.0900 C.3   1 <1>  -0.1600 
 10 C       -2.5530     2.0830     0.5980 C.3   1 <1>  -0.1600 
 11 C        4.4830     1.5270     0.6550 C.2   1 <1>   0.6340 
 12 C        5.1810    -0.7380    -0.0320 C.ar  1 <1>  -0.1500 
 13 C        3.6380    -2.3800    -0.8180 C.ar  1 <1>  -0.1500 
 14 C       -1.8580     4.3970     0.1720 C.3   1 <1>  -0.1600 
 15 C       -2.4110     3.4620     1.2550 C.3   1 <1>  -0.1600 
 16 O        3.6620     2.3110     1.0970 O.2   1 <1>  -0.5700 
 17 O        5.7670     1.9060     0.6450 O.3   1 <1>  -0.4300 
 18 C        4.9320    -2.0100    -0.5050 C.ar  1 <1>  -0.1500 
 19 C        6.1820     3.1720     1.1190 C.3   1 <1>   0.0400 
 20 H        2.0430     1.5660     0.4840 H     1 <1>   0.3700 
 21 H        0.0870     2.4580     0.5710 H     1 <1>   0.3700 
 22 H       -1.9230     1.3950    -1.3670 H     1 <1>   0.0800 
 23 H        1.6130    -1.7850    -0.9020 H     1 <1>   0.1500 
 24 H       -2.5770     3.6480    -1.6990 H     1 <1>   0.0800 
 25 H       -0.8390     3.8180    -1.6770 H     1 <1>   0.0800 
 26 H       -2.3320     1.2740     1.2720 H     1 <1>   0.0800 
 27 H       -3.5630     1.9680     0.2440 H     1 <1>   0.0800 
 28 H        6.1970    -0.4750     0.2090 H     1 <1>   0.1500 
 29 H        3.4320    -3.3710    -1.1850 H     1 <1>   0.1500 
 30 H       -2.5210     5.2260    -0.0090 H     1 <1>   0.0800 
 31 H       -0.9000     4.7800     0.4780 H     1 <1>   0.0800 
 32 H       -1.7160     3.4060     2.0760 H     1 <1>   0.0800 
 33 H       -3.3600     3.8080     1.6270 H     1 <1>   0.0800 
 34 H        5.7370    -2.7140    -0.6290 H     1 <1>   0.1500 
 35 H        7.2500     3.2430     1.0110 H     1 <1>   0.0800 
 36 H        5.9070     3.2630     2.1560 H     1 <1>   0.0800 
 37 H        5.6990     3.9370     0.5380 H     1 <1>   0.0800 
@<TRIPOS>BOND
  1   1   2  2   
  2   2   3  am  
  3   2   4  am  
  4   3   5  1   
  5   3  20  1   
  6   4   6  1   
  7   4  21  1   
  8   5   7  ar  
  9   5   8  ar  
 10   6   9  1   
 11   6  10  1   
 12   6  22  1   
 13   7  11  1   
 14   7  12  ar  
 15   8  13  ar  
 16   8  23  1   
 17   9  14  1   
 18   9  24  1   
 19   9  25  1   
 20  10  15  1   
 21  10  26  1   
 22  10  27  1   
 23  11  16  2   
 24  11  17  1   
 25  12  18  ar  
 26  12  28  1   
 27  13  18  ar  
 28  13  29  1   
 29  14  15  1   
 30  14  30  1   
 31  14  31  1   
 32  15  32  1   
 33  15  33  1   
 34  17  19  1   
 35  18  34  1   
 36  19  35  1   
 37  19  36  1   
 38  19  37  1   
@<TRIPOS>SUBSTRUCTURE
  1 ****   3 GROUP 4 **** **** 0

# MOE 2024.06 (io_trps.svl 2023.06)
