@<TRIPOS>MOLECULE
NONAME
42 44 1 0 0 
SMALL
USER_CHARGES


@<TRIPOS>ATOM
  1 O        0.4260    -2.3240    -1.1090 O.co2 1 <1>  -0.9000 
  2 C       -0.7720    -2.6070    -1.1720 C.2   1 <1>   0.9060 
  3 O       -1.3370    -2.8370    -2.2480 O.co2 1 <1>  -0.9000 
  4 C       -1.5640    -2.7480     0.1200 C.3   1 <1>  -0.1860 
  5 C       -2.0400    -4.2190     0.2850 C.3   1 <1>  -0.0190 
  6 C       -2.7180    -1.7140     0.2020 C.3   1 <1>  -0.1600 
  7 C       -0.9490    -5.1090     0.9040 C.2   1 <1>   0.4230 
  8 C       -3.3460    -4.2860     1.1020 C.3   1 <1>  -0.1600 
  9 C       -4.0270    -2.2770    -0.3700 C.3   1 <1>   0.0630 
 10 O       -0.7810    -5.0270     2.0990 O.2   1 <1>  -0.5700 
 11 C       -0.2160    -6.0700     0.0980 C.ar  1 <1>   0.0860 
 12 C       -4.4940    -3.5240     0.4120 C.3   1 <1>  -0.1600 
 13 C       -5.1240    -1.2120    -0.4250 C.ar  1 <1>  -0.1440 
 14 C       -0.0230    -5.9570    -1.2820 C.ar  1 <1>  -0.1500 
 15 C        0.3430    -7.1960     0.7130 C.ar  1 <1>  -0.1500 
 16 C       -5.6750    -0.8540    -1.6460 C.ar  1 <1>  -0.1500 
 17 C       -5.5830    -0.5890     0.7270 C.ar  1 <1>  -0.1500 
 18 C        0.6680    -6.9130    -2.0040 C.ar  1 <1>  -0.1500 
 19 C        1.0340    -8.1580    -0.0010 C.ar  1 <1>  -0.1500 
 20 C       -6.6720     0.1040    -1.7160 C.ar  1 <1>  -0.1500 
 21 C       -6.5800     0.3700     0.6610 C.ar  1 <1>  -0.1500 
 22 C        1.1960    -8.0190    -1.3660 C.ar  1 <1>  -0.1500 
 23 C       -7.1270     0.7160    -0.5620 C.ar  1 <1>  -0.1500 
 24 H       -0.8810    -2.5180     0.9180 H     1 <1>   0.0800 
 25 H       -2.2850    -4.6130    -0.6850 H     1 <1>   0.0800 
 26 H       -2.8690    -1.4380     1.2300 H     1 <1>   0.0800 
 27 H       -2.4400    -0.8240    -0.3370 H     1 <1>   0.0800 
 28 H       -3.6340    -5.3110     1.2550 H     1 <1>   0.0800 
 29 H       -3.1660    -3.8520     2.0710 H     1 <1>   0.0800 
 30 H       -3.8090    -2.5890    -1.3780 H     1 <1>   0.0800 
 31 H       -5.2140    -3.2510     1.1620 H     1 <1>   0.0800 
 32 H       -4.9910    -4.1800    -0.2810 H     1 <1>   0.0800 
 33 H       -0.4010    -5.1040    -1.8170 H     1 <1>   0.1500 
 34 H        0.2280    -7.3120     1.7770 H     1 <1>   0.1500 
 35 H       -5.3230    -1.3200    -2.5500 H     1 <1>   0.1500 
 36 H       -5.1630    -0.8500     1.6820 H     1 <1>   0.1500 
 37 H        0.7960    -6.7830    -3.0650 H     1 <1>   0.1500 
 38 H        1.4480    -9.0110     0.5070 H     1 <1>   0.1500 
 39 H       -7.0900     0.3730    -2.6700 H     1 <1>   0.1500 
 40 H       -6.9270     0.8450     1.5610 H     1 <1>   0.1500 
 41 H        1.7340    -8.7620    -1.9290 H     1 <1>   0.1500 
 42 H       -7.9010     1.4610    -0.6150 H     1 <1>   0.1500 
@<TRIPOS>BOND
  1   1   2  ar  
  2   2   3  ar  
  3   2   4  1   
  4   4   5  1   
  5   4   6  1   
  6   4  24  1   
  7   5   7  1   
  8   5   8  1   
  9   5  25  1   
 10   6   9  1   
 11   6  26  1   
 12   6  27  1   
 13   7  10  2   
 14   7  11  1   
 15   8  12  1   
 16   8  28  1   
 17   8  29  1   
 18   9  12  1   
 19   9  13  1   
 20   9  30  1   
 21  11  14  ar  
 22  11  15  ar  
 23  12  31  1   
 24  12  32  1   
 25  13  16  ar  
 26  13  17  ar  
 27  14  18  ar  
 28  14  33  1   
 29  15  19  ar  
 30  15  34  1   
 31  16  20  ar  
 32  16  35  1   
 33  17  21  ar  
 34  17  36  1   
 35  18  22  ar  
 36  18  37  1   
 37  19  22  ar  
 38  19  38  1   
 39  20  23  ar  
 40  20  39  1   
 41  21  23  ar  
 42  21  40  1   
 43  22  41  1   
 44  23  42  1   
@<TRIPOS>SUBSTRUCTURE
  1 ****   5 GROUP 4 **** **** 0

# MOE 2024.06 (io_trps.svl 2023.06)
